MODEL 1
REMARK minimizedAffinity -0.581244171
REMARK minimizedRMSD -1
REMARK  0 active torsions:
REMARK  status: ('A' for Active; 'I' for Inactive)
ROOT
ATOM      1  N1  IND d   1      -0.740  -0.569  -0.648  0.00  0.00    -0.196 N 
ATOM      2  C2  IND d   1       0.220  -0.033   0.165  0.00  0.00     0.054 A 
ATOM      3  C3  IND d   1       0.342   1.294  -0.063  0.00  0.00    -0.031 A 
ATOM      4  C4  IND d   1      -1.002   2.811  -1.650  0.00  0.00     0.051 A 
ATOM      5  C5  IND d   1      -1.961   2.772  -2.623  0.00  0.00    -0.031 A 
ATOM      6  C6  IND d   1      -2.576   1.593  -2.993  0.00  0.00     0.015 A 
ATOM      7  C7  IND d   1      -2.262   0.407  -2.393  0.00  0.00    -0.016 A 
ATOM      8  C8  IND d   1      -1.284   0.442  -1.409  0.00  0.00    -0.047 A 
ATOM      9  C9  IND d   1      -0.626   1.628  -1.059  0.00  0.00    -0.096 A 
ATOM     10  HN1 IND d   1      -0.966  -1.398  -0.678  0.00  0.00     0.298 HD
ENDROOT
TORSDOF 0
ENDMDL
