MODEL 1
REMARK minimizedAffinity -2.80429792
REMARK minimizedRMSD -1
REMARK  0 active torsions:
REMARK  status: ('A' for Active; 'I' for Inactive)
ROOT
ATOM      1  N1  IND d   1      -1.175  -0.593   2.859  0.00  0.00    -0.196 N 
ATOM      2  C2  IND d   1      -0.753  -1.532   3.758  0.00  0.00     0.054 A 
ATOM      3  C3  IND d   1       0.341  -2.173   3.291  0.00  0.00    -0.031 A 
ATOM      4  C4  IND d   1       1.669  -1.773   1.122  0.00  0.00     0.051 A 
ATOM      5  C5  IND d   1       1.648  -1.046  -0.035  0.00  0.00    -0.031 A 
ATOM      6  C6  IND d   1       0.667  -0.109  -0.291  0.00  0.00     0.015 A 
ATOM      7  C7  IND d   1      -0.328   0.144   0.610  0.00  0.00    -0.016 A 
ATOM      8  C8  IND d   1      -0.314  -0.598   1.783  0.00  0.00    -0.047 A 
ATOM      9  C9  IND d   1       0.655  -1.579   2.029  0.00  0.00    -0.096 A 
ATOM     10  HN1 IND d   1      -1.863  -0.084   2.949  0.00  0.00     0.298 HD
ENDROOT
TORSDOF 0
ENDMDL
