MODEL 1
REMARK minimizedAffinity -1.91761744
REMARK minimizedRMSD -1
REMARK  0 active torsions:
REMARK  status: ('A' for Active; 'I' for Inactive)
ROOT
ATOM      1  N1  IND d   1       0.340  -0.710  -1.048  0.00  0.00    -0.196 N 
ATOM      2  C2  IND d   1       1.125  -0.473   0.046  0.00  0.00     0.054 A 
ATOM      3  C3  IND d   1       0.747   0.672   0.656  0.00  0.00    -0.031 A 
ATOM      4  C4  IND d   1      -1.197   2.262   0.093  0.00  0.00     0.051 A 
ATOM      5  C5  IND d   1      -2.173   2.483  -0.839  0.00  0.00    -0.031 A 
ATOM      6  C6  IND d   1      -2.366   1.632  -1.908  0.00  0.00     0.015 A 
ATOM      7  C7  IND d   1      -1.595   0.517  -2.079  0.00  0.00    -0.016 A 
ATOM      8  C8  IND d   1      -0.599   0.294  -1.139  0.00  0.00    -0.047 A 
ATOM      9  C9  IND d   1      -0.371   1.177  -0.076  0.00  0.00    -0.096 A 
ATOM     10  HN1 IND d   1       0.419  -1.375  -1.588  0.00  0.00     0.298 HD
ENDROOT
TORSDOF 0
ENDMDL
