MODEL 1
REMARK minimizedAffinity -3.49329066
REMARK minimizedRMSD -1
REMARK  0 active torsions:
REMARK  status: ('A' for Active; 'I' for Inactive)
ROOT
ATOM      1  N1  IND d   1       0.078   1.191  -1.415  0.00  0.00    -0.196 N 
ATOM      2  C2  IND d   1      -1.133   1.151  -0.783  0.00  0.00     0.054 A 
ATOM      3  C3  IND d   1      -1.138   0.187   0.165  0.00  0.00    -0.031 A 
ATOM      4  C4  IND d   1       0.764  -1.376   0.918  0.00  0.00     0.051 A 
ATOM      5  C5  IND d   1       2.046  -1.738   0.612  0.00  0.00    -0.031 A 
ATOM      6  C6  IND d   1       2.753  -1.128  -0.404  0.00  0.00     0.015 A 
ATOM      7  C7  IND d   1       2.205  -0.121  -1.148  0.00  0.00    -0.016 A 
ATOM      8  C8  IND d   1       0.901   0.244  -0.844  0.00  0.00    -0.047 A 
ATOM      9  C9  IND d   1       0.164  -0.400   0.157  0.00  0.00    -0.096 A 
ATOM     10  HN1 IND d   1       0.291   1.718  -2.060  0.00  0.00     0.298 HD
ENDROOT
TORSDOF 0
ENDMDL
