MODEL 1
REMARK minimizedAffinity -3.59060645
REMARK minimizedRMSD -1
REMARK  0 active torsions:
REMARK  status: ('A' for Active; 'I' for Inactive)
ROOT
ATOM      1  N1  IND d   1      -0.674   0.844  -3.321  0.00  0.00    -0.196 N 
ATOM      2  C2  IND d   1      -1.583   1.865  -3.304  0.00  0.00     0.054 A 
ATOM      3  C3  IND d   1      -1.842   2.242  -2.032  0.00  0.00    -0.031 A 
ATOM      4  C4  IND d   1      -0.812   1.391   0.169  0.00  0.00     0.051 A 
ATOM      5  C5  IND d   1       0.036   0.441   0.664  0.00  0.00    -0.031 A 
ATOM      6  C6  IND d   1       0.706  -0.440  -0.160  0.00  0.00     0.015 A 
ATOM      7  C7  IND d   1       0.561  -0.395  -1.518  0.00  0.00    -0.016 A 
ATOM      8  C8  IND d   1      -0.304   0.564  -2.024  0.00  0.00    -0.047 A 
ATOM      9  C9  IND d   1      -1.020   1.433  -1.190  0.00  0.00    -0.096 A 
ATOM     10  HN1 IND d   1      -0.383   0.444  -4.025  0.00  0.00     0.298 HD
ENDROOT
TORSDOF 0
ENDMDL
