MODEL 1
REMARK minimizedAffinity -2.19806886
REMARK minimizedRMSD -1
REMARK  0 active torsions:
REMARK  status: ('A' for Active; 'I' for Inactive)
ROOT
ATOM      1  N1  IND d   1      -2.460   0.720  -2.743  0.00  0.00    -0.196 N 
ATOM      2  C2  IND d   1      -2.920   2.004  -2.836  0.00  0.00     0.054 A 
ATOM      3  C3  IND d   1      -2.309   2.790  -1.920  0.00  0.00    -0.031 A 
ATOM      4  C4  IND d   1      -0.451   2.201  -0.239  0.00  0.00     0.051 A 
ATOM      5  C5  IND d   1       0.271   1.145   0.243  0.00  0.00    -0.031 A 
ATOM      6  C6  IND d   1       0.117  -0.132  -0.257  0.00  0.00     0.015 A 
ATOM      7  C7  IND d   1      -0.759  -0.399  -1.271  0.00  0.00    -0.016 A 
ATOM      8  C8  IND d   1      -1.498   0.669  -1.758  0.00  0.00    -0.047 A 
ATOM      9  C9  IND d   1      -1.377   1.959  -1.226  0.00  0.00    -0.096 A 
ATOM     10  HN1 IND d   1      -2.726   0.056  -3.220  0.00  0.00     0.298 HD
ENDROOT
TORSDOF 0
ENDMDL
