MODEL 1
REMARK minimizedAffinity -2.76657271
REMARK minimizedRMSD -1
REMARK  0 active torsions:
REMARK  status: ('A' for Active; 'I' for Inactive)
ROOT
ATOM      1  N1  IND d   1      -1.308  -0.598   2.098  0.00  0.00    -0.196 N 
ATOM      2  C2  IND d   1      -0.930  -1.627   2.915  0.00  0.00     0.054 A 
ATOM      3  C3  IND d   1       0.256  -2.135   2.514  0.00  0.00    -0.031 A 
ATOM      4  C4  IND d   1       1.803  -1.367   0.604  0.00  0.00     0.051 A 
ATOM      5  C5  IND d   1       1.869  -0.490  -0.442  0.00  0.00    -0.031 A 
ATOM      6  C6  IND d   1       0.860   0.416  -0.698  0.00  0.00     0.015 A 
ATOM      7  C7  IND d   1      -0.252   0.487   0.092  0.00  0.00    -0.016 A 
ATOM      8  C8  IND d   1      -0.326  -0.407   1.151  0.00  0.00    -0.047 A 
ATOM      9  C9  IND d   1       0.675  -1.357   1.391  0.00  0.00    -0.096 A 
ATOM     10  HN1 IND d   1      -2.036  -0.146   2.164  0.00  0.00     0.298 HD
ENDROOT
TORSDOF 0
ENDMDL
