MODEL 1
REMARK minimizedAffinity -3.76433229
REMARK minimizedRMSD -1
REMARK  0 active torsions:
REMARK  status: ('A' for Active; 'I' for Inactive)
ROOT
ATOM      1  N1  IND d   1      -1.527   3.062  -1.860  0.00  0.00    -0.196 N 
ATOM      2  C2  IND d   1      -2.055   2.669  -3.059  0.00  0.00     0.054 A 
ATOM      3  C3  IND d   1      -2.062   1.321  -3.151  0.00  0.00    -0.031 A 
ATOM      4  C4  IND d   1      -1.350  -0.441  -1.413  0.00  0.00     0.051 A 
ATOM      5  C5  IND d   1      -0.770  -0.567  -0.182  0.00  0.00    -0.031 A 
ATOM      6  C6  IND d   1      -0.408   0.533   0.569  0.00  0.00     0.015 A 
ATOM      7  C7  IND d   1      -0.623   1.805   0.119  0.00  0.00    -0.016 A 
ATOM      8  C8  IND d   1      -1.206   1.936  -1.133  0.00  0.00    -0.047 A 
ATOM      9  C9  IND d   1      -1.537   0.824  -1.918  0.00  0.00    -0.096 A 
ATOM     10  HN1 IND d   1      -1.414   3.875  -1.604  0.00  0.00     0.298 HD
ENDROOT
TORSDOF 0
ENDMDL
