MODEL 1
REMARK minimizedAffinity -4.07614994
REMARK minimizedRMSD -1
REMARK  0 active torsions:
REMARK  status: ('A' for Active; 'I' for Inactive)
ROOT
ATOM      1  N1  IND d   1      -1.000  -0.871   2.756  0.00  0.00    -0.196 N 
ATOM      2  C2  IND d   1      -0.360  -1.832   3.490  0.00  0.00     0.054 A 
ATOM      3  C3  IND d   1       0.814  -2.163   2.909  0.00  0.00    -0.031 A 
ATOM      4  C4  IND d   1       1.933  -1.183   0.807  0.00  0.00     0.051 A 
ATOM      5  C5  IND d   1       1.715  -0.309  -0.221  0.00  0.00    -0.031 A 
ATOM      6  C6  IND d   1       0.560   0.439  -0.309  0.00  0.00     0.015 A 
ATOM      7  C7  IND d   1      -0.421   0.350   0.638  0.00  0.00    -0.016 A 
ATOM      8  C8  IND d   1      -0.207  -0.542   1.679  0.00  0.00    -0.047 A 
ATOM      9  C9  IND d   1       0.945  -1.336   1.751  0.00  0.00    -0.096 A 
ATOM     10  HN1 IND d   1      -1.768  -0.530   2.938  0.00  0.00     0.298 HD
ENDROOT
TORSDOF 0
ENDMDL
