MODEL 1
REMARK minimizedAffinity -3.2807467
REMARK minimizedRMSD -1
REMARK  0 active torsions:
REMARK  status: ('A' for Active; 'I' for Inactive)
ROOT
ATOM      1  N1  IND d   1      -0.652   3.509  -4.994  0.00  0.00    -0.196 N 
ATOM      2  C2  IND d   1       0.131   4.511  -4.492  0.00  0.00     0.054 A 
ATOM      3  C3  IND d   1       0.070   4.523  -3.141  0.00  0.00    -0.031 A 
ATOM      4  C4  IND d   1      -1.168   2.928  -1.545  0.00  0.00     0.051 A 
ATOM      5  C5  IND d   1      -2.043   1.879  -1.536  0.00  0.00    -0.031 A 
ATOM      6  C6  IND d   1      -2.507   1.305  -2.702  0.00  0.00     0.015 A 
ATOM      7  C7  IND d   1      -2.101   1.755  -3.927  0.00  0.00    -0.016 A 
ATOM      8  C8  IND d   1      -1.218   2.825  -3.940  0.00  0.00    -0.047 A 
ATOM      9  C9  IND d   1      -0.777   3.438  -2.760  0.00  0.00    -0.096 A 
ATOM     10  HN1 IND d   1      -0.770   3.334  -5.827  0.00  0.00     0.298 HD
ENDROOT
TORSDOF 0
ENDMDL
