MODEL 1
REMARK minimizedAffinity 0.232767537
REMARK minimizedRMSD -1
REMARK  0 active torsions:
REMARK  status: ('A' for Active; 'I' for Inactive)
ROOT
ATOM      1  N1  IND d   1      -1.267   0.035   1.597  0.00  0.00    -0.196 N 
ATOM      2  C2  IND d   1      -1.675   1.187   0.985  0.00  0.00     0.054 A 
ATOM      3  C3  IND d   1      -0.743   1.604   0.099  0.00  0.00    -0.031 A 
ATOM      4  C4  IND d   1       1.479   0.497  -0.582  0.00  0.00     0.051 A 
ATOM      5  C5  IND d   1       2.300  -0.551  -0.272  0.00  0.00    -0.031 A 
ATOM      6  C6  IND d   1       1.965  -1.478   0.695  0.00  0.00     0.015 A 
ATOM      7  C7  IND d   1       0.787  -1.397   1.382  0.00  0.00    -0.016 A 
ATOM      8  C8  IND d   1      -0.045  -0.330   1.075  0.00  0.00    -0.047 A 
ATOM      9  C9  IND d   1       0.308   0.637   0.125  0.00  0.00    -0.096 A 
ATOM     10  HN1 IND d   1      -1.700  -0.391   2.206  0.00  0.00     0.298 HD
ENDROOT
TORSDOF 0
ENDMDL
