MODEL 1
REMARK minimizedAffinity 13.6397486
REMARK minimizedRMSD -1
REMARK  0 active torsions:
REMARK  status: ('A' for Active; 'I' for Inactive)
ROOT
ATOM      1  C   UNL d   1      -1.934  -0.111  -0.472  0.00  0.00     0.124 A 
ATOM      2  C1  UNL d   1      -2.755  -1.222  -0.609  0.00  0.00     0.062 A 
ATOM      3  C2  UNL d   1      -3.276  -1.850   0.518  0.00  0.00     0.162 A 
ATOM      4  C3  UNL d   1      -2.979  -1.368   1.793  0.00  0.00    -0.034 A 
ATOM      5  C4  UNL d   1      -2.151  -0.251   1.923  0.00  0.00     0.162 A 
ATOM      6  C5  UNL d   1      -1.632   0.373   0.793  0.00  0.00     0.062 A 
ATOM      7  F   UNL d   1      -0.839   1.445   0.927  0.00  0.00    -0.097 F 
ATOM      8  F1  UNL d   1      -1.845   0.238   3.133  0.00  0.00    -0.096 F 
ATOM      9  I   UNL d   1      -3.757  -2.305   3.481  0.00  0.00    -0.060 I 
ATOM     10  F2  UNL d   1      -4.067  -2.921   0.356  0.00  0.00    -0.096 F 
ATOM     11  F3  UNL d   1      -3.047  -1.692  -1.831  0.00  0.00    -0.097 F 
ATOM     12  F4  UNL d   1      -1.432   0.491  -1.559  0.00  0.00    -0.092 F 
ENDROOT
TORSDOF 0
ENDMDL
