MODEL 1
REMARK minimizedAffinity 2.08280182
REMARK minimizedRMSD -1
REMARK  0 active torsions:
REMARK  status: ('A' for Active; 'I' for Inactive)
ROOT
ATOM      1  C   UNL d   1      -1.850  -0.313   0.194  0.00  0.00     0.124 A 
ATOM      2  C1  UNL d   1      -1.929   0.113   1.513  0.00  0.00     0.062 A 
ATOM      3  C2  UNL d   1      -0.828  -0.012   2.355  0.00  0.00     0.162 A 
ATOM      4  C3  UNL d   1       0.363  -0.563   1.880  0.00  0.00    -0.034 A 
ATOM      5  C4  UNL d   1       0.434  -0.989   0.553  0.00  0.00     0.162 A 
ATOM      6  C5  UNL d   1      -0.670  -0.863  -0.285  0.00  0.00     0.062 A 
ATOM      7  F   UNL d   1      -0.592  -1.274  -1.559  0.00  0.00    -0.097 F 
ATOM      8  F1  UNL d   1       1.563  -1.524   0.064  0.00  0.00    -0.096 F 
ATOM      9  I   UNL d   1       2.012  -0.750   3.136  0.00  0.00    -0.060 I 
ATOM     10  F2  UNL d   1      -0.932   0.408   3.624  0.00  0.00    -0.096 F 
ATOM     11  F3  UNL d   1      -3.069   0.644   1.978  0.00  0.00    -0.097 F 
ATOM     12  F4  UNL d   1      -2.912  -0.193  -0.614  0.00  0.00    -0.092 F 
ENDROOT
TORSDOF 0
ENDMDL
