MODEL 1
REMARK minimizedAffinity 0.228945404
REMARK minimizedRMSD -1
REMARK  0 active torsions:
REMARK  status: ('A' for Active; 'I' for Inactive)
ROOT
ATOM      1  C   UNL d   1      -1.932  -0.507   0.236  0.00  0.00     0.124 A 
ATOM      2  C1  UNL d   1      -0.682  -0.938  -0.189  0.00  0.00     0.062 A 
ATOM      3  C2  UNL d   1       0.360  -1.070   0.723  0.00  0.00     0.162 A 
ATOM      4  C3  UNL d   1       0.159  -0.773   2.071  0.00  0.00    -0.034 A 
ATOM      5  C4  UNL d   1      -1.100  -0.340   2.491  0.00  0.00     0.162 A 
ATOM      6  C5  UNL d   1      -2.139  -0.209   1.576  0.00  0.00     0.062 A 
ATOM      7  F   UNL d   1      -3.345   0.208   1.989  0.00  0.00    -0.097 F 
ATOM      8  F1  UNL d   1      -1.329  -0.045   3.780  0.00  0.00    -0.096 F 
ATOM      9  I   UNL d   1       1.716  -0.970   3.438  0.00  0.00    -0.060 I 
ATOM     10  F2  UNL d   1       1.557  -1.488   0.284  0.00  0.00    -0.096 F 
ATOM     11  F3  UNL d   1      -0.479  -1.226  -1.483  0.00  0.00    -0.097 F 
ATOM     12  F4  UNL d   1      -2.933  -0.379  -0.644  0.00  0.00    -0.092 F 
ENDROOT
TORSDOF 0
ENDMDL
