MODEL 1
REMARK minimizedAffinity 7.80639505
REMARK minimizedRMSD -1
REMARK  0 active torsions:
REMARK  status: ('A' for Active; 'I' for Inactive)
ROOT
ATOM      1  C   UNL d   1      -2.072  -0.307   0.113  0.00  0.00     0.124 A 
ATOM      2  C1  UNL d   1      -0.849  -0.781  -0.341  0.00  0.00     0.062 A 
ATOM      3  C2  UNL d   1       0.190  -1.010   0.556  0.00  0.00     0.162 A 
ATOM      4  C3  UNL d   1       0.010  -0.767   1.918  0.00  0.00    -0.034 A 
ATOM      5  C4  UNL d   1      -1.223  -0.289   2.367  0.00  0.00     0.162 A 
ATOM      6  C5  UNL d   1      -2.258  -0.062   1.466  0.00  0.00     0.062 A 
ATOM      7  F   UNL d   1      -3.439   0.396   1.907  0.00  0.00    -0.097 F 
ATOM      8  F1  UNL d   1      -1.430  -0.045   3.669  0.00  0.00    -0.096 F 
ATOM      9  I   UNL d   1       1.561  -1.108   3.263  0.00  0.00    -0.060 I 
ATOM     10  F2  UNL d   1       1.361  -1.468   0.089  0.00  0.00    -0.096 F 
ATOM     11  F3  UNL d   1      -0.667  -1.017  -1.649  0.00  0.00    -0.097 F 
ATOM     12  F4  UNL d   1      -3.070  -0.086  -0.753  0.00  0.00    -0.092 F 
ENDROOT
TORSDOF 0
ENDMDL
