MODEL 1
REMARK minimizedAffinity 8.3727169
REMARK minimizedRMSD -1
REMARK  0 active torsions:
REMARK  status: ('A' for Active; 'I' for Inactive)
ROOT
ATOM      1  C   UNL d   1      -1.714  -0.023   0.285  0.00  0.00     0.124 A 
ATOM      2  C1  UNL d   1      -1.756   0.335   1.625  0.00  0.00     0.062 A 
ATOM      3  C2  UNL d   1      -0.640   0.146   2.435  0.00  0.00     0.162 A 
ATOM      4  C3  UNL d   1       0.529  -0.403   1.907  0.00  0.00    -0.034 A 
ATOM      5  C4  UNL d   1       0.563  -0.760   0.558  0.00  0.00     0.162 A 
ATOM      6  C5  UNL d   1      -0.555  -0.570  -0.248  0.00  0.00     0.062 A 
ATOM      7  F   UNL d   1      -0.513  -0.916  -1.543  0.00  0.00    -0.097 F 
ATOM      8  F1  UNL d   1       1.670  -1.290   0.017  0.00  0.00    -0.096 F 
ATOM      9  I   UNL d   1       2.200  -0.686   3.115  0.00  0.00    -0.060 I 
ATOM     10  F2  UNL d   1      -0.709   0.500   3.727  0.00  0.00    -0.096 F 
ATOM     11  F3  UNL d   1      -2.875   0.862   2.142  0.00  0.00    -0.097 F 
ATOM     12  F4  UNL d   1      -2.790   0.159  -0.492  0.00  0.00    -0.092 F 
ENDROOT
TORSDOF 0
ENDMDL
