MODEL 1
REMARK minimizedAffinity -1.06124437
REMARK minimizedRMSD -1
REMARK  0 active torsions:
REMARK  status: ('A' for Active; 'I' for Inactive)
ROOT
ATOM      1  C   UNL d   1       2.369  -1.371   4.674  0.00  0.00     0.124 A 
ATOM      2  C1  UNL d   1       1.040  -1.771   4.666  0.00  0.00     0.062 A 
ATOM      3  C2  UNL d   1       0.189  -1.353   3.647  0.00  0.00     0.162 A 
ATOM      4  C3  UNL d   1       0.664  -0.529   2.627  0.00  0.00    -0.034 A 
ATOM      5  C4  UNL d   1       2.002  -0.129   2.642  0.00  0.00     0.162 A 
ATOM      6  C5  UNL d   1       2.849  -0.550   3.662  0.00  0.00     0.062 A 
ATOM      7  F   UNL d   1       4.132  -0.162   3.668  0.00  0.00    -0.097 F 
ATOM      8  F1  UNL d   1       2.492   0.662   1.677  0.00  0.00    -0.096 F 
ATOM      9  I   UNL d   1      -0.605   0.099   1.102  0.00  0.00    -0.060 I 
ATOM     10  F2  UNL d   1      -1.090  -1.756   3.665  0.00  0.00    -0.096 F 
ATOM     11  F3  UNL d   1       0.575  -2.563   5.642  0.00  0.00    -0.097 F 
ATOM     12  F4  UNL d   1       3.186  -1.774   5.656  0.00  0.00    -0.092 F 
ENDROOT
TORSDOF 0
ENDMDL
