MODEL 1
REMARK minimizedAffinity -0.201126307
REMARK minimizedRMSD -1
REMARK  0 active torsions:
REMARK  status: ('A' for Active; 'I' for Inactive)
ROOT
ATOM      1  C   UNL d   1       2.616  -0.396   3.136  0.00  0.00     0.124 A 
ATOM      2  C1  UNL d   1       2.726   0.123   1.853  0.00  0.00     0.062 A 
ATOM      3  C2  UNL d   1       1.582   0.422   1.119  0.00  0.00     0.162 A 
ATOM      4  C3  UNL d   1       0.317   0.204   1.666  0.00  0.00    -0.034 A 
ATOM      5  C4  UNL d   1       0.215  -0.319   2.956  0.00  0.00     0.162 A 
ATOM      6  C5  UNL d   1       1.362  -0.617   3.686  0.00  0.00     0.062 A 
ATOM      7  F   UNL d   1       1.254  -1.119   4.925  0.00  0.00    -0.097 F 
ATOM      8  F1  UNL d   1      -0.985  -0.541   3.513  0.00  0.00    -0.096 F 
ATOM      9  I   UNL d   1      -1.396   0.651   0.572  0.00  0.00    -0.060 I 
ATOM     10  F2  UNL d   1       1.718   0.923  -0.118  0.00  0.00    -0.096 F 
ATOM     11  F3  UNL d   1       3.937   0.336   1.319  0.00  0.00    -0.097 F 
ATOM     12  F4  UNL d   1       3.719  -0.685   3.839  0.00  0.00    -0.092 F 
ENDROOT
TORSDOF 0
ENDMDL
