MODEL 1
REMARK minimizedAffinity 8.33883762
REMARK minimizedRMSD -1
REMARK  0 active torsions:
REMARK  status: ('A' for Active; 'I' for Inactive)
ROOT
ATOM      1  C   UNL d   1      -0.792   0.328   0.407  0.00  0.00     0.124 A 
ATOM      2  C1  UNL d   1       0.515   0.164   0.844  0.00  0.00     0.062 A 
ATOM      3  C2  UNL d   1       0.771  -0.368   2.104  0.00  0.00     0.162 A 
ATOM      4  C3  UNL d   1      -0.284  -0.741   2.938  0.00  0.00    -0.034 A 
ATOM      5  C4  UNL d   1      -1.596  -0.573   2.492  0.00  0.00     0.162 A 
ATOM      6  C5  UNL d   1      -1.846  -0.041   1.231  0.00  0.00     0.062 A 
ATOM      7  F   UNL d   1      -3.110   0.117   0.812  0.00  0.00    -0.097 F 
ATOM      8  F1  UNL d   1      -2.633  -0.921   3.268  0.00  0.00    -0.096 F 
ATOM      9  I   UNL d   1       0.094  -1.537   4.823  0.00  0.00    -0.060 I 
ATOM     10  F2  UNL d   1       2.044  -0.515   2.500  0.00  0.00    -0.096 F 
ATOM     11  F3  UNL d   1       1.535   0.519   0.049  0.00  0.00    -0.097 F 
ATOM     12  F4  UNL d   1      -1.035   0.840  -0.806  0.00  0.00    -0.092 F 
ENDROOT
TORSDOF 0
ENDMDL
