MODEL 1
REMARK minimizedAffinity 12.4199066
REMARK minimizedRMSD -1
REMARK  0 active torsions:
REMARK  status: ('A' for Active; 'I' for Inactive)
ROOT
ATOM      1  C   UNL d   1      -1.787  -0.166   0.458  0.00  0.00     0.124 A 
ATOM      2  C1  UNL d   1      -0.547  -0.568  -0.020  0.00  0.00     0.062 A 
ATOM      3  C2  UNL d   1       0.510  -0.774   0.861  0.00  0.00     0.162 A 
ATOM      4  C3  UNL d   1       0.333  -0.579   2.231  0.00  0.00    -0.034 A 
ATOM      5  C4  UNL d   1      -0.916  -0.173   2.704  0.00  0.00     0.162 A 
ATOM      6  C5  UNL d   1      -1.970   0.031   1.819  0.00  0.00     0.062 A 
ATOM      7  F   UNL d   1      -3.167   0.420   2.283  0.00  0.00    -0.097 F 
ATOM      8  F1  UNL d   1      -1.121   0.023   4.015  0.00  0.00    -0.096 F 
ATOM      9  I   UNL d   1       1.911  -0.886   3.552  0.00  0.00    -0.060 I 
ATOM     10  F2  UNL d   1       1.697  -1.162   0.371  0.00  0.00    -0.096 F 
ATOM     11  F3  UNL d   1      -0.367  -0.758  -1.335  0.00  0.00    -0.097 F 
ATOM     12  F4  UNL d   1      -2.802   0.032  -0.392  0.00  0.00    -0.092 F 
ENDROOT
TORSDOF 0
ENDMDL
