MODEL 1
REMARK minimizedAffinity 2.54410887
REMARK minimizedRMSD -1
REMARK  0 active torsions:
REMARK  status: ('A' for Active; 'I' for Inactive)
ROOT
ATOM      1  C   UNL d   1      -0.492  -2.017   4.923  0.00  0.00     0.124 A 
ATOM      2  C1  UNL d   1       0.373  -1.537   3.949  0.00  0.00     0.062 A 
ATOM      3  C2  UNL d   1      -0.129  -0.882   2.829  0.00  0.00     0.162 A 
ATOM      4  C3  UNL d   1      -1.504  -0.702   2.676  0.00  0.00    -0.034 A 
ATOM      5  C4  UNL d   1      -2.368  -1.189   3.659  0.00  0.00     0.162 A 
ATOM      6  C5  UNL d   1      -1.861  -1.843   4.777  0.00  0.00     0.062 A 
ATOM      7  F   UNL d   1      -2.698  -2.306   5.716  0.00  0.00    -0.097 F 
ATOM      8  F1  UNL d   1      -3.695  -1.033   3.543  0.00  0.00    -0.096 F 
ATOM      9  I   UNL d   1      -2.259   0.277   1.001  0.00  0.00    -0.060 I 
ATOM     10  F2  UNL d   1       0.729  -0.428   1.904  0.00  0.00    -0.096 F 
ATOM     11  F3  UNL d   1       1.696  -1.705   4.088  0.00  0.00    -0.097 F 
ATOM     12  F4  UNL d   1      -0.006  -2.648   6.000  0.00  0.00    -0.092 F 
ENDROOT
TORSDOF 0
ENDMDL
