MODEL 1
REMARK minimizedAffinity 4.23680496
REMARK minimizedRMSD -1
REMARK  0 active torsions:
REMARK  status: ('A' for Active; 'I' for Inactive)
ROOT
ATOM      1  C   UNL d   1      -1.904   0.036   0.124  0.00  0.00     0.124 A 
ATOM      2  C1  UNL d   1      -0.648  -0.397  -0.278  0.00  0.00     0.062 A 
ATOM      3  C2  UNL d   1       0.329  -0.685   0.671  0.00  0.00     0.162 A 
ATOM      4  C3  UNL d   1       0.054  -0.543   2.031  0.00  0.00    -0.034 A 
ATOM      5  C4  UNL d   1      -1.212  -0.106   2.427  0.00  0.00     0.162 A 
ATOM      6  C5  UNL d   1      -2.185   0.181   1.475  0.00  0.00     0.062 A 
ATOM      7  F   UNL d   1      -3.398   0.599   1.864  0.00  0.00    -0.097 F 
ATOM      8  F1  UNL d   1      -1.510   0.043   3.726  0.00  0.00    -0.096 F 
ATOM      9  I   UNL d   1       1.512  -0.972   3.452  0.00  0.00    -0.060 I 
ATOM     10  F2  UNL d   1       1.534  -1.102   0.254  0.00  0.00    -0.096 F 
ATOM     11  F3  UNL d   1      -0.374  -0.538  -1.583  0.00  0.00    -0.097 F 
ATOM     12  F4  UNL d   1      -2.842   0.313  -0.791  0.00  0.00    -0.092 F 
ENDROOT
TORSDOF 0
ENDMDL
