MODEL 1
REMARK minimizedAffinity 8.2388792
REMARK minimizedRMSD -1
REMARK  0 active torsions:
REMARK  status: ('A' for Active; 'I' for Inactive)
ROOT
ATOM      1  C2' OXE d   1       1.809   5.135  -1.878  0.00  0.00     0.078 C 
ATOM      2  C1' OXE d   1       2.264   3.000  -3.642  0.00  0.00     0.078 C 
ATOM      3  C1  OXE d   1       3.372   4.006  -3.454  0.00  0.00    -0.078 A 
ATOM      4  C2  OXE d   1       3.123   5.073  -2.625  0.00  0.00    -0.078 A 
ATOM      5  C3  OXE d   1       4.131   6.000  -2.374  0.00  0.00     0.003 A 
ATOM      6  C4  OXE d   1       5.340   5.941  -3.076  0.00  0.00    -0.002 A 
ATOM      7  C5  OXE d   1       5.599   4.884  -3.956  0.00  0.00    -0.002 A 
ATOM      8  C6  OXE d   1       4.644   3.887  -4.124  0.00  0.00     0.003 A 
ENDROOT
TORSDOF 0
ENDMDL
