MODEL 1
REMARK minimizedAffinity 5.14207935
REMARK minimizedRMSD -1
REMARK  0 active torsions:
REMARK  status: ('A' for Active; 'I' for Inactive)
ROOT
ATOM      1  C2' OXE d   1       0.807  -2.668   1.508  0.00  0.00     0.078 C 
ATOM      2  C1' OXE d   1      -1.701  -3.254   0.392  0.00  0.00     0.078 C 
ATOM      3  C1  OXE d   1      -1.630  -2.158   1.425  0.00  0.00    -0.078 A 
ATOM      4  C2  OXE d   1      -0.406  -1.910   2.000  0.00  0.00    -0.078 A 
ATOM      5  C3  OXE d   1      -0.274  -0.872   2.919  0.00  0.00     0.003 A 
ATOM      6  C4  OXE d   1      -1.403  -0.182   3.376  0.00  0.00    -0.002 A 
ATOM      7  C5  OXE d   1      -2.665  -0.446   2.833  0.00  0.00    -0.002 A 
ATOM      8  C6  OXE d   1      -2.788  -1.400   1.828  0.00  0.00     0.003 A 
ENDROOT
TORSDOF 0
ENDMDL
