MODEL 1
REMARK minimizedAffinity 11.3031445
REMARK minimizedRMSD -1
REMARK  0 active torsions:
REMARK  status: ('A' for Active; 'I' for Inactive)
ROOT
ATOM      1  C2' OXE d   1       0.520  -3.292   1.607  0.00  0.00     0.078 C 
ATOM      2  C1' OXE d   1       1.033  -1.808   3.934  0.00  0.00     0.078 C 
ATOM      3  C1  OXE d   1      -0.138  -1.393   3.079  0.00  0.00    -0.078 A 
ATOM      4  C2  OXE d   1      -0.354  -2.095   1.918  0.00  0.00    -0.078 A 
ATOM      5  C3  OXE d   1      -1.453  -1.789   1.121  0.00  0.00     0.003 A 
ATOM      6  C4  OXE d   1      -2.250  -0.675   1.410  0.00  0.00    -0.002 A 
ATOM      7  C5  OXE d   1      -2.024   0.079   2.567  0.00  0.00    -0.002 A 
ATOM      8  C6  OXE d   1      -1.000  -0.292   3.432  0.00  0.00     0.003 A 
ENDROOT
TORSDOF 0
ENDMDL
