MODEL 1
REMARK minimizedAffinity 4.51211977
REMARK minimizedRMSD -1
REMARK  0 active torsions:
REMARK  status: ('A' for Active; 'I' for Inactive)
ROOT
ATOM      1  C2' OXE d   1      -5.999  -5.991   5.905  0.00  0.00     0.078 C 
ATOM      2  C1' OXE d   1      -5.411  -3.246   5.875  0.00  0.00     0.078 C 
ATOM      3  C1  OXE d   1      -5.534  -3.954   4.549  0.00  0.00    -0.078 A 
ATOM      4  C2  OXE d   1      -5.776  -5.307   4.574  0.00  0.00    -0.078 A 
ATOM      5  C3  OXE d   1      -5.953  -5.998   3.379  0.00  0.00     0.003 A 
ATOM      6  C4  OXE d   1      -5.736  -5.359   2.152  0.00  0.00    -0.002 A 
ATOM      7  C5  OXE d   1      -5.449  -3.991   2.104  0.00  0.00    -0.002 A 
ATOM      8  C6  OXE d   1      -5.387  -3.266   3.290  0.00  0.00     0.003 A 
ENDROOT
TORSDOF 0
ENDMDL
