MODEL 1
REMARK minimizedAffinity 9.41805649
REMARK minimizedRMSD -1
REMARK  0 active torsions:
REMARK  status: ('A' for Active; 'I' for Inactive)
ROOT
ATOM      1  C2' OXE d   1       2.913   0.954   1.849  0.00  0.00     0.078 C 
ATOM      2  C1' OXE d   1       3.929   1.137  -0.761  0.00  0.00     0.078 C 
ATOM      3  C1  OXE d   1       4.504   2.060   0.284  0.00  0.00    -0.078 A 
ATOM      4  C2  OXE d   1       3.968   1.996   1.548  0.00  0.00    -0.078 A 
ATOM      5  C3  OXE d   1       4.500   2.787   2.562  0.00  0.00     0.003 A 
ATOM      6  C4  OXE d   1       5.469   3.756   2.273  0.00  0.00    -0.002 A 
ATOM      7  C5  OXE d   1       6.000   3.865   0.983  0.00  0.00    -0.002 A 
ATOM      8  C6  OXE d   1       5.560   2.998  -0.011  0.00  0.00     0.003 A 
ENDROOT
TORSDOF 0
ENDMDL
