MODEL 1
REMARK minimizedAffinity 11.2068205
REMARK minimizedRMSD -1
REMARK  0 active torsions:
REMARK  status: ('A' for Active; 'I' for Inactive)
ROOT
ATOM      1  C2' OXE d   1      -1.357  -2.873  -3.157  0.00  0.00     0.078 C 
ATOM      2  C1' OXE d   1       0.710  -4.497  -4.141  0.00  0.00     0.078 C 
ATOM      3  C1  OXE d   1      -0.688  -4.753  -4.647  0.00  0.00    -0.078 A 
ATOM      4  C2  OXE d   1      -1.700  -3.984  -4.125  0.00  0.00    -0.078 A 
ATOM      5  C3  OXE d   1      -3.000  -4.142  -4.598  0.00  0.00     0.003 A 
ATOM      6  C4  OXE d   1      -3.310  -5.179  -5.486  0.00  0.00    -0.002 A 
ATOM      7  C5  OXE d   1      -2.300  -6.000  -6.000  0.00  0.00    -0.002 A 
ATOM      8  C6  OXE d   1      -0.981  -5.773  -5.624  0.00  0.00     0.003 A 
ENDROOT
TORSDOF 0
ENDMDL
