MODEL 1
REMARK minimizedAffinity 9.1431818
REMARK minimizedRMSD -1
REMARK  0 active torsions:
REMARK  status: ('A' for Active; 'I' for Inactive)
ROOT
ATOM      1  C2' OXE d   1      -4.475   0.082  -2.381  0.00  0.00     0.078 C 
ATOM      2  C1' OXE d   1      -5.639   1.384  -0.183  0.00  0.00     0.078 C 
ATOM      3  C1  OXE d   1      -4.347   0.638   0.044  0.00  0.00    -0.078 A 
ATOM      4  C2  OXE d   1      -3.809  -0.035  -1.027  0.00  0.00    -0.078 A 
ATOM      5  C3  OXE d   1      -2.591  -0.693  -0.886  0.00  0.00     0.003 A 
ATOM      6  C4  OXE d   1      -1.987  -0.805   0.372  0.00  0.00    -0.002 A 
ATOM      7  C5  OXE d   1      -2.539  -0.160   1.484  0.00  0.00    -0.002 A 
ATOM      8  C6  OXE d   1      -3.693   0.599   1.329  0.00  0.00     0.003 A 
ENDROOT
TORSDOF 0
ENDMDL
