MODEL 1
REMARK minimizedAffinity 11.1083698
REMARK minimizedRMSD -1
REMARK  0 active torsions:
REMARK  status: ('A' for Active; 'I' for Inactive)
ROOT
ATOM      1  C2' OXE d   1      -3.984   2.545   2.961  0.00  0.00     0.078 C 
ATOM      2  C1' OXE d   1      -5.097   1.482   0.613  0.00  0.00     0.078 C 
ATOM      3  C1  OXE d   1      -3.898   0.782   1.203  0.00  0.00    -0.078 A 
ATOM      4  C2  OXE d   1      -3.332   1.336   2.326  0.00  0.00    -0.078 A 
ATOM      5  C3  OXE d   1      -2.258   0.700   2.942  0.00  0.00     0.003 A 
ATOM      6  C4  OXE d   1      -1.654  -0.412   2.342  0.00  0.00    -0.002 A 
ATOM      7  C5  OXE d   1      -2.191  -0.969   1.177  0.00  0.00    -0.002 A 
ATOM      8  C6  OXE d   1      -3.336  -0.410   0.619  0.00  0.00     0.003 A 
ENDROOT
TORSDOF 0
ENDMDL
