MODEL 1
REMARK minimizedAffinity 11.9969349
REMARK minimizedRMSD -1
REMARK  0 active torsions:
REMARK  status: ('A' for Active; 'I' for Inactive)
ROOT
ATOM      1  C2' OXE d   1       5.175   5.853  -1.906  0.00  0.00     0.078 C 
ATOM      2  C1' OXE d   1       2.535   4.957  -2.236  0.00  0.00     0.078 C 
ATOM      3  C1  OXE d   1       3.583   4.424  -3.181  0.00  0.00    -0.078 A 
ATOM      4  C2  OXE d   1       4.863   4.903  -3.042  0.00  0.00    -0.078 A 
ATOM      5  C3  OXE d   1       5.879   4.403  -3.852  0.00  0.00     0.003 A 
ATOM      6  C4  OXE d   1       5.580   3.532  -4.906  0.00  0.00    -0.002 A 
ATOM      7  C5  OXE d   1       4.275   3.062  -5.091  0.00  0.00    -0.002 A 
ATOM      8  C6  OXE d   1       3.275   3.464  -4.212  0.00  0.00     0.003 A 
ENDROOT
TORSDOF 0
ENDMDL
