MODEL 1
REMARK minimizedAffinity 8.24311638
REMARK minimizedRMSD -1
REMARK  0 active torsions:
REMARK  status: ('A' for Active; 'I' for Inactive)
ROOT
ATOM      1  C2' OXE d   1      -5.115   5.960  -2.457  0.00  0.00     0.078 C 
ATOM      2  C1' OXE d   1      -2.387   5.604  -1.899  0.00  0.00     0.078 C 
ATOM      3  C1  OXE d   1      -2.800   5.713  -3.345  0.00  0.00    -0.078 A 
ATOM      4  C2  OXE d   1      -4.142   5.840  -3.611  0.00  0.00    -0.078 A 
ATOM      5  C3  OXE d   1      -4.572   6.000  -4.925  0.00  0.00     0.003 A 
ATOM      6  C4  OXE d   1      -3.668   5.878  -5.987  0.00  0.00    -0.002 A 
ATOM      7  C5  OXE d   1      -2.301   5.709  -5.739  0.00  0.00    -0.002 A 
ATOM      8  C6  OXE d   1      -1.847   5.667  -4.426  0.00  0.00     0.003 A 
ENDROOT
TORSDOF 0
ENDMDL
