MODEL 1
REMARK minimizedAffinity 8.95991421
REMARK minimizedRMSD -1
REMARK  0 active torsions:
REMARK  status: ('A' for Active; 'I' for Inactive)
ROOT
ATOM      1  C2' OXE d   1       4.515   6.000  -1.892  0.00  0.00     0.078 C 
ATOM      2  C1' OXE d   1       5.995   5.610  -4.246  0.00  0.00     0.078 C 
ATOM      3  C1  OXE d   1       4.877   4.642  -3.949  0.00  0.00    -0.078 A 
ATOM      4  C2  OXE d   1       4.189   4.812  -2.772  0.00  0.00    -0.078 A 
ATOM      5  C3  OXE d   1       3.113   3.980  -2.475  0.00  0.00     0.003 A 
ATOM      6  C4  OXE d   1       2.824   2.878  -3.290  0.00  0.00    -0.002 A 
ATOM      7  C5  OXE d   1       3.538   2.663  -4.473  0.00  0.00    -0.002 A 
ATOM      8  C6  OXE d   1       4.538   3.558  -4.838  0.00  0.00     0.003 A 
ENDROOT
TORSDOF 0
ENDMDL
