MODEL 1
REMARK minimizedAffinity 2.5072403
REMARK minimizedRMSD -1
REMARK  0 active torsions:
REMARK  status: ('A' for Active; 'I' for Inactive)
ROOT
ATOM      1  C2' OXE d   1      -2.251  -0.373   4.199  0.00  0.00     0.078 C 
ATOM      2  C1' OXE d   1      -0.557  -1.917   2.579  0.00  0.00     0.078 C 
ATOM      3  C1  OXE d   1      -1.532  -0.992   1.896  0.00  0.00    -0.078 A 
ATOM      4  C2  OXE d   1      -2.389  -0.274   2.695  0.00  0.00    -0.078 A 
ATOM      5  C3  OXE d   1      -3.271   0.635   2.118  0.00  0.00     0.003 A 
ATOM      6  C4  OXE d   1      -3.400   0.712   0.726  0.00  0.00    -0.002 A 
ATOM      7  C5  OXE d   1      -2.564  -0.039  -0.107  0.00  0.00    -0.002 A 
ATOM      8  C6  OXE d   1      -1.597  -0.862   0.461  0.00  0.00     0.003 A 
ENDROOT
TORSDOF 0
ENDMDL
