MODEL 1
REMARK minimizedAffinity 7.85560894
REMARK minimizedRMSD -1
REMARK  0 active torsions:
REMARK  status: ('A' for Active; 'I' for Inactive)
ROOT
ATOM      1  C2' OXE d   1      -4.251   0.393   0.912  0.00  0.00     0.078 C 
ATOM      2  C1' OXE d   1      -2.815   1.229   3.175  0.00  0.00     0.078 C 
ATOM      3  C1  OXE d   1      -2.208   0.148   2.316  0.00  0.00    -0.078 A 
ATOM      4  C2  OXE d   1      -2.939  -0.288   1.237  0.00  0.00    -0.078 A 
ATOM      5  C3  OXE d   1      -2.402  -1.245   0.381  0.00  0.00     0.003 A 
ATOM      6  C4  OXE d   1      -1.193  -1.877   0.695  0.00  0.00    -0.002 A 
ATOM      7  C5  OXE d   1      -0.451  -1.477   1.811  0.00  0.00    -0.002 A 
ATOM      8  C6  OXE d   1      -0.923  -0.438   2.606  0.00  0.00     0.003 A 
ENDROOT
TORSDOF 0
ENDMDL
