MODEL 1
REMARK minimizedAffinity 3.37635756
REMARK minimizedRMSD -1
REMARK  0 active torsions:
REMARK  status: ('A' for Active; 'I' for Inactive)
ROOT
ATOM      1  C2' OXE d   1      -4.064   5.998  -2.302  0.00  0.00     0.078 C 
ATOM      2  C1' OXE d   1      -1.262   5.992  -2.134  0.00  0.00     0.078 C 
ATOM      3  C1  OXE d   1      -1.884   5.984  -3.508  0.00  0.00    -0.078 A 
ATOM      4  C2  OXE d   1      -3.256   5.939  -3.580  0.00  0.00    -0.078 A 
ATOM      5  C3  OXE d   1      -3.883   5.985  -4.822  0.00  0.00     0.003 A 
ATOM      6  C4  OXE d   1      -3.128   5.920  -6.000  0.00  0.00    -0.002 A 
ATOM      7  C5  OXE d   1      -1.730   5.925  -5.948  0.00  0.00    -0.002 A 
ATOM      8  C6  OXE d   1      -1.094   5.999  -4.714  0.00  0.00     0.003 A 
ENDROOT
TORSDOF 0
ENDMDL
