MODEL 1
REMARK minimizedAffinity 5.88436174
REMARK minimizedRMSD -1
REMARK  0 active torsions:
REMARK  status: ('A' for Active; 'I' for Inactive)
ROOT
ATOM      1  C2' OXE d   1       3.016   1.893  -1.470  0.00  0.00     0.078 C 
ATOM      2  C1' OXE d   1       2.000   2.255   1.122  0.00  0.00     0.078 C 
ATOM      3  C1  OXE d   1       3.402   2.735   0.843  0.00  0.00    -0.078 A 
ATOM      4  C2  OXE d   1       3.908   2.511  -0.415  0.00  0.00    -0.078 A 
ATOM      5  C3  OXE d   1       5.176   2.983  -0.742  0.00  0.00     0.003 A 
ATOM      6  C4  OXE d   1       5.999   3.545   0.241  0.00  0.00    -0.002 A 
ATOM      7  C5  OXE d   1       5.518   3.746   1.540  0.00  0.00    -0.002 A 
ATOM      8  C6  OXE d   1       4.210   3.386   1.845  0.00  0.00     0.003 A 
ENDROOT
TORSDOF 0
ENDMDL
