MODEL 1
REMARK minimizedAffinity 6.87575102
REMARK minimizedRMSD -1
REMARK  0 active torsions:
REMARK  status: ('A' for Active; 'I' for Inactive)
ROOT
ATOM      1  C2' OXE d   1      -3.125   1.538   3.580  0.00  0.00     0.078 C 
ATOM      2  C1' OXE d   1      -4.681   0.397   1.541  0.00  0.00     0.078 C 
ATOM      3  C1  OXE d   1      -3.376  -0.274   1.889  0.00  0.00    -0.078 A 
ATOM      4  C2  OXE d   1      -2.599   0.318   2.856  0.00  0.00    -0.078 A 
ATOM      5  C3  OXE d   1      -1.411  -0.290   3.253  0.00  0.00     0.003 A 
ATOM      6  C4  OXE d   1      -0.927  -1.413   2.570  0.00  0.00    -0.002 A 
ATOM      7  C5  OXE d   1      -1.683  -2.008   1.556  0.00  0.00    -0.002 A 
ATOM      8  C6  OXE d   1      -2.927  -1.477   1.232  0.00  0.00     0.003 A 
ENDROOT
TORSDOF 0
ENDMDL
