MODEL 1
REMARK minimizedAffinity 4.94245195
REMARK minimizedRMSD -1
REMARK  0 active torsions:
REMARK  status: ('A' for Active; 'I' for Inactive)
ROOT
ATOM      1  C2' OXE d   1       1.246   4.605  -2.451  0.00  0.00     0.078 C 
ATOM      2  C1' OXE d   1       3.466   3.302  -3.572  0.00  0.00     0.078 C 
ATOM      3  C1  OXE d   1       2.915   2.765  -2.274  0.00  0.00    -0.078 A 
ATOM      4  C2  OXE d   1       1.858   3.436  -1.709  0.00  0.00    -0.078 A 
ATOM      5  C3  OXE d   1       1.277   2.950  -0.541  0.00  0.00     0.003 A 
ATOM      6  C4  OXE d   1       1.856   1.875   0.144  0.00  0.00    -0.002 A 
ATOM      7  C5  OXE d   1       2.958   1.201  -0.394  0.00  0.00    -0.002 A 
ATOM      8  C6  OXE d   1       3.472   1.606  -1.621  0.00  0.00     0.003 A 
ENDROOT
TORSDOF 0
ENDMDL
