MODEL 1
REMARK minimizedAffinity -3.83572078
REMARK minimizedRMSD -1
REMARK  0 active torsions:
REMARK  status: ('A' for Active; 'I' for Inactive)
ROOT
ATOM      1  C2' OXE d   1       2.848   2.237  -0.218  0.00  0.00     0.078 C 
ATOM      2  C1' OXE d   1       1.909   2.474  -2.853  0.00  0.00     0.078 C 
ATOM      3  C1  OXE d   1       1.255   3.326  -1.794  0.00  0.00    -0.078 A 
ATOM      4  C2  OXE d   1       1.690   3.170  -0.500  0.00  0.00    -0.078 A 
ATOM      5  C3  OXE d   1       1.159   3.971   0.507  0.00  0.00     0.003 A 
ATOM      6  C4  OXE d   1       0.081   4.824   0.240  0.00  0.00    -0.002 A 
ATOM      7  C5  OXE d   1      -0.403   4.969  -1.065  0.00  0.00    -0.002 A 
ATOM      8  C6  OXE d   1       0.200   4.261  -2.098  0.00  0.00     0.003 A 
ENDROOT
TORSDOF 0
ENDMDL
