MODEL 1
REMARK minimizedAffinity -0.422715008
REMARK minimizedRMSD -1
REMARK  0 active torsions:
REMARK  status: ('A' for Active; 'I' for Inactive)
ROOT
ATOM      1  C4' PXY d   1       0.095  -1.180   2.470  0.00  0.00     0.077 C 
ATOM      2  C1' PXY d   1      -1.440   1.422  -2.459  0.00  0.00     0.077 C 
ATOM      3  C1  PXY d   1      -1.025   0.743  -1.168  0.00  0.00    -0.082 A 
ATOM      4  C2  PXY d   1      -1.746  -0.260  -0.695  0.00  0.00     0.003 A 
ATOM      5  C3  PXY d   1      -1.403  -0.864   0.487  0.00  0.00     0.003 A 
ATOM      6  C4  PXY d   1      -0.281  -0.472   1.165  0.00  0.00    -0.082 A 
ATOM      7  C5  PXY d   1       0.466   0.544   0.684  0.00  0.00     0.003 A 
ATOM      8  C6  PXY d   1       0.078   1.171  -0.497  0.00  0.00     0.003 A 
ENDROOT
TORSDOF 0
ENDMDL
