MODEL 1
REMARK minimizedAffinity -3.96043825
REMARK minimizedRMSD -1
REMARK  0 active torsions:
REMARK  status: ('A' for Active; 'I' for Inactive)
ROOT
ATOM      1  C4' PXY d   1       1.097  -1.359   3.174  0.00  0.00     0.077 C 
ATOM      2  C1' PXY d   1      -0.449   0.277  -2.150  0.00  0.00     0.077 C 
ATOM      3  C1  PXY d   1      -0.037  -0.162  -0.759  0.00  0.00    -0.082 A 
ATOM      4  C2  PXY d   1      -0.781   0.176   0.281  0.00  0.00     0.003 A 
ATOM      5  C3  PXY d   1      -0.406  -0.185   1.549  0.00  0.00     0.003 A 
ATOM      6  C4  PXY d   1       0.714  -0.946   1.750  0.00  0.00    -0.082 A 
ATOM      7  C5  PXY d   1       1.474  -1.304   0.693  0.00  0.00     0.003 A 
ATOM      8  C6  PXY d   1       1.098  -0.892  -0.582  0.00  0.00     0.003 A 
ENDROOT
TORSDOF 0
ENDMDL
