MODEL 1
REMARK minimizedAffinity -1.60840917
REMARK minimizedRMSD -1
REMARK  0 active torsions:
REMARK  status: ('A' for Active; 'I' for Inactive)
ROOT
ATOM      1  C4' PXY d   1      -4.109   3.360  -1.820  0.00  0.00     0.077 C 
ATOM      2  C1' PXY d   1       1.140   1.584  -3.464  0.00  0.00     0.077 C 
ATOM      3  C1  PXY d   1      -0.231   2.060  -3.025  0.00  0.00    -0.082 A 
ATOM      4  C2  PXY d   1      -1.250   1.216  -3.038  0.00  0.00     0.003 A 
ATOM      5  C3  PXY d   1      -2.504   1.638  -2.675  0.00  0.00     0.003 A 
ATOM      6  C4  PXY d   1      -2.705   2.922  -2.245  0.00  0.00    -0.082 A 
ATOM      7  C5  PXY d   1      -1.668   3.785  -2.219  0.00  0.00     0.003 A 
ATOM      8  C6  PXY d   1      -0.412   3.349  -2.630  0.00  0.00     0.003 A 
ENDROOT
TORSDOF 0
ENDMDL
