MODEL 1
REMARK minimizedAffinity -3.66495681
REMARK minimizedRMSD -1
REMARK  0 active torsions:
REMARK  status: ('A' for Active; 'I' for Inactive)
ROOT
ATOM      1  C4' PXY d   1      -1.059   1.913  -2.329  0.00  0.00     0.077 C 
ATOM      2  C1' PXY d   1       0.995  -1.107   2.152  0.00  0.00     0.077 C 
ATOM      3  C1  PXY d   1       0.466  -0.320   0.969  0.00  0.00    -0.082 A 
ATOM      4  C2  PXY d   1      -0.273   0.758   1.179  0.00  0.00     0.003 A 
ATOM      5  C3  PXY d   1      -0.786   1.463   0.121  0.00  0.00     0.003 A 
ATOM      6  C4  PXY d   1      -0.496   1.093  -1.165  0.00  0.00    -0.082 A 
ATOM      7  C5  PXY d   1       0.267   0.001  -1.387  0.00  0.00     0.003 A 
ATOM      8  C6  PXY d   1       0.743  -0.725  -0.300  0.00  0.00     0.003 A 
ENDROOT
TORSDOF 0
ENDMDL
