MODEL 1
REMARK minimizedAffinity -1.98818111
REMARK minimizedRMSD -1
REMARK  0 active torsions:
REMARK  status: ('A' for Active; 'I' for Inactive)
ROOT
ATOM      1  C4' PXY d   1      -1.443   2.066  -2.190  0.00  0.00     0.077 C 
ATOM      2  C1' PXY d   1      -0.208  -0.858   2.641  0.00  0.00     0.077 C 
ATOM      3  C1  PXY d   1      -0.520  -0.094   1.369  0.00  0.00    -0.082 A 
ATOM      4  C2  PXY d   1      -1.448   0.849   1.384  0.00  0.00     0.003 A 
ATOM      5  C3  PXY d   1      -1.765   1.528   0.235  0.00  0.00     0.003 A 
ATOM      6  C4  PXY d   1      -1.088   1.276  -0.928  0.00  0.00    -0.082 A 
ATOM      7  C5  PXY d   1      -0.132   0.322  -0.948  0.00  0.00     0.003 A 
ATOM      8  C6  PXY d   1       0.146  -0.384   0.219  0.00  0.00     0.003 A 
ENDROOT
TORSDOF 0
ENDMDL
