MODEL 1
REMARK minimizedAffinity -1.04787672
REMARK minimizedRMSD -1
REMARK  0 active torsions:
REMARK  status: ('A' for Active; 'I' for Inactive)
ROOT
ATOM      1  C4' PXY d   1       0.785  -1.839   1.635  0.00  0.00     0.077 C 
ATOM      2  C1' PXY d   1      -0.942   1.865  -2.452  0.00  0.00     0.077 C 
ATOM      3  C1  PXY d   1      -0.494   0.902  -1.371  0.00  0.00    -0.082 A 
ATOM      4  C2  PXY d   1       0.474   0.036  -1.627  0.00  0.00     0.003 A 
ATOM      5  C3  PXY d   1       0.870  -0.863  -0.671  0.00  0.00     0.003 A 
ATOM      6  C4  PXY d   1       0.307  -0.842   0.577  0.00  0.00    -0.082 A 
ATOM      7  C5  PXY d   1      -0.674   0.045   0.849  0.00  0.00     0.003 A 
ATOM      8  C6  PXY d   1      -1.090   0.922  -0.148  0.00  0.00     0.003 A 
ENDROOT
TORSDOF 0
ENDMDL
