MODEL 1
REMARK minimizedAffinity -1.61194801
REMARK minimizedRMSD -1
REMARK  0 active torsions:
REMARK  status: ('A' for Active; 'I' for Inactive)
ROOT
ATOM      1  C4' PXY d   1       2.910  -3.064   0.721  0.00  0.00     0.077 C 
ATOM      2  C1' PXY d   1      -1.566   0.546   1.304  0.00  0.00     0.077 C 
ATOM      3  C1  PXY d   1      -0.390  -0.400   1.164  0.00  0.00    -0.082 A 
ATOM      4  C2  PXY d   1       0.224  -0.512  -0.003  0.00  0.00     0.003 A 
ATOM      5  C3  PXY d   1       1.269  -1.387  -0.155  0.00  0.00     0.003 A 
ATOM      6  C4  PXY d   1       1.724  -2.115   0.911  0.00  0.00    -0.082 A 
ATOM      7  C5  PXY d   1       1.110  -1.998   2.107  0.00  0.00     0.003 A 
ATOM      8  C6  PXY d   1       0.025  -1.135   2.231  0.00  0.00     0.003 A 
ENDROOT
TORSDOF 0
ENDMDL
