MODEL 1
REMARK minimizedAffinity -4.69134045
REMARK minimizedRMSD -1
REMARK  0 active torsions:
REMARK  status: ('A' for Active; 'I' for Inactive)
ROOT
ATOM      1  C4' PXY d   1      -0.369  -1.322   2.365  0.00  0.00     0.077 C 
ATOM      2  C1' PXY d   1      -0.999   1.944  -2.363  0.00  0.00     0.077 C 
ATOM      3  C1  PXY d   1      -0.835   1.098  -1.115  0.00  0.00    -0.082 A 
ATOM      4  C2  PXY d   1      -0.224  -0.073  -1.195  0.00  0.00     0.003 A 
ATOM      5  C3  PXY d   1      -0.095  -0.865  -0.083  0.00  0.00     0.003 A 
ATOM      6  C4  PXY d   1      -0.549  -0.431   1.133  0.00  0.00    -0.082 A 
ATOM      7  C5  PXY d   1      -1.165   0.767   1.225  0.00  0.00     0.003 A 
ATOM      8  C6  PXY d   1      -1.322   1.538   0.076  0.00  0.00     0.003 A 
ENDROOT
TORSDOF 0
ENDMDL
