MODEL 1
REMARK minimizedAffinity -4.11051369
REMARK minimizedRMSD -1
REMARK  0 active torsions:
REMARK  status: ('A' for Active; 'I' for Inactive)
ROOT
ATOM      1  C4' PXY d   1       1.507  -1.486  -0.625  0.00  0.00     0.077 C 
ATOM      2  C1' PXY d   1      -0.441   3.826  -1.812  0.00  0.00     0.077 C 
ATOM      3  C1  PXY d   1       0.058   2.429  -1.499  0.00  0.00    -0.082 A 
ATOM      4  C2  PXY d   1       1.275   2.263  -1.008  0.00  0.00     0.003 A 
ATOM      5  C3  PXY d   1       1.753   1.005  -0.750  0.00  0.00     0.003 A 
ATOM      6  C4  PXY d   1       0.958  -0.093  -0.947  0.00  0.00    -0.082 A 
ATOM      7  C5  PXY d   1      -0.289   0.069  -1.437  0.00  0.00     0.003 A 
ATOM      8  C6  PXY d   1      -0.741   1.352  -1.731  0.00  0.00     0.003 A 
ENDROOT
TORSDOF 0
ENDMDL
