MODEL 1
REMARK minimizedAffinity -0.300792694
REMARK minimizedRMSD -1
REMARK  0 active torsions:
REMARK  status: ('A' for Active; 'I' for Inactive)
ROOT
ATOM      1  C4' PXY d   1      -0.584   1.908  -2.216  0.00  0.00     0.077 C 
ATOM      2  C1' PXY d   1      -0.506  -1.331   2.571  0.00  0.00     0.077 C 
ATOM      3  C1  PXY d   1      -0.519  -0.490   1.310  0.00  0.00    -0.082 A 
ATOM      4  C2  PXY d   1      -0.758   0.808   1.391  0.00  0.00     0.003 A 
ATOM      5  C3  PXY d   1      -0.805   1.578   0.257  0.00  0.00     0.003 A 
ATOM      6  C4  PXY d   1      -0.552   1.022  -0.968  0.00  0.00    -0.082 A 
ATOM      7  C5  PXY d   1      -0.297  -0.301  -1.059  0.00  0.00     0.003 A 
ATOM      8  C6  PXY d   1      -0.295  -1.072   0.100  0.00  0.00     0.003 A 
ENDROOT
TORSDOF 0
ENDMDL
