MODEL 1
REMARK minimizedAffinity -3.81608725
REMARK minimizedRMSD -1
REMARK  0 active torsions:
REMARK  status: ('A' for Active; 'I' for Inactive)
ROOT
ATOM      1  C4' PXY d   1      -0.046  -1.145   1.511  0.00  0.00     0.077 C 
ATOM      2  C1' PXY d   1      -1.096   2.688  -2.686  0.00  0.00     0.077 C 
ATOM      3  C1  PXY d   1      -0.826   1.673  -1.593  0.00  0.00    -0.082 A 
ATOM      4  C2  PXY d   1      -0.698   2.080  -0.340  0.00  0.00     0.003 A 
ATOM      5  C3  PXY d   1      -0.422   1.179   0.656  0.00  0.00     0.003 A 
ATOM      6  C4  PXY d   1      -0.328  -0.157   0.376  0.00  0.00    -0.082 A 
ATOM      7  C5  PXY d   1      -0.469  -0.582  -0.898  0.00  0.00     0.003 A 
ATOM      8  C6  PXY d   1      -0.708   0.353  -1.901  0.00  0.00     0.003 A 
ENDROOT
TORSDOF 0
ENDMDL
