MODEL 1
REMARK minimizedAffinity 10.8006306
REMARK minimizedRMSD -1
REMARK  0 active torsions:
REMARK  status: ('A' for Active; 'I' for Inactive)
ROOT
ATOM      1  C   UNL d   1       1.575  -3.059   4.792  0.00  0.00     0.077 C 
ATOM      2  C1  UNL d   1       2.361  -2.210   3.837  0.00  0.00    -0.074 A 
ATOM      3  C2  UNL d   1       1.726  -1.265   3.025  0.00  0.00    -0.005 A 
ATOM      4  C3  UNL d   1       2.471  -0.477   2.149  0.00  0.00     0.006 A 
ATOM      5  C4  UNL d   1       3.857  -0.625   2.075  0.00  0.00    -0.005 A 
ATOM      6  C5  UNL d   1       4.510  -1.564   2.880  0.00  0.00    -0.074 A 
ATOM      7  C6  UNL d   1       5.999  -1.730   2.820  0.00  0.00     0.077 C 
ATOM      8  C7  UNL d   1       3.755  -2.348   3.763  0.00  0.00    -0.001 A 
ENDROOT
TORSDOF 0
ENDMDL
