MODEL 1
REMARK minimizedAffinity 12.594449
REMARK minimizedRMSD -1
REMARK  0 active torsions:
REMARK  status: ('A' for Active; 'I' for Inactive)
ROOT
ATOM      1  C   UNL d   1       2.563  -1.013   2.379  0.00  0.00     0.077 C 
ATOM      2  C1  UNL d   1       1.437  -0.975   1.389  0.00  0.00    -0.074 A 
ATOM      3  C2  UNL d   1       1.533  -1.647   0.166  0.00  0.00    -0.005 A 
ATOM      4  C3  UNL d   1       0.474  -1.611  -0.741  0.00  0.00     0.006 A 
ATOM      5  C4  UNL d   1      -0.690  -0.904  -0.435  0.00  0.00    -0.005 A 
ATOM      6  C5  UNL d   1      -0.805  -0.228   0.784  0.00  0.00    -0.074 A 
ATOM      7  C6  UNL d   1      -2.052   0.527   1.133  0.00  0.00     0.077 C 
ATOM      8  C7  UNL d   1       0.261  -0.275   1.693  0.00  0.00    -0.001 A 
ENDROOT
TORSDOF 0
ENDMDL
