MODEL 1
REMARK minimizedAffinity 4.24076748
REMARK minimizedRMSD -1
REMARK  0 active torsions:
REMARK  status: ('A' for Active; 'I' for Inactive)
ROOT
ATOM      1  C   UNL d   1       6.000  -2.265   4.889  0.00  0.00     0.077 C 
ATOM      2  C1  UNL d   1       4.550  -1.894   4.798  0.00  0.00    -0.074 A 
ATOM      3  C2  UNL d   1       3.763  -1.780   5.949  0.00  0.00    -0.005 A 
ATOM      4  C3  UNL d   1       2.418  -1.425   5.849  0.00  0.00     0.006 A 
ATOM      5  C4  UNL d   1       1.846  -1.181   4.600  0.00  0.00    -0.005 A 
ATOM      6  C5  UNL d   1       2.617  -1.290   3.438  0.00  0.00    -0.074 A 
ATOM      7  C6  UNL d   1       2.021  -1.022   2.088  0.00  0.00     0.077 C 
ATOM      8  C7  UNL d   1       3.970  -1.640   3.547  0.00  0.00    -0.001 A 
ENDROOT
TORSDOF 0
ENDMDL
