MODEL 1
REMARK minimizedAffinity 5.22930431
REMARK minimizedRMSD -1
REMARK  0 active torsions:
REMARK  status: ('A' for Active; 'I' for Inactive)
ROOT
ATOM      1  C   UNL d   1       5.997  -2.646   3.707  0.00  0.00     0.077 C 
ATOM      2  C1  UNL d   1       4.562  -2.318   3.995  0.00  0.00    -0.074 A 
ATOM      3  C2  UNL d   1       3.976  -2.667   5.217  0.00  0.00    -0.005 A 
ATOM      4  C3  UNL d   1       2.644  -2.346   5.474  0.00  0.00     0.006 A 
ATOM      5  C4  UNL d   1       1.884  -1.675   4.515  0.00  0.00    -0.005 A 
ATOM      6  C5  UNL d   1       2.453  -1.317   3.289  0.00  0.00    -0.074 A 
ATOM      7  C6  UNL d   1       1.654  -0.587   2.251  0.00  0.00     0.077 C 
ATOM      8  C7  UNL d   1       3.795  -1.637   3.040  0.00  0.00    -0.001 A 
ENDROOT
TORSDOF 0
ENDMDL
