MODEL 1
REMARK minimizedAffinity -0.0333477147
REMARK minimizedRMSD -1
REMARK  0 active torsions:
REMARK  status: ('A' for Active; 'I' for Inactive)
ROOT
ATOM      1  C   UNL d   1       1.879  -1.297   2.654  0.00  0.00     0.077 C 
ATOM      2  C1  UNL d   1       3.318  -1.479   3.035  0.00  0.00    -0.074 A 
ATOM      3  C2  UNL d   1       4.346  -1.090   2.170  0.00  0.00    -0.005 A 
ATOM      4  C3  UNL d   1       5.680  -1.256   2.543  0.00  0.00     0.006 A 
ATOM      5  C4  UNL d   1       5.999  -1.813   3.782  0.00  0.00    -0.005 A 
ATOM      6  C5  UNL d   1       4.985  -2.208   4.660  0.00  0.00    -0.074 A 
ATOM      7  C6  UNL d   1       5.311  -2.798   6.000  0.00  0.00     0.077 C 
ATOM      8  C7  UNL d   1       3.647  -2.030   4.282  0.00  0.00    -0.001 A 
ENDROOT
TORSDOF 0
ENDMDL
