MODEL 1
REMARK minimizedAffinity 10.7991858
REMARK minimizedRMSD -1
REMARK  0 active torsions:
REMARK  status: ('A' for Active; 'I' for Inactive)
ROOT
ATOM      1  C   UNL d   1       1.845  -1.062   2.073  0.00  0.00     0.077 C 
ATOM      2  C1  UNL d   1       2.497  -1.658   3.285  0.00  0.00    -0.074 A 
ATOM      3  C2  UNL d   1       1.740  -2.022   4.403  0.00  0.00    -0.005 A 
ATOM      4  C3  UNL d   1       2.360  -2.583   5.520  0.00  0.00     0.006 A 
ATOM      5  C4  UNL d   1       3.740  -2.786   5.529  0.00  0.00    -0.005 A 
ATOM      6  C5  UNL d   1       4.513  -2.429   4.420  0.00  0.00    -0.074 A 
ATOM      7  C6  UNL d   1       5.997  -2.649   4.411  0.00  0.00     0.077 C 
ATOM      8  C7  UNL d   1       3.883  -1.872   3.300  0.00  0.00    -0.001 A 
ENDROOT
TORSDOF 0
ENDMDL
