MODEL 1
REMARK minimizedAffinity 2.3429637
REMARK minimizedRMSD -1
REMARK  0 active torsions:
REMARK  status: ('A' for Active; 'I' for Inactive)
ROOT
ATOM      1  C   UNL d   1       2.087  -0.253   2.208  0.00  0.00     0.077 C 
ATOM      2  C1  UNL d   1       2.297  -1.654   2.698  0.00  0.00    -0.074 A 
ATOM      3  C2  UNL d   1       2.107  -1.981   4.045  0.00  0.00    -0.005 A 
ATOM      4  C3  UNL d   1       2.298  -3.292   4.484  0.00  0.00     0.006 A 
ATOM      5  C4  UNL d   1       2.679  -4.286   3.583  0.00  0.00    -0.005 A 
ATOM      6  C5  UNL d   1       2.873  -3.978   2.232  0.00  0.00    -0.074 A 
ATOM      7  C6  UNL d   1       3.274  -5.037   1.249  0.00  0.00     0.077 C 
ATOM      8  C7  UNL d   1       2.673  -2.661   1.798  0.00  0.00    -0.001 A 
ENDROOT
TORSDOF 0
ENDMDL
