MODEL 1
REMARK minimizedAffinity 1.94086576
REMARK minimizedRMSD -1
REMARK  0 active torsions:
REMARK  status: ('A' for Active; 'I' for Inactive)
ROOT
ATOM      1  C4' PXY d   1       5.578   1.865  -3.425  0.00  0.00     0.077 C 
ATOM      2  C1' PXY d   1       2.015  -0.062   0.699  0.00  0.00     0.077 C 
ATOM      3  C1  PXY d   1       2.946   0.434  -0.390  0.00  0.00    -0.082 A 
ATOM      4  C2  PXY d   1       4.015   1.142  -0.065  0.00  0.00     0.003 A 
ATOM      5  C3  PXY d   1       4.850   1.625  -1.040  0.00  0.00     0.003 A 
ATOM      6  C4  PXY d   1       4.616   1.336  -2.358  0.00  0.00    -0.082 A 
ATOM      7  C5  PXY d   1       3.533   0.605  -2.697  0.00  0.00     0.003 A 
ATOM      8  C6  PXY d   1       2.676   0.159  -1.695  0.00  0.00     0.003 A 
ENDROOT
TORSDOF 0
ENDMDL
