MODEL 1
REMARK minimizedAffinity -0.90392226
REMARK minimizedRMSD -1
REMARK  0 active torsions:
REMARK  status: ('A' for Active; 'I' for Inactive)
ROOT
ATOM      1  C4' PXY d   1      -0.272   4.373   0.912  0.00  0.00     0.077 C 
ATOM      2  C1' PXY d   1       0.612  -0.670  -1.773  0.00  0.00     0.077 C 
ATOM      3  C1  PXY d   1       0.386   0.648  -1.058  0.00  0.00    -0.082 A 
ATOM      4  C2  PXY d   1      -0.616   1.429  -1.427  0.00  0.00     0.003 A 
ATOM      5  C3  PXY d   1      -0.815   2.639  -0.813  0.00  0.00     0.003 A 
ATOM      6  C4  PXY d   1      -0.012   3.029   0.225  0.00  0.00    -0.082 A 
ATOM      7  C5  PXY d   1       1.006   2.233   0.615  0.00  0.00     0.003 A 
ATOM      8  C6  PXY d   1       1.216   1.028  -0.049  0.00  0.00     0.003 A 
ENDROOT
TORSDOF 0
ENDMDL
