MODEL 1
REMARK minimizedAffinity 7.12870359
REMARK minimizedRMSD -1
REMARK  0 active torsions:
REMARK  status: ('A' for Active; 'I' for Inactive)
ROOT
ATOM      1  C4' PXY d   1       3.932   0.791   1.080  0.00  0.00     0.077 C 
ATOM      2  C1' PXY d   1      -0.698  -0.692  -2.047  0.00  0.00     0.077 C 
ATOM      3  C1  PXY d   1       0.524  -0.307  -1.236  0.00  0.00    -0.082 A 
ATOM      4  C2  PXY d   1       0.428  -0.195   0.079  0.00  0.00     0.003 A 
ATOM      5  C3  PXY d   1       1.515   0.183   0.824  0.00  0.00     0.003 A 
ATOM      6  C4  PXY d   1       2.727   0.396   0.223  0.00  0.00    -0.082 A 
ATOM      7  C5  PXY d   1       2.836   0.273  -1.117  0.00  0.00     0.003 A 
ATOM      8  C6  PXY d   1       1.710  -0.071  -1.860  0.00  0.00     0.003 A 
ENDROOT
TORSDOF 0
ENDMDL
