MODEL 1
REMARK minimizedAffinity -0.632506788
REMARK minimizedRMSD -1
REMARK  0 active torsions:
REMARK  status: ('A' for Active; 'I' for Inactive)
ROOT
ATOM      1  C4' PXY d   1       5.999   0.021  -4.177  0.00  0.00     0.077 C 
ATOM      2  C1' PXY d   1       1.926   0.638  -0.122  0.00  0.00     0.077 C 
ATOM      3  C1  PXY d   1       3.000   0.487  -1.181  0.00  0.00    -0.082 A 
ATOM      4  C2  PXY d   1       2.747  -0.216  -2.273  0.00  0.00     0.003 A 
ATOM      5  C3  PXY d   1       3.717  -0.389  -3.227  0.00  0.00     0.003 A 
ATOM      6  C4  PXY d   1       4.942   0.207  -3.085  0.00  0.00    -0.082 A 
ATOM      7  C5  PXY d   1       5.204   0.934  -1.978  0.00  0.00     0.003 A 
ATOM      8  C6  PXY d   1       4.219   1.064  -1.003  0.00  0.00     0.003 A 
ENDROOT
TORSDOF 0
ENDMDL
