MODEL 1
REMARK minimizedAffinity 7.68320179
REMARK minimizedRMSD -1
REMARK  0 active torsions:
REMARK  status: ('A' for Active; 'I' for Inactive)
ROOT
ATOM      1  C4' PXY d   1       2.854   0.482  -0.337  0.00  0.00     0.077 C 
ATOM      2  C1' PXY d   1       2.144   1.261   5.346  0.00  0.00     0.077 C 
ATOM      3  C1  PXY d   1       2.328   1.070   3.854  0.00  0.00    -0.082 A 
ATOM      4  C2  PXY d   1       2.087  -0.113   3.311  0.00  0.00     0.003 A 
ATOM      5  C3  PXY d   1       2.279  -0.312   1.969  0.00  0.00     0.003 A 
ATOM      6  C4  PXY d   1       2.672   0.723   1.164  0.00  0.00    -0.082 A 
ATOM      7  C5  PXY d   1       2.910   1.936   1.708  0.00  0.00     0.003 A 
ATOM      8  C6  PXY d   1       2.748   2.107   3.080  0.00  0.00     0.003 A 
ENDROOT
TORSDOF 0
ENDMDL
