MODEL 1
REMARK minimizedAffinity 8.85784149
REMARK minimizedRMSD -1
REMARK  0 active torsions:
REMARK  status: ('A' for Active; 'I' for Inactive)
ROOT
ATOM      1  C4' PXY d   1       3.202   0.155  -3.026  0.00  0.00     0.077 C 
ATOM      2  C1' PXY d   1       2.310   0.469   2.677  0.00  0.00     0.077 C 
ATOM      3  C1  PXY d   1       2.534   0.378   1.180  0.00  0.00    -0.082 A 
ATOM      4  C2  PXY d   1       3.720   0.681   0.677  0.00  0.00     0.003 A 
ATOM      5  C3  PXY d   1       3.930   0.635  -0.678  0.00  0.00     0.003 A 
ATOM      6  C4  PXY d   1       2.933   0.223  -1.520  0.00  0.00    -0.082 A 
ATOM      7  C5  PXY d   1       1.724  -0.098  -1.013  0.00  0.00     0.003 A 
ATOM      8  C6  PXY d   1       1.518  -0.005   0.360  0.00  0.00     0.003 A 
ENDROOT
TORSDOF 0
ENDMDL
