MODEL 1
REMARK minimizedAffinity -0.193318486
REMARK minimizedRMSD -1
REMARK  0 active torsions:
REMARK  status: ('A' for Active; 'I' for Inactive)
ROOT
ATOM      1  C4' PXY d   1       3.390  -0.057  -3.253  0.00  0.00     0.077 C 
ATOM      2  C1' PXY d   1       2.159   0.543   2.363  0.00  0.00     0.077 C 
ATOM      3  C1  PXY d   1       2.472   0.377   0.889  0.00  0.00    -0.082 A 
ATOM      4  C2  PXY d   1       3.688   0.649   0.444  0.00  0.00     0.003 A 
ATOM      5  C3  PXY d   1       3.980   0.535  -0.891  0.00  0.00     0.003 A 
ATOM      6  C4  PXY d   1       3.031   0.087  -1.771  0.00  0.00    -0.082 A 
ATOM      7  C5  PXY d   1       1.791  -0.202  -1.323  0.00  0.00     0.003 A 
ATOM      8  C6  PXY d   1       1.504  -0.041   0.029  0.00  0.00     0.003 A 
ENDROOT
TORSDOF 0
ENDMDL
