MODEL 1
REMARK minimizedAffinity 3.40994287
REMARK minimizedRMSD -1
REMARK  0 active torsions:
REMARK  status: ('A' for Active; 'I' for Inactive)
ROOT
ATOM      1  C4' PXY d   1      -0.917   4.141   0.650  0.00  0.00     0.077 C 
ATOM      2  C1' PXY d   1       0.218  -0.926  -1.891  0.00  0.00     0.077 C 
ATOM      3  C1  PXY d   1      -0.076   0.398  -1.213  0.00  0.00    -0.082 A 
ATOM      4  C2  PXY d   1      -0.977   1.215  -1.735  0.00  0.00     0.003 A 
ATOM      5  C3  PXY d   1      -1.231   2.430  -1.153  0.00  0.00     0.003 A 
ATOM      6  C4  PXY d   1      -0.595   2.790   0.005  0.00  0.00    -0.082 A 
ATOM      7  C5  PXY d   1       0.318   1.957   0.549  0.00  0.00     0.003 A 
ATOM      8  C6  PXY d   1       0.591   0.746  -0.080  0.00  0.00     0.003 A 
ENDROOT
TORSDOF 0
ENDMDL
