MODEL 1
REMARK minimizedAffinity 11.4105053
REMARK minimizedRMSD -1
REMARK  0 active torsions:
REMARK  status: ('A' for Active; 'I' for Inactive)
ROOT
ATOM      1  C4' PXY d   1       3.303  -0.804   3.203  0.00  0.00     0.077 C 
ATOM      2  C1' PXY d   1       3.287   1.234  -2.206  0.00  0.00     0.077 C 
ATOM      3  C1  PXY d   1       3.303   0.705  -0.786  0.00  0.00    -0.082 A 
ATOM      4  C2  PXY d   1       2.568  -0.350  -0.473  0.00  0.00     0.003 A 
ATOM      5  C3  PXY d   1       2.546  -0.823   0.815  0.00  0.00     0.003 A 
ATOM      6  C4  PXY d   1       3.325  -0.241   1.779  0.00  0.00    -0.082 A 
ATOM      7  C5  PXY d   1       4.085   0.829   1.465  0.00  0.00     0.003 A 
ATOM      8  C6  PXY d   1       4.062   1.318   0.162  0.00  0.00     0.003 A 
ENDROOT
TORSDOF 0
ENDMDL
