MODEL 1
REMARK minimizedAffinity 4.49261999
REMARK minimizedRMSD -1
REMARK  0 active torsions:
REMARK  status: ('A' for Active; 'I' for Inactive)
ROOT
ATOM      1  C   UNL d   1       5.998  -5.988  -4.359  0.00  0.00     0.020 A 
ATOM      2  C1  UNL d   1       5.190  -5.976  -5.496  0.00  0.00     0.020 A 
ATOM      3  C2  UNL d   1       3.800  -5.963  -5.364  0.00  0.00     0.034 A 
ATOM      4  C3  UNL d   1       3.213  -5.961  -4.094  0.00  0.00     0.017 A 
ATOM      5  C4  UNL d   1       4.025  -5.973  -2.953  0.00  0.00     0.017 A 
ATOM      6  C5  UNL d   1       5.416  -5.986  -3.091  0.00  0.00     0.034 A 
ATOM      7 Cl   UNL d   1       3.373  -5.972  -1.352  0.00  0.00    -0.070 Cl
ATOM      8 Cl1  UNL d   1       1.488  -5.944  -4.006  0.00  0.00    -0.070 Cl
ENDROOT
TORSDOF 0
ENDMDL
