MODEL 1
REMARK minimizedAffinity 10.367342
REMARK minimizedRMSD -1
REMARK  0 active torsions:
REMARK  status: ('A' for Active; 'I' for Inactive)
ROOT
ATOM      1  C   UNL d   1       0.570   3.444   1.139  0.00  0.00     0.020 A 
ATOM      2  C1  UNL d   1       1.652   3.758   0.318  0.00  0.00     0.020 A 
ATOM      3  C2  UNL d   1       2.668   2.822   0.113  0.00  0.00     0.034 A 
ATOM      4  C3  UNL d   1       2.604   1.568   0.731  0.00  0.00     0.017 A 
ATOM      5  C4  UNL d   1       1.517   1.253   1.554  0.00  0.00     0.017 A 
ATOM      6  C5  UNL d   1       0.503   2.194   1.756  0.00  0.00     0.034 A 
ATOM      7 Cl   UNL d   1       1.368  -0.274   2.350  0.00  0.00    -0.070 Cl
ATOM      8 Cl1  UNL d   1       3.895   0.459   0.433  0.00  0.00    -0.070 Cl
ENDROOT
TORSDOF 0
ENDMDL
