MODEL 1
REMARK minimizedAffinity 3.41474986
REMARK minimizedRMSD -1
REMARK  0 active torsions:
REMARK  status: ('A' for Active; 'I' for Inactive)
ROOT
ATOM      1  C   UNL d   1       2.834  -1.003   2.813  0.00  0.00     0.020 A 
ATOM      2  C1  UNL d   1       2.087   0.031   3.377  0.00  0.00     0.020 A 
ATOM      3  C2  UNL d   1       1.914   1.228   2.679  0.00  0.00     0.034 A 
ATOM      4  C3  UNL d   1       2.489   1.395   1.414  0.00  0.00     0.017 A 
ATOM      5  C4  UNL d   1       3.239   0.357   0.849  0.00  0.00     0.017 A 
ATOM      6  C5  UNL d   1       3.409  -0.840   1.552  0.00  0.00     0.034 A 
ATOM      7 Cl   UNL d   1       3.979   0.489  -0.707  0.00  0.00    -0.070 Cl
ATOM      8 Cl1  UNL d   1       2.235   2.902   0.608  0.00  0.00    -0.070 Cl
ENDROOT
TORSDOF 0
ENDMDL
