MODEL 1
REMARK minimizedAffinity 8.06105137
REMARK minimizedRMSD -1
REMARK  0 active torsions:
REMARK  status: ('A' for Active; 'I' for Inactive)
ROOT
ATOM      1  C   UNL d   1       5.815  -5.549  -4.623  0.00  0.00     0.020 A 
ATOM      2  C1  UNL d   1       5.108  -5.631  -5.822  0.00  0.00     0.020 A 
ATOM      3  C2  UNL d   1       3.718  -5.768  -5.805  0.00  0.00     0.034 A 
ATOM      4  C3  UNL d   1       3.031  -5.823  -4.587  0.00  0.00     0.017 A 
ATOM      5  C4  UNL d   1       3.742  -5.741  -3.384  0.00  0.00     0.017 A 
ATOM      6  C5  UNL d   1       5.133  -5.604  -3.407  0.00  0.00     0.034 A 
ATOM      7 Cl   UNL d   1       2.964  -5.802  -1.842  0.00  0.00    -0.070 Cl
ATOM      8 Cl1  UNL d   1       1.312  -5.993  -4.641  0.00  0.00    -0.070 Cl
ENDROOT
TORSDOF 0
ENDMDL
