MODEL 1
REMARK minimizedAffinity 14.9199696
REMARK minimizedRMSD -1
REMARK  0 active torsions:
REMARK  status: ('A' for Active; 'I' for Inactive)
ROOT
ATOM      1  C   UNL d   1       3.035  -0.105   1.690  0.00  0.00     0.020 A 
ATOM      2  C1  UNL d   1       2.294   0.477   2.718  0.00  0.00     0.020 A 
ATOM      3  C2  UNL d   1       1.837  -0.307   3.779  0.00  0.00     0.034 A 
ATOM      4  C3  UNL d   1       2.121  -1.677   3.815  0.00  0.00     0.017 A 
ATOM      5  C4  UNL d   1       2.865  -2.260   2.784  0.00  0.00     0.017 A 
ATOM      6  C5  UNL d   1       3.320  -1.470   1.723  0.00  0.00     0.034 A 
ATOM      7 Cl   UNL d   1       3.256  -3.943   2.759  0.00  0.00    -0.070 Cl
ATOM      8 Cl1  UNL d   1       1.525  -2.586   5.159  0.00  0.00    -0.070 Cl
ENDROOT
TORSDOF 0
ENDMDL
