MODEL 1
REMARK minimizedAffinity 11.0229149
REMARK minimizedRMSD -1
REMARK  0 active torsions:
REMARK  status: ('A' for Active; 'I' for Inactive)
ROOT
ATOM      1  C   UNL d   1       2.452   3.908   1.580  0.00  0.00     0.020 A 
ATOM      2  C1  UNL d   1       2.748   4.522   0.364  0.00  0.00     0.020 A 
ATOM      3  C2  UNL d   1       1.729   4.773  -0.558  0.00  0.00     0.034 A 
ATOM      4  C3  UNL d   1       0.410   4.410  -0.265  0.00  0.00     0.017 A 
ATOM      5  C4  UNL d   1       0.113   3.793   0.956  0.00  0.00     0.017 A 
ATOM      6  C5  UNL d   1       1.137   3.545   1.876  0.00  0.00     0.034 A 
ATOM      7 Cl   UNL d   1      -1.491   3.317   1.389  0.00  0.00    -0.070 Cl
ATOM      8 Cl1  UNL d   1      -0.800   4.750  -1.451  0.00  0.00    -0.070 Cl
ENDROOT
TORSDOF 0
ENDMDL
