MODEL 1
REMARK minimizedAffinity 5.13326263
REMARK minimizedRMSD -1
REMARK  0 active torsions:
REMARK  status: ('A' for Active; 'I' for Inactive)
ROOT
ATOM      1  C   UNL d   1       1.502  -4.938   5.569  0.00  0.00     0.020 A 
ATOM      2  C1  UNL d   1       2.691  -5.525   6.000  0.00  0.00     0.020 A 
ATOM      3  C2  UNL d   1       3.917  -4.945   5.668  0.00  0.00     0.034 A 
ATOM      4  C3  UNL d   1       3.957  -3.774   4.902  0.00  0.00     0.017 A 
ATOM      5  C4  UNL d   1       2.763  -3.185   4.469  0.00  0.00     0.017 A 
ATOM      6  C5  UNL d   1       1.538  -3.770   4.805  0.00  0.00     0.034 A 
ATOM      7 Cl   UNL d   1       2.732  -1.740   3.521  0.00  0.00    -0.070 Cl
ATOM      8 Cl1  UNL d   1       5.508  -3.111   4.528  0.00  0.00    -0.070 Cl
ENDROOT
TORSDOF 0
ENDMDL
