MODEL 1
REMARK minimizedAffinity 3.61054468
REMARK minimizedRMSD -1
REMARK  0 active torsions:
REMARK  status: ('A' for Active; 'I' for Inactive)
ROOT
ATOM      1  C   UNL d   1       4.645  -1.876   5.998  0.00  0.00     0.020 A 
ATOM      2  C1  UNL d   1       4.277  -2.787   5.008  0.00  0.00     0.020 A 
ATOM      3  C2  UNL d   1       3.363  -2.413   4.021  0.00  0.00     0.034 A 
ATOM      4  C3  UNL d   1       2.815  -1.125   4.020  0.00  0.00     0.017 A 
ATOM      5  C4  UNL d   1       3.186  -0.212   5.013  0.00  0.00     0.017 A 
ATOM      6  C5  UNL d   1       4.101  -0.591   6.000  0.00  0.00     0.034 A 
ATOM      7 Cl   UNL d   1       2.552   1.395   5.077  0.00  0.00    -0.070 Cl
ATOM      8 Cl1  UNL d   1       1.692  -0.731   2.768  0.00  0.00    -0.070 Cl
ENDROOT
TORSDOF 0
ENDMDL
