MODEL 1
REMARK minimizedAffinity 0.748866081
REMARK minimizedRMSD -1
REMARK  0 active torsions:
REMARK  status: ('A' for Active; 'I' for Inactive)
ROOT
ATOM      1  C   UNL d   1       0.690  -5.157   5.207  0.00  0.00     0.020 A 
ATOM      2  C1  UNL d   1       1.755  -5.586   5.999  0.00  0.00     0.020 A 
ATOM      3  C2  UNL d   1       2.993  -4.947   5.910  0.00  0.00     0.034 A 
ATOM      4  C3  UNL d   1       3.170  -3.875   5.027  0.00  0.00     0.017 A 
ATOM      5  C4  UNL d   1       2.101  -3.446   4.233  0.00  0.00     0.017 A 
ATOM      6  C5  UNL d   1       0.863  -4.089   4.326  0.00  0.00     0.034 A 
ATOM      7 Cl   UNL d   1       2.243  -2.131   3.120  0.00  0.00    -0.070 Cl
ATOM      8 Cl1  UNL d   1       4.729  -3.131   4.969  0.00  0.00    -0.070 Cl
ENDROOT
TORSDOF 0
ENDMDL
