MODEL 1
REMARK minimizedAffinity 8.90206814
REMARK minimizedRMSD -1
REMARK  0 active torsions:
REMARK  status: ('A' for Active; 'I' for Inactive)
ROOT
ATOM      1  C   UNL d   1       2.973  -2.352   4.376  0.00  0.00     0.020 A 
ATOM      2  C1  UNL d   1       2.875  -2.270   2.988  0.00  0.00     0.020 A 
ATOM      3  C2  UNL d   1       2.592  -1.046   2.378  0.00  0.00     0.034 A 
ATOM      4  C3  UNL d   1       2.404   0.101   3.157  0.00  0.00     0.017 A 
ATOM      5  C4  UNL d   1       2.503   0.019   4.551  0.00  0.00     0.017 A 
ATOM      6  C5  UNL d   1       2.787  -1.209   5.156  0.00  0.00     0.034 A 
ATOM      7 Cl   UNL d   1       2.285   1.391   5.578  0.00  0.00    -0.070 Cl
ATOM      8 Cl1  UNL d   1       2.057   1.581   2.337  0.00  0.00    -0.070 Cl
ENDROOT
TORSDOF 0
ENDMDL
