MODEL 1
REMARK minimizedAffinity -5.06842852
REMARK minimizedRMSD -1
REMARK  0 active torsions:
REMARK  status: ('A' for Active; 'I' for Inactive)
ROOT
ATOM      1  C   UNL d   1      -1.463   0.442   1.424  0.00  0.00     0.078 C 
ATOM      2  C1  UNL d   1      -0.087   0.974   1.160  0.00  0.00    -0.077 A 
ATOM      3  C2  UNL d   1       0.668   0.516   0.073  0.00  0.00    -0.001 A 
ATOM      4  C3  UNL d   1       1.952   1.014  -0.154  0.00  0.00     0.003 A 
ATOM      5  C4  UNL d   1       2.493   1.971   0.701  0.00  0.00    -0.005 A 
ATOM      6  C5  UNL d   1       1.751   2.431   1.787  0.00  0.00     0.003 A 
ATOM      7  C6  UNL d   1       0.467   1.935   2.016  0.00  0.00    -0.001 A 
ENDROOT
TORSDOF 0
ENDMDL
