MODEL 1
REMARK minimizedAffinity -4.31870651
REMARK minimizedRMSD -1
REMARK  0 active torsions:
REMARK  status: ('A' for Active; 'I' for Inactive)
ROOT
ATOM      1  C   UNL d   1      -0.410  -0.281   0.091  0.00  0.00     0.078 C 
ATOM      2  C1  UNL d   1       0.278   0.883   0.738  0.00  0.00    -0.077 A 
ATOM      3  C2  UNL d   1       1.657   0.861   0.982  0.00  0.00    -0.001 A 
ATOM      4  C3  UNL d   1       2.283   1.948   1.594  0.00  0.00     0.003 A 
ATOM      5  C4  UNL d   1       1.539   3.064   1.970  0.00  0.00    -0.005 A 
ATOM      6  C5  UNL d   1       0.166   3.094   1.733  0.00  0.00     0.003 A 
ATOM      7  C6  UNL d   1      -0.462   2.009   1.121  0.00  0.00    -0.001 A 
ENDROOT
TORSDOF 0
ENDMDL
