MODEL 1
REMARK minimizedAffinity -5.08410454
REMARK minimizedRMSD -1
REMARK  0 active torsions:
REMARK  status: ('A' for Active; 'I' for Inactive)
ROOT
ATOM      1  C   UNL d   1       0.052  -0.923  -0.001  0.00  0.00     0.078 C 
ATOM      2  C1  UNL d   1       0.800   0.332   0.338  0.00  0.00    -0.077 A 
ATOM      3  C2  UNL d   1       0.247   1.293   1.193  0.00  0.00    -0.001 A 
ATOM      4  C3  UNL d   1       0.950   2.461   1.492  0.00  0.00     0.003 A 
ATOM      5  C4  UNL d   1       2.211   2.679   0.940  0.00  0.00    -0.005 A 
ATOM      6  C5  UNL d   1       2.769   1.729   0.086  0.00  0.00     0.003 A 
ATOM      7  C6  UNL d   1       2.067   0.561  -0.214  0.00  0.00    -0.001 A 
ENDROOT
TORSDOF 0
ENDMDL
