MODEL 1
REMARK minimizedAffinity -2.27439523
REMARK minimizedRMSD -1
REMARK  0 active torsions:
REMARK  status: ('A' for Active; 'I' for Inactive)
ROOT
ATOM      1  C   UNL d   1      -1.100  -1.242  -1.104  0.00  0.00     0.078 C 
ATOM      2  C1  UNL d   1      -0.593  -0.189  -0.165  0.00  0.00    -0.077 A 
ATOM      3  C2  UNL d   1      -1.203   0.025   1.077  0.00  0.00    -0.001 A 
ATOM      4  C3  UNL d   1      -0.726   1.015   1.937  0.00  0.00     0.003 A 
ATOM      5  C4  UNL d   1       0.362   1.801   1.564  0.00  0.00    -0.005 A 
ATOM      6  C5  UNL d   1       0.974   1.598   0.328  0.00  0.00     0.003 A 
ATOM      7  C6  UNL d   1       0.499   0.608  -0.533  0.00  0.00    -0.001 A 
ENDROOT
TORSDOF 0
ENDMDL
