MODEL 1
REMARK minimizedAffinity -5.25792503
REMARK minimizedRMSD -1
REMARK  0 active torsions:
REMARK  status: ('A' for Active; 'I' for Inactive)
ROOT
ATOM      1  C   UNL d   1      -0.276  -0.866  -0.438  0.00  0.00     0.078 C 
ATOM      2  C1  UNL d   1       0.475   0.278   0.175  0.00  0.00    -0.077 A 
ATOM      3  C2  UNL d   1      -0.193   1.277   0.894  0.00  0.00    -0.001 A 
ATOM      4  C3  UNL d   1       0.518   2.341   1.451  0.00  0.00     0.003 A 
ATOM      5  C4  UNL d   1       1.901   2.417   1.294  0.00  0.00    -0.005 A 
ATOM      6  C5  UNL d   1       2.574   1.429   0.579  0.00  0.00     0.003 A 
ATOM      7  C6  UNL d   1       1.864   0.364   0.021  0.00  0.00    -0.001 A 
ENDROOT
TORSDOF 0
ENDMDL
