MODEL 1
REMARK minimizedAffinity -3.52966857
REMARK minimizedRMSD -1
REMARK  0 active torsions:
REMARK  status: ('A' for Active; 'I' for Inactive)
ROOT
ATOM      1  C   UNL d   1       0.227  -0.016  -0.677  0.00  0.00     0.078 C 
ATOM      2  C1  UNL d   1       1.424   0.801  -0.293  0.00  0.00    -0.077 A 
ATOM      3  C2  UNL d   1       2.713   0.423  -0.690  0.00  0.00    -0.001 A 
ATOM      4  C3  UNL d   1       3.819   1.188  -0.317  0.00  0.00     0.003 A 
ATOM      5  C4  UNL d   1       3.648   2.336   0.455  0.00  0.00    -0.005 A 
ATOM      6  C5  UNL d   1       2.370   2.719   0.856  0.00  0.00     0.003 A 
ATOM      7  C6  UNL d   1       1.263   1.955   0.484  0.00  0.00    -0.001 A 
ENDROOT
TORSDOF 0
ENDMDL
