MODEL 1
REMARK minimizedAffinity -5.47003937
REMARK minimizedRMSD -1
REMARK  0 active torsions:
REMARK  status: ('A' for Active; 'I' for Inactive)
ROOT
ATOM      1  C   UNL d   1      -0.446  -0.766  -0.308  0.00  0.00     0.078 C 
ATOM      2  C1  UNL d   1       0.349   0.393   0.214  0.00  0.00    -0.077 A 
ATOM      3  C2  UNL d   1      -0.278   1.461   0.867  0.00  0.00    -0.001 A 
ATOM      4  C3  UNL d   1       0.473   2.539   1.339  0.00  0.00     0.003 A 
ATOM      5  C4  UNL d   1       1.856   2.558   1.163  0.00  0.00    -0.005 A 
ATOM      6  C5  UNL d   1       2.488   1.501   0.513  0.00  0.00     0.003 A 
ATOM      7  C6  UNL d   1       1.738   0.423   0.040  0.00  0.00    -0.001 A 
ENDROOT
TORSDOF 0
ENDMDL
