MODEL 1
REMARK minimizedAffinity -4.5367198
REMARK minimizedRMSD -1
REMARK  0 active torsions:
REMARK  status: ('A' for Active; 'I' for Inactive)
ROOT
ATOM      1  C   UNL d   1       0.847   2.822   1.469  0.00  0.00     0.078 C 
ATOM      2  C1  UNL d   1       0.436   1.477   0.950  0.00  0.00    -0.077 A 
ATOM      3  C2  UNL d   1      -0.673   0.807   1.480  0.00  0.00    -0.001 A 
ATOM      4  C3  UNL d   1      -1.039  -0.449   0.994  0.00  0.00     0.003 A 
ATOM      5  C4  UNL d   1      -0.300  -1.047  -0.025  0.00  0.00    -0.005 A 
ATOM      6  C5  UNL d   1       0.806  -0.389  -0.558  0.00  0.00     0.003 A 
ATOM      7  C6  UNL d   1       1.174   0.867  -0.073  0.00  0.00    -0.001 A 
ENDROOT
TORSDOF 0
ENDMDL
