MODEL 1
REMARK minimizedAffinity -4.86880112
REMARK minimizedRMSD -1
REMARK  0 active torsions:
REMARK  status: ('A' for Active; 'I' for Inactive)
ROOT
ATOM      1  C   UNL d   1      -0.705  -0.743  -0.753  0.00  0.00     0.078 C 
ATOM      2  C1  UNL d   1       0.025   0.282   0.062  0.00  0.00    -0.077 A 
ATOM      3  C2  UNL d   1      -0.386   0.595   1.364  0.00  0.00    -0.001 A 
ATOM      4  C3  UNL d   1       0.296   1.558   2.107  0.00  0.00     0.003 A 
ATOM      5  C4  UNL d   1       1.394   2.218   1.558  0.00  0.00    -0.005 A 
ATOM      6  C5  UNL d   1       1.809   1.916   0.262  0.00  0.00     0.003 A 
ATOM      7  C6  UNL d   1       1.127   0.952  -0.483  0.00  0.00    -0.001 A 
ENDROOT
TORSDOF 0
ENDMDL
