MODEL 1
REMARK minimizedAffinity -4.48692751
REMARK minimizedRMSD -1
REMARK  0 active torsions:
REMARK  status: ('A' for Active; 'I' for Inactive)
ROOT
ATOM      1  C   UNL d   1       1.736   3.035   0.752  0.00  0.00     0.078 C 
ATOM      2  C1  UNL d   1       0.863   1.816   0.743  0.00  0.00    -0.077 A 
ATOM      3  C2  UNL d   1      -0.099   1.610   1.740  0.00  0.00    -0.001 A 
ATOM      4  C3  UNL d   1      -0.898   0.466   1.725  0.00  0.00     0.003 A 
ATOM      5  C4  UNL d   1      -0.743  -0.483   0.716  0.00  0.00    -0.005 A 
ATOM      6  C5  UNL d   1       0.213  -0.288  -0.279  0.00  0.00     0.003 A 
ATOM      7  C6  UNL d   1       1.013   0.856  -0.265  0.00  0.00    -0.001 A 
ENDROOT
TORSDOF 0
ENDMDL
