MODEL 1
REMARK minimizedAffinity -5.63885355
REMARK minimizedRMSD -1
REMARK  0 active torsions:
REMARK  status: ('A' for Active; 'I' for Inactive)
ROOT
ATOM      1  C   UNL d   1      -0.235  -0.019  -0.232  0.00  0.00     0.078 C 
ATOM      2  C1  UNL d   1       0.867   0.909   0.182  0.00  0.00    -0.077 A 
ATOM      3  C2  UNL d   1       2.210   0.568  -0.018  0.00  0.00    -0.001 A 
ATOM      4  C3  UNL d   1       3.227   1.437   0.382  0.00  0.00     0.003 A 
ATOM      5  C4  UNL d   1       2.910   2.653   0.985  0.00  0.00    -0.005 A 
ATOM      6  C5  UNL d   1       1.577   3.000   1.191  0.00  0.00     0.003 A 
ATOM      7  C6  UNL d   1       0.559   2.132   0.792  0.00  0.00    -0.001 A 
ENDROOT
TORSDOF 0
ENDMDL
