MODEL 1
REMARK minimizedAffinity -1.20794129
REMARK minimizedRMSD -1
REMARK  0 active torsions:
REMARK  status: ('A' for Active; 'I' for Inactive)
ROOT
ATOM      1  C   UNL d   1      -4.120  -3.127  -1.388  0.00  0.00     0.078 C 
ATOM      2  C1  UNL d   1      -2.906  -2.379  -1.851  0.00  0.00    -0.077 A 
ATOM      3  C2  UNL d   1      -2.803  -1.917  -3.169  0.00  0.00    -0.001 A 
ATOM      4  C3  UNL d   1      -1.662  -1.231  -3.589  0.00  0.00     0.003 A 
ATOM      5  C4  UNL d   1      -0.615  -1.002  -2.698  0.00  0.00    -0.005 A 
ATOM      6  C5  UNL d   1      -0.708  -1.460  -1.386  0.00  0.00     0.003 A 
ATOM      7  C6  UNL d   1      -1.848  -2.146  -0.964  0.00  0.00    -0.001 A 
ENDROOT
TORSDOF 0
ENDMDL
