MODEL 1
REMARK minimizedAffinity -5.60916805
REMARK minimizedRMSD -1
REMARK  0 active torsions:
REMARK  status: ('A' for Active; 'I' for Inactive)
ROOT
ATOM      1  C   UNL d   1      -0.458  -1.011  -0.617  0.00  0.00     0.078 C 
ATOM      2  C1  UNL d   1       0.168   0.183   0.040  0.00  0.00    -0.077 A 
ATOM      3  C2  UNL d   1      -0.551   0.963   0.954  0.00  0.00    -0.001 A 
ATOM      4  C3  UNL d   1       0.041   2.077   1.550  0.00  0.00     0.003 A 
ATOM      5  C4  UNL d   1       1.355   2.422   1.239  0.00  0.00    -0.005 A 
ATOM      6  C5  UNL d   1       2.078   1.653   0.329  0.00  0.00     0.003 A 
ATOM      7  C6  UNL d   1       1.487   0.539  -0.268  0.00  0.00    -0.001 A 
ENDROOT
TORSDOF 0
ENDMDL
