MODEL 1
REMARK minimizedAffinity 10.7278862
REMARK minimizedRMSD -1
REMARK  0 active torsions:
REMARK  status: ('A' for Active; 'I' for Inactive)
ROOT
ATOM      1  O1  BZF d   1      -1.849  -4.863   0.713  0.00  0.00    -0.204 OA
ATOM      2  C2  BZF d   1      -2.259  -3.606   0.313  0.00  0.00     0.174 A 
ATOM      3  C3  BZF d   1      -1.204  -2.856  -0.066  0.00  0.00    -0.012 A 
ATOM      4  C3A BZF d   1      -0.073  -3.728   0.020  0.00  0.00    -0.107 A 
ATOM      5  C4  BZF d   1       1.258  -3.568  -0.242  0.00  0.00     0.055 A 
ATOM      6  C5  BZF d   1       2.110  -4.595   0.016  0.00  0.00    -0.016 A 
ATOM      7  C6  BZF d   1       1.667  -5.792   0.540  0.00  0.00     0.022 A 
ATOM      8  C7  BZF d   1       0.356  -5.999   0.812  0.00  0.00     0.029 A 
ATOM      9  C7A BZF d   1      -0.513  -4.975   0.522  0.00  0.00     0.058 A 
ENDROOT
TORSDOF 0
ENDMDL
