MODEL 1
REMARK minimizedAffinity 6.40712166
REMARK minimizedRMSD -1
REMARK  0 active torsions:
REMARK  status: ('A' for Active; 'I' for Inactive)
ROOT
ATOM      1  O1  BZF d   1      -2.701  -2.960   0.602  0.00  0.00    -0.204 OA
ATOM      2  C2  BZF d   1      -1.389  -3.337   0.390  0.00  0.00     0.174 A 
ATOM      3  C3  BZF d   1      -0.804  -2.540  -0.527  0.00  0.00    -0.012 A 
ATOM      4  C3A BZF d   1      -1.786  -1.549  -0.845  0.00  0.00    -0.107 A 
ATOM      5  C4  BZF d   1      -1.794  -0.470  -1.682  0.00  0.00     0.055 A 
ATOM      6  C5  BZF d   1      -2.937   0.252  -1.817  0.00  0.00    -0.016 A 
ATOM      7  C6  BZF d   1      -4.090  -0.078  -1.135  0.00  0.00     0.022 A 
ATOM      8  C7  BZF d   1      -4.129  -1.137  -0.290  0.00  0.00     0.029 A 
ATOM      9  C7A BZF d   1      -2.966  -1.849  -0.126  0.00  0.00     0.058 A 
ENDROOT
TORSDOF 0
ENDMDL
