MODEL 1
REMARK minimizedAffinity 20.8978653
REMARK minimizedRMSD -1
REMARK  0 active torsions:
REMARK  status: ('A' for Active; 'I' for Inactive)
ROOT
ATOM      1  O1  BZF d   1      -2.181  -3.623   0.040  0.00  0.00    -0.204 OA
ATOM      2  C2  BZF d   1      -0.875  -4.042  -0.123  0.00  0.00     0.174 A 
ATOM      3  C3  BZF d   1      -0.248  -3.304  -1.062  0.00  0.00    -0.012 A 
ATOM      4  C3A BZF d   1      -1.197  -2.305  -1.449  0.00  0.00    -0.107 A 
ATOM      5  C4  BZF d   1      -1.157  -1.267  -2.336  0.00  0.00     0.055 A 
ATOM      6  C5  BZF d   1      -2.278  -0.523  -2.532  0.00  0.00    -0.016 A 
ATOM      7  C6  BZF d   1      -3.454  -0.792  -1.863  0.00  0.00     0.022 A 
ATOM      8  C7  BZF d   1      -3.540  -1.808  -0.971  0.00  0.00     0.029 A 
ATOM      9  C7A BZF d   1      -2.400  -2.541  -0.746  0.00  0.00     0.058 A 
ENDROOT
TORSDOF 0
ENDMDL
