MODEL 1
REMARK minimizedAffinity 12.8068295
REMARK minimizedRMSD -1
REMARK  0 active torsions:
REMARK  status: ('A' for Active; 'I' for Inactive)
ROOT
ATOM      1  O1  BZF d   1      -1.148   0.686  -4.641  0.00  0.00    -0.204 OA
ATOM      2  C2  BZF d   1      -0.378   0.137  -3.635  0.00  0.00     0.174 A 
ATOM      3  C3  BZF d   1      -1.088   0.031  -2.493  0.00  0.00    -0.012 A 
ATOM      4  C3A BZF d   1      -2.410   0.462  -2.830  0.00  0.00    -0.107 A 
ATOM      5  C4  BZF d   1      -3.572   0.569  -2.121  0.00  0.00     0.055 A 
ATOM      6  C5  BZF d   1      -4.669   1.094  -2.727  0.00  0.00    -0.016 A 
ATOM      7  C6  BZF d   1      -4.639   1.526  -4.037  0.00  0.00     0.022 A 
ATOM      8  C7  BZF d   1      -3.510   1.435  -4.782  0.00  0.00     0.029 A 
ATOM      9  C7A BZF d   1      -2.409   0.875  -4.183  0.00  0.00     0.058 A 
ENDROOT
TORSDOF 0
ENDMDL
