MODEL 1
REMARK minimizedAffinity -5.00584221
REMARK minimizedRMSD -1
REMARK  1 active torsions:
REMARK  status: ('A' for Active; 'I' for Inactive)
REMARK    1  A    between atoms: C1_2  and  C2_3 
ROOT
ATOM      1  C2  UNL d   1       0.932  -1.093   0.091  0.00  0.00    -0.081 A 
ATOM      2  C3  UNL d   1       0.788   0.283   0.306  0.00  0.00     0.006 A 
ATOM      3  C4  UNL d   1      -0.480   0.868   0.326  0.00  0.00     0.002 A 
ATOM      4  C5  UNL d   1      -1.625   0.086   0.140  0.00  0.00    -0.080 A 
ATOM      5  C6  UNL d   1      -2.995   0.697   0.189  0.00  0.00     0.076 C 
ATOM      6  C7  UNL d   1      -1.481  -1.286  -0.092  0.00  0.00     0.002 A 
ATOM      7  C8  UNL d   1      -0.213  -1.871  -0.113  0.00  0.00     0.006 A 
ENDROOT
BRANCH   1   8
ATOM      8  C1  UNL d   1       2.294  -1.737   0.134  0.00  0.00     0.054 C 
ATOM      9  C   UNL d   1       3.392  -0.699   0.317  0.00  0.00     0.018 C 
ENDBRANCH   1   8
TORSDOF 1
ENDMDL
