MODEL 1
REMARK minimizedAffinity -4.47409678
REMARK minimizedRMSD -1
REMARK  1 active torsions:
REMARK  status: ('A' for Active; 'I' for Inactive)
REMARK    1  A    between atoms: C1_2  and  C2_3 
ROOT
ATOM      1  C2  UNL d   1      -0.338   0.071  -0.201  0.00  0.00    -0.081 A 
ATOM      2  C3  UNL d   1       0.102  -1.258  -0.237  0.00  0.00     0.006 A 
ATOM      3  C4  UNL d   1       1.374  -1.596   0.231  0.00  0.00     0.002 A 
ATOM      4  C5  UNL d   1       2.223  -0.613   0.750  0.00  0.00    -0.080 A 
ATOM      5  C6  UNL d   1       3.579  -0.967   1.284  0.00  0.00     0.076 C 
ATOM      6  C7  UNL d   1       1.791   0.717   0.770  0.00  0.00     0.002 A 
ATOM      7  C8  UNL d   1       0.519   1.056   0.301  0.00  0.00     0.006 A 
ENDROOT
BRANCH   1   8
ATOM      8  C1  UNL d   1      -1.733   0.428  -0.646  0.00  0.00     0.054 C 
ATOM      9  C   UNL d   1      -2.604   0.831   0.536  0.00  0.00     0.018 C 
ENDBRANCH   1   8
TORSDOF 1
ENDMDL
