MODEL 1
REMARK minimizedAffinity -3.24512839
REMARK minimizedRMSD -1
REMARK  1 active torsions:
REMARK  status: ('A' for Active; 'I' for Inactive)
REMARK    1  A    between atoms: C1_2  and  C2_3 
ROOT
ATOM      1  C2  UNL d   1       2.662   0.512  -0.047  0.00  0.00    -0.081 A 
ATOM      2  C3  UNL d   1       1.298   0.827  -0.034  0.00  0.00     0.006 A 
ATOM      3  C4  UNL d   1       0.337  -0.186  -0.074  0.00  0.00     0.002 A 
ATOM      4  C5  UNL d   1       0.723  -1.530  -0.119  0.00  0.00    -0.080 A 
ATOM      5  C6  UNL d   1      -0.299  -2.628  -0.132  0.00  0.00     0.076 C 
ATOM      6  C7  UNL d   1       2.086  -1.844  -0.150  0.00  0.00     0.002 A 
ATOM      7  C8  UNL d   1       3.047  -0.832  -0.111  0.00  0.00     0.006 A 
ENDROOT
BRANCH   1   8
ATOM      8  C1  UNL d   1       3.701   1.599   0.061  0.00  0.00     0.054 C 
ATOM      9  C   UNL d   1       3.175   2.789   0.851  0.00  0.00     0.018 C 
ENDBRANCH   1   8
TORSDOF 1
ENDMDL
