MODEL 1
REMARK minimizedAffinity -5.26739788
REMARK minimizedRMSD -1
REMARK  1 active torsions:
REMARK  status: ('A' for Active; 'I' for Inactive)
REMARK    1  A    between atoms: C1_2  and  C2_3 
ROOT
ATOM      1  C2  UNL d   1      -1.028   0.273  -0.184  0.00  0.00    -0.081 A 
ATOM      2  C3  UNL d   1      -0.996  -0.601   0.909  0.00  0.00     0.006 A 
ATOM      3  C4  UNL d   1       0.220  -1.103   1.379  0.00  0.00     0.002 A 
ATOM      4  C5  UNL d   1       1.424  -0.734   0.770  0.00  0.00    -0.080 A 
ATOM      5  C6  UNL d   1       2.738  -1.242   1.283  0.00  0.00     0.076 C 
ATOM      6  C7  UNL d   1       1.391   0.125  -0.334  0.00  0.00     0.002 A 
ATOM      7  C8  UNL d   1       0.175   0.627  -0.805  0.00  0.00     0.006 A 
ENDROOT
BRANCH   1   8
ATOM      8  C1  UNL d   1      -2.332   0.866  -0.653  0.00  0.00     0.054 C 
ATOM      9  C   UNL d   1      -3.204   1.284   0.522  0.00  0.00     0.018 C 
ENDBRANCH   1   8
TORSDOF 1
ENDMDL
