MODEL 1
REMARK minimizedAffinity -2.08733535
REMARK minimizedRMSD -1
REMARK  1 active torsions:
REMARK  status: ('A' for Active; 'I' for Inactive)
REMARK    1  A    between atoms: N_2  and  C1_3 
ROOT
ATOM      1  C1  UNL d   1       0.377  -0.092  -1.137  0.00  0.00     0.143 A 
ATOM      2  C2  UNL d   1       0.003  -0.031  -2.484  0.00  0.00    -0.057 A 
ATOM      3  C3  UNL d   1       0.751   0.702  -3.413  0.00  0.00     0.033 A 
ATOM      4  C4  UNL d   1       1.874   1.414  -3.003  0.00  0.00    -0.042 A 
ATOM      5  C5  UNL d   1       2.250   1.388  -1.665  0.00  0.00     0.033 A 
ATOM      6  C6  UNL d   1       1.503   0.648  -0.744  0.00  0.00    -0.057 A 
ENDROOT
BRANCH   1   7
ATOM      7  N   UNL d   1      -0.381  -0.723  -0.148  0.00  0.00    -0.732 N 
ATOM      8  C   UNL d   1      -1.648  -0.168   0.277  0.00  0.00     0.284 C 
ATOM      9  H3  UNL d   1      -0.383  -1.736  -0.247  0.00  0.00     0.395 HD
ENDBRANCH   1   7
TORSDOF 1
ENDMDL
