MODEL 1
REMARK minimizedAffinity -2.66264153
REMARK minimizedRMSD -1
REMARK  1 active torsions:
REMARK  status: ('A' for Active; 'I' for Inactive)
REMARK    1  A    between atoms: N_2  and  C1_3 
ROOT
ATOM      1  C1  UNL d   1      -1.404   0.213   1.169  0.00  0.00     0.143 A 
ATOM      2  C2  UNL d   1      -0.548   0.143   2.274  0.00  0.00    -0.057 A 
ATOM      3  C3  UNL d   1       0.803  -0.191   2.126  0.00  0.00     0.033 A 
ATOM      4  C4  UNL d   1       1.318  -0.492   0.869  0.00  0.00    -0.042 A 
ATOM      5  C5  UNL d   1       0.480  -0.454  -0.240  0.00  0.00     0.033 A 
ATOM      6  C6  UNL d   1      -0.867  -0.113  -0.086  0.00  0.00    -0.057 A 
ENDROOT
BRANCH   1   7
ATOM      7  N   UNL d   1      -2.778   0.443   1.263  0.00  0.00    -0.732 N 
ATOM      8  C   UNL d   1      -3.625   0.339   0.094  0.00  0.00     0.284 C 
ATOM      9  H3  UNL d   1      -3.183   0.042   2.106  0.00  0.00     0.395 HD
ENDBRANCH   1   7
TORSDOF 1
ENDMDL
