MODEL 1
REMARK minimizedAffinity 0.176225588
REMARK minimizedRMSD -1
REMARK  1 active torsions:
REMARK  status: ('A' for Active; 'I' for Inactive)
REMARK    1  A    between atoms: N_2  and  C1_3 
ROOT
ATOM      1  C1  UNL d   1       1.237   0.393  -1.790  0.00  0.00     0.143 A 
ATOM      2  C2  UNL d   1       2.046  -0.265  -0.857  0.00  0.00    -0.057 A 
ATOM      3  C3  UNL d   1       1.582  -0.551   0.433  0.00  0.00     0.033 A 
ATOM      4  C4  UNL d   1       0.306  -0.158   0.823  0.00  0.00    -0.042 A 
ATOM      5  C5  UNL d   1      -0.507   0.519  -0.080  0.00  0.00     0.033 A 
ATOM      6  C6  UNL d   1      -0.040   0.797  -1.368  0.00  0.00    -0.057 A 
ENDROOT
BRANCH   1   7
ATOM      7  N   UNL d   1       1.675   0.794  -3.054  0.00  0.00    -0.732 N 
ATOM      8  C   UNL d   1       0.728   1.219  -4.062  0.00  0.00     0.284 C 
ATOM      9  H3  UNL d   1       2.519   1.361  -3.011  0.00  0.00     0.395 HD
ENDBRANCH   1   7
TORSDOF 1
ENDMDL
