MODEL 1
REMARK minimizedAffinity -5.31553411
REMARK minimizedRMSD -1
REMARK  1 active torsions:
REMARK  status: ('A' for Active; 'I' for Inactive)
REMARK    1  A    between atoms: N_2  and  C1_3 
ROOT
ATOM      1  C1  UNL d   1      -0.029  -0.013   0.116  0.00  0.00     0.143 A 
ATOM      2  C2  UNL d   1      -1.344   0.390   0.372  0.00  0.00    -0.057 A 
ATOM      3  C3  UNL d   1      -1.690   1.016   1.575  0.00  0.00     0.033 A 
ATOM      4  C4  UNL d   1      -0.729   1.226   2.559  0.00  0.00    -0.042 A 
ATOM      5  C5  UNL d   1       0.579   0.812   2.336  0.00  0.00     0.033 A 
ATOM      6  C6  UNL d   1       0.920   0.193   1.130  0.00  0.00    -0.057 A 
ENDROOT
BRANCH   1   7
ATOM      7  N   UNL d   1       0.358  -0.729  -1.019  0.00  0.00    -0.732 N 
ATOM      8  C   UNL d   1       0.737  -0.038  -2.233  0.00  0.00     0.284 C 
ATOM      9  H3  UNL d   1       0.949  -1.526  -0.793  0.00  0.00     0.395 HD
ENDBRANCH   1   7
TORSDOF 1
ENDMDL
