MODEL 1
REMARK minimizedAffinity -2.09407473
REMARK minimizedRMSD -1
REMARK  1 active torsions:
REMARK  status: ('A' for Active; 'I' for Inactive)
REMARK    1  A    between atoms: N_2  and  C1_3 
ROOT
ATOM      1  C1  UNL d   1      -0.147  -0.357  -0.454  0.00  0.00     0.143 A 
ATOM      2  C2  UNL d   1      -1.527  -0.207  -0.279  0.00  0.00    -0.057 A 
ATOM      3  C3  UNL d   1      -2.056   0.317   0.907  0.00  0.00     0.033 A 
ATOM      4  C4  UNL d   1      -1.212   0.674   1.953  0.00  0.00    -0.042 A 
ATOM      5  C5  UNL d   1       0.161   0.510   1.811  0.00  0.00     0.033 A 
ATOM      6  C6  UNL d   1       0.684  -0.007   0.622  0.00  0.00    -0.057 A 
ENDROOT
BRANCH   1   7
ATOM      7  N   UNL d   1       0.434  -0.963  -1.571  0.00  0.00    -0.732 N 
ATOM      8  C   UNL d   1       0.937  -0.162  -2.666  0.00  0.00     0.284 C 
ATOM      9  H3  UNL d   1       1.032  -1.747  -1.320  0.00  0.00     0.395 HD
ENDBRANCH   1   7
TORSDOF 1
ENDMDL
