MODEL 1
REMARK minimizedAffinity 5.28968716
REMARK minimizedRMSD -1
REMARK  2 active torsions:
REMARK  status: ('A' for Active; 'I' for Inactive)
REMARK    1  A    between atoms: C1_2  and  C2_3 
REMARK    2  A    between atoms: C2_3  and  C3_4 
ROOT
ATOM      1  C3  UNL d   1       4.961   3.805  -5.297  0.00  0.00    -0.075 A 
ATOM      2  C4  UNL d   1       3.696   3.996  -5.872  0.00  0.00     0.002 A 
ATOM      3  C5  UNL d   1       2.749   4.809  -5.248  0.00  0.00     0.002 A 
ATOM      4  C6  UNL d   1       3.051   5.433  -4.039  0.00  0.00    -0.004 A 
ATOM      5  C7  UNL d   1       4.298   5.237  -3.451  0.00  0.00     0.002 A 
ATOM      6  C8  UNL d   1       5.249   4.427  -4.075  0.00  0.00     0.002 A 
ENDROOT
BRANCH   1   7
ATOM      7  C2  UNL d   1       5.999   2.950  -5.982  0.00  0.00     0.056 C 
BRANCH   7   8
ATOM      8  C1  UNL d   1       5.780   1.443  -5.809  0.00  0.00     0.007 C 
ATOM      9  C   UNL d   1       5.986   0.967  -4.377  0.00  0.00     0.009 C 
ENDBRANCH   7   8
ENDBRANCH   1   7
TORSDOF 2
ENDMDL
