MODEL 1
REMARK minimizedAffinity 4.83781767
REMARK minimizedRMSD -1
REMARK  2 active torsions:
REMARK  status: ('A' for Active; 'I' for Inactive)
REMARK    1  A    between atoms: C1_2  and  C2_3 
REMARK    2  A    between atoms: C2_3  and  C3_4 
ROOT
ATOM      1  C3  UNL d   1      -1.688   2.364  -0.761  0.00  0.00    -0.075 A 
ATOM      2  C4  UNL d   1      -3.073   2.275  -0.957  0.00  0.00     0.002 A 
ATOM      3  C5  UNL d   1      -3.912   3.321  -0.570  0.00  0.00     0.002 A 
ATOM      4  C6  UNL d   1      -3.378   4.461   0.026  0.00  0.00    -0.004 A 
ATOM      5  C7  UNL d   1      -2.005   4.553   0.241  0.00  0.00     0.002 A 
ATOM      6  C8  UNL d   1      -1.163   3.510  -0.149  0.00  0.00     0.002 A 
ENDROOT
BRANCH   1   7
ATOM      7  C2  UNL d   1      -0.772   1.248  -1.204  0.00  0.00     0.056 C 
BRANCH   7   8
ATOM      8  C1  UNL d   1       0.475   1.726  -1.956  0.00  0.00     0.007 C 
ATOM      9  C   UNL d   1       0.415   1.452  -3.453  0.00  0.00     0.009 C 
ENDBRANCH   7   8
ENDBRANCH   1   7
TORSDOF 2
ENDMDL
