MODEL 1
REMARK minimizedAffinity 9.8265028
REMARK minimizedRMSD -1
REMARK  2 active torsions:
REMARK  status: ('A' for Active; 'I' for Inactive)
REMARK    1  A    between atoms: C1_2  and  C2_3 
REMARK    2  A    between atoms: C2_3  and  C3_4 
ROOT
ATOM      1  C3  UNL d   1       4.523   2.239   3.088  0.00  0.00    -0.075 A 
ATOM      2  C4  UNL d   1       5.255   2.565   4.239  0.00  0.00     0.002 A 
ATOM      3  C5  UNL d   1       5.992   1.588   4.910  0.00  0.00     0.002 A 
ATOM      4  C6  UNL d   1       5.999   0.275   4.446  0.00  0.00    -0.004 A 
ATOM      5  C7  UNL d   1       5.262  -0.064   3.313  0.00  0.00     0.002 A 
ATOM      6  C8  UNL d   1       4.527   0.912   2.637  0.00  0.00     0.002 A 
ENDROOT
BRANCH   1   7
ATOM      7  C2  UNL d   1       3.747   3.297   2.340  0.00  0.00     0.056 C 
BRANCH   7   8
ATOM      8  C1  UNL d   1       3.074   2.789   1.061  0.00  0.00     0.007 C 
ATOM      9  C   UNL d   1       1.753   3.485   0.761  0.00  0.00     0.009 C 
ENDBRANCH   7   8
ENDBRANCH   1   7
TORSDOF 2
ENDMDL
