MODEL 1
REMARK minimizedAffinity 2.1028893
REMARK minimizedRMSD -1
REMARK  2 active torsions:
REMARK  status: ('A' for Active; 'I' for Inactive)
REMARK    1  A    between atoms: C1_2  and  C2_3 
REMARK    2  A    between atoms: C2_3  and  C3_4 
ROOT
ATOM      1  C3  UNL d   1      -3.763  -1.220   2.305  0.00  0.00    -0.075 A 
ATOM      2  C4  UNL d   1      -2.717  -1.448   1.398  0.00  0.00     0.002 A 
ATOM      3  C5  UNL d   1      -2.945  -1.387   0.023  0.00  0.00     0.002 A 
ATOM      4  C6  UNL d   1      -4.221  -1.108  -0.462  0.00  0.00    -0.004 A 
ATOM      5  C7  UNL d   1      -5.271  -0.896   0.429  0.00  0.00     0.002 A 
ATOM      6  C8  UNL d   1      -5.044  -0.952   1.805  0.00  0.00     0.002 A 
ENDROOT
BRANCH   1   7
ATOM      7  C2  UNL d   1      -3.516  -1.255   3.794  0.00  0.00     0.056 C 
BRANCH   7   8
ATOM      8  C1  UNL d   1      -2.131  -0.747   4.209  0.00  0.00     0.007 C 
ATOM      9  C   UNL d   1      -1.883   0.705   3.819  0.00  0.00     0.009 C 
ENDBRANCH   7   8
ENDBRANCH   1   7
TORSDOF 2
ENDMDL
