MODEL 1
REMARK minimizedAffinity -3.62366223
REMARK minimizedRMSD -1
REMARK  2 active torsions:
REMARK  status: ('A' for Active; 'I' for Inactive)
REMARK    1  A    between atoms: C1_2  and  C2_3 
REMARK    2  A    between atoms: C2_3  and  C3_4 
ROOT
ATOM      1  C3  UNL d   1       3.867   0.630  -4.057  0.00  0.00    -0.075 A 
ATOM      2  C4  UNL d   1       5.008  -0.183  -4.118  0.00  0.00     0.002 A 
ATOM      3  C5  UNL d   1       5.992   0.047  -5.080  0.00  0.00     0.002 A 
ATOM      4  C6  UNL d   1       5.843   1.084  -5.998  0.00  0.00    -0.004 A 
ATOM      5  C7  UNL d   1       4.706   1.888  -5.958  0.00  0.00     0.002 A 
ATOM      6  C8  UNL d   1       3.722   1.662  -4.994  0.00  0.00     0.002 A 
ENDROOT
BRANCH   1   7
ATOM      7  C2  UNL d   1       2.813   0.404  -3.000  0.00  0.00     0.056 C 
BRANCH   7   8
ATOM      8  C1  UNL d   1       1.420   0.911  -3.389  0.00  0.00     0.007 C 
ATOM      9  C   UNL d   1       0.994   2.151  -2.615  0.00  0.00     0.009 C 
ENDBRANCH   7   8
ENDBRANCH   1   7
TORSDOF 2
ENDMDL
