MODEL 1
REMARK minimizedAffinity 9.36978626
REMARK minimizedRMSD -1
REMARK  2 active torsions:
REMARK  status: ('A' for Active; 'I' for Inactive)
REMARK    1  A    between atoms: C1_2  and  C2_3 
REMARK    2  A    between atoms: C2_3  and  C3_4 
ROOT
ATOM      1  C3  UNL d   1       4.601   2.393   2.695  0.00  0.00    -0.075 A 
ATOM      2  C4  UNL d   1       4.466   1.033   2.378  0.00  0.00     0.002 A 
ATOM      3  C5  UNL d   1       5.078   0.058   3.165  0.00  0.00     0.002 A 
ATOM      4  C6  UNL d   1       5.840   0.428   4.271  0.00  0.00    -0.004 A 
ATOM      5  C7  UNL d   1       5.995   1.776   4.586  0.00  0.00     0.002 A 
ATOM      6  C8  UNL d   1       5.380   2.754   3.802  0.00  0.00     0.002 A 
ENDROOT
BRANCH   1   7
ATOM      7  C2  UNL d   1       3.917   3.452   1.864  0.00  0.00     0.056 C 
BRANCH   7   8
ATOM      8  C1  UNL d   1       2.641   2.969   1.166  0.00  0.00     0.007 C 
ATOM      9  C   UNL d   1       2.080   3.980   0.175  0.00  0.00     0.009 C 
ENDBRANCH   7   8
ENDBRANCH   1   7
TORSDOF 2
ENDMDL
