MODEL 1
REMARK minimizedAffinity -5.90356445
REMARK minimizedRMSD -1
REMARK  2 active torsions:
REMARK  status: ('A' for Active; 'I' for Inactive)
REMARK    1  A    between atoms: C1_2  and  C2_3 
REMARK    2  A    between atoms: C2_3  and  C3_4 
ROOT
ATOM      1  C3  UNL d   1      -3.458   1.566   2.785  0.00  0.00    -0.075 A 
ATOM      2  C4  UNL d   1      -2.898   1.352   1.517  0.00  0.00     0.002 A 
ATOM      3  C5  UNL d   1      -2.987   0.100   0.907  0.00  0.00     0.002 A 
ATOM      4  C6  UNL d   1      -3.625  -0.953   1.559  0.00  0.00    -0.004 A 
ATOM      5  C7  UNL d   1      -4.169  -0.755   2.826  0.00  0.00     0.002 A 
ATOM      6  C8  UNL d   1      -4.086   0.497   3.437  0.00  0.00     0.002 A 
ENDROOT
BRANCH   1   7
ATOM      7  C2  UNL d   1      -3.391   2.926   3.439  0.00  0.00     0.056 C 
BRANCH   7   8
ATOM      8  C1  UNL d   1      -4.228   3.045   4.717  0.00  0.00     0.007 C 
ATOM      9  C   UNL d   1      -4.759   4.452   4.957  0.00  0.00     0.009 C 
ENDBRANCH   7   8
ENDBRANCH   1   7
TORSDOF 2
ENDMDL
