MODEL 1
REMARK minimizedAffinity 2.13522482
REMARK minimizedRMSD -1
REMARK  2 active torsions:
REMARK  status: ('A' for Active; 'I' for Inactive)
REMARK    1  A    between atoms: C1_2  and  C2_3 
REMARK    2  A    between atoms: C2_3  and  C3_4 
ROOT
ATOM      1  C3  UNL d   1      -3.348  -0.402   1.387  0.00  0.00    -0.075 A 
ATOM      2  C4  UNL d   1      -2.547   0.145   2.400  0.00  0.00     0.002 A 
ATOM      3  C5  UNL d   1      -2.696  -0.271   3.724  0.00  0.00     0.002 A 
ATOM      4  C6  UNL d   1      -3.653  -1.228   4.052  0.00  0.00    -0.004 A 
ATOM      5  C7  UNL d   1      -4.466  -1.766   3.057  0.00  0.00     0.002 A 
ATOM      6  C8  UNL d   1      -4.315  -1.355   1.731  0.00  0.00     0.002 A 
ENDROOT
BRANCH   1   7
ATOM      7  C2  UNL d   1      -3.171   0.022  -0.051  0.00  0.00     0.056 C 
BRANCH   7   8
ATOM      8  C1  UNL d   1      -2.331   1.292  -0.229  0.00  0.00     0.007 C 
ATOM      9  C   UNL d   1      -3.134   2.475  -0.753  0.00  0.00     0.009 C 
ENDBRANCH   7   8
ENDBRANCH   1   7
TORSDOF 2
ENDMDL
