MODEL 1
REMARK minimizedAffinity 6.1223793
REMARK minimizedRMSD -1
REMARK  2 active torsions:
REMARK  status: ('A' for Active; 'I' for Inactive)
REMARK    1  A    between atoms: C1_2  and  C2_3 
REMARK    2  A    between atoms: C2_3  and  C3_4 
ROOT
ATOM      1  C3  UNL d   1      -4.160  -1.450   2.194  0.00  0.00    -0.075 A 
ATOM      2  C4  UNL d   1      -3.180  -1.406   1.192  0.00  0.00     0.002 A 
ATOM      3  C5  UNL d   1      -3.502  -0.978  -0.096  0.00  0.00     0.002 A 
ATOM      4  C6  UNL d   1      -4.808  -0.600  -0.401  0.00  0.00    -0.004 A 
ATOM      5  C7  UNL d   1      -5.793  -0.656   0.582  0.00  0.00     0.002 A 
ATOM      6  C8  UNL d   1      -5.473  -1.079   1.873  0.00  0.00     0.002 A 
ENDROOT
BRANCH   1   7
ATOM      7  C2  UNL d   1      -3.811  -1.884   3.598  0.00  0.00     0.056 C 
BRANCH   7   8
ATOM      8  C1  UNL d   1      -3.264  -0.758   4.481  0.00  0.00     0.007 C 
ATOM      9  C   UNL d   1      -2.124   0.015   3.830  0.00  0.00     0.009 C 
ENDBRANCH   7   8
ENDBRANCH   1   7
TORSDOF 2
ENDMDL
