MODEL 1
REMARK minimizedAffinity 4.62082338
REMARK minimizedRMSD -1
REMARK  2 active torsions:
REMARK  status: ('A' for Active; 'I' for Inactive)
REMARK    1  A    between atoms: C1_2  and  C2_3 
REMARK    2  A    between atoms: C2_3  and  C3_4 
ROOT
ATOM      1  C3  UNL d   1      -2.284   2.296  -0.392  0.00  0.00    -0.075 A 
ATOM      2  C4  UNL d   1      -3.545   2.389  -0.998  0.00  0.00     0.002 A 
ATOM      3  C5  UNL d   1      -4.396   3.454  -0.704  0.00  0.00     0.002 A 
ATOM      4  C6  UNL d   1      -4.003   4.433   0.205  0.00  0.00    -0.004 A 
ATOM      5  C7  UNL d   1      -2.759   4.343   0.826  0.00  0.00     0.002 A 
ATOM      6  C8  UNL d   1      -1.903   3.280   0.530  0.00  0.00     0.002 A 
ENDROOT
BRANCH   1   7
ATOM      7  C2  UNL d   1      -1.346   1.162  -0.729  0.00  0.00     0.056 C 
BRANCH   7   8
ATOM      8  C1  UNL d   1      -0.024   1.611  -1.359  0.00  0.00     0.007 C 
ATOM      9  C   UNL d   1       0.428   0.719  -2.508  0.00  0.00     0.009 C 
ENDBRANCH   7   8
ENDBRANCH   1   7
TORSDOF 2
ENDMDL
