MODEL 1
REMARK minimizedAffinity 5.12198305
REMARK minimizedRMSD -1
REMARK  2 active torsions:
REMARK  status: ('A' for Active; 'I' for Inactive)
REMARK    1  A    between atoms: C1_2  and  C2_3 
REMARK    2  A    between atoms: C2_3  and  C3_4 
ROOT
ATOM      1  C3  UNL d   1      -0.662   0.668  -1.296  0.00  0.00    -0.075 A 
ATOM      2  C4  UNL d   1      -0.198   1.867  -1.856  0.00  0.00     0.002 A 
ATOM      3  C5  UNL d   1       0.728   1.851  -2.899  0.00  0.00     0.002 A 
ATOM      4  C6  UNL d   1       1.209   0.638  -3.388  0.00  0.00    -0.004 A 
ATOM      5  C7  UNL d   1       0.768  -0.559  -2.829  0.00  0.00     0.002 A 
ATOM      6  C8  UNL d   1      -0.162  -0.545  -1.788  0.00  0.00     0.002 A 
ENDROOT
BRANCH   1   7
ATOM      7  C2  UNL d   1      -1.687   0.678  -0.187  0.00  0.00     0.056 C 
BRANCH   7   8
ATOM      8  C1  UNL d   1      -2.326  -0.687   0.084  0.00  0.00     0.007 C 
ATOM      9  C   UNL d   1      -2.361  -1.052   1.562  0.00  0.00     0.009 C 
ENDBRANCH   7   8
ENDBRANCH   1   7
TORSDOF 2
ENDMDL
