MODEL 1
REMARK minimizedAffinity 5.15277719
REMARK minimizedRMSD -1
REMARK  2 active torsions:
REMARK  status: ('A' for Active; 'I' for Inactive)
REMARK    1  A    between atoms: C1_2  and  C2_3 
REMARK    2  A    between atoms: C2_3  and  C3_4 
ROOT
ATOM      1  C3  UNL d   1       5.285   2.121   3.875  0.00  0.00    -0.075 A 
ATOM      2  C4  UNL d   1       5.853   1.807   5.119  0.00  0.00     0.002 A 
ATOM      3  C5  UNL d   1       6.000   0.478   5.515  0.00  0.00     0.002 A 
ATOM      4  C6  UNL d   1       5.573  -0.552   4.679  0.00  0.00    -0.004 A 
ATOM      5  C7  UNL d   1       4.992  -0.251   3.449  0.00  0.00     0.002 A 
ATOM      6  C8  UNL d   1       4.848   1.078   3.049  0.00  0.00     0.002 A 
ENDROOT
BRANCH   1   7
ATOM      7  C2  UNL d   1       5.150   3.557   3.428  0.00  0.00     0.056 C 
BRANCH   7   8
ATOM      8  C1  UNL d   1       6.000   4.544   4.235  0.00  0.00     0.007 C 
ATOM      9  C   UNL d   1       5.583   5.996   4.039  0.00  0.00     0.009 C 
ENDBRANCH   7   8
ENDBRANCH   1   7
TORSDOF 2
ENDMDL
