MODEL 1
REMARK minimizedAffinity 1.80003023
REMARK minimizedRMSD -1
REMARK  2 active torsions:
REMARK  status: ('A' for Active; 'I' for Inactive)
REMARK    1  A    between atoms: C1_2  and  C2_3 
REMARK    2  A    between atoms: C2_3  and  C3_4 
ROOT
ATOM      1  C3  UNL d   1      -2.918   1.721   1.051  0.00  0.00    -0.075 A 
ATOM      2  C4  UNL d   1      -2.844   2.918   1.778  0.00  0.00     0.002 A 
ATOM      3  C5  UNL d   1      -2.963   4.149   1.131  0.00  0.00     0.002 A 
ATOM      4  C6  UNL d   1      -3.147   4.199  -0.249  0.00  0.00    -0.004 A 
ATOM      5  C7  UNL d   1      -3.206   3.016  -0.984  0.00  0.00     0.002 A 
ATOM      6  C8  UNL d   1      -3.092   1.784  -0.338  0.00  0.00     0.002 A 
ENDROOT
BRANCH   1   7
ATOM      7  C2  UNL d   1      -2.820   0.386   1.749  0.00  0.00     0.056 C 
BRANCH   7   8
ATOM      8  C1  UNL d   1      -2.956   0.467   3.273  0.00  0.00     0.007 C 
ATOM      9  C   UNL d   1      -3.995  -0.494   3.835  0.00  0.00     0.009 C 
ENDBRANCH   7   8
ENDBRANCH   1   7
TORSDOF 2
ENDMDL
