MODEL 1
REMARK minimizedAffinity 3.50754333
REMARK minimizedRMSD -1
REMARK  2 active torsions:
REMARK  status: ('A' for Active; 'I' for Inactive)
REMARK    1  A    between atoms: C1_2  and  C2_3 
REMARK    2  A    between atoms: C2_3  and  C3_4 
ROOT
ATOM      1  C3  UNL d   1      -3.276   1.468   0.064  0.00  0.00    -0.075 A 
ATOM      2  C4  UNL d   1      -1.953   1.693  -0.343  0.00  0.00     0.002 A 
ATOM      3  C5  UNL d   1      -1.469   2.992  -0.496  0.00  0.00     0.002 A 
ATOM      4  C6  UNL d   1      -2.303   4.082  -0.255  0.00  0.00    -0.004 A 
ATOM      5  C7  UNL d   1      -3.624   3.871   0.135  0.00  0.00     0.002 A 
ATOM      6  C8  UNL d   1      -4.109   2.572   0.293  0.00  0.00     0.002 A 
ENDROOT
BRANCH   1   7
ATOM      7  C2  UNL d   1      -3.797   0.065   0.261  0.00  0.00     0.056 C 
BRANCH   7   8
ATOM      8  C1  UNL d   1      -2.861  -0.840   1.069  0.00  0.00     0.007 C 
ATOM      9  C   UNL d   1      -2.992  -0.649   2.574  0.00  0.00     0.009 C 
ENDBRANCH   7   8
ENDBRANCH   1   7
TORSDOF 2
ENDMDL
