MODEL 1
REMARK minimizedAffinity 3.61179972
REMARK minimizedRMSD -1
REMARK  2 active torsions:
REMARK  status: ('A' for Active; 'I' for Inactive)
REMARK    1  A    between atoms: C1_2  and  C2_3 
REMARK    2  A    between atoms: C2_3  and  C3_4 
ROOT
ATOM      1  C3  UNL d   1       3.810   3.323  -5.395  0.00  0.00    -0.075 A 
ATOM      2  C4  UNL d   1       3.516   2.092  -6.000  0.00  0.00     0.002 A 
ATOM      3  C5  UNL d   1       4.451   1.056  -5.988  0.00  0.00     0.002 A 
ATOM      4  C6  UNL d   1       5.691   1.240  -5.382  0.00  0.00    -0.004 A 
ATOM      5  C7  UNL d   1       6.000   2.464  -4.792  0.00  0.00     0.002 A 
ATOM      6  C8  UNL d   1       5.065   3.500  -4.798  0.00  0.00     0.002 A 
ENDROOT
BRANCH   1   7
ATOM      7  C2  UNL d   1       2.792   4.438  -5.378  0.00  0.00     0.056 C 
BRANCH   7   8
ATOM      8  C1  UNL d   1       1.341   3.957  -5.270  0.00  0.00     0.007 C 
ATOM      9  C   UNL d   1       1.118   2.978  -4.125  0.00  0.00     0.009 C 
ENDBRANCH   7   8
ENDBRANCH   1   7
TORSDOF 2
ENDMDL
