MODEL 1
REMARK minimizedAffinity 16.3726444
REMARK minimizedRMSD -1
REMARK  3 active torsions:
REMARK  status: ('A' for Active; 'I' for Inactive)
REMARK    1  A    between atoms: C3'_2  and  C2'_3 
REMARK    2  A    between atoms: C2'_3  and  C1'_4 
REMARK    3  A    between atoms: C1'_4  and  C1_5 
ROOT
ATOM      1  C1  N4B d   1       2.947  -0.112  -1.401  0.00  0.00    -0.075 A 
ATOM      2  C2  N4B d   1       3.561  -0.762  -0.308  0.00  0.00     0.002 A 
ATOM      3  C3  N4B d   1       4.537  -0.119   0.414  0.00  0.00     0.002 A 
ATOM      4  C4  N4B d   1       4.927   1.161   0.051  0.00  0.00    -0.004 A 
ATOM      5  C5  N4B d   1       4.311   1.792  -0.990  0.00  0.00     0.002 A 
ATOM      6  C6  N4B d   1       3.326   1.160  -1.721  0.00  0.00     0.002 A 
ENDROOT
BRANCH   1   7
ATOM      7  C1' N4B d   1       1.937  -0.806  -2.272  0.00  0.00     0.057 C 
BRANCH   7   8
ATOM      8  C2' N4B d   1       1.903  -0.127  -3.638  0.00  0.00     0.009 C 
BRANCH   8   9
ATOM      9  C3' N4B d   1       2.130  -1.115  -4.770  0.00  0.00     0.004 C 
ATOM     10  C4' N4B d   1       2.698  -0.470  -5.999  0.00  0.00     0.003 C 
ENDBRANCH   8   9
ENDBRANCH   7   8
ENDBRANCH   1   7
TORSDOF 3
ENDMDL
