MODEL 1
REMARK minimizedAffinity 15.129673
REMARK minimizedRMSD -1
REMARK  3 active torsions:
REMARK  status: ('A' for Active; 'I' for Inactive)
REMARK    1  A    between atoms: C3'_2  and  C2'_3 
REMARK    2  A    between atoms: C2'_3  and  C1'_4 
REMARK    3  A    between atoms: C1'_4  and  C1_5 
ROOT
ATOM      1  C1  N4B d   1       3.441   0.843   0.017  0.00  0.00    -0.075 A 
ATOM      2  C2  N4B d   1       3.110   1.730   1.065  0.00  0.00     0.002 A 
ATOM      3  C3  N4B d   1       3.769   2.929   1.183  0.00  0.00     0.002 A 
ATOM      4  C4  N4B d   1       4.772   3.253   0.282  0.00  0.00    -0.004 A 
ATOM      5  C5  N4B d   1       5.068   2.402  -0.743  0.00  0.00     0.002 A 
ATOM      6  C6  N4B d   1       4.411   1.195  -0.877  0.00  0.00     0.002 A 
ENDROOT
BRANCH   1   7
ATOM      7  C1' N4B d   1       2.808  -0.516  -0.103  0.00  0.00     0.057 C 
BRANCH   7   8
ATOM      8  C2' N4B d   1       2.042  -0.597  -1.420  0.00  0.00     0.009 C 
BRANCH   8   9
ATOM      9  C3' N4B d   1       1.247  -1.886  -1.537  0.00  0.00     0.004 C 
ATOM     10  C4' N4B d   1       1.464  -2.810  -0.376  0.00  0.00     0.003 C 
ENDBRANCH   8   9
ENDBRANCH   7   8
ENDBRANCH   1   7
TORSDOF 3
ENDMDL
