MODEL 1
REMARK minimizedAffinity 15.4277353
REMARK minimizedRMSD -1
REMARK  3 active torsions:
REMARK  status: ('A' for Active; 'I' for Inactive)
REMARK    1  A    between atoms: C3'_2  and  C2'_3 
REMARK    2  A    between atoms: C2'_3  and  C1'_4 
REMARK    3  A    between atoms: C1'_4  and  C1_5 
ROOT
ATOM      1  C1  N4B d   1      -0.069   2.038   5.286  0.00  0.00    -0.075 A 
ATOM      2  C2  N4B d   1      -0.060   1.805   3.893  0.00  0.00     0.002 A 
ATOM      3  C3  N4B d   1       1.102   1.425   3.268  0.00  0.00     0.002 A 
ATOM      4  C4  N4B d   1       2.267   1.292   4.008  0.00  0.00    -0.004 A 
ATOM      5  C5  N4B d   1       2.245   1.494   5.357  0.00  0.00     0.002 A 
ATOM      6  C6  N4B d   1       1.083   1.872   5.999  0.00  0.00     0.002 A 
ENDROOT
BRANCH   1   7
ATOM      7  C1' N4B d   1      -1.295   2.538   6.000  0.00  0.00     0.057 C 
BRANCH   7   8
ATOM      8  C2' N4B d   1      -2.365   1.451   5.977  0.00  0.00     0.009 C 
BRANCH   8   9
ATOM      9  C3' N4B d   1      -3.525   1.814   5.065  0.00  0.00     0.004 C 
ATOM     10  C4' N4B d   1      -3.481   1.088   3.753  0.00  0.00     0.003 C 
ENDBRANCH   8   9
ENDBRANCH   7   8
ENDBRANCH   1   7
TORSDOF 3
ENDMDL
