MODEL 1
REMARK minimizedAffinity 14.2882462
REMARK minimizedRMSD -1
REMARK  3 active torsions:
REMARK  status: ('A' for Active; 'I' for Inactive)
REMARK    1  A    between atoms: C3'_2  and  C2'_3 
REMARK    2  A    between atoms: C2'_3  and  C1'_4 
REMARK    3  A    between atoms: C1'_4  and  C1_5 
ROOT
ATOM      1  C1  N4B d   1      -3.680   3.631  -5.970  0.00  0.00    -0.075 A 
ATOM      2  C2  N4B d   1      -5.088   3.523  -5.983  0.00  0.00     0.002 A 
ATOM      3  C3  N4B d   1      -5.863   4.657  -6.000  0.00  0.00     0.002 A 
ATOM      4  C4  N4B d   1      -5.255   5.904  -5.985  0.00  0.00    -0.004 A 
ATOM      5  C5  N4B d   1      -3.894   5.999  -5.998  0.00  0.00     0.002 A 
ATOM      6  C6  N4B d   1      -3.103   4.868  -5.985  0.00  0.00     0.002 A 
ENDROOT
BRANCH   1   7
ATOM      7  C1' N4B d   1      -2.792   2.421  -5.864  0.00  0.00     0.057 C 
BRANCH   7   8
ATOM      8  C2' N4B d   1      -2.488   2.150  -4.394  0.00  0.00     0.009 C 
BRANCH   8   9
ATOM      9  C3' N4B d   1      -1.250   2.893  -3.923  0.00  0.00     0.004 C 
ATOM     10  C4' N4B d   1       0.019   2.145  -4.203  0.00  0.00     0.003 C 
ENDBRANCH   8   9
ENDBRANCH   7   8
ENDBRANCH   1   7
TORSDOF 3
ENDMDL
