MODEL 1
REMARK minimizedAffinity 14.7936678
REMARK minimizedRMSD -1
REMARK  3 active torsions:
REMARK  status: ('A' for Active; 'I' for Inactive)
REMARK    1  A    between atoms: C3'_2  and  C2'_3 
REMARK    2  A    between atoms: C2'_3  and  C1'_4 
REMARK    3  A    between atoms: C1'_4  and  C1_5 
ROOT
ATOM      1  C1  N4B d   1       1.983   1.620   1.600  0.00  0.00    -0.075 A 
ATOM      2  C2  N4B d   1       0.597   1.384   1.471  0.00  0.00     0.002 A 
ATOM      3  C3  N4B d   1      -0.205   1.375   2.586  0.00  0.00     0.002 A 
ATOM      4  C4  N4B d   1       0.358   1.580   3.837  0.00  0.00    -0.004 A 
ATOM      5  C5  N4B d   1       1.694   1.832   3.951  0.00  0.00     0.002 A 
ATOM      6  C6  N4B d   1       2.511   1.848   2.838  0.00  0.00     0.002 A 
ENDROOT
BRANCH   1   7
ATOM      7  C1' N4B d   1       2.913   1.554   0.420  0.00  0.00     0.057 C 
BRANCH   7   8
ATOM      8  C2' N4B d   1       2.774   0.191  -0.252  0.00  0.00     0.009 C 
BRANCH   8   9
ATOM      9  C3' N4B d   1       2.104   0.293  -1.611  0.00  0.00     0.004 C 
ATOM     10  C4' N4B d   1       1.342  -0.946  -1.977  0.00  0.00     0.003 C 
ENDBRANCH   8   9
ENDBRANCH   7   8
ENDBRANCH   1   7
TORSDOF 3
ENDMDL
