MODEL 1
REMARK minimizedAffinity 12.3752041
REMARK minimizedRMSD -1
REMARK  3 active torsions:
REMARK  status: ('A' for Active; 'I' for Inactive)
REMARK    1  A    between atoms: C3'_2  and  C2'_3 
REMARK    2  A    between atoms: C2'_3  and  C1'_4 
REMARK    3  A    between atoms: C1'_4  and  C1_5 
ROOT
ATOM      1  C1  N4B d   1      -0.994  -4.017  -2.590  0.00  0.00    -0.075 A 
ATOM      2  C2  N4B d   1      -2.125  -3.542  -3.289  0.00  0.00     0.002 A 
ATOM      3  C3  N4B d   1      -2.572  -4.205  -4.406  0.00  0.00     0.002 A 
ATOM      4  C4  N4B d   1      -1.895  -5.330  -4.851  0.00  0.00    -0.004 A 
ATOM      5  C5  N4B d   1      -0.818  -5.798  -4.156  0.00  0.00     0.002 A 
ATOM      6  C6  N4B d   1      -0.361  -5.144  -3.030  0.00  0.00     0.002 A 
ENDROOT
BRANCH   1   7
ATOM      7  C1' N4B d   1      -0.418  -3.277  -1.414  0.00  0.00     0.057 C 
BRANCH   7   8
ATOM      8  C2' N4B d   1      -0.105  -1.843  -1.830  0.00  0.00     0.009 C 
BRANCH   8   9
ATOM      9  C3' N4B d   1       1.152  -1.317  -1.158  0.00  0.00     0.004 C 
ATOM     10  C4' N4B d   1       1.637  -0.031  -1.758  0.00  0.00     0.003 C 
ENDBRANCH   8   9
ENDBRANCH   7   8
ENDBRANCH   1   7
TORSDOF 3
ENDMDL
