MODEL 1
REMARK minimizedAffinity 9.06895828
REMARK minimizedRMSD -1
REMARK  3 active torsions:
REMARK  status: ('A' for Active; 'I' for Inactive)
REMARK    1  A    between atoms: C3'_2  and  C2'_3 
REMARK    2  A    between atoms: C2'_3  and  C1'_4 
REMARK    3  A    between atoms: C1'_4  and  C1_5 
ROOT
ATOM      1  C1  N4B d   1       0.335  -3.015  -1.950  0.00  0.00    -0.075 A 
ATOM      2  C2  N4B d   1       0.740  -2.074  -2.922  0.00  0.00     0.002 A 
ATOM      3  C3  N4B d   1       1.559  -1.029  -2.567  0.00  0.00     0.002 A 
ATOM      4  C4  N4B d   1       1.968  -0.896  -1.249  0.00  0.00    -0.004 A 
ATOM      5  C5  N4B d   1       1.593  -1.824  -0.322  0.00  0.00     0.002 A 
ATOM      6  C6  N4B d   1       0.774  -2.881  -0.665  0.00  0.00     0.002 A 
ENDROOT
BRANCH   1   7
ATOM      7  C1' N4B d   1      -0.628  -4.124  -2.272  0.00  0.00     0.057 C 
BRANCH   7   8
ATOM      8  C2' N4B d   1      -0.186  -4.814  -3.559  0.00  0.00     0.009 C 
BRANCH   8   9
ATOM      9  C3' N4B d   1      -1.077  -5.994  -3.907  0.00  0.00     0.004 C 
ATOM     10  C4' N4B d   1      -1.549  -5.966  -5.330  0.00  0.00     0.003 C 
ENDBRANCH   8   9
ENDBRANCH   7   8
ENDBRANCH   1   7
TORSDOF 3
ENDMDL
