MODEL 1
REMARK minimizedAffinity 16.9374199
REMARK minimizedRMSD -1
REMARK  3 active torsions:
REMARK  status: ('A' for Active; 'I' for Inactive)
REMARK    1  A    between atoms: C3'_2  and  C2'_3 
REMARK    2  A    between atoms: C2'_3  and  C1'_4 
REMARK    3  A    between atoms: C1'_4  and  C1_5 
ROOT
ATOM      1  C1  N4B d   1      -3.905   1.415   3.755  0.00  0.00    -0.075 A 
ATOM      2  C2  N4B d   1      -3.429   1.451   5.084  0.00  0.00     0.002 A 
ATOM      3  C3  N4B d   1      -4.007   2.296   5.999  0.00  0.00     0.002 A 
ATOM      4  C4  N4B d   1      -5.047   3.125   5.604  0.00  0.00    -0.004 A 
ATOM      5  C5  N4B d   1      -5.518   3.067   4.325  0.00  0.00     0.002 A 
ATOM      6  C6  N4B d   1      -4.948   2.219   3.397  0.00  0.00     0.002 A 
ENDROOT
BRANCH   1   7
ATOM      7  C1' N4B d   1      -3.248   0.570   2.698  0.00  0.00     0.057 C 
BRANCH   7   8
ATOM      8  C2' N4B d   1      -3.724  -0.873   2.844  0.00  0.00     0.009 C 
BRANCH   8   9
ATOM      9  C3' N4B d   1      -3.670  -1.345   4.287  0.00  0.00     0.004 C 
ATOM     10  C4' N4B d   1      -3.280  -2.788   4.411  0.00  0.00     0.003 C 
ENDBRANCH   8   9
ENDBRANCH   7   8
ENDBRANCH   1   7
TORSDOF 3
ENDMDL
