MODEL 1
REMARK minimizedAffinity -3.22008777
REMARK minimizedRMSD -1
REMARK  0 active torsions:
REMARK  status: ('A' for Active; 'I' for Inactive)
ROOT
ATOM      1  C1  DEN d   1       1.392   0.406  -1.295  0.00  0.00     0.130 A 
ATOM      2  C2  DEN d   1       0.713   1.607  -1.775  0.00  0.00    -0.031 A 
ATOM      3  C3  DEN d   1      -0.029   2.195  -0.642  0.00  0.00     0.027 A 
ATOM      4  C4  DEN d   1      -0.189   1.371   1.797  0.00  0.00     0.027 A 
ATOM      5  C5  DEN d   1       0.207   0.389   2.678  0.00  0.00    -0.003 A 
ATOM      6  C6  DEN d   1       0.991  -0.666   2.292  0.00  0.00     0.001 A 
ATOM      7  C7  DEN d   1       1.442  -0.739   1.000  0.00  0.00     0.017 A 
ATOM      8  C8  DEN d   1       1.041   0.243   0.104  0.00  0.00    -0.094 A 
ATOM      9  C9  DEN d   1       0.258   1.308   0.517  0.00  0.00    -0.072 A 
ENDROOT
TORSDOF 0
ENDMDL
