MODEL 1
REMARK minimizedAffinity -0.0669317022
REMARK minimizedRMSD -1
REMARK  0 active torsions:
REMARK  status: ('A' for Active; 'I' for Inactive)
ROOT
ATOM      1  C1  DEN d   1       0.310   0.733  -1.389  0.00  0.00     0.130 A 
ATOM      2  C2  DEN d   1       0.187  -0.722  -1.379  0.00  0.00    -0.031 A 
ATOM      3  C3  DEN d   1       0.294  -1.180   0.021  0.00  0.00     0.027 A 
ATOM      4  C4  DEN d   1       0.631   0.216   2.163  0.00  0.00     0.027 A 
ATOM      5  C5  DEN d   1       0.802   1.490   2.658  0.00  0.00    -0.003 A 
ATOM      6  C6  DEN d   1       0.854   2.589   1.842  0.00  0.00     0.001 A 
ATOM      7  C7  DEN d   1       0.690   2.439   0.490  0.00  0.00     0.017 A 
ATOM      8  C8  DEN d   1       0.524   1.157  -0.017  0.00  0.00    -0.094 A 
ATOM      9  C9  DEN d   1       0.462   0.060   0.826  0.00  0.00    -0.072 A 
ENDROOT
TORSDOF 0
ENDMDL
