MODEL 1
REMARK minimizedAffinity 4.97853613
REMARK minimizedRMSD -1
REMARK  0 active torsions:
REMARK  status: ('A' for Active; 'I' for Inactive)
ROOT
ATOM      1  C1  DEN d   1       1.170   2.266   3.085  0.00  0.00     0.130 A 
ATOM      2  C2  DEN d   1       0.831   3.406   2.237  0.00  0.00    -0.031 A 
ATOM      3  C3  DEN d   1       0.632   2.908   0.861  0.00  0.00     0.027 A 
ATOM      4  C4  DEN d   1       0.810   0.495  -0.033  0.00  0.00     0.027 A 
ATOM      5  C5  DEN d   1       1.085  -0.811   0.308  0.00  0.00    -0.003 A 
ATOM      6  C6  DEN d   1       1.438  -1.175   1.581  0.00  0.00     0.001 A 
ATOM      7  C7  DEN d   1       1.481  -0.228   2.570  0.00  0.00     0.017 A 
ATOM      8  C8  DEN d   1       1.213   1.092   2.232  0.00  0.00    -0.094 A 
ATOM      9  C9  DEN d   1       0.846   1.438   0.943  0.00  0.00    -0.072 A 
ENDROOT
TORSDOF 0
ENDMDL
