MODEL 1
REMARK minimizedAffinity 1.3816644
REMARK minimizedRMSD -1
REMARK  0 active torsions:
REMARK  status: ('A' for Active; 'I' for Inactive)
ROOT
ATOM      1  C1  DEN d   1       0.747  -0.434   1.044  0.00  0.00     0.130 A 
ATOM      2  C2  DEN d   1      -0.287   0.033   0.125  0.00  0.00    -0.031 A 
ATOM      3  C3  DEN d   1      -0.467   1.483   0.338  0.00  0.00     0.027 A 
ATOM      4  C4  DEN d   1       0.752   3.044   1.991  0.00  0.00     0.027 A 
ATOM      5  C5  DEN d   1       1.703   3.102   2.986  0.00  0.00    -0.003 A 
ATOM      6  C6  DEN d   1       2.372   1.990   3.423  0.00  0.00     0.001 A 
ATOM      7  C7  DEN d   1       2.131   0.777   2.833  0.00  0.00     0.017 A 
ATOM      8  C8  DEN d   1       1.169   0.709   1.834  0.00  0.00    -0.094 A 
ATOM      9  C9  DEN d   1       0.512   1.847   1.397  0.00  0.00    -0.072 A 
ENDROOT
TORSDOF 0
ENDMDL
