MODEL 1
REMARK minimizedAffinity 0.624894202
REMARK minimizedRMSD -1
REMARK  0 active torsions:
REMARK  status: ('A' for Active; 'I' for Inactive)
ROOT
ATOM      1  C1  DEN d   1       0.884   0.706   3.046  0.00  0.00     0.130 A 
ATOM      2  C2  DEN d   1       0.604  -0.614   2.487  0.00  0.00    -0.031 A 
ATOM      3  C3  DEN d   1       0.362  -0.454   1.039  0.00  0.00     0.027 A 
ATOM      4  C4  DEN d   1       0.399   1.697  -0.384  0.00  0.00     0.027 A 
ATOM      5  C5  DEN d   1       0.578   3.062  -0.351  0.00  0.00    -0.003 A 
ATOM      6  C6  DEN d   1       0.836   3.736   0.813  0.00  0.00     0.001 A 
ATOM      7  C7  DEN d   1       0.967   3.040   1.986  0.00  0.00     0.017 A 
ATOM      8  C8  DEN d   1       0.780   1.665   1.961  0.00  0.00    -0.094 A 
ATOM      9  C9  DEN d   1       0.532   1.000   0.773  0.00  0.00    -0.072 A 
ENDROOT
TORSDOF 0
ENDMDL
