MODEL 1
REMARK minimizedAffinity -4.8720088
REMARK minimizedRMSD -1
REMARK  0 active torsions:
REMARK  status: ('A' for Active; 'I' for Inactive)
ROOT
ATOM      1  C1  DEN d   1       0.291   3.264   2.390  0.00  0.00     0.130 A 
ATOM      2  C2  DEN d   1      -0.001   4.149   1.265  0.00  0.00    -0.031 A 
ATOM      3  C3  DEN d   1       0.175   3.376   0.019  0.00  0.00     0.027 A 
ATOM      4  C4  DEN d   1       0.861   0.907  -0.276  0.00  0.00     0.027 A 
ATOM      5  C5  DEN d   1       1.224  -0.244   0.388  0.00  0.00    -0.003 A 
ATOM      6  C6  DEN d   1       1.333  -0.297   1.752  0.00  0.00     0.001 A 
ATOM      7  C7  DEN d   1       1.033   0.811   2.500  0.00  0.00     0.017 A 
ATOM      8  C8  DEN d   1       0.674   1.977   1.838  0.00  0.00    -0.094 A 
ATOM      9  C9  DEN d   1       0.557   2.007   0.459  0.00  0.00    -0.072 A 
ENDROOT
TORSDOF 0
ENDMDL
