MODEL 1
REMARK minimizedAffinity -0.249561936
REMARK minimizedRMSD -1
REMARK  0 active torsions:
REMARK  status: ('A' for Active; 'I' for Inactive)
ROOT
ATOM      1  C1  DEN d   1       3.365  -0.915   1.941  0.00  0.00     0.130 A 
ATOM      2  C2  DEN d   1       3.227  -1.190   3.368  0.00  0.00    -0.031 A 
ATOM      3  C3  DEN d   1       1.857  -0.814   3.775  0.00  0.00     0.027 A 
ATOM      4  C4  DEN d   1      -0.052   0.157   2.338  0.00  0.00     0.027 A 
ATOM      5  C5  DEN d   1      -0.405   0.575   1.074  0.00  0.00    -0.003 A 
ATOM      6  C6  DEN d   1       0.477   0.557   0.026  0.00  0.00     0.001 A 
ATOM      7  C7  DEN d   1       1.744   0.070   0.214  0.00  0.00     0.017 A 
ATOM      8  C8  DEN d   1       2.109  -0.346   1.487  0.00  0.00    -0.094 A 
ATOM      9  C9  DEN d   1       1.199  -0.332   2.531  0.00  0.00    -0.072 A 
ENDROOT
TORSDOF 0
ENDMDL
