MODEL 1
REMARK minimizedAffinity -2.6586833
REMARK minimizedRMSD -1
REMARK  0 active torsions:
REMARK  status: ('A' for Active; 'I' for Inactive)
ROOT
ATOM      1  C1  DEN d   1       0.933   0.357  -0.424  0.00  0.00     0.130 A 
ATOM      2  C2  DEN d   1       0.960  -0.665   0.619  0.00  0.00    -0.031 A 
ATOM      3  C3  DEN d   1       0.623  -0.016   1.902  0.00  0.00     0.027 A 
ATOM      4  C4  DEN d   1       0.059   2.456   2.372  0.00  0.00     0.027 A 
ATOM      5  C5  DEN d   1      -0.079   3.704   1.804  0.00  0.00    -0.003 A 
ATOM      6  C6  DEN d   1       0.143   3.928   0.471  0.00  0.00     0.001 A 
ATOM      7  C7  DEN d   1       0.470   2.880  -0.348  0.00  0.00     0.017 A 
ATOM      8  C8  DEN d   1       0.618   1.620   0.218  0.00  0.00    -0.094 A 
ATOM      9  C9  DEN d   1       0.378   1.412   1.566  0.00  0.00    -0.072 A 
ENDROOT
TORSDOF 0
ENDMDL
