MODEL 1
REMARK minimizedAffinity 7.1552062
REMARK minimizedRMSD -1
REMARK  1 active torsions:
REMARK  status: ('A' for Active; 'I' for Inactive)
REMARK    1  A    between atoms: C1_2  and  C2_3 
ROOT
ATOM      1  C2  UNL d   1       4.367   4.341   5.565  0.00  0.00    -0.077 A 
ATOM      2  C3  UNL d   1       3.420   3.336   5.806  0.00  0.00     0.002 A 
ATOM      3  C4  UNL d   1       2.075   3.662   5.989  0.00  0.00     0.002 A 
ATOM      4  C5  UNL d   1       1.665   4.992   5.928  0.00  0.00    -0.004 A 
ATOM      5  C6  UNL d   1       2.599   5.999   5.691  0.00  0.00     0.002 A 
ATOM      6  C7  UNL d   1       3.944   5.675   5.509  0.00  0.00     0.002 A 
ENDROOT
BRANCH   1   7
ATOM      7  C1  UNL d   1       5.811   3.987   5.319  0.00  0.00     0.055 C 
ATOM      8  C   UNL d   1       5.971   3.169   4.046  0.00  0.00     0.019 C 
ENDBRANCH   1   7
TORSDOF 1
ENDMDL
