MODEL 1
REMARK minimizedAffinity 5.11394501
REMARK minimizedRMSD -1
REMARK  1 active torsions:
REMARK  status: ('A' for Active; 'I' for Inactive)
REMARK    1  A    between atoms: C1_2  and  C2_3 
ROOT
ATOM      1  C2  UNL d   1       5.259   3.947   4.582  0.00  0.00    -0.077 A 
ATOM      2  C3  UNL d   1       3.859   4.018   4.598  0.00  0.00     0.002 A 
ATOM      3  C4  UNL d   1       3.213   5.040   5.296  0.00  0.00     0.002 A 
ATOM      4  C5  UNL d   1       3.957   5.999   5.979  0.00  0.00    -0.004 A 
ATOM      5  C6  UNL d   1       5.350   5.936   5.970  0.00  0.00     0.002 A 
ATOM      6  C7  UNL d   1       5.998   4.915   5.275  0.00  0.00     0.002 A 
ENDROOT
BRANCH   1   7
ATOM      7  C1  UNL d   1       5.960   2.874   3.789  0.00  0.00     0.055 C 
ATOM      8  C   UNL d   1       5.083   2.362   2.656  0.00  0.00     0.019 C 
ENDBRANCH   1   7
TORSDOF 1
ENDMDL
