MODEL 1
REMARK minimizedAffinity -2.70788646
REMARK minimizedRMSD -1
REMARK  1 active torsions:
REMARK  status: ('A' for Active; 'I' for Inactive)
REMARK    1  A    between atoms: C1_2  and  C2_3 
ROOT
ATOM      1  C2  UNL d   1       3.506   5.283   5.573  0.00  0.00    -0.077 A 
ATOM      2  C3  UNL d   1       4.493   5.999   4.883  0.00  0.00     0.002 A 
ATOM      3  C4  UNL d   1       5.735   5.418   4.620  0.00  0.00     0.002 A 
ATOM      4  C5  UNL d   1       5.999   4.116   5.041  0.00  0.00    -0.004 A 
ATOM      5  C6  UNL d   1       5.024   3.395   5.730  0.00  0.00     0.002 A 
ATOM      6  C7  UNL d   1       3.783   3.976   5.994  0.00  0.00     0.002 A 
ENDROOT
BRANCH   1   7
ATOM      7  C1  UNL d   1       2.149   5.891   5.814  0.00  0.00     0.055 C 
ATOM      8  C   UNL d   1       1.339   5.965   4.528  0.00  0.00     0.019 C 
ENDBRANCH   1   7
TORSDOF 1
ENDMDL
