MODEL 1
REMARK minimizedAffinity -3.09601116
REMARK minimizedRMSD -1
REMARK  1 active torsions:
REMARK  status: ('A' for Active; 'I' for Inactive)
REMARK    1  A    between atoms: C1_2  and  C2_3 
ROOT
ATOM      1  C2  UNL d   1      -0.822  -0.570  -0.575  0.00  0.00    -0.077 A 
ATOM      2  C3  UNL d   1       0.276   0.003  -1.233  0.00  0.00     0.002 A 
ATOM      3  C4  UNL d   1       1.552  -0.068  -0.671  0.00  0.00     0.002 A 
ATOM      4  C5  UNL d   1       1.743  -0.715   0.549  0.00  0.00    -0.004 A 
ATOM      5  C6  UNL d   1       0.657  -1.286   1.211  0.00  0.00     0.002 A 
ATOM      6  C7  UNL d   1      -0.619  -1.215   0.652  0.00  0.00     0.002 A 
ENDROOT
BRANCH   1   7
ATOM      7  C1  UNL d   1      -2.190  -0.537  -1.204  0.00  0.00     0.055 C 
ATOM      8  C   UNL d   1      -3.171  -1.415  -0.440  0.00  0.00     0.019 C 
ENDBRANCH   1   7
TORSDOF 1
ENDMDL
