MODEL 1
REMARK minimizedAffinity 0.832074761
REMARK minimizedRMSD -1
REMARK  1 active torsions:
REMARK  status: ('A' for Active; 'I' for Inactive)
REMARK    1  A    between atoms: C1_2  and  C2_3 
ROOT
ATOM      1  C2  UNL d   1       5.432   0.949  -1.056  0.00  0.00    -0.077 A 
ATOM      2  C3  UNL d   1       4.851  -0.286  -0.736  0.00  0.00     0.002 A 
ATOM      3  C4  UNL d   1       4.838  -1.324  -1.669  0.00  0.00     0.002 A 
ATOM      4  C5  UNL d   1       5.408  -1.140  -2.927  0.00  0.00    -0.004 A 
ATOM      5  C6  UNL d   1       5.986   0.085  -3.256  0.00  0.00     0.002 A 
ATOM      6  C7  UNL d   1       5.999   1.125  -2.325  0.00  0.00     0.002 A 
ENDROOT
BRANCH   1   7
ATOM      7  C1  UNL d   1       5.491   2.053  -0.034  0.00  0.00     0.055 C 
ATOM      8  C   UNL d   1       6.000   1.541   1.306  0.00  0.00     0.019 C 
ENDBRANCH   1   7
TORSDOF 1
ENDMDL
