MODEL 1
REMARK minimizedAffinity -4.50765514
REMARK minimizedRMSD -1
REMARK  1 active torsions:
REMARK  status: ('A' for Active; 'I' for Inactive)
REMARK    1  A    between atoms: C1_2  and  C2_3 
ROOT
ATOM      1  C2  UNL d   1      -0.302  -0.204  -0.294  0.00  0.00    -0.077 A 
ATOM      2  C3  UNL d   1       0.198  -0.876   0.830  0.00  0.00     0.002 A 
ATOM      3  C4  UNL d   1      -0.584  -1.824   1.493  0.00  0.00     0.002 A 
ATOM      4  C5  UNL d   1      -1.868  -2.112   1.036  0.00  0.00    -0.004 A 
ATOM      5  C6  UNL d   1      -2.375  -1.449  -0.080  0.00  0.00     0.002 A 
ATOM      6  C7  UNL d   1      -1.596  -0.500  -0.743  0.00  0.00     0.002 A 
ENDROOT
BRANCH   1   7
ATOM      7  C1  UNL d   1       0.558   0.783  -1.039  0.00  0.00     0.055 C 
ATOM      8  C   UNL d   1       0.091   0.948  -2.478  0.00  0.00     0.019 C 
ENDBRANCH   1   7
TORSDOF 1
ENDMDL
