MODEL 1
REMARK minimizedAffinity 0.895076215
REMARK minimizedRMSD -1
REMARK  1 active torsions:
REMARK  status: ('A' for Active; 'I' for Inactive)
REMARK    1  A    between atoms: C1_2  and  C2_3 
ROOT
ATOM      1  C2  UNL d   1      -0.459  -0.538   0.044  0.00  0.00    -0.077 A 
ATOM      2  C3  UNL d   1       0.378   0.247  -0.763  0.00  0.00     0.002 A 
ATOM      3  C4  UNL d   1      -0.120   0.850  -1.919  0.00  0.00     0.002 A 
ATOM      4  C5  UNL d   1      -1.455   0.679  -2.277  0.00  0.00    -0.004 A 
ATOM      5  C6  UNL d   1      -2.295  -0.101  -1.483  0.00  0.00     0.002 A 
ATOM      6  C7  UNL d   1      -1.799  -0.706  -0.327  0.00  0.00     0.002 A 
ENDROOT
BRANCH   1   7
ATOM      7  C1  UNL d   1       0.063  -1.149   1.318  0.00  0.00     0.055 C 
ATOM      8  C   UNL d   1      -0.872  -2.231   1.837  0.00  0.00     0.019 C 
ENDBRANCH   1   7
TORSDOF 1
ENDMDL
