MODEL 1
REMARK minimizedAffinity -3.00430989
REMARK minimizedRMSD -1
REMARK  1 active torsions:
REMARK  status: ('A' for Active; 'I' for Inactive)
REMARK    1  A    between atoms: C1_2  and  C2_3 
ROOT
ATOM      1  C2  UNL d   1      -0.756  -0.535  -0.680  0.00  0.00    -0.077 A 
ATOM      2  C3  UNL d   1      -1.817  -1.113  -1.390  0.00  0.00     0.002 A 
ATOM      3  C4  UNL d   1      -2.933  -1.609  -0.714  0.00  0.00     0.002 A 
ATOM      4  C5  UNL d   1      -3.001  -1.528   0.675  0.00  0.00    -0.004 A 
ATOM      5  C6  UNL d   1      -1.950  -0.957   1.392  0.00  0.00     0.002 A 
ATOM      6  C7  UNL d   1      -0.833  -0.461   0.717  0.00  0.00     0.002 A 
ENDROOT
BRANCH   1   7
ATOM      7  C1  UNL d   1       0.426   0.045  -1.411  0.00  0.00     0.055 C 
ATOM      8  C   UNL d   1       0.506   1.553  -1.226  0.00  0.00     0.019 C 
ENDBRANCH   1   7
TORSDOF 1
ENDMDL
