MODEL 1
REMARK minimizedAffinity -3.70146441
REMARK minimizedRMSD -1
REMARK  1 active torsions:
REMARK  status: ('A' for Active; 'I' for Inactive)
REMARK    1  A    between atoms: C1_2  and  C2_3 
ROOT
ATOM      1  C2  UNL d   1      -1.491  -1.010   0.147  0.00  0.00    -0.077 A 
ATOM      2  C3  UNL d   1      -0.296  -0.281   0.062  0.00  0.00     0.002 A 
ATOM      3  C4  UNL d   1       0.765  -0.564   0.924  0.00  0.00     0.002 A 
ATOM      4  C5  UNL d   1       0.644  -1.577   1.873  0.00  0.00    -0.004 A 
ATOM      5  C6  UNL d   1      -0.541  -2.305   1.966  0.00  0.00     0.002 A 
ATOM      6  C7  UNL d   1      -1.603  -2.024   1.106  0.00  0.00     0.002 A 
ENDROOT
BRANCH   1   7
ATOM      7  C1  UNL d   1      -2.619  -0.740  -0.814  0.00  0.00     0.055 C 
ATOM      8  C   UNL d   1      -3.970  -1.048  -0.184  0.00  0.00     0.019 C 
ENDBRANCH   1   7
TORSDOF 1
ENDMDL
