MODEL 1
REMARK minimizedAffinity -5.38377428
REMARK minimizedRMSD -1
REMARK  0 active torsions:
REMARK  status: ('A' for Active; 'I' for Inactive)
ROOT
ATOM      1  C   UNL d   1       0.975  -2.226   1.742  0.00  0.00     0.077 C 
ATOM      2  C1  UNL d   1       0.221  -1.441   0.710  0.00  0.00    -0.074 A 
ATOM      3  C2  UNL d   1       0.885  -0.841  -0.364  0.00  0.00    -0.005 A 
ATOM      4  C3  UNL d   1       0.168  -0.122  -1.321  0.00  0.00     0.006 A 
ATOM      5  C4  UNL d   1      -1.218   0.003  -1.214  0.00  0.00    -0.005 A 
ATOM      6  C5  UNL d   1      -1.899  -0.592  -0.147  0.00  0.00    -0.074 A 
ATOM      7  C6  UNL d   1      -3.389  -0.475  -0.022  0.00  0.00     0.077 C 
ATOM      8  C7  UNL d   1      -1.173  -1.318   0.807  0.00  0.00    -0.001 A 
ENDROOT
TORSDOF 0
ENDMDL
