MODEL 1
REMARK minimizedAffinity -4.51085806
REMARK minimizedRMSD -1
REMARK  0 active torsions:
REMARK  status: ('A' for Active; 'I' for Inactive)
ROOT
ATOM      1  C   UNL d   1       0.428   0.315  -3.102  0.00  0.00     0.077 C 
ATOM      2  C1  UNL d   1      -0.030  -0.123  -1.742  0.00  0.00    -0.074 A 
ATOM      3  C2  UNL d   1       0.892  -0.416  -0.732  0.00  0.00    -0.005 A 
ATOM      4  C3  UNL d   1       0.451  -0.813   0.530  0.00  0.00     0.006 A 
ATOM      5  C4  UNL d   1      -0.915  -0.922   0.794  0.00  0.00    -0.005 A 
ATOM      6  C5  UNL d   1      -1.852  -0.632  -0.203  0.00  0.00    -0.074 A 
ATOM      7  C6  UNL d   1      -3.324  -0.734   0.068  0.00  0.00     0.077 C 
ATOM      8  C7  UNL d   1      -1.401  -0.227  -1.466  0.00  0.00    -0.001 A 
ENDROOT
TORSDOF 0
ENDMDL
