MODEL 1
REMARK minimizedAffinity -4.2121377
REMARK minimizedRMSD -1
REMARK  0 active torsions:
REMARK  status: ('A' for Active; 'I' for Inactive)
ROOT
ATOM      1  C   UNL d   1       1.551  -1.521   1.111  0.00  0.00     0.077 C 
ATOM      2  C1  UNL d   1       0.494  -1.017   0.174  0.00  0.00    -0.074 A 
ATOM      3  C2  UNL d   1       0.830  -0.530  -1.094  0.00  0.00    -0.005 A 
ATOM      4  C3  UNL d   1      -0.164  -0.073  -1.958  0.00  0.00     0.006 A 
ATOM      5  C4  UNL d   1      -1.503  -0.098  -1.564  0.00  0.00    -0.005 A 
ATOM      6  C5  UNL d   1      -1.858  -0.582  -0.301  0.00  0.00    -0.074 A 
ATOM      7  C6  UNL d   1      -3.293  -0.625   0.133  0.00  0.00     0.077 C 
ATOM      8  C7  UNL d   1      -0.853  -1.046   0.559  0.00  0.00    -0.001 A 
ENDROOT
TORSDOF 0
ENDMDL
