MODEL 1
REMARK minimizedAffinity -1.37892175
REMARK minimizedRMSD -1
REMARK  0 active torsions:
REMARK  status: ('A' for Active; 'I' for Inactive)
ROOT
ATOM      1  C   UNL d   1       2.292  -0.154   0.288  0.00  0.00     0.077 C 
ATOM      2  C1  UNL d   1       2.727   1.271   0.459  0.00  0.00    -0.074 A 
ATOM      3  C2  UNL d   1       2.829   1.844   1.730  0.00  0.00    -0.005 A 
ATOM      4  C3  UNL d   1       3.244   3.168   1.874  0.00  0.00     0.006 A 
ATOM      5  C4  UNL d   1       3.561   3.931   0.749  0.00  0.00    -0.005 A 
ATOM      6  C5  UNL d   1       3.467   3.374  -0.530  0.00  0.00    -0.074 A 
ATOM      7  C6  UNL d   1       3.813   4.177  -1.749  0.00  0.00     0.077 C 
ATOM      8  C7  UNL d   1       3.055   2.041  -0.666  0.00  0.00    -0.001 A 
ENDROOT
TORSDOF 0
ENDMDL
