MODEL 1
REMARK minimizedAffinity -4.23501253
REMARK minimizedRMSD -1
REMARK  0 active torsions:
REMARK  status: ('A' for Active; 'I' for Inactive)
ROOT
ATOM      1  C   UNL d   1       4.469   3.295  -1.966  0.00  0.00     0.077 C 
ATOM      2  C1  UNL d   1       3.591   2.885  -0.820  0.00  0.00    -0.074 A 
ATOM      3  C2  UNL d   1       3.648   3.557   0.405  0.00  0.00    -0.005 A 
ATOM      4  C3  UNL d   1       2.819   3.170   1.458  0.00  0.00     0.006 A 
ATOM      5  C4  UNL d   1       1.926   2.110   1.296  0.00  0.00    -0.005 A 
ATOM      6  C5  UNL d   1       1.855   1.427   0.078  0.00  0.00    -0.074 A 
ATOM      7  C6  UNL d   1       0.894   0.291  -0.116  0.00  0.00     0.077 C 
ATOM      8  C7  UNL d   1       2.686   1.826  -0.978  0.00  0.00    -0.001 A 
ENDROOT
TORSDOF 0
ENDMDL
