MODEL 1
REMARK minimizedAffinity -5.71064281
REMARK minimizedRMSD -1
REMARK  0 active torsions:
REMARK  status: ('A' for Active; 'I' for Inactive)
ROOT
ATOM      1  C   UNL d   1       4.824   3.493  -3.183  0.00  0.00     0.077 C 
ATOM      2  C1  UNL d   1       3.929   3.351  -1.988  0.00  0.00    -0.074 A 
ATOM      3  C2  UNL d   1       3.415   4.476  -1.336  0.00  0.00    -0.005 A 
ATOM      4  C3  UNL d   1       2.577   4.328  -0.232  0.00  0.00     0.006 A 
ATOM      5  C4  UNL d   1       2.244   3.054   0.231  0.00  0.00    -0.005 A 
ATOM      6  C5  UNL d   1       2.747   1.917  -0.408  0.00  0.00    -0.074 A 
ATOM      7  C6  UNL d   1       2.391   0.541   0.071  0.00  0.00     0.077 C 
ATOM      8  C7  UNL d   1       3.584   2.074  -1.522  0.00  0.00    -0.001 A 
ENDROOT
TORSDOF 0
ENDMDL
