MODEL 1
REMARK minimizedAffinity -5.18370962
REMARK minimizedRMSD -1
REMARK  0 active torsions:
REMARK  status: ('A' for Active; 'I' for Inactive)
ROOT
ATOM      1  C   UNL d   1      -3.471  -0.703   0.342  0.00  0.00     0.077 C 
ATOM      2  C1  UNL d   1      -2.192  -0.288  -0.323  0.00  0.00    -0.074 A 
ATOM      3  C2  UNL d   1      -2.169   0.075  -1.674  0.00  0.00    -0.005 A 
ATOM      4  C3  UNL d   1      -0.973   0.468  -2.276  0.00  0.00     0.006 A 
ATOM      5  C4  UNL d   1       0.209   0.501  -1.535  0.00  0.00    -0.005 A 
ATOM      6  C5  UNL d   1       0.205   0.142  -0.184  0.00  0.00    -0.074 A 
ATOM      7  C6  UNL d   1       1.465   0.181   0.629  0.00  0.00     0.077 C 
ATOM      8  C7  UNL d   1      -1.002  -0.245   0.416  0.00  0.00    -0.001 A 
ENDROOT
TORSDOF 0
ENDMDL
