MODEL 1
REMARK minimizedAffinity -3.19413376
REMARK minimizedRMSD -1
REMARK  0 active torsions:
REMARK  status: ('A' for Active; 'I' for Inactive)
ROOT
ATOM      1  C   UNL d   1      -3.408  -0.673  -0.037  0.00  0.00     0.077 C 
ATOM      2  C1  UNL d   1      -2.046  -0.365  -0.584  0.00  0.00    -0.074 A 
ATOM      3  C2  UNL d   1      -1.831  -0.261  -1.962  0.00  0.00    -0.005 A 
ATOM      4  C3  UNL d   1      -0.560   0.036  -2.454  0.00  0.00     0.006 A 
ATOM      5  C4  UNL d   1       0.506   0.232  -1.576  0.00  0.00    -0.005 A 
ATOM      6  C5  UNL d   1       0.310   0.133  -0.195  0.00  0.00    -0.074 A 
ATOM      7  C6  UNL d   1       1.443   0.350   0.764  0.00  0.00     0.077 C 
ATOM      8  C7  UNL d   1      -0.971  -0.159   0.293  0.00  0.00    -0.001 A 
ENDROOT
TORSDOF 0
ENDMDL
