MODEL 1
REMARK minimizedAffinity -4.70685959
REMARK minimizedRMSD -1
REMARK  0 active torsions:
REMARK  status: ('A' for Active; 'I' for Inactive)
ROOT
ATOM      1  C   UNL d   1       3.690   3.936  -1.083  0.00  0.00     0.077 C 
ATOM      2  C1  UNL d   1       3.250   3.055   0.048  0.00  0.00    -0.074 A 
ATOM      3  C2  UNL d   1       3.481   3.423   1.378  0.00  0.00    -0.005 A 
ATOM      4  C3  UNL d   1       3.058   2.598   2.419  0.00  0.00     0.006 A 
ATOM      5  C4  UNL d   1       2.400   1.398   2.143  0.00  0.00    -0.005 A 
ATOM      6  C5  UNL d   1       2.160   1.014   0.820  0.00  0.00    -0.074 A 
ATOM      7  C6  UNL d   1       1.447  -0.267   0.506  0.00  0.00     0.077 C 
ATOM      8  C7  UNL d   1       2.583   1.852  -0.221  0.00  0.00    -0.001 A 
ENDROOT
TORSDOF 0
ENDMDL
