MODEL 1
REMARK minimizedAffinity -0.877331078
REMARK minimizedRMSD -1
REMARK  0 active torsions:
REMARK  status: ('A' for Active; 'I' for Inactive)
ROOT
ATOM      1  C   UNL d   1       4.462   3.421  -1.552  0.00  0.00     0.077 C 
ATOM      2  C1  UNL d   1       3.466   3.055  -0.492  0.00  0.00    -0.074 A 
ATOM      3  C2  UNL d   1       3.306   3.850   0.648  0.00  0.00    -0.005 A 
ATOM      4  C3  UNL d   1       2.369   3.503   1.622  0.00  0.00     0.006 A 
ATOM      5  C4  UNL d   1       1.585   2.359   1.465  0.00  0.00    -0.005 A 
ATOM      6  C5  UNL d   1       1.731   1.553   0.332  0.00  0.00    -0.074 A 
ATOM      7  C6  UNL d   1       0.889   0.326   0.144  0.00  0.00     0.077 C 
ATOM      8  C7  UNL d   1       2.669   1.913  -0.645  0.00  0.00    -0.001 A 
ENDROOT
TORSDOF 0
ENDMDL
