MODEL 1
REMARK minimizedAffinity -3.41708612
REMARK minimizedRMSD -1
REMARK  0 active torsions:
REMARK  status: ('A' for Active; 'I' for Inactive)
ROOT
ATOM      1  C   UNL d   1      -3.191  -0.771   0.013  0.00  0.00     0.077 C 
ATOM      2  C1  UNL d   1      -1.840  -0.228  -0.346  0.00  0.00    -0.074 A 
ATOM      3  C2  UNL d   1      -1.697   0.744  -1.342  0.00  0.00    -0.005 A 
ATOM      4  C3  UNL d   1      -0.435   1.246  -1.659  0.00  0.00     0.006 A 
ATOM      5  C4  UNL d   1       0.696   0.781  -0.985  0.00  0.00    -0.005 A 
ATOM      6  C5  UNL d   1       0.572  -0.190   0.014  0.00  0.00    -0.074 A 
ATOM      7  C6  UNL d   1       1.776  -0.693   0.754  0.00  0.00     0.077 C 
ATOM      8  C7  UNL d   1      -0.700  -0.684   0.331  0.00  0.00    -0.001 A 
ENDROOT
TORSDOF 0
ENDMDL
