MODEL 1
REMARK minimizedAffinity -0.715836287
REMARK minimizedRMSD -1
REMARK  0 active torsions:
REMARK  status: ('A' for Active; 'I' for Inactive)
ROOT
ATOM      1  C   UNL d   1       1.617   1.111   0.751  0.00  0.00     0.077 C 
ATOM      2  C1  UNL d   1       0.616   0.553  -0.217  0.00  0.00    -0.074 A 
ATOM      3  C2  UNL d   1       0.848   0.594  -1.595  0.00  0.00    -0.005 A 
ATOM      4  C3  UNL d   1      -0.088   0.063  -2.482  0.00  0.00     0.006 A 
ATOM      5  C4  UNL d   1      -1.264  -0.514  -2.001  0.00  0.00    -0.005 A 
ATOM      6  C5  UNL d   1      -1.513  -0.564  -0.626  0.00  0.00    -0.074 A 
ATOM      7  C6  UNL d   1      -2.768  -1.189  -0.091  0.00  0.00     0.077 C 
ATOM      8  C7  UNL d   1      -0.564  -0.035   0.260  0.00  0.00    -0.001 A 
ENDROOT
TORSDOF 0
ENDMDL
