MODEL 1
REMARK minimizedAffinity -4.45219755
REMARK minimizedRMSD -1
REMARK  0 active torsions:
REMARK  status: ('A' for Active; 'I' for Inactive)
ROOT
ATOM      1  C   UNL d   1      -3.572  -0.849   0.066  0.00  0.00     0.077 C 
ATOM      2  C1  UNL d   1      -2.132  -0.453  -0.078  0.00  0.00    -0.074 A 
ATOM      3  C2  UNL d   1      -1.255  -0.525   1.008  0.00  0.00    -0.005 A 
ATOM      4  C3  UNL d   1       0.083  -0.162   0.857  0.00  0.00     0.006 A 
ATOM      5  C4  UNL d   1       0.557   0.277  -0.381  0.00  0.00    -0.005 A 
ATOM      6  C5  UNL d   1      -0.306   0.355  -1.478  0.00  0.00    -0.074 A 
ATOM      7  C6  UNL d   1       0.188   0.815  -2.818  0.00  0.00     0.077 C 
ATOM      8  C7  UNL d   1      -1.648  -0.018  -1.320  0.00  0.00    -0.001 A 
ENDROOT
TORSDOF 0
ENDMDL
