MODEL 1
REMARK minimizedAffinity -3.37629914
REMARK minimizedRMSD -1
REMARK  0 active torsions:
REMARK  status: ('A' for Active; 'I' for Inactive)
ROOT
ATOM      1  C   UNL d   1      -3.289  -0.632   0.135  0.00  0.00     0.077 C 
ATOM      2  C1  UNL d   1      -1.955  -0.280  -0.453  0.00  0.00    -0.074 A 
ATOM      3  C2  UNL d   1      -1.780  -0.193  -1.838  0.00  0.00    -0.005 A 
ATOM      4  C3  UNL d   1      -0.536   0.145  -2.370  0.00  0.00     0.006 A 
ATOM      5  C4  UNL d   1       0.544   0.400  -1.524  0.00  0.00    -0.005 A 
ATOM      6  C5  UNL d   1       0.388   0.319  -0.137  0.00  0.00    -0.074 A 
ATOM      7  C6  UNL d   1       1.536   0.599   0.787  0.00  0.00     0.077 C 
ATOM      8  C7  UNL d   1      -0.867  -0.015   0.390  0.00  0.00    -0.001 A 
ENDROOT
TORSDOF 0
ENDMDL
