MODEL 1
REMARK minimizedAffinity -3.20196104
REMARK minimizedRMSD -1
REMARK  0 active torsions:
REMARK  status: ('A' for Active; 'I' for Inactive)
ROOT
ATOM      1  C   UNL d   1      -3.350  -0.492   0.029  0.00  0.00     0.077 C 
ATOM      2  C1  UNL d   1      -1.893  -0.266  -0.246  0.00  0.00    -0.074 A 
ATOM      3  C2  UNL d   1      -1.467   0.274  -1.464  0.00  0.00    -0.005 A 
ATOM      4  C3  UNL d   1      -0.109   0.488  -1.702  0.00  0.00     0.006 A 
ATOM      5  C4  UNL d   1       0.835   0.164  -0.726  0.00  0.00    -0.005 A 
ATOM      6  C5  UNL d   1       0.427  -0.376   0.498  0.00  0.00    -0.074 A 
ATOM      7  C6  UNL d   1       1.428  -0.721   1.561  0.00  0.00     0.077 C 
ATOM      8  C7  UNL d   1      -0.939  -0.581   0.732  0.00  0.00    -0.001 A 
ENDROOT
TORSDOF 0
ENDMDL
