MODEL 1
REMARK minimizedAffinity -3.58534813
REMARK minimizedRMSD -1
REMARK  0 active torsions:
REMARK  status: ('A' for Active; 'I' for Inactive)
ROOT
ATOM      1  C   UNL d   1      -3.227  -0.882  -0.320  0.00  0.00     0.077 C 
ATOM      2  C1  UNL d   1      -1.822  -0.417  -0.560  0.00  0.00    -0.074 A 
ATOM      3  C2  UNL d   1      -1.493   0.319  -1.703  0.00  0.00    -0.005 A 
ATOM      4  C3  UNL d   1      -0.183   0.752  -1.907  0.00  0.00     0.006 A 
ATOM      5  C4  UNL d   1       0.810   0.455  -0.972  0.00  0.00    -0.005 A 
ATOM      6  C5  UNL d   1       0.499  -0.279   0.177  0.00  0.00    -0.074 A 
ATOM      7  C6  UNL d   1       1.552  -0.598   1.197  0.00  0.00     0.077 C 
ATOM      8  C7  UNL d   1      -0.821  -0.705   0.379  0.00  0.00    -0.001 A 
ENDROOT
TORSDOF 0
ENDMDL
