MODEL 1
REMARK minimizedAffinity 1.08364391
REMARK minimizedRMSD -1
REMARK  0 active torsions:
REMARK  status: ('A' for Active; 'I' for Inactive)
ROOT
ATOM      1  C4' PXY d   1      -1.496  -2.702   0.783  0.00  0.00     0.077 C 
ATOM      2  C1' PXY d   1       3.084  -0.043  -1.534  0.00  0.00     0.077 C 
ATOM      3  C1  PXY d   1       1.890  -0.750  -0.923  0.00  0.00    -0.082 A 
ATOM      4  C2  PXY d   1       0.669  -0.434  -1.320  0.00  0.00     0.003 A 
ATOM      5  C3  PXY d   1      -0.423  -1.041  -0.756  0.00  0.00     0.003 A 
ATOM      6  C4  PXY d   1      -0.261  -2.020   0.187  0.00  0.00    -0.082 A 
ATOM      7  C5  PXY d   1       0.983  -2.357   0.590  0.00  0.00     0.003 A 
ATOM      8  C6  PXY d   1       2.076  -1.699   0.034  0.00  0.00     0.003 A 
ENDROOT
TORSDOF 0
ENDMDL
