MODEL 1
REMARK minimizedAffinity 4.92068911
REMARK minimizedRMSD -1
REMARK  0 active torsions:
REMARK  status: ('A' for Active; 'I' for Inactive)
ROOT
ATOM      1  C4' PXY d   1       1.973   0.718  -3.913  0.00  0.00     0.077 C 
ATOM      2  C1' PXY d   1       0.196  -2.089   0.818  0.00  0.00     0.077 C 
ATOM      3  C1  PXY d   1       0.667  -1.364  -0.427  0.00  0.00    -0.082 A 
ATOM      4  C2  PXY d   1       0.813  -0.049  -0.403  0.00  0.00     0.003 A 
ATOM      5  C3  PXY d   1       1.208   0.626  -1.529  0.00  0.00     0.003 A 
ATOM      6  C4  PXY d   1       1.508  -0.057  -2.677  0.00  0.00    -0.082 A 
ATOM      7  C5  PXY d   1       1.372  -1.400  -2.707  0.00  0.00     0.003 A 
ATOM      8  C6  PXY d   1       0.930  -2.062  -1.565  0.00  0.00     0.003 A 
ENDROOT
TORSDOF 0
ENDMDL
