MODEL 1
REMARK minimizedAffinity -0.927011609
REMARK minimizedRMSD -1
REMARK  0 active torsions:
REMARK  status: ('A' for Active; 'I' for Inactive)
ROOT
ATOM      1  C4' PXY d   1      -0.956  -3.686   0.995  0.00  0.00     0.077 C 
ATOM      2  C1' PXY d   1       2.287   0.383  -1.524  0.00  0.00     0.077 C 
ATOM      3  C1  PXY d   1       1.447  -0.692  -0.863  0.00  0.00    -0.082 A 
ATOM      4  C2  PXY d   1       0.141  -0.722  -1.071  0.00  0.00     0.003 A 
ATOM      5  C3  PXY d   1      -0.638  -1.668  -0.455  0.00  0.00     0.003 A 
ATOM      6  C4  PXY d   1      -0.067  -2.625   0.340  0.00  0.00    -0.082 A 
ATOM      7  C5  PXY d   1       1.266  -2.607   0.549  0.00  0.00     0.003 A 
ATOM      8  C6  PXY d   1       2.034  -1.614  -0.052  0.00  0.00     0.003 A 
ENDROOT
TORSDOF 0
ENDMDL
