MODEL 1
REMARK minimizedAffinity -1.78856397
REMARK minimizedRMSD -1
REMARK  0 active torsions:
REMARK  status: ('A' for Active; 'I' for Inactive)
ROOT
ATOM      1  C4' PXY d   1      -0.779  -1.104   4.607  0.00  0.00     0.077 C 
ATOM      2  C1' PXY d   1      -6.000   0.316   2.572  0.00  0.00     0.077 C 
ATOM      3  C1  PXY d   1      -4.627  -0.044   3.106  0.00  0.00    -0.082 A 
ATOM      4  C2  PXY d   1      -4.127  -1.246   2.868  0.00  0.00     0.003 A 
ATOM      5  C3  PXY d   1      -2.901  -1.599   3.371  0.00  0.00     0.003 A 
ATOM      6  C4  PXY d   1      -2.156  -0.694   4.079  0.00  0.00    -0.082 A 
ATOM      7  C5  PXY d   1      -2.655   0.538   4.317  0.00  0.00     0.003 A 
ATOM      8  C6  PXY d   1      -3.919   0.863   3.833  0.00  0.00     0.003 A 
ENDROOT
TORSDOF 0
ENDMDL
