MODEL 1
REMARK minimizedAffinity 5.8648181
REMARK minimizedRMSD -1
REMARK  0 active torsions:
REMARK  status: ('A' for Active; 'I' for Inactive)
ROOT
ATOM      1  C4' PXY d   1      -0.270   1.212  -2.662  0.00  0.00     0.077 C 
ATOM      2  C1' PXY d   1       2.489  -2.654   0.632  0.00  0.00     0.077 C 
ATOM      3  C1  PXY d   1       1.756  -1.649  -0.234  0.00  0.00    -0.082 A 
ATOM      4  C2  PXY d   1       2.423  -0.640  -0.772  0.00  0.00     0.003 A 
ATOM      5  C3  PXY d   1       1.769   0.296  -1.532  0.00  0.00     0.003 A 
ATOM      6  C4  PXY d   1       0.430   0.168  -1.788  0.00  0.00    -0.082 A 
ATOM      7  C5  PXY d   1      -0.254  -0.864  -1.252  0.00  0.00     0.003 A 
ATOM      8  C6  PXY d   1       0.419  -1.781  -0.450  0.00  0.00     0.003 A 
ENDROOT
TORSDOF 0
ENDMDL
