MODEL 1
REMARK minimizedAffinity -2.82305503
REMARK minimizedRMSD -1
REMARK  0 active torsions:
REMARK  status: ('A' for Active; 'I' for Inactive)
ROOT
ATOM      1  C4' PXY d   1       0.421   0.118  -1.554  0.00  0.00     0.077 C 
ATOM      2  C1' PXY d   1       1.127  -4.765   1.457  0.00  0.00     0.077 C 
ATOM      3  C1  PXY d   1       0.930  -3.488   0.664  0.00  0.00    -0.082 A 
ATOM      4  C2  PXY d   1       1.984  -2.831   0.210  0.00  0.00     0.003 A 
ATOM      5  C3  PXY d   1       1.825  -1.658  -0.482  0.00  0.00     0.003 A 
ATOM      6  C4  PXY d   1       0.572  -1.180  -0.757  0.00  0.00    -0.082 A 
ATOM      7  C5  PXY d   1      -0.509  -1.851  -0.307  0.00  0.00     0.003 A 
ATOM      8  C6  PXY d   1      -0.325  -3.018   0.429  0.00  0.00     0.003 A 
ENDROOT
TORSDOF 0
ENDMDL
