MODEL 1
REMARK minimizedAffinity 2.58706284
REMARK minimizedRMSD -1
REMARK  0 active torsions:
REMARK  status: ('A' for Active; 'I' for Inactive)
ROOT
ATOM      1  C4' PXY d   1       0.933   1.693  -3.794  0.00  0.00     0.077 C 
ATOM      2  C1' PXY d   1       0.519  -1.958   0.669  0.00  0.00     0.077 C 
ATOM      3  C1  PXY d   1       0.631  -1.011  -0.510  0.00  0.00    -0.082 A 
ATOM      4  C2  PXY d   1       0.896   0.268  -0.298  0.00  0.00     0.003 A 
ATOM      5  C3  PXY d   1       0.969   1.145  -1.350  0.00  0.00     0.003 A 
ATOM      6  C4  PXY d   1       0.821   0.698  -2.635  0.00  0.00    -0.082 A 
ATOM      7  C5  PXY d   1       0.560  -0.607  -2.860  0.00  0.00     0.003 A 
ATOM      8  C6  PXY d   1       0.450  -1.473  -1.777  0.00  0.00     0.003 A 
ENDROOT
TORSDOF 0
ENDMDL
