MODEL 1
REMARK minimizedAffinity 7.80761385
REMARK minimizedRMSD -1
REMARK  0 active torsions:
REMARK  status: ('A' for Active; 'I' for Inactive)
ROOT
ATOM      1  C4' PXY d   1       4.216   1.999  -5.999  0.00  0.00     0.077 C 
ATOM      2  C1' PXY d   1       0.001   1.942  -2.044  0.00  0.00     0.077 C 
ATOM      3  C1  PXY d   1       1.098   1.961  -3.090  0.00  0.00    -0.082 A 
ATOM      4  C2  PXY d   1       2.130   1.142  -2.971  0.00  0.00     0.003 A 
ATOM      5  C3  PXY d   1       3.147   1.169  -3.891  0.00  0.00     0.003 A 
ATOM      6  C4  PXY d   1       3.081   2.007  -4.972  0.00  0.00    -0.082 A 
ATOM      7  C5  PXY d   1       2.026   2.838  -5.106  0.00  0.00     0.003 A 
ATOM      8  C6  PXY d   1       1.025   2.825  -4.139  0.00  0.00     0.003 A 
ENDROOT
TORSDOF 0
ENDMDL
