MODEL 1
REMARK minimizedAffinity 4.46929169
REMARK minimizedRMSD -1
REMARK  0 active torsions:
REMARK  status: ('A' for Active; 'I' for Inactive)
ROOT
ATOM      1  C4' PXY d   1       1.050  -1.337  -0.327  0.00  0.00     0.077 C 
ATOM      2  C1' PXY d   1       1.010   2.796  -4.368  0.00  0.00     0.077 C 
ATOM      3  C1  PXY d   1       1.020   1.703  -3.318  0.00  0.00    -0.082 A 
ATOM      4  C2  PXY d   1       0.589   1.967  -2.095  0.00  0.00     0.003 A 
ATOM      5  C3  PXY d   1       0.621   0.999  -1.125  0.00  0.00     0.003 A 
ATOM      6  C4  PXY d   1       1.049  -0.267  -1.422  0.00  0.00    -0.082 A 
ATOM      7  C5  PXY d   1       1.481  -0.547  -2.670  0.00  0.00     0.003 A 
ATOM      8  C6  PXY d   1       1.479   0.461  -3.630  0.00  0.00     0.003 A 
ENDROOT
TORSDOF 0
ENDMDL
