MODEL 1
REMARK minimizedAffinity 12.685318
REMARK minimizedRMSD -1
REMARK  0 active torsions:
REMARK  status: ('A' for Active; 'I' for Inactive)
ROOT
ATOM      1  C4' PXY d   1       0.979   2.369  -0.693  0.00  0.00     0.077 C 
ATOM      2  C1' PXY d   1       0.693  -3.041  -2.709  0.00  0.00     0.077 C 
ATOM      3  C1  PXY d   1       0.777  -1.619  -2.189  0.00  0.00    -0.082 A 
ATOM      4  C2  PXY d   1       0.449  -1.361  -0.934  0.00  0.00     0.003 A 
ATOM      5  C3  PXY d   1       0.488  -0.076  -0.457  0.00  0.00     0.003 A 
ATOM      6  C4  PXY d   1       0.919   0.947  -1.258  0.00  0.00    -0.082 A 
ATOM      7  C5  PXY d   1       1.266   0.690  -2.537  0.00  0.00     0.003 A 
ATOM      8  C6  PXY d   1       1.179  -0.614  -3.014  0.00  0.00     0.003 A 
ENDROOT
TORSDOF 0
ENDMDL
