MODEL 1
REMARK minimizedAffinity 2.56363344
REMARK minimizedRMSD -1
REMARK  0 active torsions:
REMARK  status: ('A' for Active; 'I' for Inactive)
ROOT
ATOM      1  C4' PXY d   1       0.391  -0.784   0.352  0.00  0.00     0.077 C 
ATOM      2  C1' PXY d   1       1.795  -0.788  -5.256  0.00  0.00     0.077 C 
ATOM      3  C1  PXY d   1       1.425  -0.800  -3.785  0.00  0.00    -0.082 A 
ATOM      4  C2  PXY d   1       0.949   0.298  -3.222  0.00  0.00     0.003 A 
ATOM      5  C3  PXY d   1       0.639   0.314  -1.886  0.00  0.00     0.003 A 
ATOM      6  C4  PXY d   1       0.769  -0.821  -1.131  0.00  0.00    -0.082 A 
ATOM      7  C5  PXY d   1       1.244  -1.948  -1.702  0.00  0.00     0.003 A 
ATOM      8  C6  PXY d   1       1.591  -1.932  -3.049  0.00  0.00     0.003 A 
ENDROOT
TORSDOF 0
ENDMDL
