MODEL 1
REMARK minimizedAffinity -0.846927524
REMARK minimizedRMSD -1
REMARK  0 active torsions:
REMARK  status: ('A' for Active; 'I' for Inactive)
ROOT
ATOM      1  C4' PXY d   1       2.488   1.618  -5.294  0.00  0.00     0.077 C 
ATOM      2  C1' PXY d   1       0.245   0.185  -0.163  0.00  0.00     0.077 C 
ATOM      3  C1  PXY d   1       0.823   0.568  -1.511  0.00  0.00    -0.082 A 
ATOM      4  C2  PXY d   1       1.696  -0.233  -2.100  0.00  0.00     0.003 A 
ATOM      5  C3  PXY d   1       2.253   0.114  -3.305  0.00  0.00     0.003 A 
ATOM      6  C4  PXY d   1       1.872   1.267  -3.937  0.00  0.00    -0.082 A 
ATOM      7  C5  PXY d   1       0.974   2.084  -3.348  0.00  0.00     0.003 A 
ATOM      8  C6  PXY d   1       0.452   1.734  -2.106  0.00  0.00     0.003 A 
ENDROOT
TORSDOF 0
ENDMDL
