MODEL 1
REMARK minimizedAffinity 8.50333405
REMARK minimizedRMSD -1
REMARK  0 active torsions:
REMARK  status: ('A' for Active; 'I' for Inactive)
ROOT
ATOM      1  C4' PXY d   1      -0.032  -1.512   0.745  0.00  0.00     0.077 C 
ATOM      2  C1' PXY d   1       1.831   1.021  -4.106  0.00  0.00     0.077 C 
ATOM      3  C1  PXY d   1       1.340   0.368  -2.829  0.00  0.00    -0.082 A 
ATOM      4  C2  PXY d   1       1.717  -0.867  -2.538  0.00  0.00     0.003 A 
ATOM      5  C3  PXY d   1       1.257  -1.483  -1.403  0.00  0.00     0.003 A 
ATOM      6  C4  PXY d   1       0.446  -0.810  -0.530  0.00  0.00    -0.082 A 
ATOM      7  C5  PXY d   1       0.066   0.454  -0.813  0.00  0.00     0.003 A 
ATOM      8  C6  PXY d   1       0.510   1.047  -1.991  0.00  0.00     0.003 A 
ENDROOT
TORSDOF 0
ENDMDL
