MODEL 1
REMARK minimizedAffinity 7.52485371
REMARK minimizedRMSD -1
REMARK  0 active torsions:
REMARK  status: ('A' for Active; 'I' for Inactive)
ROOT
ATOM      1  C4' PXY d   1      -5.988   5.922   5.999  0.00  0.00     0.077 C 
ATOM      2  C1' PXY d   1      -3.281   5.326   0.927  0.00  0.00     0.077 C 
ATOM      3  C1  PXY d   1      -3.979   5.480   2.263  0.00  0.00    -0.082 A 
ATOM      4  C2  PXY d   1      -5.278   5.246   2.353  0.00  0.00     0.003 A 
ATOM      5  C3  PXY d   1      -5.932   5.412   3.547  0.00  0.00     0.003 A 
ATOM      6  C4  PXY d   1      -5.239   5.769   4.673  0.00  0.00    -0.082 A 
ATOM      7  C5  PXY d   1      -3.912   6.000   4.591  0.00  0.00     0.003 A 
ATOM      8  C6  PXY d   1      -3.274   5.866   3.361  0.00  0.00     0.003 A 
ENDROOT
TORSDOF 0
ENDMDL
