MODEL 1
REMARK minimizedAffinity 2.82328844
REMARK minimizedRMSD -1
REMARK  0 active torsions:
REMARK  status: ('A' for Active; 'I' for Inactive)
ROOT
ATOM      1  C4' PXY d   1       0.660   2.085  -1.274  0.00  0.00     0.077 C 
ATOM      2  C1' PXY d   1       1.597  -3.290  -3.183  0.00  0.00     0.077 C 
ATOM      3  C1  PXY d   1       1.344  -1.885  -2.672  0.00  0.00    -0.082 A 
ATOM      4  C2  PXY d   1       1.414  -0.863  -3.509  0.00  0.00     0.003 A 
ATOM      5  C3  PXY d   1       1.220   0.417  -3.058  0.00  0.00     0.003 A 
ATOM      6  C4  PXY d   1       0.898   0.649  -1.747  0.00  0.00    -0.082 A 
ATOM      7  C5  PXY d   1       0.815  -0.390  -0.889  0.00  0.00     0.003 A 
ATOM      8  C6  PXY d   1       1.056  -1.678  -1.358  0.00  0.00     0.003 A 
ENDROOT
TORSDOF 0
ENDMDL
