MODEL 1
REMARK minimizedAffinity 1.07189083
REMARK minimizedRMSD -1
REMARK  0 active torsions:
REMARK  status: ('A' for Active; 'I' for Inactive)
ROOT
ATOM      1  C4' PXY d   1       0.119  -1.183   0.942  0.00  0.00     0.077 C 
ATOM      2  C1' PXY d   1       1.742   0.897  -4.202  0.00  0.00     0.077 C 
ATOM      3  C1  PXY d   1       1.315   0.363  -2.848  0.00  0.00    -0.082 A 
ATOM      4  C2  PXY d   1       1.673  -0.857  -2.484  0.00  0.00     0.003 A 
ATOM      5  C3  PXY d   1       1.269  -1.367  -1.277  0.00  0.00     0.003 A 
ATOM      6  C4  PXY d   1       0.535  -0.600  -0.412  0.00  0.00    -0.082 A 
ATOM      7  C5  PXY d   1       0.175   0.650  -0.772  0.00  0.00     0.003 A 
ATOM      8  C6  PXY d   1       0.561   1.134  -2.019  0.00  0.00     0.003 A 
ENDROOT
TORSDOF 0
ENDMDL
