MODEL 1
REMARK minimizedAffinity -0.731600344
REMARK minimizedRMSD -1
REMARK  0 active torsions:
REMARK  status: ('A' for Active; 'I' for Inactive)
ROOT
ATOM      1  C4' PXY d   1      -0.098  -1.351   0.791  0.00  0.00     0.077 C 
ATOM      2  C1' PXY d   1       1.841   0.995  -4.124  0.00  0.00     0.077 C 
ATOM      3  C1  PXY d   1       1.334   0.391  -2.829  0.00  0.00    -0.082 A 
ATOM      4  C2  PXY d   1       1.439  -0.912  -2.629  0.00  0.00     0.003 A 
ATOM      5  C3  PXY d   1       0.957  -1.479  -1.478  0.00  0.00     0.003 A 
ATOM      6  C4  PXY d   1       0.409  -0.697  -0.497  0.00  0.00    -0.082 A 
ATOM      7  C5  PXY d   1       0.307   0.636  -0.689  0.00  0.00     0.003 A 
ATOM      8  C6  PXY d   1       0.765   1.186  -1.882  0.00  0.00     0.003 A 
ENDROOT
TORSDOF 0
ENDMDL
