MODEL 1
REMARK minimizedAffinity 1.89466381
REMARK minimizedRMSD -1
REMARK  0 active torsions:
REMARK  status: ('A' for Active; 'I' for Inactive)
ROOT
ATOM      1  C4' PXY d   1       1.572  -2.691  -3.649  0.00  0.00     0.077 C 
ATOM      2  C1' PXY d   1       0.441   2.290  -0.943  0.00  0.00     0.077 C 
ATOM      3  C1  PXY d   1       0.734   0.989  -1.664  0.00  0.00    -0.082 A 
ATOM      4  C2  PXY d   1       0.678  -0.154  -1.000  0.00  0.00     0.003 A 
ATOM      5  C3  PXY d   1       0.972  -1.336  -1.629  0.00  0.00     0.003 A 
ATOM      6  C4  PXY d   1       1.274  -1.354  -2.964  0.00  0.00    -0.082 A 
ATOM      7  C5  PXY d   1       1.324  -0.193  -3.651  0.00  0.00     0.003 A 
ATOM      8  C6  PXY d   1       1.062   1.000  -2.984  0.00  0.00     0.003 A 
ENDROOT
TORSDOF 0
ENDMDL
