MODEL 1
REMARK minimizedAffinity 13.5558214
REMARK minimizedRMSD -1
REMARK  0 active torsions:
REMARK  status: ('A' for Active; 'I' for Inactive)
ROOT
ATOM      1  C4' PXY d   1       1.000  -3.025   0.914  0.00  0.00     0.077 C 
ATOM      2  C1' PXY d   1       0.725   1.229  -2.990  0.00  0.00     0.077 C 
ATOM      3  C1  PXY d   1       0.810   0.117  -1.963  0.00  0.00    -0.082 A 
ATOM      4  C2  PXY d   1       0.003  -0.927  -2.062  0.00  0.00     0.003 A 
ATOM      5  C3  PXY d   1       0.044  -1.927  -1.125  0.00  0.00     0.003 A 
ATOM      6  C4  PXY d   1       0.956  -1.883  -0.105  0.00  0.00    -0.082 A 
ATOM      7  C5  PXY d   1       1.790  -0.826  -0.003  0.00  0.00     0.003 A 
ATOM      8  C6  PXY d   1       1.705   0.198  -0.942  0.00  0.00     0.003 A 
ENDROOT
TORSDOF 0
ENDMDL
