MODEL 1
REMARK minimizedAffinity 5.82615519
REMARK minimizedRMSD -1
REMARK  0 active torsions:
REMARK  status: ('A' for Active; 'I' for Inactive)
ROOT
ATOM      1  C4' PXY d   1       1.285  -4.174  -3.028  0.00  0.00     0.077 C 
ATOM      2  C1' PXY d   1       1.346   1.582  -3.560  0.00  0.00     0.077 C 
ATOM      3  C1  PXY d   1       1.327   0.071  -3.433  0.00  0.00    -0.082 A 
ATOM      4  C2  PXY d   1       1.086  -0.484  -2.257  0.00  0.00     0.003 A 
ATOM      5  C3  PXY d   1       1.097  -1.848  -2.117  0.00  0.00     0.003 A 
ATOM      6  C4  PXY d   1       1.304  -2.653  -3.205  0.00  0.00    -0.082 A 
ATOM      7  C5  PXY d   1       1.540  -2.095  -4.411  0.00  0.00     0.003 A 
ATOM      8  C6  PXY d   1       1.566  -0.708  -4.523  0.00  0.00     0.003 A 
ENDROOT
TORSDOF 0
ENDMDL
