MODEL 1
REMARK minimizedAffinity 8.34218407
REMARK minimizedRMSD -1
REMARK  0 active torsions:
REMARK  status: ('A' for Active; 'I' for Inactive)
ROOT
ATOM      1  N1  IND d   1       0.860  -0.133   5.009  0.00  0.00    -0.196 N 
ATOM      2  C2  IND d   1       0.964  -1.257   5.780  0.00  0.00     0.054 A 
ATOM      3  C3  IND d   1       1.325  -2.316   5.021  0.00  0.00    -0.031 A 
ATOM      4  C4  IND d   1       1.896  -2.412   2.513  0.00  0.00     0.051 A 
ATOM      5  C5  IND d   1       1.909  -1.646   1.381  0.00  0.00    -0.031 A 
ATOM      6  C6  IND d   1       1.569  -0.308   1.402  0.00  0.00     0.015 A 
ATOM      7  C7  IND d   1       1.213   0.318   2.562  0.00  0.00    -0.016 A 
ATOM      8  C8  IND d   1       1.191  -0.458   3.712  0.00  0.00    -0.047 A 
ATOM      9  C9  IND d   1       1.494  -1.826   3.690  0.00  0.00    -0.096 A 
ATOM     10  HN1 IND d   1       0.627   0.647   5.287  0.00  0.00     0.298 HD
ENDROOT
TORSDOF 0
ENDMDL
