MODEL 1
REMARK minimizedAffinity 8.49726963
REMARK minimizedRMSD -1
REMARK  0 active torsions:
REMARK  status: ('A' for Active; 'I' for Inactive)
ROOT
ATOM      1  N1  IND d   1      -2.459   3.491   2.625  0.00  0.00    -0.196 N 
ATOM      2  C2  IND d   1      -1.734   2.996   1.577  0.00  0.00     0.054 A 
ATOM      3  C3  IND d   1      -2.434   3.108   0.426  0.00  0.00    -0.031 A 
ATOM      4  C4  IND d   1      -4.745   4.165   0.013  0.00  0.00     0.051 A 
ATOM      5  C5  IND d   1      -5.809   4.718   0.669  0.00  0.00    -0.031 A 
ATOM      6  C6  IND d   1      -5.810   4.896   2.037  0.00  0.00     0.015 A 
ATOM      7  C7  IND d   1      -4.737   4.537   2.803  0.00  0.00    -0.016 A 
ATOM      8  C8  IND d   1      -3.657   3.969   2.142  0.00  0.00    -0.047 A 
ATOM      9  C9  IND d   1      -3.668   3.746   0.759  0.00  0.00    -0.096 A 
ATOM     10  HN1 IND d   1      -2.209   3.502   3.447  0.00  0.00     0.298 HD
ENDROOT
TORSDOF 0
ENDMDL
