MODEL 1
REMARK minimizedAffinity 5.30026102
REMARK minimizedRMSD -1
REMARK  0 active torsions:
REMARK  status: ('A' for Active; 'I' for Inactive)
ROOT
ATOM      1  N1  IND d   1       1.881  -5.951   5.087  0.00  0.00    -0.196 N 
ATOM      2  C2  IND d   1       1.685  -4.950   5.996  0.00  0.00     0.054 A 
ATOM      3  C3  IND d   1       1.544  -3.762   5.366  0.00  0.00    -0.031 A 
ATOM      4  C4  IND d   1       1.499  -3.245   2.844  0.00  0.00     0.051 A 
ATOM      5  C5  IND d   1       1.672  -3.829   1.621  0.00  0.00    -0.031 A 
ATOM      6  C6  IND d   1       1.927  -5.179   1.488  0.00  0.00     0.015 A 
ATOM      7  C7  IND d   1       2.006  -6.000   2.577  0.00  0.00    -0.016 A 
ATOM      8  C8  IND d   1       1.838  -5.408   3.821  0.00  0.00    -0.047 A 
ATOM      9  C9  IND d   1       1.621  -4.032   3.965  0.00  0.00    -0.096 A 
ATOM     10  HN1 IND d   1       2.010  -6.781   5.273  0.00  0.00     0.298 HD
ENDROOT
TORSDOF 0
ENDMDL
