MODEL 1
REMARK minimizedAffinity 13.8317566
REMARK minimizedRMSD -1
REMARK  0 active torsions:
REMARK  status: ('A' for Active; 'I' for Inactive)
ROOT
ATOM      1  N1  IND d   1      -2.442   2.923   1.857  0.00  0.00    -0.196 N 
ATOM      2  C2  IND d   1      -1.666   2.991   0.734  0.00  0.00     0.054 A 
ATOM      3  C3  IND d   1      -2.401   3.408  -0.321  0.00  0.00    -0.031 A 
ATOM      4  C4  IND d   1      -4.870   4.130  -0.411  0.00  0.00     0.051 A 
ATOM      5  C5  IND d   1      -5.999   4.204   0.355  0.00  0.00    -0.031 A 
ATOM      6  C6  IND d   1      -6.000   3.850   1.689  0.00  0.00     0.015 A 
ATOM      7  C7  IND d   1      -4.863   3.418   2.312  0.00  0.00    -0.016 A 
ATOM      8  C8  IND d   1      -3.716   3.335   1.535  0.00  0.00    -0.047 A 
ATOM      9  C9  IND d   1      -3.720   3.652   0.170  0.00  0.00    -0.096 A 
ATOM     10  HN1 IND d   1      -2.179   2.665   2.634  0.00  0.00     0.298 HD
ENDROOT
TORSDOF 0
ENDMDL
