MODEL 1
REMARK minimizedAffinity 18.0608501
REMARK minimizedRMSD -1
REMARK  0 active torsions:
REMARK  status: ('A' for Active; 'I' for Inactive)
ROOT
ATOM      1  N1  IND d   1      -6.000   2.756  -1.660  0.00  0.00    -0.196 N 
ATOM      2  C2  IND d   1      -5.998   3.780  -0.755  0.00  0.00     0.054 A 
ATOM      3  C3  IND d   1      -4.785   3.889  -0.170  0.00  0.00    -0.031 A 
ATOM      4  C4  IND d   1      -2.627   2.559  -0.619  0.00  0.00     0.051 A 
ATOM      5  C5  IND d   1      -2.145   1.497  -1.331  0.00  0.00    -0.031 A 
ATOM      6  C6  IND d   1      -2.939   0.787  -2.210  0.00  0.00     0.015 A 
ATOM      7  C7  IND d   1      -4.247   1.122  -2.417  0.00  0.00    -0.016 A 
ATOM      8  C8  IND d   1      -4.741   2.196  -1.690  0.00  0.00    -0.047 A 
ATOM      9  C9  IND d   1      -3.953   2.893  -0.766  0.00  0.00    -0.096 A 
ATOM     10  HN1 IND d   1      -6.674   2.503  -2.131  0.00  0.00     0.298 HD
ENDROOT
TORSDOF 0
ENDMDL
