MODEL 1
REMARK minimizedAffinity 12.1211662
REMARK minimizedRMSD -1
REMARK  0 active torsions:
REMARK  status: ('A' for Active; 'I' for Inactive)
ROOT
ATOM      1  N1  IND d   1       3.964   4.982  -5.190  0.00  0.00    -0.196 N 
ATOM      2  C2  IND d   1       5.042   5.458  -5.883  0.00  0.00     0.054 A 
ATOM      3  C3  IND d   1       5.968   5.951  -5.030  0.00  0.00    -0.031 A 
ATOM      4  C4  IND d   1       5.968   5.986  -2.456  0.00  0.00     0.051 A 
ATOM      5  C5  IND d   1       5.183   5.697  -1.375  0.00  0.00    -0.031 A 
ATOM      6  C6  IND d   1       3.928   5.141  -1.513  0.00  0.00     0.015 A 
ATOM      7  C7  IND d   1       3.412   4.841  -2.742  0.00  0.00    -0.016 A 
ATOM      8  C8  IND d   1       4.204   5.140  -3.843  0.00  0.00    -0.047 A 
ATOM      9  C9  IND d   1       5.461   5.743  -3.711  0.00  0.00    -0.096 A 
ATOM     10  HN1 IND d   1       3.255   4.641  -5.538  0.00  0.00     0.298 HD
ENDROOT
TORSDOF 0
ENDMDL
