MODEL 1
REMARK minimizedAffinity -0.0274847895
REMARK minimizedRMSD -1
REMARK  0 active torsions:
REMARK  status: ('A' for Active; 'I' for Inactive)
ROOT
ATOM      1  N1  IND d   1       4.556   5.256  -1.813  0.00  0.00    -0.196 N 
ATOM      2  C2  IND d   1       3.389   4.552  -1.709  0.00  0.00     0.054 A 
ATOM      3  C3  IND d   1       2.929   4.219  -2.936  0.00  0.00    -0.031 A 
ATOM      4  C4  IND d   1       3.984   4.637  -5.247  0.00  0.00     0.051 A 
ATOM      5  C5  IND d   1       5.031   5.272  -5.854  0.00  0.00    -0.031 A 
ATOM      6  C6  IND d   1       5.994   5.945  -5.131  0.00  0.00     0.015 A 
ATOM      7  C7  IND d   1       5.952   5.999  -3.766  0.00  0.00    -0.016 A 
ATOM      8  C8  IND d   1       4.887   5.362  -3.146  0.00  0.00    -0.047 A 
ATOM      9  C9  IND d   1       3.883   4.713  -3.877  0.00  0.00    -0.096 A 
ATOM     10  HN1 IND d   1       5.008   5.579  -1.157  0.00  0.00     0.298 HD
ENDROOT
TORSDOF 0
ENDMDL
