MODEL 1
REMARK minimizedAffinity -3.03248286
REMARK minimizedRMSD -1
REMARK  0 active torsions:
REMARK  status: ('A' for Active; 'I' for Inactive)
ROOT
ATOM      1  C   UNL d   1      -0.320   0.800  -0.604  0.00  0.00     0.078 C 
ATOM      2  C1  UNL d   1      -1.647   0.877   0.091  0.00  0.00    -0.077 A 
ATOM      3  C2  UNL d   1      -2.837   0.602  -0.593  0.00  0.00    -0.001 A 
ATOM      4  C3  UNL d   1      -4.065   0.687   0.064  0.00  0.00     0.003 A 
ATOM      5  C4  UNL d   1      -4.116   1.048   1.409  0.00  0.00    -0.005 A 
ATOM      6  C5  UNL d   1      -2.937   1.326   2.098  0.00  0.00     0.003 A 
ATOM      7  C6  UNL d   1      -1.707   1.241   1.442  0.00  0.00    -0.001 A 
ENDROOT
TORSDOF 0
ENDMDL
