MODEL 1
REMARK minimizedAffinity -4.29742575
REMARK minimizedRMSD -1
REMARK  0 active torsions:
REMARK  status: ('A' for Active; 'I' for Inactive)
ROOT
ATOM      1  C   UNL d   1      -1.134   1.102  -0.566  0.00  0.00     0.078 C 
ATOM      2  C1  UNL d   1      -0.016   0.138  -0.306  0.00  0.00    -0.077 A 
ATOM      3  C2  UNL d   1      -0.042  -1.157  -0.837  0.00  0.00    -0.001 A 
ATOM      4  C3  UNL d   1       1.001  -2.048  -0.579  0.00  0.00     0.003 A 
ATOM      5  C4  UNL d   1       2.077  -1.653   0.213  0.00  0.00    -0.005 A 
ATOM      6  C5  UNL d   1       2.111  -0.367   0.749  0.00  0.00     0.003 A 
ATOM      7  C6  UNL d   1       1.069   0.525   0.491  0.00  0.00    -0.001 A 
ENDROOT
TORSDOF 0
ENDMDL
