MODEL 1
REMARK minimizedAffinity -5.0299859
REMARK minimizedRMSD -1
REMARK  0 active torsions:
REMARK  status: ('A' for Active; 'I' for Inactive)
ROOT
ATOM      1  C   UNL d   1       1.470   2.431   0.527  0.00  0.00     0.078 C 
ATOM      2  C1  UNL d   1       1.367   0.940   0.411  0.00  0.00    -0.077 A 
ATOM      3  C2  UNL d   1       2.426   0.112   0.802  0.00  0.00    -0.001 A 
ATOM      4  C3  UNL d   1       2.320  -1.275   0.679  0.00  0.00     0.003 A 
ATOM      5  C4  UNL d   1       1.157  -1.845   0.164  0.00  0.00    -0.005 A 
ATOM      6  C5  UNL d   1       0.099  -1.029  -0.229  0.00  0.00     0.003 A 
ATOM      7  C6  UNL d   1       0.203   0.358  -0.107  0.00  0.00    -0.001 A 
ENDROOT
TORSDOF 0
ENDMDL
