MODEL 1
REMARK minimizedAffinity -4.15629053
REMARK minimizedRMSD -1
REMARK  0 active torsions:
REMARK  status: ('A' for Active; 'I' for Inactive)
ROOT
ATOM      1  C   UNL d   1       2.856  -1.139   1.021  0.00  0.00     0.078 C 
ATOM      2  C1  UNL d   1       1.633  -0.516   0.417  0.00  0.00    -0.077 A 
ATOM      3  C2  UNL d   1       0.659  -1.302  -0.211  0.00  0.00    -0.001 A 
ATOM      4  C3  UNL d   1      -0.470  -0.708  -0.777  0.00  0.00     0.003 A 
ATOM      5  C4  UNL d   1      -0.635   0.675  -0.723  0.00  0.00    -0.005 A 
ATOM      6  C5  UNL d   1       0.331   1.465  -0.103  0.00  0.00     0.003 A 
ATOM      7  C6  UNL d   1       1.460   0.873   0.464  0.00  0.00    -0.001 A 
ENDROOT
TORSDOF 0
ENDMDL
