MODEL 1
REMARK minimizedAffinity -4.49944019
REMARK minimizedRMSD -1
REMARK  0 active torsions:
REMARK  status: ('A' for Active; 'I' for Inactive)
ROOT
ATOM      1  C   UNL d   1       2.881  -1.835   0.686  0.00  0.00     0.078 C 
ATOM      2  C1  UNL d   1       1.712  -1.017   0.224  0.00  0.00    -0.077 A 
ATOM      3  C2  UNL d   1       0.643  -1.610  -0.459  0.00  0.00    -0.001 A 
ATOM      4  C3  UNL d   1      -0.434  -0.835  -0.892  0.00  0.00     0.003 A 
ATOM      5  C4  UNL d   1      -0.453   0.537  -0.647  0.00  0.00    -0.005 A 
ATOM      6  C5  UNL d   1       0.608   1.135   0.031  0.00  0.00     0.003 A 
ATOM      7  C6  UNL d   1       1.686   0.362   0.464  0.00  0.00    -0.001 A 
ENDROOT
TORSDOF 0
ENDMDL
