MODEL 1
REMARK minimizedAffinity 1.0961237
REMARK minimizedRMSD -1
REMARK  0 active torsions:
REMARK  status: ('A' for Active; 'I' for Inactive)
ROOT
ATOM      1  C   UNL d   1       3.189  -2.510  -2.779  0.00  0.00     0.078 C 
ATOM      2  C1  UNL d   1       2.037  -2.164  -1.884  0.00  0.00    -0.077 A 
ATOM      3  C2  UNL d   1       0.888  -1.547  -2.394  0.00  0.00    -0.001 A 
ATOM      4  C3  UNL d   1      -0.174  -1.223  -1.548  0.00  0.00     0.003 A 
ATOM      5  C4  UNL d   1      -0.096  -1.510  -0.186  0.00  0.00    -0.005 A 
ATOM      6  C5  UNL d   1       1.044  -2.121   0.331  0.00  0.00     0.003 A 
ATOM      7  C6  UNL d   1       2.107  -2.447  -0.514  0.00  0.00    -0.001 A 
ENDROOT
TORSDOF 0
ENDMDL
