MODEL 1
REMARK minimizedAffinity -1.41815519
REMARK minimizedRMSD -1
REMARK  0 active torsions:
REMARK  status: ('A' for Active; 'I' for Inactive)
ROOT
ATOM      1  C   UNL d   1      -2.820   1.688  -2.258  0.00  0.00     0.020 A 
ATOM      2  C1  UNL d   1      -1.883   2.632  -2.674  0.00  0.00     0.020 A 
ATOM      3  C2  UNL d   1      -0.616   2.664  -2.087  0.00  0.00     0.034 A 
ATOM      4  C3  UNL d   1      -0.283   1.750  -1.081  0.00  0.00     0.017 A 
ATOM      5  C4  UNL d   1      -1.225   0.802  -0.664  0.00  0.00     0.017 A 
ATOM      6  C5  UNL d   1      -2.492   0.775  -1.255  0.00  0.00     0.034 A 
ATOM      7 Cl   UNL d   1      -0.887  -0.358   0.572  0.00  0.00    -0.070 Cl
ATOM      8 Cl1  UNL d   1       1.302   1.846  -0.400  0.00  0.00    -0.070 Cl
ENDROOT
TORSDOF 0
ENDMDL
