MODEL 1
REMARK minimizedAffinity -4.16535473
REMARK minimizedRMSD -1
REMARK  0 active torsions:
REMARK  status: ('A' for Active; 'I' for Inactive)
ROOT
ATOM      1  C   UNL d   1       1.187   0.465  -0.846  0.00  0.00     0.020 A 
ATOM      2  C1  UNL d   1      -0.039   0.941  -0.383  0.00  0.00     0.020 A 
ATOM      3  C2  UNL d   1      -0.744   0.227   0.588  0.00  0.00     0.034 A 
ATOM      4  C3  UNL d   1      -0.223  -0.968   1.100  0.00  0.00     0.017 A 
ATOM      5  C4  UNL d   1       1.007  -1.445   0.634  0.00  0.00     0.017 A 
ATOM      6  C5  UNL d   1       1.709  -0.726  -0.338  0.00  0.00     0.034 A 
ATOM      7 Cl   UNL d   1       1.714  -2.911   1.218  0.00  0.00    -0.070 Cl
ATOM      8 Cl1  UNL d   1      -1.148  -1.799   2.299  0.00  0.00    -0.070 Cl
ENDROOT
TORSDOF 0
ENDMDL
