MODEL 1
REMARK minimizedAffinity -3.30108857
REMARK minimizedRMSD -1
REMARK  0 active torsions:
REMARK  status: ('A' for Active; 'I' for Inactive)
ROOT
ATOM      1  C   UNL d   1      -0.934   0.500   0.427  0.00  0.00     0.020 A 
ATOM      2  C1  UNL d   1      -1.304  -0.574   1.235  0.00  0.00     0.020 A 
ATOM      3  C2  UNL d   1      -0.414  -1.630   1.444  0.00  0.00     0.034 A 
ATOM      4  C3  UNL d   1       0.850  -1.614   0.844  0.00  0.00     0.017 A 
ATOM      5  C4  UNL d   1       1.221  -0.535   0.033  0.00  0.00     0.017 A 
ATOM      6  C5  UNL d   1       0.326   0.519  -0.173  0.00  0.00     0.034 A 
ATOM      7 Cl   UNL d   1       2.764  -0.445  -0.741  0.00  0.00    -0.070 Cl
ATOM      8 Cl1  UNL d   1       1.899  -2.953   1.146  0.00  0.00    -0.070 Cl
ENDROOT
TORSDOF 0
ENDMDL
