MODEL 1
REMARK minimizedAffinity -4.88332367
REMARK minimizedRMSD -1
REMARK  0 active torsions:
REMARK  status: ('A' for Active; 'I' for Inactive)
ROOT
ATOM      1  C   UNL d   1       1.367  -2.978   1.161  0.00  0.00     0.020 A 
ATOM      2  C1  UNL d   1       0.083  -2.700   1.627  0.00  0.00     0.020 A 
ATOM      3  C2  UNL d   1      -0.525  -1.483   1.313  0.00  0.00     0.034 A 
ATOM      4  C3  UNL d   1       0.151  -0.540   0.531  0.00  0.00     0.017 A 
ATOM      5  C4  UNL d   1       1.440  -0.820   0.064  0.00  0.00     0.017 A 
ATOM      6  C5  UNL d   1       2.044  -2.040   0.381  0.00  0.00     0.034 A 
ATOM      7 Cl   UNL d   1       2.337   0.295  -0.906  0.00  0.00    -0.070 Cl
ATOM      8 Cl1  UNL d   1      -0.662   0.944   0.181  0.00  0.00    -0.070 Cl
ENDROOT
TORSDOF 0
ENDMDL
