MODEL 1
REMARK minimizedAffinity -5.73725986
REMARK minimizedRMSD -1
REMARK  0 active torsions:
REMARK  status: ('A' for Active; 'I' for Inactive)
ROOT
ATOM      1  C   UNL d   1       0.727  -2.852   2.893  0.00  0.00     0.020 A 
ATOM      2  C1  UNL d   1      -0.432  -2.163   3.250  0.00  0.00     0.020 A 
ATOM      3  C2  UNL d   1      -0.908  -1.131   2.439  0.00  0.00     0.034 A 
ATOM      4  C3  UNL d   1      -0.225  -0.785   1.267  0.00  0.00     0.017 A 
ATOM      5  C4  UNL d   1       0.938  -1.477   0.910  0.00  0.00     0.017 A 
ATOM      6  C5  UNL d   1       1.410  -2.510   1.726  0.00  0.00     0.034 A 
ATOM      7 Cl   UNL d   1       1.835  -1.106  -0.520  0.00  0.00    -0.070 Cl
ATOM      8 Cl1  UNL d   1      -0.871   0.502   0.311  0.00  0.00    -0.070 Cl
ENDROOT
TORSDOF 0
ENDMDL
