MODEL 1
REMARK minimizedAffinity -3.50543809
REMARK minimizedRMSD -1
REMARK  0 active torsions:
REMARK  status: ('A' for Active; 'I' for Inactive)
ROOT
ATOM      1  C   UNL d   1       1.564  -2.328   0.539  0.00  0.00     0.020 A 
ATOM      2  C1  UNL d   1       1.890  -1.233  -0.259  0.00  0.00     0.020 A 
ATOM      3  C2  UNL d   1       1.143  -0.057  -0.170  0.00  0.00     0.034 A 
ATOM      4  C3  UNL d   1       0.066   0.027   0.720  0.00  0.00     0.017 A 
ATOM      5  C4  UNL d   1      -0.261  -1.073   1.521  0.00  0.00     0.017 A 
ATOM      6  C5  UNL d   1       0.491  -2.248   1.428  0.00  0.00     0.034 A 
ATOM      7 Cl   UNL d   1      -1.576  -1.045   2.642  0.00  0.00    -0.070 Cl
ATOM      8 Cl1  UNL d   1      -0.814   1.513   0.778  0.00  0.00    -0.070 Cl
ENDROOT
TORSDOF 0
ENDMDL
