MODEL 1
REMARK minimizedAffinity -3.65329528
REMARK minimizedRMSD -1
REMARK  0 active torsions:
REMARK  status: ('A' for Active; 'I' for Inactive)
ROOT
ATOM      1  C   UNL d   1       1.835  -2.049   1.010  0.00  0.00     0.020 A 
ATOM      2  C1  UNL d   1       2.075  -1.228  -0.091  0.00  0.00     0.020 A 
ATOM      3  C2  UNL d   1       1.101  -0.319  -0.509  0.00  0.00     0.034 A 
ATOM      4  C3  UNL d   1      -0.117  -0.228   0.174  0.00  0.00     0.017 A 
ATOM      5  C4  UNL d   1      -0.357  -1.052   1.279  0.00  0.00     0.017 A 
ATOM      6  C5  UNL d   1       0.621  -1.961   1.694  0.00  0.00     0.034 A 
ATOM      7 Cl   UNL d   1      -1.836  -0.998   2.172  0.00  0.00    -0.070 Cl
ATOM      8 Cl1  UNL d   1      -1.276   0.919  -0.399  0.00  0.00    -0.070 Cl
ENDROOT
TORSDOF 0
ENDMDL
