MODEL 1
REMARK minimizedAffinity -3.37589335
REMARK minimizedRMSD -1
REMARK  0 active torsions:
REMARK  status: ('A' for Active; 'I' for Inactive)
ROOT
ATOM      1  C   UNL d   1       2.036  -2.301   1.437  0.00  0.00     0.020 A 
ATOM      2  C1  UNL d   1       0.784  -1.913   1.912  0.00  0.00     0.020 A 
ATOM      3  C2  UNL d   1       0.110  -0.847   1.313  0.00  0.00     0.034 A 
ATOM      4  C3  UNL d   1       0.688  -0.164   0.237  0.00  0.00     0.017 A 
ATOM      5  C4  UNL d   1       1.945  -0.553  -0.238  0.00  0.00     0.017 A 
ATOM      6  C5  UNL d   1       2.616  -1.622   0.365  0.00  0.00     0.034 A 
ATOM      7 Cl   UNL d   1       2.723   0.241  -1.562  0.00  0.00    -0.070 Cl
ATOM      8 Cl1  UNL d   1      -0.202   1.146  -0.455  0.00  0.00    -0.070 Cl
ENDROOT
TORSDOF 0
ENDMDL
