MODEL 1
REMARK minimizedAffinity -4.22128391
REMARK minimizedRMSD -1
REMARK  0 active torsions:
REMARK  status: ('A' for Active; 'I' for Inactive)
ROOT
ATOM      1  C   UNL d   1       0.170  -2.779   1.347  0.00  0.00     0.020 A 
ATOM      2  C1  UNL d   1       1.559  -2.671   1.297  0.00  0.00     0.020 A 
ATOM      3  C2  UNL d   1       2.152  -1.562   0.690  0.00  0.00     0.034 A 
ATOM      4  C3  UNL d   1       1.355  -0.557   0.129  0.00  0.00     0.017 A 
ATOM      5  C4  UNL d   1      -0.039  -0.667   0.179  0.00  0.00     0.017 A 
ATOM      6  C5  UNL d   1      -0.627  -1.779   0.789  0.00  0.00     0.034 A 
ATOM      7 Cl   UNL d   1      -1.088   0.533  -0.490  0.00  0.00    -0.070 Cl
ATOM      8 Cl1  UNL d   1       2.155   0.786  -0.606  0.00  0.00    -0.070 Cl
ENDROOT
TORSDOF 0
ENDMDL
