MODEL 1
REMARK minimizedAffinity -1.05575025
REMARK minimizedRMSD -1
REMARK  0 active torsions:
REMARK  status: ('A' for Active; 'I' for Inactive)
ROOT
ATOM      1  C   UNL d   1      -1.176   1.188   1.283  0.00  0.00     0.020 A 
ATOM      2  C1  UNL d   1      -1.367   0.078   2.104  0.00  0.00     0.020 A 
ATOM      3  C2  UNL d   1      -0.901  -1.176   1.701  0.00  0.00     0.034 A 
ATOM      4  C3  UNL d   1      -0.243  -1.322   0.474  0.00  0.00     0.017 A 
ATOM      5  C4  UNL d   1      -0.053  -0.206  -0.349  0.00  0.00     0.017 A 
ATOM      6  C5  UNL d   1      -0.520   1.047   0.059  0.00  0.00     0.034 A 
ATOM      7 Cl   UNL d   1       0.750  -0.308  -1.876  0.00  0.00    -0.070 Cl
ATOM      8 Cl1  UNL d   1       0.306  -2.902   0.040  0.00  0.00    -0.070 Cl
ENDROOT
TORSDOF 0
ENDMDL
