MODEL 1
REMARK minimizedAffinity -3.91356516
REMARK minimizedRMSD -1
REMARK  0 active torsions:
REMARK  status: ('A' for Active; 'I' for Inactive)
ROOT
ATOM      1  C   UNL d   1      -1.584   0.027   1.229  0.00  0.00     0.020 A 
ATOM      2  C1  UNL d   1      -1.353   1.151   0.438  0.00  0.00     0.020 A 
ATOM      3  C2  UNL d   1      -0.154   1.275  -0.266  0.00  0.00     0.034 A 
ATOM      4  C3  UNL d   1       0.819   0.273  -0.180  0.00  0.00     0.017 A 
ATOM      5  C4  UNL d   1       0.587  -0.856   0.614  0.00  0.00     0.017 A 
ATOM      6  C5  UNL d   1      -0.616  -0.975   1.317  0.00  0.00     0.034 A 
ATOM      7 Cl   UNL d   1       1.740  -2.134   0.769  0.00  0.00    -0.070 Cl
ATOM      8 Cl1  UNL d   1       2.279   0.492  -1.078  0.00  0.00    -0.070 Cl
ENDROOT
TORSDOF 0
ENDMDL
