MODEL 1
REMARK minimizedAffinity -4.03943253
REMARK minimizedRMSD -1
REMARK  0 active torsions:
REMARK  status: ('A' for Active; 'I' for Inactive)
ROOT
ATOM      1  C   UNL d   1       1.810  -2.217   1.432  0.00  0.00     0.020 A 
ATOM      2  C1  UNL d   1       0.434  -2.374   1.589  0.00  0.00     0.020 A 
ATOM      3  C2  UNL d   1      -0.443  -1.433   1.045  0.00  0.00     0.034 A 
ATOM      4  C3  UNL d   1       0.056  -0.331   0.341  0.00  0.00     0.017 A 
ATOM      5  C4  UNL d   1       1.438  -0.175   0.183  0.00  0.00     0.017 A 
ATOM      6  C5  UNL d   1       2.311  -1.120   0.730  0.00  0.00     0.034 A 
ATOM      7 Cl   UNL d   1       2.128   1.159  -0.673  0.00  0.00    -0.070 Cl
ATOM      8 Cl1  UNL d   1      -1.086   0.793  -0.306  0.00  0.00    -0.070 Cl
ENDROOT
TORSDOF 0
ENDMDL
