MODEL 1
REMARK minimizedAffinity -1.62147832
REMARK minimizedRMSD -1
REMARK  0 active torsions:
REMARK  status: ('A' for Active; 'I' for Inactive)
ROOT
ATOM      1  C   UNL d   1      -1.147  -0.660  -0.141  0.00  0.00     0.020 A 
ATOM      2  C1  UNL d   1      -1.147   0.637  -0.652  0.00  0.00     0.020 A 
ATOM      3  C2  UNL d   1       0.041   1.370  -0.695  0.00  0.00     0.034 A 
ATOM      4  C3  UNL d   1       1.233   0.807  -0.225  0.00  0.00     0.017 A 
ATOM      5  C4  UNL d   1       1.232  -0.495   0.288  0.00  0.00     0.017 A 
ATOM      6  C5  UNL d   1       0.039  -1.225   0.329  0.00  0.00     0.034 A 
ATOM      7 Cl   UNL d   1       2.663  -1.257   0.887  0.00  0.00    -0.070 Cl
ATOM      8 Cl1  UNL d   1       2.665   1.771  -0.308  0.00  0.00    -0.070 Cl
ENDROOT
TORSDOF 0
ENDMDL
