MODEL 1
REMARK minimizedAffinity -3.95327902
REMARK minimizedRMSD -1
REMARK  0 active torsions:
REMARK  status: ('A' for Active; 'I' for Inactive)
ROOT
ATOM      1  C   UNL d   1       1.396   0.768  -0.830  0.00  0.00     0.020 A 
ATOM      2  C1  UNL d   1       0.149   1.306  -0.517  0.00  0.00     0.020 A 
ATOM      3  C2  UNL d   1      -0.716   0.615   0.334  0.00  0.00     0.034 A 
ATOM      4  C3  UNL d   1      -0.335  -0.618   0.875  0.00  0.00     0.017 A 
ATOM      5  C4  UNL d   1       0.918  -1.158   0.561  0.00  0.00     0.017 A 
ATOM      6  C5  UNL d   1       1.780  -0.461  -0.292  0.00  0.00     0.034 A 
ATOM      7 Cl   UNL d   1       1.458  -2.674   1.190  0.00  0.00    -0.070 Cl
ATOM      8 Cl1  UNL d   1      -1.454  -1.418   1.921  0.00  0.00    -0.070 Cl
ENDROOT
TORSDOF 0
ENDMDL
