MODEL 1
REMARK minimizedAffinity -1.94202042
REMARK minimizedRMSD -1
REMARK  0 active torsions:
REMARK  status: ('A' for Active; 'I' for Inactive)
ROOT
ATOM      1  C   UNL d   1       0.977   0.579  -0.928  0.00  0.00     0.020 A 
ATOM      2  C1  UNL d   1      -0.290   1.030  -0.561  0.00  0.00     0.020 A 
ATOM      3  C2  UNL d   1      -1.000   0.374   0.448  0.00  0.00     0.034 A 
ATOM      4  C3  UNL d   1      -0.443  -0.736   1.092  0.00  0.00     0.017 A 
ATOM      5  C4  UNL d   1       0.829  -1.188   0.723  0.00  0.00     0.017 A 
ATOM      6  C5  UNL d   1       1.535  -0.528  -0.288  0.00  0.00     0.034 A 
ATOM      7 Cl   UNL d   1       1.582  -2.552   1.472  0.00  0.00    -0.070 Cl
ATOM      8 Cl1  UNL d   1      -1.376  -1.499   2.331  0.00  0.00    -0.070 Cl
ENDROOT
TORSDOF 0
ENDMDL
