MODEL 1
REMARK minimizedAffinity 0.493161142
REMARK minimizedRMSD -1
REMARK  0 active torsions:
REMARK  status: ('A' for Active; 'I' for Inactive)
ROOT
ATOM      1  O1  BZF d   1       5.863  -3.201   3.590  0.00  0.00    -0.204 OA
ATOM      2  C2  BZF d   1       5.835  -3.988   4.726  0.00  0.00     0.174 A 
ATOM      3  C3  BZF d   1       5.910  -3.228   5.837  0.00  0.00    -0.012 A 
ATOM      4  C3A BZF d   1       5.898  -1.876   5.369  0.00  0.00    -0.107 A 
ATOM      5  C4  BZF d   1       5.935  -0.664   5.998  0.00  0.00     0.055 A 
ATOM      6  C5  BZF d   1       5.983   0.468   5.249  0.00  0.00    -0.016 A 
ATOM      7  C6  BZF d   1       6.000   0.426   3.870  0.00  0.00     0.022 A 
ATOM      8  C7  BZF d   1       5.959  -0.752   3.201  0.00  0.00     0.029 A 
ATOM      9  C7A BZF d   1       5.878  -1.897   3.955  0.00  0.00     0.058 A 
ENDROOT
TORSDOF 0
ENDMDL
