MODEL 1
REMARK minimizedAffinity -1.64367628
REMARK minimizedRMSD -1
REMARK  0 active torsions:
REMARK  status: ('A' for Active; 'I' for Inactive)
ROOT
ATOM      1  O1  BZF d   1       5.877  -4.342   5.999  0.00  0.00    -0.204 OA
ATOM      2  C2  BZF d   1       5.895  -5.530   5.295  0.00  0.00     0.174 A 
ATOM      3  C3  BZF d   1       5.887  -5.299   3.967  0.00  0.00    -0.012 A 
ATOM      4  C3A BZF d   1       5.956  -3.877   3.832  0.00  0.00    -0.107 A 
ATOM      5  C4  BZF d   1       5.996  -3.037   2.756  0.00  0.00     0.055 A 
ATOM      6  C5  BZF d   1       5.987  -1.694   2.965  0.00  0.00    -0.016 A 
ATOM      7  C6  BZF d   1       5.932  -1.158   4.235  0.00  0.00     0.022 A 
ATOM      8  C7  BZF d   1       5.895  -1.951   5.333  0.00  0.00     0.029 A 
ATOM      9  C7A BZF d   1       5.938  -3.308   5.126  0.00  0.00     0.058 A 
ENDROOT
TORSDOF 0
ENDMDL
