MODEL 1
REMARK minimizedAffinity 2.55540609
REMARK minimizedRMSD -1
REMARK  0 active torsions:
REMARK  status: ('A' for Active; 'I' for Inactive)
ROOT
ATOM      1  O1  BZF d   1       2.606  -0.330  -5.128  0.00  0.00    -0.204 OA
ATOM      2  C2  BZF d   1       3.926  -0.445  -4.736  0.00  0.00     0.174 A 
ATOM      3  C3  BZF d   1       4.131   0.178  -3.557  0.00  0.00    -0.012 A 
ATOM      4  C3A BZF d   1       2.840   0.637  -3.145  0.00  0.00    -0.107 A 
ATOM      5  C4  BZF d   1       2.390   1.313  -2.047  0.00  0.00     0.055 A 
ATOM      6  C5  BZF d   1       1.081   1.672  -1.982  0.00  0.00    -0.016 A 
ATOM      7  C6  BZF d   1       0.196   1.377  -2.998  0.00  0.00     0.022 A 
ATOM      8  C7  BZF d   1       0.594   0.703  -4.105  0.00  0.00     0.029 A 
ATOM      9  C7A BZF d   1       1.909   0.310  -4.158  0.00  0.00     0.058 A 
ENDROOT
TORSDOF 0
ENDMDL
