MODEL 1
REMARK minimizedAffinity 8.26560307
REMARK minimizedRMSD -1
REMARK  0 active torsions:
REMARK  status: ('A' for Active; 'I' for Inactive)
ROOT
ATOM      1  O1  BZF d   1      -6.000   2.894   3.905  0.00  0.00    -0.204 OA
ATOM      2  C2  BZF d   1      -5.999   2.508   5.232  0.00  0.00     0.174 A 
ATOM      3  C3  BZF d   1      -5.848   1.173   5.341  0.00  0.00    -0.012 A 
ATOM      4  C3A BZF d   1      -5.656   0.705   4.003  0.00  0.00    -0.107 A 
ATOM      5  C4  BZF d   1      -5.437  -0.530   3.463  0.00  0.00     0.055 A 
ATOM      6  C5  BZF d   1      -5.365  -0.657   2.112  0.00  0.00    -0.016 A 
ATOM      7  C6  BZF d   1      -5.513   0.428   1.272  0.00  0.00     0.022 A 
ATOM      8  C7  BZF d   1      -5.727   1.673   1.761  0.00  0.00     0.029 A 
ATOM      9  C7A BZF d   1      -5.767   1.809   3.128  0.00  0.00     0.058 A 
ENDROOT
TORSDOF 0
ENDMDL
