MODEL 1
REMARK minimizedAffinity 8.47922421
REMARK minimizedRMSD -1
REMARK  0 active torsions:
REMARK  status: ('A' for Active; 'I' for Inactive)
ROOT
ATOM      1  O1  BZF d   1       3.270  -1.291  -1.500  0.00  0.00    -0.204 OA
ATOM      2  C2  BZF d   1       3.421  -1.878  -2.742  0.00  0.00     0.174 A 
ATOM      3  C3  BZF d   1       3.069  -1.022  -3.722  0.00  0.00    -0.012 A 
ATOM      4  C3A BZF d   1       2.761   0.206  -3.056  0.00  0.00    -0.107 A 
ATOM      5  C4  BZF d   1       2.362   1.437  -3.494  0.00  0.00     0.055 A 
ATOM      6  C5  BZF d   1       2.074   2.401  -2.580  0.00  0.00    -0.016 A 
ATOM      7  C6  BZF d   1       2.167   2.168  -1.224  0.00  0.00     0.022 A 
ATOM      8  C7  BZF d   1       2.563   0.964  -0.742  0.00  0.00     0.029 A 
ATOM      9  C7A BZF d   1       2.887  -0.002  -1.663  0.00  0.00     0.058 A 
ENDROOT
TORSDOF 0
ENDMDL
