MODEL 1
REMARK minimizedAffinity 10.0593519
REMARK minimizedRMSD -1
REMARK  0 active torsions:
REMARK  status: ('A' for Active; 'I' for Inactive)
ROOT
ATOM      1  O1  BZF d   1      -0.493   0.465  -1.032  0.00  0.00    -0.204 OA
ATOM      2  C2  BZF d   1       0.483   1.380  -0.687  0.00  0.00     0.174 A 
ATOM      3  C3  BZF d   1       1.096   1.018   0.458  0.00  0.00    -0.012 A 
ATOM      4  C3A BZF d   1       0.528  -0.249   0.804  0.00  0.00    -0.107 A 
ATOM      5  C4  BZF d   1       0.741  -1.124   1.831  0.00  0.00     0.055 A 
ATOM      6  C5  BZF d   1      -0.032  -2.238   1.920  0.00  0.00    -0.016 A 
ATOM      7  C6  BZF d   1      -1.028  -2.506   1.004  0.00  0.00     0.022 A 
ATOM      8  C7  BZF d   1      -1.273  -1.670  -0.034  0.00  0.00     0.029 A 
ATOM      9  C7A BZF d   1      -0.472  -0.560  -0.146  0.00  0.00     0.058 A 
ENDROOT
TORSDOF 0
ENDMDL
