MODEL 1
REMARK minimizedAffinity 3.95414972
REMARK minimizedRMSD -1
REMARK  0 active torsions:
REMARK  status: ('A' for Active; 'I' for Inactive)
ROOT
ATOM      1  O1  BZF d   1       3.567   2.256  -0.294  0.00  0.00    -0.204 OA
ATOM      2  C2  BZF d   1       2.241   1.884  -0.187  0.00  0.00     0.174 A 
ATOM      3  C3  BZF d   1       2.057   1.066   0.870  0.00  0.00    -0.012 A 
ATOM      4  C3A BZF d   1       3.333   0.992   1.514  0.00  0.00    -0.107 A 
ATOM      5  C4  BZF d   1       3.785   0.346   2.629  0.00  0.00     0.055 A 
ATOM      6  C5  BZF d   1       5.105   0.421   2.946  0.00  0.00    -0.016 A 
ATOM      7  C6  BZF d   1       5.999   1.127   2.169  0.00  0.00     0.022 A 
ATOM      8  C7  BZF d   1       5.596   1.788   1.056  0.00  0.00     0.029 A 
ATOM      9  C7A BZF d   1       4.258   1.742   0.752  0.00  0.00     0.058 A 
ENDROOT
TORSDOF 0
ENDMDL
