MODEL 1
REMARK minimizedAffinity 2.08428717
REMARK minimizedRMSD -1
REMARK  0 active torsions:
REMARK  status: ('A' for Active; 'I' for Inactive)
ROOT
ATOM      1  O1  BZF d   1      -0.324   1.413  -0.121  0.00  0.00    -0.204 OA
ATOM      2  C2  BZF d   1       0.814   1.105  -0.841  0.00  0.00     0.174 A 
ATOM      3  C3  BZF d   1       1.553   0.179  -0.195  0.00  0.00    -0.012 A 
ATOM      4  C3A BZF d   1       0.785  -0.177   0.958  0.00  0.00    -0.107 A 
ATOM      5  C4  BZF d   1       0.983  -1.060   1.982  0.00  0.00     0.055 A 
ATOM      6  C5  BZF d   1       0.075  -1.115   2.991  0.00  0.00    -0.016 A 
ATOM      7  C6  BZF d   1      -1.037  -0.299   3.012  0.00  0.00     0.022 A 
ATOM      8  C7  BZF d   1      -1.279   0.588   2.017  0.00  0.00     0.029 A 
ATOM      9  C7A BZF d   1      -0.380   0.623   0.979  0.00  0.00     0.058 A 
ENDROOT
TORSDOF 0
ENDMDL
