MODEL 1
REMARK minimizedAffinity 4.87036896
REMARK minimizedRMSD -1
REMARK  0 active torsions:
REMARK  status: ('A' for Active; 'I' for Inactive)
ROOT
ATOM      1  O1  BZF d   1      -1.592   0.278   0.097  0.00  0.00    -0.204 OA
ATOM      2  C2  BZF d   1      -0.701  -0.399  -0.713  0.00  0.00     0.174 A 
ATOM      3  C3  BZF d   1       0.557  -0.287  -0.239  0.00  0.00    -0.012 A 
ATOM      4  C3A BZF d   1       0.432   0.432   0.992  0.00  0.00    -0.107 A 
ATOM      5  C4  BZF d   1       1.331   0.840   1.936  0.00  0.00     0.055 A 
ATOM      6  C5  BZF d   1       0.894   1.586   2.984  0.00  0.00    -0.016 A 
ATOM      7  C6  BZF d   1      -0.431   1.947   3.117  0.00  0.00     0.022 A 
ATOM      8  C7  BZF d   1      -1.360   1.561   2.209  0.00  0.00     0.029 A 
ATOM      9  C7A BZF d   1      -0.927   0.779   1.166  0.00  0.00     0.058 A 
ENDROOT
TORSDOF 0
ENDMDL
