MODEL 1
REMARK minimizedAffinity 2.23167729
REMARK minimizedRMSD -1
REMARK  0 active torsions:
REMARK  status: ('A' for Active; 'I' for Inactive)
ROOT
ATOM      1  O1  BZF d   1      -1.173   0.457  -3.324  0.00  0.00    -0.204 OA
ATOM      2  C2  BZF d   1      -2.346  -0.046  -3.852  0.00  0.00     0.174 A 
ATOM      3  C3  BZF d   1      -2.776  -1.106  -3.137  0.00  0.00    -0.012 A 
ATOM      4  C3A BZF d   1      -1.861  -1.219  -2.043  0.00  0.00    -0.107 A 
ATOM      5  C4  BZF d   1      -1.770  -2.070  -0.979  0.00  0.00     0.055 A 
ATOM      6  C5  BZF d   1      -0.714  -1.956  -0.131  0.00  0.00    -0.016 A 
ATOM      7  C6  BZF d   1       0.270  -1.008  -0.319  0.00  0.00     0.022 A 
ATOM      8  C7  BZF d   1       0.220  -0.138  -1.358  0.00  0.00     0.029 A 
ATOM      9  C7A BZF d   1      -0.863  -0.229  -2.198  0.00  0.00     0.058 A 
ENDROOT
TORSDOF 0
ENDMDL
