MODEL 1
REMARK minimizedAffinity 0.262072086
REMARK minimizedRMSD -1
REMARK  0 active torsions:
REMARK  status: ('A' for Active; 'I' for Inactive)
ROOT
ATOM      1  O1  BZF d   1       5.170  -3.984   3.739  0.00  0.00    -0.204 OA
ATOM      2  C2  BZF d   1       4.984  -4.683   4.917  0.00  0.00     0.174 A 
ATOM      3  C3  BZF d   1       5.197  -3.886   5.984  0.00  0.00    -0.012 A 
ATOM      4  C3A BZF d   1       5.447  -2.587   5.440  0.00  0.00    -0.107 A 
ATOM      5  C4  BZF d   1       5.712  -1.370   6.000  0.00  0.00     0.055 A 
ATOM      6  C5  BZF d   1       5.981  -0.314   5.188  0.00  0.00    -0.016 A 
ATOM      7  C6  BZF d   1       5.999  -0.440   3.814  0.00  0.00     0.022 A 
ATOM      8  C7  BZF d   1       5.737  -1.626   3.213  0.00  0.00     0.029 A 
ATOM      9  C7A BZF d   1       5.433  -2.688   4.030  0.00  0.00     0.058 A 
ENDROOT
TORSDOF 0
ENDMDL
