MODEL 1
REMARK minimizedAffinity 1.44544649
REMARK minimizedRMSD -1
REMARK  0 active torsions:
REMARK  status: ('A' for Active; 'I' for Inactive)
ROOT
ATOM      1  O1  BZF d   1      -2.960  -1.449  -2.663  0.00  0.00    -0.204 OA
ATOM      2  C2  BZF d   1      -2.791  -0.446  -3.598  0.00  0.00     0.174 A 
ATOM      3  C3  BZF d   1      -2.211   0.636  -3.039  0.00  0.00    -0.012 A 
ATOM      4  C3A BZF d   1      -1.921   0.254  -1.691  0.00  0.00    -0.107 A 
ATOM      5  C4  BZF d   1      -1.330   0.895  -0.640  0.00  0.00     0.055 A 
ATOM      6  C5  BZF d   1      -1.266   0.268   0.564  0.00  0.00    -0.016 A 
ATOM      7  C6  BZF d   1      -1.786  -0.996   0.753  0.00  0.00     0.022 A 
ATOM      8  C7  BZF d   1      -2.377  -1.674  -0.261  0.00  0.00     0.029 A 
ATOM      9  C7A BZF d   1      -2.414  -1.056  -1.487  0.00  0.00     0.058 A 
ENDROOT
TORSDOF 0
ENDMDL
