MODEL 1
REMARK minimizedAffinity -0.543076217
REMARK minimizedRMSD -1
REMARK  0 active torsions:
REMARK  status: ('A' for Active; 'I' for Inactive)
ROOT
ATOM      1  O1  BZF d   1       6.000  -0.791   5.438  0.00  0.00    -0.204 OA
ATOM      2  C2  BZF d   1       5.887  -0.083   4.258  0.00  0.00     0.174 A 
ATOM      3  C3  BZF d   1       5.773  -0.920   3.206  0.00  0.00    -0.012 A 
ATOM      4  C3A BZF d   1       5.724  -2.232   3.774  0.00  0.00    -0.107 A 
ATOM      5  C4  BZF d   1       5.600  -3.483   3.239  0.00  0.00     0.055 A 
ATOM      6  C5  BZF d   1       5.660  -4.562   4.063  0.00  0.00    -0.016 A 
ATOM      7  C6  BZF d   1       5.849  -4.429   5.423  0.00  0.00     0.022 A 
ATOM      8  C7  BZF d   1       5.973  -3.209   6.000  0.00  0.00     0.029 A 
ATOM      9  C7A BZF d   1       5.879  -2.114   5.175  0.00  0.00     0.058 A 
ENDROOT
TORSDOF 0
ENDMDL
