MODEL 1
REMARK minimizedAffinity 14.4114647
REMARK minimizedRMSD -1
REMARK  0 active torsions:
REMARK  status: ('A' for Active; 'I' for Inactive)
ROOT
ATOM      1  O1  BZF d   1      -5.987   0.612   5.113  0.00  0.00    -0.204 OA
ATOM      2  C2  BZF d   1      -5.992   1.515   4.068  0.00  0.00     0.174 A 
ATOM      3  C3  BZF d   1      -5.914   0.876   2.883  0.00  0.00    -0.012 A 
ATOM      4  C3A BZF d   1      -5.950  -0.518   3.204  0.00  0.00    -0.107 A 
ATOM      5  C4  BZF d   1      -5.922  -1.656   2.450  0.00  0.00     0.055 A 
ATOM      6  C5  BZF d   1      -5.898  -2.863   3.076  0.00  0.00    -0.016 A 
ATOM      7  C6  BZF d   1      -5.896  -2.967   4.451  0.00  0.00     0.022 A 
ATOM      8  C7  BZF d   1      -5.928  -1.866   5.241  0.00  0.00     0.029 A 
ATOM      9  C7A BZF d   1      -5.986  -0.647   4.612  0.00  0.00     0.058 A 
ENDROOT
TORSDOF 0
ENDMDL
