MODEL 1
REMARK minimizedAffinity 8.40189743
REMARK minimizedRMSD -1
REMARK  0 active torsions:
REMARK  status: ('A' for Active; 'I' for Inactive)
ROOT
ATOM      1  O1  BZF d   1       0.962   1.428   0.437  0.00  0.00    -0.204 OA
ATOM      2  C2  BZF d   1       0.895   1.035   1.759  0.00  0.00     0.174 A 
ATOM      3  C3  BZF d   1       0.097  -0.043   1.898  0.00  0.00    -0.012 A 
ATOM      4  C3A BZF d   1      -0.290  -0.399   0.567  0.00  0.00    -0.107 A 
ATOM      5  C4  BZF d   1      -1.067  -1.395   0.050  0.00  0.00     0.055 A 
ATOM      6  C5  BZF d   1      -1.306  -1.420  -1.288  0.00  0.00    -0.016 A 
ATOM      7  C6  BZF d   1      -0.788  -0.463  -2.135  0.00  0.00     0.022 A 
ATOM      8  C7  BZF d   1      -0.008   0.543  -1.670  0.00  0.00     0.029 A 
ATOM      9  C7A BZF d   1       0.262   0.551  -0.323  0.00  0.00     0.058 A 
ENDROOT
TORSDOF 0
ENDMDL
