MODEL 1
REMARK minimizedAffinity 5.80714273
REMARK minimizedRMSD -1
REMARK  0 active torsions:
REMARK  status: ('A' for Active; 'I' for Inactive)
ROOT
ATOM      1  O1  BZF d   1      -2.349   1.501   1.141  0.00  0.00    -0.204 OA
ATOM      2  C2  BZF d   1      -1.681   0.309   0.937  0.00  0.00     0.174 A 
ATOM      3  C3  BZF d   1      -2.438  -0.736   1.327  0.00  0.00    -0.012 A 
ATOM      4  C3A BZF d   1      -3.691  -0.168   1.718  0.00  0.00    -0.107 A 
ATOM      5  C4  BZF d   1      -4.859  -0.700   2.184  0.00  0.00     0.055 A 
ATOM      6  C5  BZF d   1      -5.869   0.135   2.543  0.00  0.00    -0.016 A 
ATOM      7  C6  BZF d   1      -5.744   1.506   2.455  0.00  0.00     0.022 A 
ATOM      8  C7  BZF d   1      -4.607   2.081   1.993  0.00  0.00     0.029 A 
ATOM      9  C7A BZF d   1      -3.596   1.238   1.599  0.00  0.00     0.058 A 
ENDROOT
TORSDOF 0
ENDMDL
