MODEL 1
REMARK minimizedAffinity 10.1524792
REMARK minimizedRMSD -1
REMARK  0 active torsions:
REMARK  status: ('A' for Active; 'I' for Inactive)
ROOT
ATOM      1  O1  BZF d   1      -1.396   3.190   2.811  0.00  0.00    -0.204 OA
ATOM      2  C2  BZF d   1      -0.024   3.139   2.971  0.00  0.00     0.174 A 
ATOM      3  C3  BZF d   1       0.471   1.981   2.487  0.00  0.00    -0.012 A 
ATOM      4  C3A BZF d   1      -0.650   1.304   1.911  0.00  0.00    -0.107 A 
ATOM      5  C4  BZF d   1      -0.794   0.112   1.260  0.00  0.00     0.055 A 
ATOM      6  C5  BZF d   1      -2.037  -0.291   0.887  0.00  0.00    -0.016 A 
ATOM      7  C6  BZF d   1      -3.157   0.469   1.154  0.00  0.00     0.022 A 
ATOM      8  C7  BZF d   1      -3.064   1.661   1.793  0.00  0.00     0.029 A 
ATOM      9  C7A BZF d   1      -1.806   2.086   2.141  0.00  0.00     0.058 A 
ENDROOT
TORSDOF 0
ENDMDL
