MODEL 1
REMARK minimizedAffinity 10.3152609
REMARK minimizedRMSD -1
REMARK  0 active torsions:
REMARK  status: ('A' for Active; 'I' for Inactive)
ROOT
ATOM      1  O1  BZF d   1       3.257  -2.156  -1.979  0.00  0.00    -0.204 OA
ATOM      2  C2  BZF d   1       2.775  -1.259  -1.045  0.00  0.00     0.174 A 
ATOM      3  C3  BZF d   1       2.915   0.008  -1.483  0.00  0.00    -0.012 A 
ATOM      4  C3A BZF d   1       3.437  -0.107  -2.810  0.00  0.00    -0.107 A 
ATOM      5  C4  BZF d   1       3.775   0.805  -3.769  0.00  0.00     0.055 A 
ATOM      6  C5  BZF d   1       4.326   0.367  -4.932  0.00  0.00    -0.016 A 
ATOM      7  C6  BZF d   1       4.559  -0.972  -5.166  0.00  0.00     0.022 A 
ATOM      8  C7  BZF d   1       4.237  -1.914  -4.247  0.00  0.00     0.029 A 
ATOM      9  C7A BZF d   1       3.649  -1.478  -3.084  0.00  0.00     0.058 A 
ENDROOT
TORSDOF 0
ENDMDL
