MODEL 1
REMARK minimizedAffinity -3.68159533
REMARK minimizedRMSD -1
REMARK  0 active torsions:
REMARK  status: ('A' for Active; 'I' for Inactive)
ROOT
ATOM      1  C1  DEN d   1       1.389   0.928  -1.876  0.00  0.00     0.130 A 
ATOM      2  C2  DEN d   1       1.475  -0.115  -0.857  0.00  0.00    -0.031 A 
ATOM      3  C3  DEN d   1       1.417   0.535   0.467  0.00  0.00     0.027 A 
ATOM      4  C4  DEN d   1       1.200   3.041   1.038  0.00  0.00     0.027 A 
ATOM      5  C5  DEN d   1       1.106   4.309   0.508  0.00  0.00    -0.003 A 
ATOM      6  C6  DEN d   1       1.134   4.540  -0.842  0.00  0.00     0.001 A 
ATOM      7  C7  DEN d   1       1.213   3.483  -1.710  0.00  0.00     0.017 A 
ATOM      8  C8  DEN d   1       1.316   2.202  -1.183  0.00  0.00    -0.094 A 
ATOM      9  C9  DEN d   1       1.274   1.988   0.184  0.00  0.00    -0.072 A 
ENDROOT
TORSDOF 0
ENDMDL
