MODEL 1
REMARK minimizedAffinity 2.70631742
REMARK minimizedRMSD -1
REMARK  0 active torsions:
REMARK  status: ('A' for Active; 'I' for Inactive)
ROOT
ATOM      1  C1  DEN d   1      -3.073   1.530   2.254  0.00  0.00     0.130 A 
ATOM      2  C2  DEN d   1      -3.393   2.709   1.456  0.00  0.00    -0.031 A 
ATOM      3  C3  DEN d   1      -3.110   3.905   2.274  0.00  0.00     0.027 A 
ATOM      4  C4  DEN d   1      -2.207   4.044   4.686  0.00  0.00     0.027 A 
ATOM      5  C5  DEN d   1      -1.798   3.307   5.776  0.00  0.00    -0.003 A 
ATOM      6  C6  DEN d   1      -1.818   1.938   5.780  0.00  0.00     0.001 A 
ATOM      7  C7  DEN d   1      -2.213   1.261   4.657  0.00  0.00     0.017 A 
ATOM      8  C8  DEN d   1      -2.633   1.997   3.556  0.00  0.00    -0.094 A 
ATOM      9  C9  DEN d   1      -2.594   3.381   3.567  0.00  0.00    -0.072 A 
ENDROOT
TORSDOF 0
ENDMDL
