MODEL 1
REMARK minimizedAffinity 0.149798989
REMARK minimizedRMSD -1
REMARK  0 active torsions:
REMARK  status: ('A' for Active; 'I' for Inactive)
ROOT
ATOM      1  C1  DEN d   1       1.059   1.356  -2.385  0.00  0.00     0.130 A 
ATOM      2  C2  DEN d   1       1.355   0.085  -1.729  0.00  0.00    -0.031 A 
ATOM      3  C3  DEN d   1       1.565   0.351  -0.292  0.00  0.00     0.027 A 
ATOM      4  C4  DEN d   1       1.456   2.594   0.977  0.00  0.00     0.027 A 
ATOM      5  C5  DEN d   1       1.249   3.949   0.845  0.00  0.00    -0.003 A 
ATOM      6  C6  DEN d   1       1.000   4.535  -0.368  0.00  0.00     0.001 A 
ATOM      7  C7  DEN d   1       0.907   3.756  -1.492  0.00  0.00     0.017 A 
ATOM      8  C8  DEN d   1       1.121   2.390  -1.368  0.00  0.00    -0.094 A 
ATOM      9  C9  DEN d   1       1.360   1.815  -0.131  0.00  0.00    -0.072 A 
ENDROOT
TORSDOF 0
ENDMDL
