MODEL 1
REMARK minimizedAffinity 3.42788196
REMARK minimizedRMSD -1
REMARK  0 active torsions:
REMARK  status: ('A' for Active; 'I' for Inactive)
ROOT
ATOM      1  C1  DEN d   1       1.188   1.620  -2.132  0.00  0.00     0.130 A 
ATOM      2  C2  DEN d   1       1.414   0.394  -1.371  0.00  0.00    -0.031 A 
ATOM      3  C3  DEN d   1       1.627   0.767   0.042  0.00  0.00     0.027 A 
ATOM      4  C4  DEN d   1       1.626   3.110   1.120  0.00  0.00     0.027 A 
ATOM      5  C5  DEN d   1       1.491   4.459   0.874  0.00  0.00    -0.003 A 
ATOM      6  C6  DEN d   1       1.281   4.954  -0.386  0.00  0.00     0.001 A 
ATOM      7  C7  DEN d   1       1.155   4.091  -1.442  0.00  0.00     0.017 A 
ATOM      8  C8  DEN d   1       1.298   2.730  -1.203  0.00  0.00    -0.094 A 
ATOM      9  C9  DEN d   1       1.497   2.248   0.079  0.00  0.00    -0.072 A 
ENDROOT
TORSDOF 0
ENDMDL
