MODEL 1
REMARK minimizedAffinity 6.37300968
REMARK minimizedRMSD -1
REMARK  0 active torsions:
REMARK  status: ('A' for Active; 'I' for Inactive)
ROOT
ATOM      1  C1  DEN d   1       1.657   2.096   1.204  0.00  0.00     0.130 A 
ATOM      2  C2  DEN d   1       1.219   3.419   0.765  0.00  0.00    -0.031 A 
ATOM      3  C3  DEN d   1       0.894   3.338  -0.673  0.00  0.00     0.027 A 
ATOM      4  C4  DEN d   1       1.020   1.303  -2.254  0.00  0.00     0.027 A 
ATOM      5  C5  DEN d   1       1.346  -0.032  -2.340  0.00  0.00    -0.003 A 
ATOM      6  C6  DEN d   1       1.826  -0.738  -1.269  0.00  0.00     0.001 A 
ATOM      7  C7  DEN d   1       1.952  -0.122  -0.052  0.00  0.00     0.017 A 
ATOM      8  C8  DEN d   1       1.633   1.227   0.041  0.00  0.00    -0.094 A 
ATOM      9  C9  DEN d   1       1.137   1.919  -1.050  0.00  0.00    -0.072 A 
ENDROOT
TORSDOF 0
ENDMDL
