MODEL 1
REMARK minimizedAffinity 2.46549773
REMARK minimizedRMSD -1
REMARK  0 active torsions:
REMARK  status: ('A' for Active; 'I' for Inactive)
ROOT
ATOM      1  C1  DEN d   1       1.725  -1.126  -2.428  0.00  0.00     0.130 A 
ATOM      2  C2  DEN d   1       1.674  -2.148  -1.386  0.00  0.00    -0.031 A 
ATOM      3  C3  DEN d   1       1.453  -1.470  -0.093  0.00  0.00     0.027 A 
ATOM      4  C4  DEN d   1       1.182   1.048   0.395  0.00  0.00     0.027 A 
ATOM      5  C5  DEN d   1       1.164   2.305  -0.168  0.00  0.00    -0.003 A 
ATOM      6  C6  DEN d   1       1.364   2.507  -1.508  0.00  0.00     0.001 A 
ATOM      7  C7  DEN d   1       1.546   1.432  -2.337  0.00  0.00     0.017 A 
ATOM      8  C8  DEN d   1       1.573   0.163  -1.776  0.00  0.00    -0.094 A 
ATOM      9  C9  DEN d   1       1.356  -0.022  -0.421  0.00  0.00    -0.072 A 
ENDROOT
TORSDOF 0
ENDMDL
