MODEL 1
REMARK minimizedAffinity -3.15292692
REMARK minimizedRMSD -1
REMARK  0 active torsions:
REMARK  status: ('A' for Active; 'I' for Inactive)
ROOT
ATOM      1  C1  DEN d   1       0.900   1.412  -2.138  0.00  0.00     0.130 A 
ATOM      2  C2  DEN d   1       1.020   0.021  -1.711  0.00  0.00    -0.031 A 
ATOM      3  C3  DEN d   1       1.292   0.010  -0.259  0.00  0.00     0.027 A 
ATOM      4  C4  DEN d   1       1.535   2.003   1.360  0.00  0.00     0.027 A 
ATOM      5  C5  DEN d   1       1.526   3.377   1.458  0.00  0.00    -0.003 A 
ATOM      6  C6  DEN d   1       1.343   4.186   0.368  0.00  0.00     0.001 A 
ATOM      7  C7  DEN d   1       1.116   3.627  -0.862  0.00  0.00     0.017 A 
ATOM      8  C8  DEN d   1       1.132   2.243  -0.970  0.00  0.00    -0.094 A 
ATOM      9  C9  DEN d   1       1.306   1.442   0.146  0.00  0.00    -0.072 A 
ENDROOT
TORSDOF 0
ENDMDL
