MODEL 1
REMARK minimizedAffinity 8.6193037
REMARK minimizedRMSD -1
REMARK  0 active torsions:
REMARK  status: ('A' for Active; 'I' for Inactive)
ROOT
ATOM      1  C1  DEN d   1       1.568   3.466  -1.057  0.00  0.00     0.130 A 
ATOM      2  C2  DEN d   1       0.751   3.987  -2.150  0.00  0.00    -0.031 A 
ATOM      3  C3  DEN d   1       0.158   2.838  -2.863  0.00  0.00     0.027 A 
ATOM      4  C4  DEN d   1       0.418   0.318  -2.381  0.00  0.00     0.027 A 
ATOM      5  C5  DEN d   1       1.020  -0.612  -1.563  0.00  0.00    -0.003 A 
ATOM      6  C6  DEN d   1       1.868  -0.252  -0.548  0.00  0.00     0.001 A 
ATOM      7  C7  DEN d   1       2.101   1.074  -0.297  0.00  0.00     0.017 A 
ATOM      8  C8  DEN d   1       1.502   2.017  -1.122  0.00  0.00    -0.094 A 
ATOM      9  C9  DEN d   1       0.639   1.634  -2.135  0.00  0.00    -0.072 A 
ENDROOT
TORSDOF 0
ENDMDL
