MODEL 1
REMARK minimizedAffinity 3.56782222
REMARK minimizedRMSD -1
REMARK  0 active torsions:
REMARK  status: ('A' for Active; 'I' for Inactive)
ROOT
ATOM      1  C1  DEN d   1       0.737   2.210   1.006  0.00  0.00     0.130 A 
ATOM      2  C2  DEN d   1       0.814   3.576   0.497  0.00  0.00    -0.031 A 
ATOM      3  C3  DEN d   1       1.311   3.518  -0.892  0.00  0.00     0.027 A 
ATOM      4  C4  DEN d   1       1.960   1.455  -2.298  0.00  0.00     0.027 A 
ATOM      5  C5  DEN d   1       2.073   0.082  -2.291  0.00  0.00    -0.003 A 
ATOM      6  C6  DEN d   1       1.784  -0.669  -1.183  0.00  0.00     0.001 A 
ATOM      7  C7  DEN d   1       1.323  -0.055  -0.048  0.00  0.00     0.017 A 
ATOM      8  C8  DEN d   1       1.213   1.330  -0.045  0.00  0.00    -0.094 A 
ATOM      9  C9  DEN d   1       1.499   2.070  -1.180  0.00  0.00    -0.072 A 
ENDROOT
TORSDOF 0
ENDMDL
