MODEL 1
REMARK minimizedAffinity 0.04408383
REMARK minimizedRMSD -1
REMARK  0 active torsions:
REMARK  status: ('A' for Active; 'I' for Inactive)
ROOT
ATOM      1  C1  DEN d   1       0.942   0.623   0.716  0.00  0.00     0.130 A 
ATOM      2  C2  DEN d   1       0.908  -0.526  -0.184  0.00  0.00    -0.031 A 
ATOM      3  C3  DEN d   1       0.996  -0.023  -1.570  0.00  0.00     0.027 A 
ATOM      4  C4  DEN d   1       1.184   2.411  -2.404  0.00  0.00     0.027 A 
ATOM      5  C5  DEN d   1       1.238   3.730  -2.013  0.00  0.00    -0.003 A 
ATOM      6  C6  DEN d   1       1.163   4.106  -0.698  0.00  0.00     0.001 A 
ATOM      7  C7  DEN d   1       1.076   3.148   0.277  0.00  0.00     0.017 A 
ATOM      8  C8  DEN d   1       1.014   1.816  -0.109  0.00  0.00    -0.094 A 
ATOM      9  C9  DEN d   1       1.103   1.456  -1.443  0.00  0.00    -0.072 A 
ENDROOT
TORSDOF 0
ENDMDL
