MODEL 1
REMARK minimizedAffinity -3.42936587
REMARK minimizedRMSD -1
REMARK  0 active torsions:
REMARK  status: ('A' for Active; 'I' for Inactive)
ROOT
ATOM      1  C1  DEN d   1       1.324   0.195   0.270  0.00  0.00     0.130 A 
ATOM      2  C2  DEN d   1       1.390  -0.598  -0.954  0.00  0.00    -0.031 A 
ATOM      3  C3  DEN d   1       1.215   0.317  -2.100  0.00  0.00     0.027 A 
ATOM      4  C4  DEN d   1       0.856   2.871  -2.098  0.00  0.00     0.027 A 
ATOM      5  C5  DEN d   1       0.717   3.985  -1.298  0.00  0.00    -0.003 A 
ATOM      6  C6  DEN d   1       0.737   3.909   0.069  0.00  0.00     0.001 A 
ATOM      7  C7  DEN d   1       0.944   2.700   0.679  0.00  0.00     0.017 A 
ATOM      8  C8  DEN d   1       1.077   1.572  -0.120  0.00  0.00    -0.094 A 
ATOM      9  C9  DEN d   1       1.067   1.671  -1.501  0.00  0.00    -0.072 A 
ENDROOT
TORSDOF 0
ENDMDL
