MODEL 1
REMARK minimizedAffinity -0.542356193
REMARK minimizedRMSD -1
REMARK  0 active torsions:
REMARK  status: ('A' for Active; 'I' for Inactive)
ROOT
ATOM      1  C1  DEN d   1       1.430   2.874   1.442  0.00  0.00     0.130 A 
ATOM      2  C2  DEN d   1       1.558   1.557   2.062  0.00  0.00    -0.031 A 
ATOM      3  C3  DEN d   1       1.480   0.541   0.993  0.00  0.00     0.027 A 
ATOM      4  C4  DEN d   1       1.180   0.876  -1.546  0.00  0.00     0.027 A 
ATOM      5  C5  DEN d   1       1.014   1.811  -2.543  0.00  0.00    -0.003 A 
ATOM      6  C6  DEN d   1       0.942   3.154  -2.280  0.00  0.00     0.001 A 
ATOM      7  C7  DEN d   1       1.081   3.602  -0.993  0.00  0.00     0.017 A 
ATOM      8  C8  DEN d   1       1.241   2.664   0.018  0.00  0.00    -0.094 A 
ATOM      9  C9  DEN d   1       1.324   1.312  -0.269  0.00  0.00    -0.072 A 
ENDROOT
TORSDOF 0
ENDMDL
