MODEL 1
REMARK minimizedAffinity 7.62517548
REMARK minimizedRMSD -1
REMARK  0 active torsions:
REMARK  status: ('A' for Active; 'I' for Inactive)
ROOT
ATOM      1  C1  DEN d   1       0.561   3.490  -1.078  0.00  0.00     0.130 A 
ATOM      2  C2  DEN d   1       0.487   3.428  -2.535  0.00  0.00    -0.031 A 
ATOM      3  C3  DEN d   1       0.746   2.033  -2.946  0.00  0.00     0.027 A 
ATOM      4  C4  DEN d   1       1.248  -0.025  -1.475  0.00  0.00     0.027 A 
ATOM      5  C5  DEN d   1       1.427  -0.464  -0.182  0.00  0.00    -0.003 A 
ATOM      6  C6  DEN d   1       1.363   0.384   0.892  0.00  0.00     0.001 A 
ATOM      7  C7  DEN d   1       1.070   1.707   0.696  0.00  0.00     0.017 A 
ATOM      8  C8  DEN d   1       0.897   2.159  -0.606  0.00  0.00    -0.094 A 
ATOM      9  C9  DEN d   1       0.953   1.284  -1.677  0.00  0.00    -0.072 A 
ENDROOT
TORSDOF 0
ENDMDL
