MODEL 1
REMARK minimizedAffinity 3.95815516
REMARK minimizedRMSD -1
REMARK  0 active torsions:
REMARK  status: ('A' for Active; 'I' for Inactive)
ROOT
ATOM      1  C1  DEN d   1       1.000   3.450  -0.847  0.00  0.00     0.130 A 
ATOM      2  C2  DEN d   1       0.561   3.630  -2.228  0.00  0.00    -0.031 A 
ATOM      3  C3  DEN d   1       0.376   2.292  -2.826  0.00  0.00     0.027 A 
ATOM      4  C4  DEN d   1       0.720  -0.027  -1.751  0.00  0.00     0.027 A 
ATOM      5  C5  DEN d   1       1.099  -0.687  -0.602  0.00  0.00    -0.003 A 
ATOM      6  C6  DEN d   1       1.500  -0.020   0.525  0.00  0.00     0.001 A 
ATOM      7  C7  DEN d   1       1.489   1.350   0.543  0.00  0.00     0.017 A 
ATOM      8  C8  DEN d   1       1.116   2.022  -0.614  0.00  0.00    -0.094 A 
ATOM      9  C9  DEN d   1       0.702   1.330  -1.739  0.00  0.00    -0.072 A 
ENDROOT
TORSDOF 0
ENDMDL
