MODEL 1
REMARK minimizedAffinity 5.26243734
REMARK minimizedRMSD -1
REMARK  0 active torsions:
REMARK  status: ('A' for Active; 'I' for Inactive)
ROOT
ATOM      1  C4' PXY d   1       0.326   2.292   0.865  0.00  0.00     0.077 C 
ATOM      2  C1' PXY d   1      -3.434   1.766  -3.494  0.00  0.00     0.077 C 
ATOM      3  C1  PXY d   1      -2.439   1.909  -2.359  0.00  0.00    -0.082 A 
ATOM      4  C2  PXY d   1      -2.538   1.123  -1.299  0.00  0.00     0.003 A 
ATOM      5  C3  PXY d   1      -1.666   1.261  -0.250  0.00  0.00     0.003 A 
ATOM      6  C4  PXY d   1      -0.650   2.176  -0.309  0.00  0.00    -0.082 A 
ATOM      7  C5  PXY d   1      -0.536   2.975  -1.391  0.00  0.00     0.003 A 
ATOM      8  C6  PXY d   1      -1.456   2.847  -2.428  0.00  0.00     0.003 A 
ENDROOT
TORSDOF 0
ENDMDL
