MODEL 1
REMARK minimizedAffinity 5.45635223
REMARK minimizedRMSD -1
REMARK  0 active torsions:
REMARK  status: ('A' for Active; 'I' for Inactive)
ROOT
ATOM      1  C4' PXY d   1       0.870   4.904  -2.222  0.00  0.00     0.077 C 
ATOM      2  C1' PXY d   1      -1.766   1.462   1.602  0.00  0.00     0.077 C 
ATOM      3  C1  PXY d   1      -1.066   2.369   0.608  0.00  0.00    -0.082 A 
ATOM      4  C2  PXY d   1      -1.709   2.770  -0.476  0.00  0.00     0.003 A 
ATOM      5  C3  PXY d   1      -1.081   3.565  -1.401  0.00  0.00     0.003 A 
ATOM      6  C4  PXY d   1       0.201   3.996  -1.187  0.00  0.00    -0.082 A 
ATOM      7  C5  PXY d   1       0.860   3.600  -0.078  0.00  0.00     0.003 A 
ATOM      8  C6  PXY d   1       0.218   2.760   0.828  0.00  0.00     0.003 A 
ENDROOT
TORSDOF 0
ENDMDL
