MODEL 1
REMARK minimizedAffinity 0.289162338
REMARK minimizedRMSD -1
REMARK  0 active torsions:
REMARK  status: ('A' for Active; 'I' for Inactive)
ROOT
ATOM      1  C4' PXY d   1      -0.177   3.375  -0.559  0.00  0.00     0.077 C 
ATOM      2  C1' PXY d   1      -4.906   0.772  -2.625  0.00  0.00     0.077 C 
ATOM      3  C1  PXY d   1      -3.666   1.463  -2.094  0.00  0.00    -0.082 A 
ATOM      4  C2  PXY d   1      -2.863   0.817  -1.263  0.00  0.00     0.003 A 
ATOM      5  C3  PXY d   1      -1.755   1.438  -0.747  0.00  0.00     0.003 A 
ATOM      6  C4  PXY d   1      -1.435   2.714  -1.128  0.00  0.00    -0.082 A 
ATOM      7  C5  PXY d   1      -2.243   3.375  -1.984  0.00  0.00     0.003 A 
ATOM      8  C6  PXY d   1      -3.386   2.742  -2.463  0.00  0.00     0.003 A 
ENDROOT
TORSDOF 0
ENDMDL
