MODEL 1
REMARK minimizedAffinity 14.6932573
REMARK minimizedRMSD -1
REMARK  0 active torsions:
REMARK  status: ('A' for Active; 'I' for Inactive)
ROOT
ATOM      1  C4' PXY d   1       2.710  -6.000  -6.000  0.00  0.00     0.077 C 
ATOM      2  C1' PXY d   1       5.495  -4.840  -1.069  0.00  0.00     0.077 C 
ATOM      3  C1  PXY d   1       4.774  -5.138  -2.369  0.00  0.00    -0.082 A 
ATOM      4  C2  PXY d   1       3.465  -5.329  -2.362  0.00  0.00     0.003 A 
ATOM      5  C3  PXY d   1       2.802  -5.632  -3.523  0.00  0.00     0.003 A 
ATOM      6  C4  PXY d   1       3.478  -5.687  -4.713  0.00  0.00    -0.082 A 
ATOM      7  C5  PXY d   1       4.812  -5.482  -4.730  0.00  0.00     0.003 A 
ATOM      8  C6  PXY d   1       5.472  -5.217  -3.534  0.00  0.00     0.003 A 
ENDROOT
TORSDOF 0
ENDMDL
