MODEL 1
REMARK minimizedAffinity -0.241080716
REMARK minimizedRMSD -1
REMARK  0 active torsions:
REMARK  status: ('A' for Active; 'I' for Inactive)
ROOT
ATOM      1  C4' PXY d   1      -0.482   3.383   0.373  0.00  0.00     0.077 C 
ATOM      2  C1' PXY d   1       0.077   0.036  -4.307  0.00  0.00     0.077 C 
ATOM      3  C1  PXY d   1      -0.065   0.924  -3.086  0.00  0.00    -0.082 A 
ATOM      4  C2  PXY d   1      -0.068   0.382  -1.879  0.00  0.00     0.003 A 
ATOM      5  C3  PXY d   1      -0.227   1.167  -0.766  0.00  0.00     0.003 A 
ATOM      6  C4  PXY d   1      -0.332   2.526  -0.887  0.00  0.00    -0.082 A 
ATOM      7  C5  PXY d   1      -0.319   3.089  -2.114  0.00  0.00     0.003 A 
ATOM      8  C6  PXY d   1      -0.198   2.270  -3.233  0.00  0.00     0.003 A 
ENDROOT
TORSDOF 0
ENDMDL
