MODEL 1
REMARK minimizedAffinity 6.91402864
REMARK minimizedRMSD -1
REMARK  0 active torsions:
REMARK  status: ('A' for Active; 'I' for Inactive)
ROOT
ATOM      1  C4' PXY d   1      -0.461   3.884  -3.236  0.00  0.00     0.077 C 
ATOM      2  C1' PXY d   1      -0.336   2.306   2.324  0.00  0.00     0.077 C 
ATOM      3  C1  PXY d   1      -0.368   2.732   0.870  0.00  0.00    -0.082 A 
ATOM      4  C2  PXY d   1      -0.920   1.938  -0.033  0.00  0.00     0.003 A 
ATOM      5  C3  PXY d   1      -0.929   2.293  -1.357  0.00  0.00     0.003 A 
ATOM      6  C4  PXY d   1      -0.415   3.498  -1.754  0.00  0.00    -0.082 A 
ATOM      7  C5  PXY d   1       0.141   4.319  -0.838  0.00  0.00     0.003 A 
ATOM      8  C6  PXY d   1       0.177   3.921   0.495  0.00  0.00     0.003 A 
ENDROOT
TORSDOF 0
ENDMDL
