MODEL 1
REMARK minimizedAffinity -2.71245527
REMARK minimizedRMSD -1
REMARK  0 active torsions:
REMARK  status: ('A' for Active; 'I' for Inactive)
ROOT
ATOM      1  C4' PXY d   1       2.572   3.019   2.843  0.00  0.00     0.077 C 
ATOM      2  C1' PXY d   1       0.388   5.431  -1.935  0.00  0.00     0.077 C 
ATOM      3  C1  PXY d   1       0.948   4.795  -0.678  0.00  0.00    -0.082 A 
ATOM      4  C2  PXY d   1       2.099   5.223  -0.186  0.00  0.00     0.003 A 
ATOM      5  C3  PXY d   1       2.637   4.637   0.932  0.00  0.00     0.003 A 
ATOM      6  C4  PXY d   1       1.963   3.638   1.582  0.00  0.00    -0.082 A 
ATOM      7  C5  PXY d   1       0.783   3.203   1.092  0.00  0.00     0.003 A 
ATOM      8  C6  PXY d   1       0.275   3.783  -0.067  0.00  0.00     0.003 A 
ENDROOT
TORSDOF 0
ENDMDL
