MODEL 1
REMARK minimizedAffinity 5.77550173
REMARK minimizedRMSD -1
REMARK  0 active torsions:
REMARK  status: ('A' for Active; 'I' for Inactive)
ROOT
ATOM      1  C4' PXY d   1      -0.424   6.000  -2.648  0.00  0.00     0.077 C 
ATOM      2  C1' PXY d   1      -0.470   2.251   1.753  0.00  0.00     0.077 C 
ATOM      3  C1  PXY d   1      -0.469   3.239   0.603  0.00  0.00    -0.082 A 
ATOM      4  C2  PXY d   1       0.208   2.960  -0.499  0.00  0.00     0.003 A 
ATOM      5  C3  PXY d   1       0.245   3.857  -1.536  0.00  0.00     0.003 A 
ATOM      6  C4  PXY d   1      -0.461   5.028  -1.465  0.00  0.00    -0.082 A 
ATOM      7  C5  PXY d   1      -1.163   5.315  -0.349  0.00  0.00     0.003 A 
ATOM      8  C6  PXY d   1      -1.155   4.410   0.709  0.00  0.00     0.003 A 
ENDROOT
TORSDOF 0
ENDMDL
