MODEL 1
REMARK minimizedAffinity 8.22752953
REMARK minimizedRMSD -1
REMARK  0 active torsions:
REMARK  status: ('A' for Active; 'I' for Inactive)
ROOT
ATOM      1  C4' PXY d   1      -2.990   1.135  -1.750  0.00  0.00     0.077 C 
ATOM      2  C1' PXY d   1       1.559   3.827   0.589  0.00  0.00     0.077 C 
ATOM      3  C1  PXY d   1       0.362   3.132  -0.030  0.00  0.00    -0.082 A 
ATOM      4  C2  PXY d   1      -0.127   2.041   0.537  0.00  0.00     0.003 A 
ATOM      5  C3  PXY d   1      -1.188   1.382  -0.027  0.00  0.00     0.003 A 
ATOM      6  C4  PXY d   1      -1.789   1.874  -1.155  0.00  0.00    -0.082 A 
ATOM      7  C5  PXY d   1      -1.303   2.993  -1.733  0.00  0.00     0.003 A 
ATOM      8  C6  PXY d   1      -0.199   3.624  -1.168  0.00  0.00     0.003 A 
ENDROOT
TORSDOF 0
ENDMDL
