MODEL 1
REMARK minimizedAffinity 26.7466393
REMARK minimizedRMSD -1
REMARK  0 active torsions:
REMARK  status: ('A' for Active; 'I' for Inactive)
ROOT
ATOM      1  C   UNL d   1       1.744  -2.371  -0.995  0.00  0.00     0.124 A 
ATOM      2  C1  UNL d   1       2.835  -2.670  -0.190  0.00  0.00     0.062 A 
ATOM      3  C2  UNL d   1       3.780  -1.691   0.100  0.00  0.00     0.162 A 
ATOM      4  C3  UNL d   1       3.639  -0.402  -0.414  0.00  0.00    -0.034 A 
ATOM      5  C4  UNL d   1       2.540  -0.109  -1.224  0.00  0.00     0.162 A 
ATOM      6  C5  UNL d   1       1.598  -1.092  -1.511  0.00  0.00     0.062 A 
ATOM      7  F   UNL d   1       0.545  -0.801  -2.290  0.00  0.00    -0.097 F 
ATOM      8  F1  UNL d   1       2.374   1.120  -1.736  0.00  0.00    -0.096 F 
ATOM      9  I   UNL d   1       5.050   1.065   0.017  0.00  0.00    -0.060 I 
ATOM     10  F2  UNL d   1       4.823  -2.008   0.881  0.00  0.00    -0.096 F 
ATOM     11  F3  UNL d   1       2.979  -3.906   0.309  0.00  0.00    -0.097 F 
ATOM     12  F4  UNL d   1       0.837  -3.316  -1.274  0.00  0.00    -0.092 F 
ENDROOT
TORSDOF 0
ENDMDL
