MODEL 1
REMARK minimizedAffinity 27.1538696
REMARK minimizedRMSD -1
REMARK  0 active torsions:
REMARK  status: ('A' for Active; 'I' for Inactive)
ROOT
ATOM      1  C   UNL d   1       3.128  -0.869  -0.955  0.00  0.00     0.124 A 
ATOM      2  C1  UNL d   1       1.998  -1.593  -1.309  0.00  0.00     0.062 A 
ATOM      3  C2  UNL d   1       1.013  -1.010  -2.100  0.00  0.00     0.162 A 
ATOM      4  C3  UNL d   1       1.153   0.305  -2.543  0.00  0.00    -0.034 A 
ATOM      5  C4  UNL d   1       2.291   1.027  -2.182  0.00  0.00     0.162 A 
ATOM      6  C5  UNL d   1       3.274   0.440  -1.391  0.00  0.00     0.062 A 
ATOM      7  F   UNL d   1       4.364   1.141  -1.049  0.00  0.00    -0.097 F 
ATOM      8  F1  UNL d   1       2.458   2.294  -2.590  0.00  0.00    -0.096 F 
ATOM      9  I   UNL d   1      -0.319   1.181  -3.726  0.00  0.00    -0.060 I 
ATOM     10  F2  UNL d   1      -0.069  -1.733  -2.427  0.00  0.00    -0.096 F 
ATOM     11  F3  UNL d   1       1.855  -2.858  -0.888  0.00  0.00    -0.097 F 
ATOM     12  F4  UNL d   1       4.074  -1.433  -0.193  0.00  0.00    -0.092 F 
ENDROOT
TORSDOF 0
ENDMDL
