MODEL 1
REMARK minimizedAffinity 17.6279716
REMARK minimizedRMSD -1
REMARK  0 active torsions:
REMARK  status: ('A' for Active; 'I' for Inactive)
ROOT
ATOM      1  C   UNL d   1      -4.599  -1.454   2.603  0.00  0.00     0.124 A 
ATOM      2  C1  UNL d   1      -4.223  -1.934   3.850  0.00  0.00     0.062 A 
ATOM      3  C2  UNL d   1      -3.693  -1.068   4.802  0.00  0.00     0.162 A 
ATOM      4  C3  UNL d   1      -3.537   0.288   4.512  0.00  0.00    -0.034 A 
ATOM      5  C4  UNL d   1      -3.917   0.763   3.256  0.00  0.00     0.162 A 
ATOM      6  C5  UNL d   1      -4.446  -0.107   2.307  0.00  0.00     0.062 A 
ATOM      7  F   UNL d   1      -4.810   0.358   1.103  0.00  0.00    -0.097 F 
ATOM      8  F1  UNL d   1      -3.781   2.060   2.943  0.00  0.00    -0.096 F 
ATOM      9  I   UNL d   1      -2.745   1.585   5.933  0.00  0.00    -0.060 I 
ATOM     10  F2  UNL d   1      -3.337  -1.559   5.999  0.00  0.00    -0.096 F 
ATOM     11  F3  UNL d   1      -4.368  -3.235   4.138  0.00  0.00    -0.097 F 
ATOM     12  F4  UNL d   1      -5.108  -2.289   1.689  0.00  0.00    -0.092 F 
ENDROOT
TORSDOF 0
ENDMDL
