MODEL 1
REMARK minimizedAffinity 19.7016697
REMARK minimizedRMSD -1
REMARK  0 active torsions:
REMARK  status: ('A' for Active; 'I' for Inactive)
ROOT
ATOM      1  C   UNL d   1      -2.444  -2.939  -3.469  0.00  0.00     0.124 A 
ATOM      2  C1  UNL d   1      -1.537  -3.797  -2.861  0.00  0.00     0.062 A 
ATOM      3  C2  UNL d   1      -0.356  -3.297  -2.321  0.00  0.00     0.162 A 
ATOM      4  C3  UNL d   1      -0.074  -1.933  -2.385  0.00  0.00    -0.034 A 
ATOM      5  C4  UNL d   1      -0.990  -1.077  -2.999  0.00  0.00     0.162 A 
ATOM      6  C5  UNL d   1      -2.169  -1.581  -3.537  0.00  0.00     0.062 A 
ATOM      7  F   UNL d   1      -3.044  -0.751  -4.125  0.00  0.00    -0.097 F 
ATOM      8  F1  UNL d   1      -0.750   0.241  -3.078  0.00  0.00    -0.096 F 
ATOM      9  I   UNL d   1       1.692  -1.182  -1.578  0.00  0.00    -0.060 I 
ATOM     10  F2  UNL d   1       0.502  -4.149  -1.739  0.00  0.00    -0.096 F 
ATOM     11  F3  UNL d   1      -1.799  -5.110  -2.795  0.00  0.00    -0.097 F 
ATOM     12  F4  UNL d   1      -3.579  -3.422  -3.989  0.00  0.00    -0.092 F 
ENDROOT
TORSDOF 0
ENDMDL
