MODEL 1
REMARK minimizedAffinity 29.4775677
REMARK minimizedRMSD -1
REMARK  0 active torsions:
REMARK  status: ('A' for Active; 'I' for Inactive)
ROOT
ATOM      1  C   UNL d   1      -0.549   1.274   2.473  0.00  0.00     0.124 A 
ATOM      2  C1  UNL d   1      -0.122   1.577   3.758  0.00  0.00     0.062 A 
ATOM      3  C2  UNL d   1      -1.052   1.813   4.767  0.00  0.00     0.162 A 
ATOM      4  C3  UNL d   1      -2.419   1.745   4.494  0.00  0.00    -0.034 A 
ATOM      5  C4  UNL d   1      -2.840   1.440   3.199  0.00  0.00     0.162 A 
ATOM      6  C5  UNL d   1      -1.907   1.205   2.194  0.00  0.00     0.062 A 
ATOM      7  F   UNL d   1      -2.321   0.912   0.953  0.00  0.00    -0.097 F 
ATOM      8  F1  UNL d   1      -4.146   1.366   2.902  0.00  0.00    -0.096 F 
ATOM      9  I   UNL d   1      -3.812   2.096   6.000  0.00  0.00    -0.060 I 
ATOM     10  F2  UNL d   1      -0.612   2.104   6.000  0.00  0.00    -0.096 F 
ATOM     11  F3  UNL d   1       1.189   1.645   4.030  0.00  0.00    -0.097 F 
ATOM     12  F4  UNL d   1       0.348   1.049   1.504  0.00  0.00    -0.092 F 
ENDROOT
TORSDOF 0
ENDMDL
