MODEL 1
REMARK minimizedAffinity 21.5418243
REMARK minimizedRMSD -1
REMARK  0 active torsions:
REMARK  status: ('A' for Active; 'I' for Inactive)
ROOT
ATOM      1  C   UNL d   1       0.817   1.255   3.866  0.00  0.00     0.124 A 
ATOM      2  C1  UNL d   1       0.042   0.647   2.887  0.00  0.00     0.062 A 
ATOM      3  C2  UNL d   1      -1.347   0.715   2.951  0.00  0.00     0.162 A 
ATOM      4  C3  UNL d   1      -1.970   1.394   3.998  0.00  0.00    -0.034 A 
ATOM      5  C4  UNL d   1      -1.185   2.001   4.979  0.00  0.00     0.162 A 
ATOM      6  C5  UNL d   1       0.203   1.931   4.911  0.00  0.00     0.062 A 
ATOM      7  F   UNL d   1       0.949   2.518   5.858  0.00  0.00    -0.097 F 
ATOM      8  F1  UNL d   1      -1.752   2.662   6.000  0.00  0.00    -0.096 F 
ATOM      9  I   UNL d   1      -4.047   1.498   4.098  0.00  0.00    -0.060 I 
ATOM     10  F2  UNL d   1      -2.070   0.119   1.992  0.00  0.00    -0.096 F 
ATOM     11  F3  UNL d   1       0.633  -0.007   1.877  0.00  0.00    -0.097 F 
ATOM     12  F4  UNL d   1       2.153   1.187   3.802  0.00  0.00    -0.092 F 
ENDROOT
TORSDOF 0
ENDMDL
