MODEL 1
REMARK minimizedAffinity 24.5202522
REMARK minimizedRMSD -1
REMARK  0 active torsions:
REMARK  status: ('A' for Active; 'I' for Inactive)
ROOT
ATOM      1  C   UNL d   1       2.384   0.466  -3.855  0.00  0.00     0.124 A 
ATOM      2  C1  UNL d   1       2.211   1.816  -3.581  0.00  0.00     0.062 A 
ATOM      3  C2  UNL d   1       2.637   2.343  -2.365  0.00  0.00     0.162 A 
ATOM      4  C3  UNL d   1       3.241   1.521  -1.414  0.00  0.00    -0.034 A 
ATOM      5  C4  UNL d   1       3.411   0.164  -1.697  0.00  0.00     0.162 A 
ATOM      6  C5  UNL d   1       2.983  -0.358  -2.913  0.00  0.00     0.062 A 
ATOM      7  F   UNL d   1       3.151  -1.662  -3.176  0.00  0.00    -0.097 F 
ATOM      8  F1  UNL d   1       3.988  -0.654  -0.805  0.00  0.00    -0.096 F 
ATOM      9  I   UNL d   1       3.880   2.306   0.404  0.00  0.00    -0.060 I 
ATOM     10  F2  UNL d   1       2.457   3.651  -2.127  0.00  0.00    -0.096 F 
ATOM     11  F3  UNL d   1       1.631   2.614  -4.489  0.00  0.00    -0.097 F 
ATOM     12  F4  UNL d   1       1.972  -0.039  -5.025  0.00  0.00    -0.092 F 
ENDROOT
TORSDOF 0
ENDMDL
