MODEL 1
REMARK minimizedAffinity 33.4502525
REMARK minimizedRMSD -1
REMARK  0 active torsions:
REMARK  status: ('A' for Active; 'I' for Inactive)
ROOT
ATOM      1  C   UNL d   1       0.367  -1.945  -4.860  0.00  0.00     0.124 A 
ATOM      2  C1  UNL d   1       1.589  -1.287  -4.858  0.00  0.00     0.062 A 
ATOM      3  C2  UNL d   1       2.097  -0.757  -3.675  0.00  0.00     0.162 A 
ATOM      4  C3  UNL d   1       1.383  -0.883  -2.484  0.00  0.00    -0.034 A 
ATOM      5  C4  UNL d   1       0.154  -1.545  -2.494  0.00  0.00     0.162 A 
ATOM      6  C5  UNL d   1      -0.349  -2.073  -3.679  0.00  0.00     0.062 A 
ATOM      7  F   UNL d   1      -1.530  -2.709  -3.679  0.00  0.00    -0.097 F 
ATOM      8  F1  UNL d   1      -0.559  -1.684  -1.367  0.00  0.00    -0.096 F 
ATOM      9  I   UNL d   1       2.138  -0.092  -0.714  0.00  0.00    -0.060 I 
ATOM     10  F2  UNL d   1       3.280  -0.126  -3.703  0.00  0.00    -0.096 F 
ATOM     11  F3  UNL d   1       2.283  -1.161  -5.998  0.00  0.00    -0.097 F 
ATOM     12  F4  UNL d   1      -0.119  -2.453  -6.000  0.00  0.00    -0.092 F 
ENDROOT
TORSDOF 0
ENDMDL
