MODEL 1
REMARK minimizedAffinity 12.7854128
REMARK minimizedRMSD -1
REMARK  0 active torsions:
REMARK  status: ('A' for Active; 'I' for Inactive)
ROOT
ATOM      1  C   UNL d   1       2.390   0.151  -2.013  0.00  0.00     0.124 A 
ATOM      2  C1  UNL d   1       1.849  -0.841  -1.207  0.00  0.00     0.062 A 
ATOM      3  C2  UNL d   1       1.293  -0.515   0.027  0.00  0.00     0.162 A 
ATOM      4  C3  UNL d   1       1.272   0.810   0.461  0.00  0.00    -0.034 A 
ATOM      5  C4  UNL d   1       1.819   1.802  -0.355  0.00  0.00     0.162 A 
ATOM      6  C5  UNL d   1       2.374   1.471  -1.587  0.00  0.00     0.062 A 
ATOM      7  F   UNL d   1       2.896   2.431  -2.365  0.00  0.00    -0.097 F 
ATOM      8  F1  UNL d   1       1.816   3.087   0.032  0.00  0.00    -0.096 F 
ATOM      9  I   UNL d   1       0.441   1.303   2.304  0.00  0.00    -0.060 I 
ATOM     10  F2  UNL d   1       0.777  -1.494   0.785  0.00  0.00    -0.096 F 
ATOM     11  F3  UNL d   1       1.864  -2.118  -1.616  0.00  0.00    -0.097 F 
ATOM     12  F4  UNL d   1       2.926  -0.167  -3.199  0.00  0.00    -0.092 F 
ENDROOT
TORSDOF 0
ENDMDL
