MODEL 1
REMARK minimizedAffinity 17.8953495
REMARK minimizedRMSD -1
REMARK  0 active torsions:
REMARK  status: ('A' for Active; 'I' for Inactive)
ROOT
ATOM      1  C   UNL d   1       2.773  -4.726  -1.931  0.00  0.00     0.124 A 
ATOM      2  C1  UNL d   1       1.913  -3.770  -2.452  0.00  0.00     0.062 A 
ATOM      3  C2  UNL d   1       2.002  -2.446  -2.032  0.00  0.00     0.162 A 
ATOM      4  C3  UNL d   1       2.956  -2.069  -1.087  0.00  0.00    -0.034 A 
ATOM      5  C4  UNL d   1       3.818  -3.037  -0.568  0.00  0.00     0.162 A 
ATOM      6  C5  UNL d   1       3.725  -4.359  -0.990  0.00  0.00     0.062 A 
ATOM      7  F   UNL d   1       4.557  -5.282  -0.486  0.00  0.00    -0.097 F 
ATOM      8  F1  UNL d   1       4.747  -2.710   0.342  0.00  0.00    -0.096 F 
ATOM      9  I   UNL d   1       3.093  -0.091  -0.458  0.00  0.00    -0.060 I 
ATOM     10  F2  UNL d   1       1.157  -1.543  -2.552  0.00  0.00    -0.096 F 
ATOM     11  F3  UNL d   1       0.992  -4.122  -3.360  0.00  0.00    -0.097 F 
ATOM     12  F4  UNL d   1       2.685  -6.000  -2.336  0.00  0.00    -0.092 F 
ENDROOT
TORSDOF 0
ENDMDL
