MODEL 1
REMARK minimizedAffinity 35.4067459
REMARK minimizedRMSD -1
REMARK  0 active torsions:
REMARK  status: ('A' for Active; 'I' for Inactive)
ROOT
ATOM      1  C   UNL d   1      -0.520  -3.638  -2.204  0.00  0.00     0.124 A 
ATOM      2  C1  UNL d   1      -1.052  -2.435  -2.645  0.00  0.00     0.062 A 
ATOM      3  C2  UNL d   1      -2.191  -2.424  -3.445  0.00  0.00     0.162 A 
ATOM      4  C3  UNL d   1      -2.806  -3.622  -3.810  0.00  0.00    -0.034 A 
ATOM      5  C4  UNL d   1      -2.264  -4.829  -3.363  0.00  0.00     0.162 A 
ATOM      6  C5  UNL d   1      -1.126  -4.834  -2.563  0.00  0.00     0.062 A 
ATOM      7  F   UNL d   1      -0.614  -5.998  -2.138  0.00  0.00    -0.097 F 
ATOM      8  F1  UNL d   1      -2.831  -5.998  -3.694  0.00  0.00    -0.096 F 
ATOM      9  I   UNL d   1      -4.509  -3.611  -5.006  0.00  0.00    -0.060 I 
ATOM     10  F2  UNL d   1      -2.683  -1.246  -3.857  0.00  0.00    -0.096 F 
ATOM     11  F3  UNL d   1      -0.468  -1.278  -2.300  0.00  0.00    -0.097 F 
ATOM     12  F4  UNL d   1       0.576  -3.645  -1.434  0.00  0.00    -0.092 F 
ENDROOT
TORSDOF 0
ENDMDL
