MODEL 1
REMARK minimizedAffinity 24.0926933
REMARK minimizedRMSD -1
REMARK  0 active torsions:
REMARK  status: ('A' for Active; 'I' for Inactive)
ROOT
ATOM      1  C   UNL d   1      -0.965   0.542   2.625  0.00  0.00     0.124 A 
ATOM      2  C1  UNL d   1      -2.340   0.598   2.449  0.00  0.00     0.062 A 
ATOM      3  C2  UNL d   1      -3.145   1.202   3.411  0.00  0.00     0.162 A 
ATOM      4  C3  UNL d   1      -2.575   1.757   4.557  0.00  0.00    -0.034 A 
ATOM      5  C4  UNL d   1      -1.191   1.696   4.727  0.00  0.00     0.162 A 
ATOM      6  C5  UNL d   1      -0.391   1.091   3.763  0.00  0.00     0.062 A 
ATOM      7  F   UNL d   1       0.938   1.038   3.934  0.00  0.00    -0.097 F 
ATOM      8  F1  UNL d   1      -0.610   2.220   5.817  0.00  0.00    -0.096 F 
ATOM      9  I   UNL d   1      -3.774   2.662   5.998  0.00  0.00    -0.060 I 
ATOM     10  F2  UNL d   1      -4.471   1.242   3.216  0.00  0.00    -0.096 F 
ATOM     11  F3  UNL d   1      -2.897   0.067   1.351  0.00  0.00    -0.097 F 
ATOM     12  F4  UNL d   1      -0.193  -0.041   1.698  0.00  0.00    -0.092 F 
ENDROOT
TORSDOF 0
ENDMDL
