MODEL 1
REMARK minimizedAffinity 35.3551979
REMARK minimizedRMSD -1
REMARK  0 active torsions:
REMARK  status: ('A' for Active; 'I' for Inactive)
ROOT
ATOM      1  C   UNL d   1       0.993  -0.718  -2.791  0.00  0.00     0.124 A 
ATOM      2  C1  UNL d   1       1.741   0.421  -3.058  0.00  0.00     0.062 A 
ATOM      3  C2  UNL d   1       2.574   0.956  -2.080  0.00  0.00     0.162 A 
ATOM      4  C3  UNL d   1       2.665   0.353  -0.826  0.00  0.00    -0.034 A 
ATOM      5  C4  UNL d   1       1.910  -0.792  -0.565  0.00  0.00     0.162 A 
ATOM      6  C5  UNL d   1       1.078  -1.323  -1.545  0.00  0.00     0.062 A 
ATOM      7  F   UNL d   1       0.357  -2.423  -1.285  0.00  0.00    -0.097 F 
ATOM      8  F1  UNL d   1       1.974  -1.397   0.631  0.00  0.00    -0.096 F 
ATOM      9  I   UNL d   1       3.910   1.151   0.639  0.00  0.00    -0.060 I 
ATOM     10  F2  UNL d   1       3.285   2.057  -2.366  0.00  0.00    -0.096 F 
ATOM     11  F3  UNL d   1       1.659   1.007  -4.261  0.00  0.00    -0.097 F 
ATOM     12  F4  UNL d   1       0.192  -1.231  -3.734  0.00  0.00    -0.092 F 
ENDROOT
TORSDOF 0
ENDMDL
