MODEL 1
REMARK minimizedAffinity 24.3005123
REMARK minimizedRMSD -1
REMARK  0 active torsions:
REMARK  status: ('A' for Active; 'I' for Inactive)
ROOT
ATOM      1  C   UNL d   1      -2.154   0.090   2.219  0.00  0.00     0.124 A 
ATOM      2  C1  UNL d   1      -0.779   0.202   2.374  0.00  0.00     0.062 A 
ATOM      3  C2  UNL d   1      -0.251   0.905   3.453  0.00  0.00     0.162 A 
ATOM      4  C3  UNL d   1      -1.098   1.503   4.386  0.00  0.00    -0.034 A 
ATOM      5  C4  UNL d   1      -2.480   1.388   4.222  0.00  0.00     0.162 A 
ATOM      6  C5  UNL d   1      -3.003   0.683   3.142  0.00  0.00     0.062 A 
ATOM      7  F   UNL d   1      -4.331   0.577   2.994  0.00  0.00    -0.097 F 
ATOM      8  F1  UNL d   1      -3.323   1.950   5.100  0.00  0.00    -0.096 F 
ATOM      9  I   UNL d   1      -0.313   2.556   6.000  0.00  0.00    -0.060 I 
ATOM     10  F2  UNL d   1       1.081   0.996   3.578  0.00  0.00    -0.096 F 
ATOM     11  F3  UNL d   1       0.043  -0.370   1.482  0.00  0.00    -0.097 F 
ATOM     12  F4  UNL d   1      -2.659  -0.586   1.179  0.00  0.00    -0.092 F 
ENDROOT
TORSDOF 0
ENDMDL
