MODEL 1
REMARK minimizedAffinity 30.6730366
REMARK minimizedRMSD -1
REMARK  0 active torsions:
REMARK  status: ('A' for Active; 'I' for Inactive)
ROOT
ATOM      1  C   UNL d   1      -0.987  -1.028   2.626  0.00  0.00     0.124 A 
ATOM      2  C1  UNL d   1      -2.015  -0.128   2.380  0.00  0.00     0.062 A 
ATOM      3  C2  UNL d   1      -3.311  -0.588   2.163  0.00  0.00     0.162 A 
ATOM      4  C3  UNL d   1      -3.587  -1.955   2.193  0.00  0.00    -0.034 A 
ATOM      5  C4  UNL d   1      -2.547  -2.854   2.440  0.00  0.00     0.162 A 
ATOM      6  C5  UNL d   1      -1.254  -2.389   2.656  0.00  0.00     0.062 A 
ATOM      7  F   UNL d   1      -0.262  -3.260   2.893  0.00  0.00    -0.097 F 
ATOM      8  F1  UNL d   1      -2.777  -4.175   2.475  0.00  0.00    -0.096 F 
ATOM      9  I   UNL d   1      -5.523  -2.647   1.869  0.00  0.00    -0.060 I 
ATOM     10  F2  UNL d   1      -4.285   0.304   1.928  0.00  0.00    -0.096 F 
ATOM     11  F3  UNL d   1      -1.760   1.188   2.350  0.00  0.00    -0.097 F 
ATOM     12  F4  UNL d   1       0.259  -0.583   2.833  0.00  0.00    -0.092 F 
ENDROOT
TORSDOF 0
ENDMDL
