MODEL 1
REMARK minimizedAffinity 23.9651546
REMARK minimizedRMSD -1
REMARK  0 active torsions:
REMARK  status: ('A' for Active; 'I' for Inactive)
ROOT
ATOM      1  C   UNL d   1      -3.449   2.295   5.995  0.00  0.00     0.124 A 
ATOM      2  C1  UNL d   1      -2.552   3.354   5.995  0.00  0.00     0.062 A 
ATOM      3  C2  UNL d   1      -1.181   3.111   5.996  0.00  0.00     0.162 A 
ATOM      4  C3  UNL d   1      -0.699   1.802   5.996  0.00  0.00    -0.034 A 
ATOM      5  C4  UNL d   1      -1.608   0.742   5.996  0.00  0.00     0.162 A 
ATOM      6  C5  UNL d   1      -2.976   0.990   5.995  0.00  0.00     0.062 A 
ATOM      7  F   UNL d   1      -3.842  -0.034   5.995  0.00  0.00    -0.097 F 
ATOM      8  F1  UNL d   1      -1.178  -0.529   5.996  0.00  0.00    -0.096 F 
ATOM      9  I   UNL d   1       1.349   1.433   5.997  0.00  0.00    -0.060 I 
ATOM     10  F2  UNL d   1      -0.337   4.153   5.996  0.00  0.00    -0.096 F 
ATOM     11  F3  UNL d   1      -3.006   4.616   5.995  0.00  0.00    -0.097 F 
ATOM     12  F4  UNL d   1      -4.767   2.532   5.995  0.00  0.00    -0.092 F 
ENDROOT
TORSDOF 0
ENDMDL
