MODEL 1
REMARK minimizedAffinity 11.6110153
REMARK minimizedRMSD -1
REMARK  0 active torsions:
REMARK  status: ('A' for Active; 'I' for Inactive)
ROOT
ATOM      1  C   UNL d   1      -1.012  -5.095  -2.666  0.00  0.00     0.124 A 
ATOM      2  C1  UNL d   1      -0.664  -4.514  -3.878  0.00  0.00     0.062 A 
ATOM      3  C2  UNL d   1      -1.641  -4.241  -4.830  0.00  0.00     0.162 A 
ATOM      4  C3  UNL d   1      -2.978  -4.548  -4.574  0.00  0.00    -0.034 A 
ATOM      5  C4  UNL d   1      -3.321  -5.133  -3.354  0.00  0.00     0.162 A 
ATOM      6  C5  UNL d   1      -2.340  -5.404  -2.406  0.00  0.00     0.062 A 
ATOM      7  F   UNL d   1      -2.678  -5.966  -1.236  0.00  0.00    -0.097 F 
ATOM      8  F1  UNL d   1      -4.596  -5.441  -3.076  0.00  0.00    -0.096 F 
ATOM      9  I   UNL d   1      -4.443  -4.141  -5.996  0.00  0.00    -0.060 I 
ATOM     10  F2  UNL d   1      -1.276  -3.679  -5.992  0.00  0.00    -0.096 F 
ATOM     11  F3  UNL d   1       0.618  -4.215  -4.132  0.00  0.00    -0.097 F 
ATOM     12  F4  UNL d   1      -0.069  -5.358  -1.752  0.00  0.00    -0.092 F 
ENDROOT
TORSDOF 0
ENDMDL
