MODEL 1
REMARK minimizedAffinity 23.1377106
REMARK minimizedRMSD -1
REMARK  0 active torsions:
REMARK  status: ('A' for Active; 'I' for Inactive)
ROOT
ATOM      1  C   UNL d   1      -3.448   2.646   3.204  0.00  0.00     0.124 A 
ATOM      2  C1  UNL d   1      -3.831   1.424   2.669  0.00  0.00     0.062 A 
ATOM      3  C2  UNL d   1      -3.400   0.237   3.254  0.00  0.00     0.162 A 
ATOM      4  C3  UNL d   1      -2.581   0.266   4.383  0.00  0.00    -0.034 A 
ATOM      5  C4  UNL d   1      -2.199   1.499   4.915  0.00  0.00     0.162 A 
ATOM      6  C5  UNL d   1      -2.633   2.682   4.326  0.00  0.00     0.062 A 
ATOM      7  F   UNL d   1      -2.261   3.862   4.845  0.00  0.00    -0.097 F 
ATOM      8  F1  UNL d   1      -1.412   1.563   5.999  0.00  0.00    -0.096 F 
ATOM      9  I   UNL d   1      -1.934  -1.507   5.261  0.00  0.00    -0.060 I 
ATOM     10  F2  UNL d   1      -3.786  -0.929   2.715  0.00  0.00    -0.096 F 
ATOM     11  F3  UNL d   1      -4.619   1.386   1.584  0.00  0.00    -0.097 F 
ATOM     12  F4  UNL d   1      -3.864   3.786   2.639  0.00  0.00    -0.092 F 
ENDROOT
TORSDOF 0
ENDMDL
