MODEL 1
REMARK minimizedAffinity 8.94833946
REMARK minimizedRMSD -1
REMARK  0 active torsions:
REMARK  status: ('A' for Active; 'I' for Inactive)
ROOT
ATOM      1  C   UNL d   1      -0.224  -3.680  -3.643  0.00  0.00     0.124 A 
ATOM      2  C1  UNL d   1      -1.246  -3.578  -2.709  0.00  0.00     0.062 A 
ATOM      3  C2  UNL d   1      -1.350  -2.446  -1.906  0.00  0.00     0.162 A 
ATOM      4  C3  UNL d   1      -0.430  -1.405  -2.034  0.00  0.00    -0.034 A 
ATOM      5  C4  UNL d   1       0.596  -1.516  -2.975  0.00  0.00     0.162 A 
ATOM      6  C5  UNL d   1       0.696  -2.649  -3.775  0.00  0.00     0.062 A 
ATOM      7  F   UNL d   1       1.684  -2.746  -4.676  0.00  0.00    -0.097 F 
ATOM      8  F1  UNL d   1       1.498  -0.534  -3.124  0.00  0.00    -0.096 F 
ATOM      9  I   UNL d   1      -0.582   0.289  -0.836  0.00  0.00    -0.060 I 
ATOM     10  F2  UNL d   1      -2.347  -2.374  -1.012  0.00  0.00    -0.096 F 
ATOM     11  F3  UNL d   1      -2.135  -4.573  -2.579  0.00  0.00    -0.097 F 
ATOM     12  F4  UNL d   1      -0.126  -4.771  -4.413  0.00  0.00    -0.092 F 
ENDROOT
TORSDOF 0
ENDMDL
