MODEL 1
REMARK minimizedAffinity 15.2242813
REMARK minimizedRMSD -1
REMARK  0 active torsions:
REMARK  status: ('A' for Active; 'I' for Inactive)
ROOT
ATOM      1  C   UNL d   1       3.799  -2.706  -3.318  0.00  0.00     0.124 A 
ATOM      2  C1  UNL d   1       2.773  -2.899  -4.233  0.00  0.00     0.062 A 
ATOM      3  C2  UNL d   1       1.451  -2.953  -3.800  0.00  0.00     0.162 A 
ATOM      4  C3  UNL d   1       1.147  -2.814  -2.446  0.00  0.00    -0.034 A 
ATOM      5  C4  UNL d   1       2.185  -2.622  -1.532  0.00  0.00     0.162 A 
ATOM      6  C5  UNL d   1       3.504  -2.568  -1.969  0.00  0.00     0.062 A 
ATOM      7  F   UNL d   1       4.494  -2.382  -1.084  0.00  0.00    -0.097 F 
ATOM      8  F1  UNL d   1       1.928  -2.484  -0.223  0.00  0.00    -0.096 F 
ATOM      9  I   UNL d   1      -0.828  -2.895  -1.796  0.00  0.00    -0.060 I 
ATOM     10  F2  UNL d   1       0.480  -3.140  -4.707  0.00  0.00    -0.096 F 
ATOM     11  F3  UNL d   1       3.056  -3.034  -5.536  0.00  0.00    -0.097 F 
ATOM     12  F4  UNL d   1       5.071  -2.655  -3.736  0.00  0.00    -0.092 F 
ENDROOT
TORSDOF 0
ENDMDL
