MODEL 1
REMARK minimizedAffinity 6.7409029
REMARK minimizedRMSD -1
REMARK  0 active torsions:
REMARK  status: ('A' for Active; 'I' for Inactive)
ROOT
ATOM      1  C   UNL d   1       1.560   2.569   0.637  0.00  0.00     0.124 A 
ATOM      2  C1  UNL d   1       1.216   2.798   1.962  0.00  0.00     0.062 A 
ATOM      3  C2  UNL d   1      -0.036   2.417   2.436  0.00  0.00     0.162 A 
ATOM      4  C3  UNL d   1      -0.954   1.802   1.584  0.00  0.00    -0.034 A 
ATOM      5  C4  UNL d   1      -0.601   1.577   0.252  0.00  0.00     0.162 A 
ATOM      6  C5  UNL d   1       0.652   1.959  -0.217  0.00  0.00     0.062 A 
ATOM      7  F   UNL d   1       0.983   1.738  -1.497  0.00  0.00    -0.097 F 
ATOM      8  F1  UNL d   1      -1.459   0.988  -0.594  0.00  0.00    -0.096 F 
ATOM      9  I   UNL d   1      -2.827   1.232   2.288  0.00  0.00    -0.060 I 
ATOM     10  F2  UNL d   1      -0.342   2.650   3.721  0.00  0.00    -0.096 F 
ATOM     11  F3  UNL d   1       2.092   3.388   2.788  0.00  0.00    -0.097 F 
ATOM     12  F4  UNL d   1       2.765   2.937   0.183  0.00  0.00    -0.092 F 
ENDROOT
TORSDOF 0
ENDMDL
