MODEL 1
REMARK minimizedAffinity 15.7627831
REMARK minimizedRMSD -1
REMARK  0 active torsions:
REMARK  status: ('A' for Active; 'I' for Inactive)
ROOT
ATOM      1  C   UNL d   1      -0.328   3.573  -5.643  0.00  0.00     0.124 A 
ATOM      2  C1  UNL d   1      -1.038   2.384  -5.726  0.00  0.00     0.062 A 
ATOM      3  C2  UNL d   1      -2.429   2.402  -5.788  0.00  0.00     0.162 A 
ATOM      4  C3  UNL d   1      -3.118   3.615  -5.767  0.00  0.00    -0.034 A 
ATOM      5  C4  UNL d   1      -2.396   4.806  -5.682  0.00  0.00     0.162 A 
ATOM      6  C5  UNL d   1      -1.007   4.783  -5.622  0.00  0.00     0.062 A 
ATOM      7  F   UNL d   1      -0.322   5.933  -5.541  0.00  0.00    -0.097 F 
ATOM      8  F1  UNL d   1      -3.027   5.990  -5.661  0.00  0.00    -0.096 F 
ATOM      9  I   UNL d   1      -5.197   3.646  -5.858  0.00  0.00    -0.060 I 
ATOM     10  F2  UNL d   1      -3.090   1.238  -5.867  0.00  0.00    -0.096 F 
ATOM     11  F3  UNL d   1      -0.385   1.213  -5.747  0.00  0.00    -0.097 F 
ATOM     12  F4  UNL d   1       1.010   3.552  -5.584  0.00  0.00    -0.092 F 
ENDROOT
TORSDOF 0
ENDMDL
