MODEL 1
REMARK minimizedAffinity 7.26733255
REMARK minimizedRMSD -1
REMARK  0 active torsions:
REMARK  status: ('A' for Active; 'I' for Inactive)
ROOT
ATOM      1  C   UNL d   1       1.072   2.389  -5.980  0.00  0.00     0.124 A 
ATOM      2  C1  UNL d   1      -0.264   2.012  -5.972  0.00  0.00     0.062 A 
ATOM      3  C2  UNL d   1      -1.264   2.980  -5.954  0.00  0.00     0.162 A 
ATOM      4  C3  UNL d   1      -0.933   4.335  -5.943  0.00  0.00    -0.034 A 
ATOM      5  C4  UNL d   1       0.413   4.706  -5.950  0.00  0.00     0.162 A 
ATOM      6  C5  UNL d   1       1.409   3.735  -5.969  0.00  0.00     0.062 A 
ATOM      7  F   UNL d   1       2.699   4.101  -5.977  0.00  0.00    -0.097 F 
ATOM      8  F1  UNL d   1       0.767   6.000  -5.941  0.00  0.00    -0.096 F 
ATOM      9  I   UNL d   1      -2.425   5.785  -5.915  0.00  0.00    -0.060 I 
ATOM     10  F2  UNL d   1      -2.547   2.587  -5.946  0.00  0.00    -0.096 F 
ATOM     11  F3  UNL d   1      -0.593   0.712  -5.982  0.00  0.00    -0.097 F 
ATOM     12  F4  UNL d   1       2.032   1.456  -5.997  0.00  0.00    -0.092 F 
ENDROOT
TORSDOF 0
ENDMDL
