MODEL 1
REMARK minimizedAffinity 11.9014187
REMARK minimizedRMSD -1
REMARK  0 active torsions:
REMARK  status: ('A' for Active; 'I' for Inactive)
ROOT
ATOM      1  C   UNL d   1       3.225   2.542  -2.256  0.00  0.00     0.124 A 
ATOM      2  C1  UNL d   1       4.512   3.014  -2.040  0.00  0.00     0.062 A 
ATOM      3  C2  UNL d   1       4.746   4.001  -1.087  0.00  0.00     0.162 A 
ATOM      4  C3  UNL d   1       3.689   4.522  -0.340  0.00  0.00    -0.034 A 
ATOM      5  C4  UNL d   1       2.397   4.043  -0.563  0.00  0.00     0.162 A 
ATOM      6  C5  UNL d   1       2.169   3.056  -1.517  0.00  0.00     0.062 A 
ATOM      7  F   UNL d   1       0.924   2.601  -1.724  0.00  0.00    -0.097 F 
ATOM      8  F1  UNL d   1       1.358   4.522   0.137  0.00  0.00    -0.096 F 
ATOM      9  I   UNL d   1       4.033   5.998   1.086  0.00  0.00    -0.060 I 
ATOM     10  F2  UNL d   1       6.000   4.438  -0.900  0.00  0.00    -0.096 F 
ATOM     11  F3  UNL d   1       5.535   2.519  -2.753  0.00  0.00    -0.097 F 
ATOM     12  F4  UNL d   1       3.003   1.593  -3.174  0.00  0.00    -0.092 F 
ENDROOT
TORSDOF 0
ENDMDL
