MODEL 1
REMARK minimizedAffinity 4.26689959
REMARK minimizedRMSD -1
REMARK  0 active torsions:
REMARK  status: ('A' for Active; 'I' for Inactive)
ROOT
ATOM      1  C   UNL d   1       0.580   2.537  -5.971  0.00  0.00     0.124 A 
ATOM      2  C1  UNL d   1       1.796   1.868  -5.969  0.00  0.00     0.062 A 
ATOM      3  C2  UNL d   1       2.989   2.585  -5.977  0.00  0.00     0.162 A 
ATOM      4  C3  UNL d   1       2.972   3.980  -5.987  0.00  0.00    -0.034 A 
ATOM      5  C4  UNL d   1       1.744   4.645  -5.990  0.00  0.00     0.162 A 
ATOM      6  C5  UNL d   1       0.555   3.924  -5.982  0.00  0.00     0.062 A 
ATOM      7  F   UNL d   1      -0.619   4.572  -5.984  0.00  0.00    -0.097 F 
ATOM      8  F1  UNL d   1       1.691   5.986  -6.000  0.00  0.00    -0.096 F 
ATOM      9  I   UNL d   1       4.753   5.056  -6.000  0.00  0.00    -0.060 I 
ATOM     10  F2  UNL d   1       4.149   1.913  -5.975  0.00  0.00    -0.096 F 
ATOM     11  F3  UNL d   1       1.822   0.528  -5.959  0.00  0.00    -0.097 F 
ATOM     12  F4  UNL d   1      -0.567   1.844  -5.964  0.00  0.00    -0.092 F 
ENDROOT
TORSDOF 0
ENDMDL
