MODEL 1
REMARK minimizedAffinity 3.0281477
REMARK minimizedRMSD -1
REMARK  0 active torsions:
REMARK  status: ('A' for Active; 'I' for Inactive)
ROOT
ATOM      1  C   UNL d   1      -1.740   3.035  -5.998  0.00  0.00     0.124 A 
ATOM      2  C1  UNL d   1      -1.190   4.310  -5.998  0.00  0.00     0.062 A 
ATOM      3  C2  UNL d   1       0.191   4.477  -5.998  0.00  0.00     0.162 A 
ATOM      4  C3  UNL d   1       1.034   3.366  -5.999  0.00  0.00    -0.034 A 
ATOM      5  C4  UNL d   1       0.475   2.087  -5.998  0.00  0.00     0.162 A 
ATOM      6  C5  UNL d   1      -0.907   1.925  -5.998  0.00  0.00     0.062 A 
ATOM      7  F   UNL d   1      -1.435   0.693  -5.998  0.00  0.00    -0.097 F 
ATOM      8  F1  UNL d   1       1.256   0.997  -5.999  0.00  0.00    -0.096 F 
ATOM      9  I   UNL d   1       3.101   3.611  -5.999  0.00  0.00    -0.060 I 
ATOM     10  F2  UNL d   1       0.694   5.721  -5.998  0.00  0.00    -0.096 F 
ATOM     11  F3  UNL d   1      -1.993   5.384  -5.997  0.00  0.00    -0.097 F 
ATOM     12  F4  UNL d   1      -3.069   2.878  -5.997  0.00  0.00    -0.092 F 
ENDROOT
TORSDOF 0
ENDMDL
