MODEL 1
REMARK minimizedAffinity 15.6591072
REMARK minimizedRMSD -1
REMARK  0 active torsions:
REMARK  status: ('A' for Active; 'I' for Inactive)
ROOT
ATOM      1  C   UNL d   1       2.421  -3.888  -3.947  0.00  0.00     0.124 A 
ATOM      2  C1  UNL d   1       2.974  -2.750  -3.376  0.00  0.00     0.062 A 
ATOM      3  C2  UNL d   1       2.239  -1.994  -2.468  0.00  0.00     0.162 A 
ATOM      4  C3  UNL d   1       0.941  -2.372  -2.125  0.00  0.00    -0.034 A 
ATOM      5  C4  UNL d   1       0.390  -3.517  -2.704  0.00  0.00     0.162 A 
ATOM      6  C5  UNL d   1       1.130  -4.270  -3.610  0.00  0.00     0.062 A 
ATOM      7  F   UNL d   1       0.593  -5.369  -4.161  0.00  0.00    -0.097 F 
ATOM      8  F1  UNL d   1      -0.855  -3.910  -2.397  0.00  0.00    -0.096 F 
ATOM      9  I   UNL d   1      -0.163  -1.243  -0.769  0.00  0.00    -0.060 I 
ATOM     10  F2  UNL d   1       2.799  -0.899  -1.932  0.00  0.00    -0.096 F 
ATOM     11  F3  UNL d   1       4.221  -2.378  -3.699  0.00  0.00    -0.097 F 
ATOM     12  F4  UNL d   1       3.130  -4.614  -4.820  0.00  0.00    -0.092 F 
ENDROOT
TORSDOF 0
ENDMDL
