MODEL 1
REMARK minimizedAffinity 13.9210539
REMARK minimizedRMSD -1
REMARK  0 active torsions:
REMARK  status: ('A' for Active; 'I' for Inactive)
ROOT
ATOM      1  C   UNL d   1       0.143   2.907   0.634  0.00  0.00     0.124 A 
ATOM      2  C1  UNL d   1      -0.390   1.882   1.403  0.00  0.00     0.062 A 
ATOM      3  C2  UNL d   1      -0.343   0.568   0.948  0.00  0.00     0.162 A 
ATOM      4  C3  UNL d   1       0.242   0.270  -0.282  0.00  0.00    -0.034 A 
ATOM      5  C4  UNL d   1       0.776   1.306  -1.051  0.00  0.00     0.162 A 
ATOM      6  C5  UNL d   1       0.726   2.618  -0.592  0.00  0.00     0.062 A 
ATOM      7  F   UNL d   1       1.242   3.607  -1.337  0.00  0.00    -0.097 F 
ATOM      8  F1  UNL d   1       1.346   1.054  -2.239  0.00  0.00    -0.096 F 
ATOM      9  I   UNL d   1       0.316  -1.695  -0.966  0.00  0.00    -0.060 I 
ATOM     10  F2  UNL d   1      -0.866  -0.402   1.713  0.00  0.00    -0.096 F 
ATOM     11  F3  UNL d   1      -0.955   2.159   2.588  0.00  0.00    -0.097 F 
ATOM     12  F4  UNL d   1       0.095   4.171   1.073  0.00  0.00    -0.092 F 
ENDROOT
TORSDOF 0
ENDMDL
