MODEL 1
REMARK minimizedAffinity 22.1789722
REMARK minimizedRMSD -1
REMARK  0 active torsions:
REMARK  status: ('A' for Active; 'I' for Inactive)
ROOT
ATOM      1  C   UNL d   1       2.554  -3.687  -3.730  0.00  0.00     0.124 A 
ATOM      2  C1  UNL d   1       3.126  -2.591  -3.100  0.00  0.00     0.062 A 
ATOM      3  C2  UNL d   1       2.333  -1.711  -2.368  0.00  0.00     0.162 A 
ATOM      4  C3  UNL d   1       0.958  -1.925  -2.263  0.00  0.00    -0.034 A 
ATOM      5  C4  UNL d   1       0.390  -3.029  -2.901  0.00  0.00     0.162 A 
ATOM      6  C5  UNL d   1       1.187  -3.905  -3.630  0.00  0.00     0.062 A 
ATOM      7  F   UNL d   1       0.633  -4.964  -4.239  0.00  0.00    -0.097 F 
ATOM      8  F1  UNL d   1      -0.928  -3.264  -2.820  0.00  0.00    -0.096 F 
ATOM      9  I   UNL d   1      -0.231  -0.612  -1.170  0.00  0.00    -0.060 I 
ATOM     10  F2  UNL d   1       2.912  -0.661  -1.769  0.00  0.00    -0.096 F 
ATOM     11  F3  UNL d   1       4.446  -2.377  -3.195  0.00  0.00    -0.097 F 
ATOM     12  F4  UNL d   1       3.319  -4.531  -4.434  0.00  0.00    -0.092 F 
ENDROOT
TORSDOF 0
ENDMDL
