MODEL 1
REMARK minimizedAffinity 16.7617588
REMARK minimizedRMSD -1
REMARK  0 active torsions:
REMARK  status: ('A' for Active; 'I' for Inactive)
ROOT
ATOM      1  C   UNL d   1      -1.700  -4.389  -2.350  0.00  0.00     0.124 A 
ATOM      2  C1  UNL d   1      -0.671  -4.698  -3.230  0.00  0.00     0.062 A 
ATOM      3  C2  UNL d   1       0.532  -4.000  -3.171  0.00  0.00     0.162 A 
ATOM      4  C3  UNL d   1       0.714  -2.987  -2.230  0.00  0.00    -0.034 A 
ATOM      5  C4  UNL d   1      -0.326  -2.682  -1.349  0.00  0.00     0.162 A 
ATOM      6  C5  UNL d   1      -1.527  -3.382  -1.411  0.00  0.00     0.062 A 
ATOM      7  F   UNL d   1      -2.519  -3.083  -0.561  0.00  0.00    -0.097 F 
ATOM      8  F1  UNL d   1      -0.185  -1.714  -0.431  0.00  0.00    -0.096 F 
ATOM      9  I   UNL d   1       2.511  -1.942  -2.139  0.00  0.00    -0.060 I 
ATOM     10  F2  UNL d   1       1.509  -4.319  -4.033  0.00  0.00    -0.096 F 
ATOM     11  F3  UNL d   1      -0.836  -5.670  -4.138  0.00  0.00    -0.097 F 
ATOM     12  F4  UNL d   1      -2.857  -5.061  -2.409  0.00  0.00    -0.092 F 
ENDROOT
TORSDOF 0
ENDMDL
