MODEL 1
REMARK minimizedAffinity 17.0629025
REMARK minimizedRMSD -1
REMARK  0 active torsions:
REMARK  status: ('A' for Active; 'I' for Inactive)
ROOT
ATOM      1  C   UNL d   1       0.201   2.631  -0.062  0.00  0.00     0.124 A 
ATOM      2  C1  UNL d   1       0.029   1.510   0.738  0.00  0.00     0.062 A 
ATOM      3  C2  UNL d   1       0.659   0.313   0.410  0.00  0.00     0.162 A 
ATOM      4  C3  UNL d   1       1.468   0.231  -0.724  0.00  0.00    -0.034 A 
ATOM      5  C4  UNL d   1       1.635   1.363  -1.524  0.00  0.00     0.162 A 
ATOM      6  C5  UNL d   1       1.003   2.557  -1.192  0.00  0.00     0.062 A 
ATOM      7  F   UNL d   1       1.170   3.639  -1.966  0.00  0.00    -0.097 F 
ATOM      8  F1  UNL d   1       2.406   1.319  -2.621  0.00  0.00    -0.096 F 
ATOM      9  I   UNL d   1       2.412  -1.557  -1.218  0.00  0.00    -0.060 I 
ATOM     10  F2  UNL d   1       0.476  -0.754   1.201  0.00  0.00    -0.096 F 
ATOM     11  F3  UNL d   1      -0.746   1.579   1.829  0.00  0.00    -0.097 F 
ATOM     12  F4  UNL d   1      -0.408   3.782   0.255  0.00  0.00    -0.092 F 
ENDROOT
TORSDOF 0
ENDMDL
