MODEL 1
REMARK minimizedAffinity 6.53067303
REMARK minimizedRMSD -1
REMARK  0 active torsions:
REMARK  status: ('A' for Active; 'I' for Inactive)
ROOT
ATOM      1  C   UNL d   1       2.441   2.863  -5.998  0.00  0.00     0.124 A 
ATOM      2  C1  UNL d   1       1.481   1.860  -5.999  0.00  0.00     0.062 A 
ATOM      3  C2  UNL d   1       0.128   2.186  -5.999  0.00  0.00     0.162 A 
ATOM      4  C3  UNL d   1      -0.274   3.522  -5.999  0.00  0.00    -0.034 A 
ATOM      5  C4  UNL d   1       0.697   4.525  -5.997  0.00  0.00     0.162 A 
ATOM      6  C5  UNL d   1       2.048   4.194  -5.997  0.00  0.00     0.062 A 
ATOM      7  F   UNL d   1       2.974   5.164  -5.996  0.00  0.00    -0.097 F 
ATOM      8  F1  UNL d   1       0.346   5.820  -5.998  0.00  0.00    -0.096 F 
ATOM      9  I   UNL d   1      -2.296   4.014  -6.000  0.00  0.00    -0.060 I 
ATOM     10  F2  UNL d   1      -0.778   1.197  -6.000  0.00  0.00    -0.096 F 
ATOM     11  F3  UNL d   1       1.858   0.573  -5.998  0.00  0.00    -0.097 F 
ATOM     12  F4  UNL d   1       3.742   2.546  -5.997  0.00  0.00    -0.092 F 
ENDROOT
TORSDOF 0
ENDMDL
