MODEL 1
REMARK minimizedAffinity -0.0901265591
REMARK minimizedRMSD -1
REMARK  0 active torsions:
REMARK  status: ('A' for Active; 'I' for Inactive)
ROOT
ATOM      1  C   UNL d   1      -2.130   3.525  -5.964  0.00  0.00     0.124 A 
ATOM      2  C1  UNL d   1      -1.477   4.750  -5.977  0.00  0.00     0.062 A 
ATOM      3  C2  UNL d   1      -0.086   4.802  -5.987  0.00  0.00     0.162 A 
ATOM      4  C3  UNL d   1       0.662   3.624  -5.985  0.00  0.00    -0.034 A 
ATOM      5  C4  UNL d   1      -0.001   2.396  -5.971  0.00  0.00     0.162 A 
ATOM      6  C5  UNL d   1      -1.392   2.350  -5.961  0.00  0.00     0.062 A 
ATOM      7  F   UNL d   1      -2.021   1.166  -5.949  0.00  0.00    -0.097 F 
ATOM      8  F1  UNL d   1       0.687   1.245  -5.969  0.00  0.00    -0.096 F 
ATOM      9  I   UNL d   1       2.742   3.697  -6.000  0.00  0.00    -0.060 I 
ATOM     10  F2  UNL d   1       0.518   5.999  -5.999  0.00  0.00    -0.096 F 
ATOM     11  F3  UNL d   1      -2.187   5.887  -5.979  0.00  0.00    -0.097 F 
ATOM     12  F4  UNL d   1      -3.468   3.478  -5.954  0.00  0.00    -0.092 F 
ENDROOT
TORSDOF 0
ENDMDL
