MODEL 1
REMARK minimizedAffinity 8.1621666
REMARK minimizedRMSD -1
REMARK  0 active torsions:
REMARK  status: ('A' for Active; 'I' for Inactive)
ROOT
ATOM      1  C   UNL d   1      -0.529   3.618  -5.929  0.00  0.00     0.124 A 
ATOM      2  C1  UNL d   1       0.168   4.818  -5.925  0.00  0.00     0.062 A 
ATOM      3  C2  UNL d   1       1.559   4.820  -5.944  0.00  0.00     0.162 A 
ATOM      4  C3  UNL d   1       2.264   3.617  -5.970  0.00  0.00    -0.034 A 
ATOM      5  C4  UNL d   1       1.557   2.413  -5.973  0.00  0.00     0.162 A 
ATOM      6  C5  UNL d   1       0.166   2.417  -5.953  0.00  0.00     0.062 A 
ATOM      7  F   UNL d   1      -0.505   1.256  -5.957  0.00  0.00    -0.097 F 
ATOM      8  F1  UNL d   1       2.203   1.238  -5.997  0.00  0.00    -0.096 F 
ATOM      9  I   UNL d   1       4.345   3.615  -5.999  0.00  0.00    -0.060 I 
ATOM     10  F2  UNL d   1       2.206   5.995  -5.940  0.00  0.00    -0.096 F 
ATOM     11  F3  UNL d   1      -0.502   5.980  -5.900  0.00  0.00    -0.097 F 
ATOM     12  F4  UNL d   1      -1.868   3.619  -5.909  0.00  0.00    -0.092 F 
ENDROOT
TORSDOF 0
ENDMDL
