MODEL 1
REMARK minimizedAffinity 3.29340076
REMARK minimizedRMSD -1
REMARK  0 active torsions:
REMARK  status: ('A' for Active; 'I' for Inactive)
ROOT
ATOM      1  C   UNL d   1      -0.769   2.660  -5.960  0.00  0.00     0.124 A 
ATOM      2  C1  UNL d   1       0.383   1.885  -5.969  0.00  0.00     0.062 A 
ATOM      3  C2  UNL d   1       1.635   2.492  -5.981  0.00  0.00     0.162 A 
ATOM      4  C3  UNL d   1       1.742   3.883  -5.982  0.00  0.00    -0.034 A 
ATOM      5  C4  UNL d   1       0.580   4.656  -5.974  0.00  0.00     0.162 A 
ATOM      6  C5  UNL d   1      -0.669   4.044  -5.963  0.00  0.00     0.062 A 
ATOM      7  F   UNL d   1      -1.781   4.794  -5.954  0.00  0.00    -0.097 F 
ATOM      8  F1  UNL d   1       0.647   5.995  -5.975  0.00  0.00    -0.096 F 
ATOM      9  I   UNL d   1       3.613   4.795  -5.999  0.00  0.00    -0.060 I 
ATOM     10  F2  UNL d   1       2.731   1.719  -5.989  0.00  0.00    -0.096 F 
ATOM     11  F3  UNL d   1       0.289   0.547  -5.968  0.00  0.00    -0.097 F 
ATOM     12  F4  UNL d   1      -1.973   2.073  -5.950  0.00  0.00    -0.092 F 
ENDROOT
TORSDOF 0
ENDMDL
