MODEL 1
REMARK minimizedAffinity 4.83627892
REMARK minimizedRMSD -1
REMARK  0 active torsions:
REMARK  status: ('A' for Active; 'I' for Inactive)
ROOT
ATOM      1  C   UNL d   1      -1.633   2.851  -5.926  0.00  0.00     0.124 A 
ATOM      2  C1  UNL d   1      -0.670   1.851  -5.920  0.00  0.00     0.062 A 
ATOM      3  C2  UNL d   1       0.682   2.182  -5.940  0.00  0.00     0.162 A 
ATOM      4  C3  UNL d   1       1.079   3.518  -5.966  0.00  0.00    -0.034 A 
ATOM      5  C4  UNL d   1       0.105   4.518  -5.974  0.00  0.00     0.162 A 
ATOM      6  C5  UNL d   1      -1.245   4.183  -5.953  0.00  0.00     0.062 A 
ATOM      7  F   UNL d   1      -2.174   5.150  -5.959  0.00  0.00    -0.097 F 
ATOM      8  F1  UNL d   1       0.452   5.814  -5.998  0.00  0.00    -0.096 F 
ATOM      9  I   UNL d   1       3.100   4.017  -5.997  0.00  0.00    -0.060 I 
ATOM     10  F2  UNL d   1       1.590   1.195  -5.934  0.00  0.00    -0.096 F 
ATOM     11  F3  UNL d   1      -1.043   0.564  -5.895  0.00  0.00    -0.097 F 
ATOM     12  F4  UNL d   1      -2.933   2.530  -5.908  0.00  0.00    -0.092 F 
ENDROOT
TORSDOF 0
ENDMDL
