MODEL 1
REMARK minimizedAffinity -0.264537185
REMARK minimizedRMSD -1
REMARK  0 active torsions:
REMARK  status: ('A' for Active; 'I' for Inactive)
ROOT
ATOM      1  C   UNL d   1       1.908  -0.680  -1.387  0.00  0.00     0.124 A 
ATOM      2  C1  UNL d   1       1.527   0.653  -1.310  0.00  0.00     0.062 A 
ATOM      3  C2  UNL d   1       0.562   1.052  -0.390  0.00  0.00     0.162 A 
ATOM      4  C3  UNL d   1      -0.029   0.118   0.461  0.00  0.00    -0.034 A 
ATOM      5  C4  UNL d   1       0.359  -1.220   0.376  0.00  0.00     0.162 A 
ATOM      6  C5  UNL d   1       1.323  -1.615  -0.545  0.00  0.00     0.062 A 
ATOM      7  F   UNL d   1       1.690  -2.903  -0.618  0.00  0.00    -0.097 F 
ATOM      8  F1  UNL d   1      -0.189  -2.144   1.180  0.00  0.00    -0.096 F 
ATOM      9  I   UNL d   1      -1.472   0.712   1.838  0.00  0.00    -0.060 I 
ATOM     10  F2  UNL d   1       0.214   2.347  -0.337  0.00  0.00    -0.096 F 
ATOM     11  F3  UNL d   1       2.090   1.557  -2.123  0.00  0.00    -0.097 F 
ATOM     12  F4  UNL d   1       2.836  -1.062  -2.274  0.00  0.00    -0.092 F 
ENDROOT
TORSDOF 0
ENDMDL
