MODEL 1
REMARK minimizedAffinity 0.598889828
REMARK minimizedRMSD -1
REMARK  0 active torsions:
REMARK  status: ('A' for Active; 'I' for Inactive)
ROOT
ATOM      1  C   UNL d   1       1.877  -1.468  -1.272  0.00  0.00     0.124 A 
ATOM      2  C1  UNL d   1       1.106  -2.271  -0.443  0.00  0.00     0.062 A 
ATOM      3  C2  UNL d   1       0.115  -1.707   0.354  0.00  0.00     0.162 A 
ATOM      4  C3  UNL d   1      -0.112  -0.331   0.326  0.00  0.00    -0.034 A 
ATOM      5  C4  UNL d   1       0.668   0.471  -0.509  0.00  0.00     0.162 A 
ATOM      6  C5  UNL d   1       1.658  -0.098  -1.304  0.00  0.00     0.062 A 
ATOM      7  F   UNL d   1       2.402   0.679  -2.104  0.00  0.00    -0.097 F 
ATOM      8  F1  UNL d   1       0.477   1.797  -0.561  0.00  0.00    -0.096 F 
ATOM      9  I   UNL d   1      -1.593   0.518   1.517  0.00  0.00    -0.060 I 
ATOM     10  F2  UNL d   1      -0.615  -2.507   1.146  0.00  0.00    -0.096 F 
ATOM     11  F3  UNL d   1       1.317  -3.595  -0.409  0.00  0.00    -0.097 F 
ATOM     12  F4  UNL d   1       2.831  -2.014  -2.037  0.00  0.00    -0.092 F 
ENDROOT
TORSDOF 0
ENDMDL
