MODEL 1
REMARK minimizedAffinity -2.8683207
REMARK minimizedRMSD -1
REMARK  0 active torsions:
REMARK  status: ('A' for Active; 'I' for Inactive)
ROOT
ATOM      1  C   UNL d   1       1.924  -0.777  -1.322  0.00  0.00     0.124 A 
ATOM      2  C1  UNL d   1       1.587   0.567  -1.231  0.00  0.00     0.062 A 
ATOM      3  C2  UNL d   1       0.629   0.988  -0.314  0.00  0.00     0.162 A 
ATOM      4  C3  UNL d   1       0.001   0.064   0.522  0.00  0.00    -0.034 A 
ATOM      5  C4  UNL d   1       0.344  -1.286   0.424  0.00  0.00     0.162 A 
ATOM      6  C5  UNL d   1       1.302  -1.701  -0.495  0.00  0.00     0.062 A 
ATOM      7  F   UNL d   1       1.626  -3.000  -0.581  0.00  0.00    -0.097 F 
ATOM      8  F1  UNL d   1      -0.241  -2.200   1.212  0.00  0.00    -0.096 F 
ATOM      9  I   UNL d   1      -1.433   0.690   1.895  0.00  0.00    -0.060 I 
ATOM     10  F2  UNL d   1       0.323   2.292  -0.247  0.00  0.00    -0.096 F 
ATOM     11  F3  UNL d   1       2.186   1.462  -2.030  0.00  0.00    -0.097 F 
ATOM     12  F4  UNL d   1       2.845  -1.179  -2.206  0.00  0.00    -0.092 F 
ENDROOT
TORSDOF 0
ENDMDL
