MODEL 1
REMARK minimizedAffinity -5.8239069
REMARK minimizedRMSD -1
REMARK  0 active torsions:
REMARK  status: ('A' for Active; 'I' for Inactive)
ROOT
ATOM      1  C   UNL d   1       1.572  -0.932  -2.035  0.00  0.00     0.124 A 
ATOM      2  C1  UNL d   1       1.307   0.372  -1.642  0.00  0.00     0.062 A 
ATOM      3  C2  UNL d   1       0.461   0.620  -0.565  0.00  0.00     0.162 A 
ATOM      4  C3  UNL d   1      -0.125  -0.439   0.128  0.00  0.00    -0.034 A 
ATOM      5  C4  UNL d   1       0.146  -1.748  -0.274  0.00  0.00     0.162 A 
ATOM      6  C5  UNL d   1       0.991  -1.991  -1.351  0.00  0.00     0.062 A 
ATOM      7  F   UNL d   1       1.247  -3.252  -1.730  0.00  0.00    -0.097 F 
ATOM      8  F1  UNL d   1      -0.401  -2.790   0.370  0.00  0.00    -0.096 F 
ATOM      9  I   UNL d   1      -1.391  -0.073   1.739  0.00  0.00    -0.060 I 
ATOM     10  F2  UNL d   1       0.222   1.890  -0.207  0.00  0.00    -0.096 F 
ATOM     11  F3  UNL d   1       1.865   1.397  -2.302  0.00  0.00    -0.097 F 
ATOM     12  F4  UNL d   1       2.385  -1.168  -3.073  0.00  0.00    -0.092 F 
ENDROOT
TORSDOF 0
ENDMDL
