MODEL 1
REMARK minimizedAffinity -1.94271004
REMARK minimizedRMSD -1
REMARK  0 active torsions:
REMARK  status: ('A' for Active; 'I' for Inactive)
ROOT
ATOM      1  C   UNL d   1       1.771  -0.690  -1.103  0.00  0.00     0.124 A 
ATOM      2  C1  UNL d   1       1.133  -1.644  -0.321  0.00  0.00     0.062 A 
ATOM      3  C2  UNL d   1       0.079  -1.276   0.510  0.00  0.00     0.162 A 
ATOM      4  C3  UNL d   1      -0.346   0.051   0.563  0.00  0.00    -0.034 A 
ATOM      5  C4  UNL d   1       0.300   1.005  -0.226  0.00  0.00     0.162 A 
ATOM      6  C5  UNL d   1       1.354   0.633  -1.054  0.00  0.00     0.062 A 
ATOM      7  F   UNL d   1       1.968   1.555  -1.809  0.00  0.00    -0.097 F 
ATOM      8  F1  UNL d   1      -0.083   2.290  -0.199  0.00  0.00    -0.096 F 
ATOM      9  I   UNL d   1      -1.923   0.604   1.804  0.00  0.00    -0.060 I 
ATOM     10  F2  UNL d   1      -0.519  -2.219   1.254  0.00  0.00    -0.096 F 
ATOM     11  F3  UNL d   1       1.535  -2.922  -0.365  0.00  0.00    -0.097 F 
ATOM     12  F4  UNL d   1       2.786  -1.046  -1.901  0.00  0.00    -0.092 F 
ENDROOT
TORSDOF 0
ENDMDL
