MODEL 1
REMARK minimizedAffinity 15.2837296
REMARK minimizedRMSD -1
REMARK  0 active torsions:
REMARK  status: ('A' for Active; 'I' for Inactive)
ROOT
ATOM      1  C   UNL d   1       2.123  -0.117  -1.308  0.00  0.00     0.124 A 
ATOM      2  C1  UNL d   1       1.285  -1.087  -0.776  0.00  0.00     0.062 A 
ATOM      3  C2  UNL d   1       0.161  -0.717  -0.043  0.00  0.00     0.162 A 
ATOM      4  C3  UNL d   1      -0.132   0.631   0.162  0.00  0.00    -0.034 A 
ATOM      5  C4  UNL d   1       0.716   1.602  -0.375  0.00  0.00     0.162 A 
ATOM      6  C5  UNL d   1       1.838   1.226  -1.107  0.00  0.00     0.062 A 
ATOM      7  F   UNL d   1       2.647   2.165  -1.619  0.00  0.00    -0.097 F 
ATOM      8  F1  UNL d   1       0.464   2.907  -0.197  0.00  0.00    -0.096 F 
ATOM      9  I   UNL d   1      -1.811   1.190   1.257  0.00  0.00    -0.060 I 
ATOM     10  F2  UNL d   1      -0.631  -1.676   0.458  0.00  0.00    -0.096 F 
ATOM     11  F3  UNL d   1       1.559  -2.386  -0.968  0.00  0.00    -0.097 F 
ATOM     12  F4  UNL d   1       3.204  -0.476  -2.012  0.00  0.00    -0.092 F 
ENDROOT
TORSDOF 0
ENDMDL
