MODEL 1
REMARK minimizedAffinity 2.24912095
REMARK minimizedRMSD -1
REMARK  0 active torsions:
REMARK  status: ('A' for Active; 'I' for Inactive)
ROOT
ATOM      1  C   UNL d   1      -4.050   1.204   1.552  0.00  0.00     0.124 A 
ATOM      2  C1  UNL d   1      -3.002   1.773   2.264  0.00  0.00     0.062 A 
ATOM      3  C2  UNL d   1      -1.686   1.443   1.955  0.00  0.00     0.162 A 
ATOM      4  C3  UNL d   1      -1.409   0.541   0.928  0.00  0.00    -0.034 A 
ATOM      5  C4  UNL d   1      -2.467  -0.028   0.217  0.00  0.00     0.162 A 
ATOM      6  C5  UNL d   1      -3.781   0.305   0.530  0.00  0.00     0.062 A 
ATOM      7  F   UNL d   1      -4.792  -0.245  -0.159  0.00  0.00    -0.097 F 
ATOM      8  F1  UNL d   1      -2.236  -0.899  -0.776  0.00  0.00    -0.096 F 
ATOM      9  I   UNL d   1       0.559   0.045   0.463  0.00  0.00    -0.060 I 
ATOM     10  F2  UNL d   1      -0.693   2.008   2.659  0.00  0.00    -0.096 F 
ATOM     11  F3  UNL d   1      -3.259   2.641   3.253  0.00  0.00    -0.097 F 
ATOM     12  F4  UNL d   1      -5.315   1.522   1.852  0.00  0.00    -0.092 F 
ENDROOT
TORSDOF 0
ENDMDL
