MODEL 1
REMARK minimizedAffinity -1.83461964
REMARK minimizedRMSD -1
REMARK  0 active torsions:
REMARK  status: ('A' for Active; 'I' for Inactive)
ROOT
ATOM      1  C   UNL d   1       1.489  -0.878  -1.543  0.00  0.00     0.124 A 
ATOM      2  C1  UNL d   1       1.056   0.425  -1.340  0.00  0.00     0.062 A 
ATOM      3  C2  UNL d   1       0.149   0.711  -0.324  0.00  0.00     0.162 A 
ATOM      4  C3  UNL d   1      -0.330  -0.309   0.499  0.00  0.00    -0.034 A 
ATOM      5  C4  UNL d   1       0.110  -1.617   0.289  0.00  0.00     0.162 A 
ATOM      6  C5  UNL d   1       1.016  -1.897  -0.728  0.00  0.00     0.062 A 
ATOM      7  F   UNL d   1       1.434  -3.157  -0.922  0.00  0.00    -0.097 F 
ATOM      8  F1  UNL d   1      -0.330  -2.621   1.062  0.00  0.00    -0.096 F 
ATOM      9  I   UNL d   1      -1.686   0.115   2.020  0.00  0.00    -0.060 I 
ATOM     10  F2  UNL d   1      -0.253   1.979  -0.151  0.00  0.00    -0.096 F 
ATOM     11  F3  UNL d   1       1.510   1.411  -2.127  0.00  0.00    -0.097 F 
ATOM     12  F4  UNL d   1       2.361  -1.151  -2.522  0.00  0.00    -0.092 F 
ENDROOT
TORSDOF 0
ENDMDL
