MODEL 1
REMARK minimizedAffinity 1.34394276
REMARK minimizedRMSD -1
REMARK  0 active torsions:
REMARK  status: ('A' for Active; 'I' for Inactive)
ROOT
ATOM      1  C   UNL d   1      -4.050   0.452   2.226  0.00  0.00     0.124 A 
ATOM      2  C1  UNL d   1      -3.619  -0.311   1.150  0.00  0.00     0.062 A 
ATOM      3  C2  UNL d   1      -2.326  -0.161   0.658  0.00  0.00     0.162 A 
ATOM      4  C3  UNL d   1      -1.453   0.757   1.242  0.00  0.00    -0.034 A 
ATOM      5  C4  UNL d   1      -1.894   1.522   2.323  0.00  0.00     0.162 A 
ATOM      6  C5  UNL d   1      -3.187   1.368   2.811  0.00  0.00     0.062 A 
ATOM      7  F   UNL d   1      -3.602   2.107   3.851  0.00  0.00    -0.097 F 
ATOM      8  F1  UNL d   1      -1.081   2.414   2.909  0.00  0.00    -0.096 F 
ATOM      9  I   UNL d   1       0.482   0.985   0.510  0.00  0.00    -0.060 I 
ATOM     10  F2  UNL d   1      -1.937  -0.912  -0.383  0.00  0.00    -0.096 F 
ATOM     11  F3  UNL d   1      -4.451  -1.196   0.582  0.00  0.00    -0.097 F 
ATOM     12  F4  UNL d   1      -5.295   0.306   2.696  0.00  0.00    -0.092 F 
ENDROOT
TORSDOF 0
ENDMDL
