MODEL 1
REMARK minimizedAffinity -3.38470292
REMARK minimizedRMSD -1
REMARK  0 active torsions:
REMARK  status: ('A' for Active; 'I' for Inactive)
ROOT
ATOM      1  C   UNL d   1       1.877  -1.148  -1.404  0.00  0.00     0.124 A 
ATOM      2  C1  UNL d   1       1.333  -2.072  -0.523  0.00  0.00     0.062 A 
ATOM      3  C2  UNL d   1       0.364  -1.677   0.396  0.00  0.00     0.162 A 
ATOM      4  C3  UNL d   1      -0.067  -0.351   0.437  0.00  0.00    -0.034 A 
ATOM      5  C4  UNL d   1       0.486   0.573  -0.452  0.00  0.00     0.162 A 
ATOM      6  C5  UNL d   1       1.454   0.173  -1.367  0.00  0.00     0.062 A 
ATOM      7  F   UNL d   1       1.979   1.067  -2.218  0.00  0.00    -0.097 F 
ATOM      8  F1  UNL d   1       0.095   1.856  -0.439  0.00  0.00    -0.096 F 
ATOM      9  I   UNL d   1      -1.515   0.244   1.808  0.00  0.00    -0.060 I 
ATOM     10  F2  UNL d   1      -0.145  -2.591   1.235  0.00  0.00    -0.096 F 
ATOM     11  F3  UNL d   1       1.741  -3.349  -0.555  0.00  0.00    -0.097 F 
ATOM     12  F4  UNL d   1       2.810  -1.531  -2.285  0.00  0.00    -0.092 F 
ENDROOT
TORSDOF 0
ENDMDL
