MODEL 1
REMARK minimizedAffinity 0.735634148
REMARK minimizedRMSD -1
REMARK  0 active torsions:
REMARK  status: ('A' for Active; 'I' for Inactive)
ROOT
ATOM      1  C   UNL d   1       1.519  -0.530  -1.319  0.00  0.00     0.124 A 
ATOM      2  C1  UNL d   1       0.780  -1.523  -0.691  0.00  0.00     0.062 A 
ATOM      3  C2  UNL d   1      -0.184  -1.187   0.255  0.00  0.00     0.162 A 
ATOM      4  C3  UNL d   1      -0.416   0.150   0.578  0.00  0.00    -0.034 A 
ATOM      5  C4  UNL d   1       0.332   1.144  -0.057  0.00  0.00     0.162 A 
ATOM      6  C5  UNL d   1       1.294   0.802  -1.002  0.00  0.00     0.062 A 
ATOM      7  F   UNL d   1       2.007   1.763  -1.608  0.00  0.00    -0.097 F 
ATOM      8  F1  UNL d   1       0.135   2.439   0.230  0.00  0.00    -0.096 F 
ATOM      9  I   UNL d   1      -1.856   0.658   1.992  0.00  0.00    -0.060 I 
ATOM     10  F2  UNL d   1      -0.883  -2.167   0.846  0.00  0.00    -0.096 F 
ATOM     11  F3  UNL d   1       0.996  -2.811  -0.995  0.00  0.00    -0.097 F 
ATOM     12  F4  UNL d   1       2.446  -0.857  -2.228  0.00  0.00    -0.092 F 
ENDROOT
TORSDOF 0
ENDMDL
