MODEL 1
REMARK minimizedAffinity -1.36483121
REMARK minimizedRMSD -1
REMARK  0 active torsions:
REMARK  status: ('A' for Active; 'I' for Inactive)
ROOT
ATOM      1  C   UNL d   1       1.810  -1.177  -1.331  0.00  0.00     0.124 A 
ATOM      2  C1  UNL d   1       1.152  -2.065  -0.491  0.00  0.00     0.062 A 
ATOM      3  C2  UNL d   1       0.243  -1.595   0.452  0.00  0.00     0.162 A 
ATOM      4  C3  UNL d   1      -0.015  -0.228   0.560  0.00  0.00    -0.034 A 
ATOM      5  C4  UNL d   1       0.651   0.659  -0.287  0.00  0.00     0.162 A 
ATOM      6  C5  UNL d   1       1.559   0.184  -1.228  0.00  0.00     0.062 A 
ATOM      7  F   UNL d   1       2.193   1.044  -2.039  0.00  0.00    -0.097 F 
ATOM      8  F1  UNL d   1       0.427   1.980  -0.211  0.00  0.00    -0.096 F 
ATOM      9  I   UNL d   1      -1.374   0.480   1.969  0.00  0.00    -0.060 I 
ATOM     10  F2  UNL d   1      -0.378  -2.476   1.251  0.00  0.00    -0.096 F 
ATOM     11  F3  UNL d   1       1.394  -3.381  -0.587  0.00  0.00    -0.097 F 
ATOM     12  F4  UNL d   1       2.685  -1.633  -2.236  0.00  0.00    -0.092 F 
ENDROOT
TORSDOF 0
ENDMDL
