MODEL 1
REMARK minimizedAffinity 1.55431831
REMARK minimizedRMSD -1
REMARK  0 active torsions:
REMARK  status: ('A' for Active; 'I' for Inactive)
ROOT
ATOM      1  C   UNL d   1       1.736  -1.218  -1.400  0.00  0.00     0.124 A 
ATOM      2  C1  UNL d   1       0.847  -2.061  -0.747  0.00  0.00     0.062 A 
ATOM      3  C2  UNL d   1      -0.026  -1.551   0.209  0.00  0.00     0.162 A 
ATOM      4  C3  UNL d   1      -0.017  -0.191   0.517  0.00  0.00    -0.034 A 
ATOM      5  C4  UNL d   1       0.880   0.650  -0.143  0.00  0.00     0.162 A 
ATOM      6  C5  UNL d   1       1.752   0.136  -1.098  0.00  0.00     0.062 A 
ATOM      7  F   UNL d   1       2.609   0.952  -1.729  0.00  0.00    -0.097 F 
ATOM      8  F1  UNL d   1       0.916   1.963   0.128  0.00  0.00    -0.096 F 
ATOM      9  I   UNL d   1      -1.321   0.575   1.946  0.00  0.00    -0.060 I 
ATOM     10  F2  UNL d   1      -0.874  -2.389   0.825  0.00  0.00    -0.096 F 
ATOM     11  F3  UNL d   1       0.831  -3.370  -1.036  0.00  0.00    -0.097 F 
ATOM     12  F4  UNL d   1       2.576  -1.712  -2.319  0.00  0.00    -0.092 F 
ENDROOT
TORSDOF 0
ENDMDL
