MODEL 1
REMARK minimizedAffinity 0.76577431
REMARK minimizedRMSD -1
REMARK  0 active torsions:
REMARK  status: ('A' for Active; 'I' for Inactive)
ROOT
ATOM      1  C   UNL d   1       2.398  -0.786  -1.342  0.00  0.00     0.124 A 
ATOM      2  C1  UNL d   1       2.060   0.549  -1.174  0.00  0.00     0.062 A 
ATOM      3  C2  UNL d   1       0.935   0.899  -0.433  0.00  0.00     0.162 A 
ATOM      4  C3  UNL d   1       0.139  -0.089   0.147  0.00  0.00    -0.034 A 
ATOM      5  C4  UNL d   1       0.484  -1.431  -0.027  0.00  0.00     0.162 A 
ATOM      6  C5  UNL d   1       1.610  -1.775  -0.769  0.00  0.00     0.062 A 
ATOM      7  F   UNL d   1       1.935  -3.066  -0.930  0.00  0.00    -0.097 F 
ATOM      8  F1  UNL d   1      -0.259  -2.406   0.516  0.00  0.00    -0.096 F 
ATOM      9  I   UNL d   1      -1.545   0.429   1.256  0.00  0.00    -0.060 I 
ATOM     10  F2  UNL d   1       0.632   2.197  -0.287  0.00  0.00    -0.096 F 
ATOM     11  F3  UNL d   1       2.819   1.506  -1.727  0.00  0.00    -0.097 F 
ATOM     12  F4  UNL d   1       3.480  -1.120  -2.056  0.00  0.00    -0.092 F 
ENDROOT
TORSDOF 0
ENDMDL
