MODEL 1
REMARK minimizedAffinity 18.5955734
REMARK minimizedRMSD -1
REMARK  0 active torsions:
REMARK  status: ('A' for Active; 'I' for Inactive)
ROOT
ATOM      1  C   UNL d   1       1.939   0.598  -2.151  0.00  0.00     0.124 A 
ATOM      2  C1  UNL d   1       1.001   1.548  -2.533  0.00  0.00     0.062 A 
ATOM      3  C2  UNL d   1       0.835   2.708  -1.783  0.00  0.00     0.162 A 
ATOM      4  C3  UNL d   1       1.609   2.926  -0.643  0.00  0.00    -0.034 A 
ATOM      5  C4  UNL d   1       2.549   1.966  -0.264  0.00  0.00     0.162 A 
ATOM      6  C5  UNL d   1       2.711   0.808  -1.017  0.00  0.00     0.062 A 
ATOM      7  F   UNL d   1       3.617  -0.109  -0.647  0.00  0.00    -0.097 F 
ATOM      8  F1  UNL d   1       3.309   2.144   0.826  0.00  0.00    -0.096 F 
ATOM      9  I   UNL d   1       1.363   4.661   0.482  0.00  0.00    -0.060 I 
ATOM     10  F2  UNL d   1      -0.078   3.609  -2.175  0.00  0.00    -0.096 F 
ATOM     11  F3  UNL d   1       0.253   1.347  -3.627  0.00  0.00    -0.097 F 
ATOM     12  F4  UNL d   1       2.096  -0.518  -2.874  0.00  0.00    -0.092 F 
ENDROOT
TORSDOF 0
ENDMDL
