MODEL 1
REMARK minimizedAffinity 2.17015576
REMARK minimizedRMSD -1
REMARK  0 active torsions:
REMARK  status: ('A' for Active; 'I' for Inactive)
ROOT
ATOM      1  C   UNL d   1       1.246  -1.176  -0.908  0.00  0.00     0.124 A 
ATOM      2  C1  UNL d   1       0.940   0.177  -0.956  0.00  0.00     0.062 A 
ATOM      3  C2  UNL d   1      -0.052   0.700  -0.132  0.00  0.00     0.162 A 
ATOM      4  C3  UNL d   1      -0.746  -0.130   0.748  0.00  0.00    -0.034 A 
ATOM      5  C4  UNL d   1      -0.434  -1.490   0.790  0.00  0.00     0.162 A 
ATOM      6  C5  UNL d   1       0.558  -2.008  -0.036  0.00  0.00     0.062 A 
ATOM      7  F   UNL d   1       0.852  -3.316   0.012  0.00  0.00    -0.097 F 
ATOM      8  F1  UNL d   1      -1.082  -2.317   1.624  0.00  0.00    -0.096 F 
ATOM      9  I   UNL d   1      -2.231   0.648   1.982  0.00  0.00    -0.060 I 
ATOM     10  F2  UNL d   1      -0.326   2.012  -0.199  0.00  0.00    -0.096 F 
ATOM     11  F3  UNL d   1       1.602   0.983  -1.798  0.00  0.00    -0.097 F 
ATOM     12  F4  UNL d   1       2.200  -1.677  -1.703  0.00  0.00    -0.092 F 
ENDROOT
TORSDOF 0
ENDMDL
