MODEL 1
REMARK minimizedAffinity -3.70147371
REMARK minimizedRMSD -1
REMARK  0 active torsions:
REMARK  status: ('A' for Active; 'I' for Inactive)
ROOT
ATOM      1  N1  IND d   1       2.675  -0.283   0.304  0.00  0.00    -0.196 N 
ATOM      2  C2  IND d   1       3.086  -1.552   0.003  0.00  0.00     0.054 A 
ATOM      3  C3  IND d   1       2.032  -2.308  -0.379  0.00  0.00    -0.031 A 
ATOM      4  C4  IND d   1      -0.436  -1.643  -0.679  0.00  0.00     0.051 A 
ATOM      5  C5  IND d   1      -1.302  -0.602  -0.491  0.00  0.00    -0.031 A 
ATOM      6  C6  IND d   1      -0.877   0.624  -0.022  0.00  0.00     0.015 A 
ATOM      7  C7  IND d   1       0.437   0.860   0.268  0.00  0.00    -0.016 A 
ATOM      8  C8  IND d   1       1.318  -0.197   0.085  0.00  0.00    -0.047 A 
ATOM      9  C9  IND d   1       0.886  -1.456  -0.351  0.00  0.00    -0.096 A 
ATOM     10  HN1 IND d   1       3.180   0.355   0.583  0.00  0.00     0.298 HD
ENDROOT
TORSDOF 0
ENDMDL
