MODEL 1
REMARK minimizedAffinity 0.302771747
REMARK minimizedRMSD -1
REMARK  0 active torsions:
REMARK  status: ('A' for Active; 'I' for Inactive)
ROOT
ATOM      1  N1  IND d   1      -2.626   1.739   2.475  0.00  0.00    -0.196 N 
ATOM      2  C2  IND d   1      -3.869   1.225   2.230  0.00  0.00     0.054 A 
ATOM      3  C3  IND d   1      -3.846   0.448   1.123  0.00  0.00    -0.031 A 
ATOM      4  C4  IND d   1      -1.859  -0.201  -0.379  0.00  0.00     0.051 A 
ATOM      5  C5  IND d   1      -0.530   0.051  -0.576  0.00  0.00    -0.031 A 
ATOM      6  C6  IND d   1       0.183   0.893   0.253  0.00  0.00     0.015 A 
ATOM      7  C7  IND d   1      -0.407   1.509   1.321  0.00  0.00    -0.016 A 
ATOM      8  C8  IND d   1      -1.757   1.261   1.519  0.00  0.00    -0.047 A 
ATOM      9  C9  IND d   1      -2.496   0.441   0.657  0.00  0.00    -0.096 A 
ATOM     10  HN1 IND d   1      -2.422   2.271   3.119  0.00  0.00     0.298 HD
ENDROOT
TORSDOF 0
ENDMDL
