MODEL 1
REMARK minimizedAffinity -2.97013712
REMARK minimizedRMSD -1
REMARK  0 active torsions:
REMARK  status: ('A' for Active; 'I' for Inactive)
ROOT
ATOM      1  N1  IND d   1       0.647  -0.840  -0.251  0.00  0.00    -0.196 N 
ATOM      2  C2  IND d   1       0.598  -2.136   0.182  0.00  0.00     0.054 A 
ATOM      3  C3  IND d   1      -0.618  -2.411   0.706  0.00  0.00    -0.031 A 
ATOM      4  C4  IND d   1      -2.709  -0.916   0.861  0.00  0.00     0.051 A 
ATOM      5  C5  IND d   1      -3.140   0.360   0.631  0.00  0.00    -0.031 A 
ATOM      6  C6  IND d   1      -2.315   1.320   0.081  0.00  0.00     0.015 A 
ATOM      7  C7  IND d   1      -1.026   1.035  -0.270  0.00  0.00    -0.016 A 
ATOM      8  C8  IND d   1      -0.583  -0.258  -0.031  0.00  0.00    -0.047 A 
ATOM      9  C9  IND d   1      -1.402  -1.225   0.565  0.00  0.00    -0.096 A 
ATOM     10  HN1 IND d   1       1.330  -0.453  -0.601  0.00  0.00     0.298 HD
ENDROOT
TORSDOF 0
ENDMDL
