MODEL 1
REMARK minimizedAffinity -4.6307168
REMARK minimizedRMSD -1
REMARK  0 active torsions:
REMARK  status: ('A' for Active; 'I' for Inactive)
ROOT
ATOM      1  N1  IND d   1       0.895   1.954   0.060  0.00  0.00    -0.196 N 
ATOM      2  C2  IND d   1      -0.299   2.046  -0.598  0.00  0.00     0.054 A 
ATOM      3  C3  IND d   1      -0.685   0.830  -1.046  0.00  0.00    -0.031 A 
ATOM      4  C4  IND d   1       0.440  -1.463  -0.723  0.00  0.00     0.051 A 
ATOM      5  C5  IND d   1       1.569  -2.048  -0.222  0.00  0.00    -0.031 A 
ATOM      6  C6  IND d   1       2.549  -1.315   0.415  0.00  0.00     0.015 A 
ATOM      7  C7  IND d   1       2.431   0.036   0.584  0.00  0.00    -0.016 A 
ATOM      8  C8  IND d   1       1.290   0.634   0.070  0.00  0.00    -0.047 A 
ATOM      9  C9  IND d   1       0.312  -0.099  -0.615  0.00  0.00    -0.096 A 
ATOM     10  HN1 IND d   1       1.328   2.610   0.409  0.00  0.00     0.298 HD
ENDROOT
TORSDOF 0
ENDMDL
