MODEL 1
REMARK minimizedAffinity -1.11238122
REMARK minimizedRMSD -1
REMARK  0 active torsions:
REMARK  status: ('A' for Active; 'I' for Inactive)
ROOT
ATOM      1  N1  IND d   1      -0.224   1.458  -0.435  0.00  0.00    -0.196 N 
ATOM      2  C2  IND d   1      -1.534   1.080  -0.347  0.00  0.00     0.054 A 
ATOM      3  C3  IND d   1      -1.635  -0.268  -0.337  0.00  0.00    -0.031 A 
ATOM      4  C4  IND d   1       0.225  -2.047  -0.356  0.00  0.00     0.051 A 
ATOM      5  C5  IND d   1       1.580  -2.188  -0.469  0.00  0.00    -0.031 A 
ATOM      6  C6  IND d   1       2.420  -1.099  -0.575  0.00  0.00     0.015 A 
ATOM      7  C7  IND d   1       1.935   0.178  -0.562  0.00  0.00    -0.016 A 
ATOM      8  C8  IND d   1       0.559   0.325  -0.455  0.00  0.00    -0.047 A 
ATOM      9  C9  IND d   1      -0.302  -0.778  -0.389  0.00  0.00    -0.096 A 
ATOM     10  HN1 IND d   1       0.064   2.268  -0.472  0.00  0.00     0.298 HD
ENDROOT
TORSDOF 0
ENDMDL
