MODEL 1
REMARK minimizedAffinity -2.74411154
REMARK minimizedRMSD -1
REMARK  0 active torsions:
REMARK  status: ('A' for Active; 'I' for Inactive)
ROOT
ATOM      1  N1  IND d   1       0.020   1.371  -0.373  0.00  0.00    -0.196 N 
ATOM      2  C2  IND d   1      -0.649   0.290  -0.876  0.00  0.00     0.054 A 
ATOM      3  C3  IND d   1       0.150  -0.800  -0.875  0.00  0.00    -0.031 A 
ATOM      4  C4  IND d   1       2.556  -1.064   0.000  0.00  0.00     0.051 A 
ATOM      5  C5  IND d   1       3.599  -0.347   0.517  0.00  0.00    -0.031 A 
ATOM      6  C6  IND d   1       3.499   1.005   0.770  0.00  0.00     0.015 A 
ATOM      7  C7  IND d   1       2.344   1.693   0.527  0.00  0.00    -0.016 A 
ATOM      8  C8  IND d   1       1.285   0.970  -0.004  0.00  0.00    -0.047 A 
ATOM      9  C9  IND d   1       1.394  -0.394  -0.304  0.00  0.00    -0.096 A 
ATOM     10  HN1 IND d   1      -0.296   2.167  -0.300  0.00  0.00     0.298 HD
ENDROOT
TORSDOF 0
ENDMDL
