MODEL 1
REMARK minimizedAffinity -5.3207078
REMARK minimizedRMSD -1
REMARK  0 active torsions:
REMARK  status: ('A' for Active; 'I' for Inactive)
ROOT
ATOM      1  N1  IND d   1       0.196   1.665   0.443  0.00  0.00    -0.196 N 
ATOM      2  C2  IND d   1      -0.944   1.600  -0.309  0.00  0.00     0.054 A 
ATOM      3  C3  IND d   1      -1.023   0.408  -0.941  0.00  0.00    -0.031 A 
ATOM      4  C4  IND d   1       0.554  -1.622  -0.807  0.00  0.00     0.051 A 
ATOM      5  C5  IND d   1       1.748  -2.026  -0.278  0.00  0.00    -0.031 A 
ATOM      6  C6  IND d   1       2.499  -1.204   0.537  0.00  0.00     0.015 A 
ATOM      7  C7  IND d   1       2.077   0.054   0.864  0.00  0.00    -0.016 A 
ATOM      8  C8  IND d   1       0.869   0.469   0.323  0.00  0.00    -0.047 A 
ATOM      9  C9  IND d   1       0.122  -0.345  -0.539  0.00  0.00    -0.096 A 
ATOM     10  HN1 IND d   1       0.450   2.340   0.912  0.00  0.00     0.298 HD
ENDROOT
TORSDOF 0
ENDMDL
