MODEL 1
REMARK minimizedAffinity -2.45063257
REMARK minimizedRMSD -1
REMARK  1 active torsions:
REMARK  status: ('A' for Active; 'I' for Inactive)
REMARK    1  A    between atoms: N_2  and  C1_3 
ROOT
ATOM      1  C1  UNL d   1      -0.046  -0.427  -0.718  0.00  0.00     0.143 A 
ATOM      2  C2  UNL d   1      -1.254  -0.141  -0.072  0.00  0.00    -0.057 A 
ATOM      3  C3  UNL d   1      -1.345  -0.126   1.325  0.00  0.00     0.033 A 
ATOM      4  C4  UNL d   1      -0.232  -0.427   2.104  0.00  0.00    -0.042 A 
ATOM      5  C5  UNL d   1       0.972  -0.739   1.484  0.00  0.00     0.033 A 
ATOM      6  C6  UNL d   1       1.058  -0.746   0.088  0.00  0.00    -0.057 A 
ENDROOT
BRANCH   1   7
ATOM      7  N   UNL d   1       0.084  -0.554  -2.103  0.00  0.00    -0.732 N 
ATOM      8  C   UNL d   1       0.906   0.370  -2.853  0.00  0.00     0.284 C 
ATOM      9  H3  UNL d   1       0.174  -1.524  -2.397  0.00  0.00     0.395 HD
ENDBRANCH   1   7
TORSDOF 1
ENDMDL
