MODEL 1
REMARK minimizedAffinity -1.65848911
REMARK minimizedRMSD -1
REMARK  1 active torsions:
REMARK  status: ('A' for Active; 'I' for Inactive)
REMARK    1  A    between atoms: N_2  and  C1_3 
ROOT
ATOM      1  C1  UNL d   1      -0.065  -0.225   2.380  0.00  0.00     0.143 A 
ATOM      2  C2  UNL d   1      -1.362   0.272   2.542  0.00  0.00    -0.057 A 
ATOM      3  C3  UNL d   1      -2.195   0.503   1.440  0.00  0.00     0.033 A 
ATOM      4  C4  UNL d   1      -1.732   0.266   0.150  0.00  0.00    -0.042 A 
ATOM      5  C5  UNL d   1      -0.437  -0.205  -0.037  0.00  0.00     0.033 A 
ATOM      6  C6  UNL d   1       0.387  -0.439   1.068  0.00  0.00    -0.057 A 
ENDROOT
BRANCH   1   7
ATOM      7  N   UNL d   1       0.845  -0.382   3.429  0.00  0.00    -0.732 N 
ATOM      8  C   UNL d   1       2.221  -0.742   3.163  0.00  0.00     0.284 C 
ATOM      9  H3  UNL d   1       0.733   0.327   4.149  0.00  0.00     0.395 HD
ENDBRANCH   1   7
TORSDOF 1
ENDMDL
