MODEL 1
REMARK minimizedAffinity -0.679111421
REMARK minimizedRMSD -1
REMARK  1 active torsions:
REMARK  status: ('A' for Active; 'I' for Inactive)
REMARK    1  A    between atoms: N_2  and  C1_3 
ROOT
ATOM      1  C1  UNL d   1       0.323  -0.084  -0.912  0.00  0.00     0.143 A 
ATOM      2  C2  UNL d   1       0.761  -0.211   0.411  0.00  0.00    -0.057 A 
ATOM      3  C3  UNL d   1      -0.137  -0.144   1.482  0.00  0.00     0.033 A 
ATOM      4  C4  UNL d   1      -1.490   0.081   1.251  0.00  0.00    -0.042 A 
ATOM      5  C5  UNL d   1      -1.944   0.235  -0.054  0.00  0.00     0.033 A 
ATOM      6  C6  UNL d   1      -1.043   0.160  -1.121  0.00  0.00    -0.057 A 
ENDROOT
BRANCH   1   7
ATOM      7  N   UNL d   1       1.180  -0.043  -2.015  0.00  0.00    -0.732 N 
ATOM      8  C   UNL d   1       0.649  -0.030  -3.361  0.00  0.00     0.284 C 
ATOM      9  H3  UNL d   1       1.967   0.585  -1.872  0.00  0.00     0.395 HD
ENDBRANCH   1   7
TORSDOF 1
ENDMDL
