MODEL 1
REMARK minimizedAffinity 4.26253223
REMARK minimizedRMSD -1
REMARK  1 active torsions:
REMARK  status: ('A' for Active; 'I' for Inactive)
REMARK    1  A    between atoms: N_2  and  C1_3 
ROOT
ATOM      1  C1  UNL d   1      -0.506   0.244  -4.933  0.00  0.00     0.143 A 
ATOM      2  C2  UNL d   1      -1.512   0.133  -5.899  0.00  0.00    -0.057 A 
ATOM      3  C3  UNL d   1      -2.299  -1.021  -5.999  0.00  0.00     0.033 A 
ATOM      4  C4  UNL d   1      -2.072  -2.100  -5.151  0.00  0.00    -0.042 A 
ATOM      5  C5  UNL d   1      -1.061  -2.021  -4.199  0.00  0.00     0.033 A 
ATOM      6  C6  UNL d   1      -0.284  -0.864  -4.100  0.00  0.00    -0.057 A 
ENDROOT
BRANCH   1   7
ATOM      7  N   UNL d   1       0.374   1.325  -4.848  0.00  0.00    -0.732 N 
ATOM      8  C   UNL d   1       1.726   1.139  -4.366  0.00  0.00     0.284 C 
ATOM      9  H3  UNL d   1       0.300   1.950  -5.647  0.00  0.00     0.395 HD
ENDBRANCH   1   7
TORSDOF 1
ENDMDL
