MODEL 1
REMARK minimizedAffinity -3.50363755
REMARK minimizedRMSD -1
REMARK  1 active torsions:
REMARK  status: ('A' for Active; 'I' for Inactive)
REMARK    1  A    between atoms: N_2  and  C1_3 
ROOT
ATOM      1  C1  UNL d   1       0.035  -0.217   1.967  0.00  0.00     0.143 A 
ATOM      2  C2  UNL d   1       0.238  -0.729   0.681  0.00  0.00    -0.057 A 
ATOM      3  C3  UNL d   1      -0.697  -0.520  -0.340  0.00  0.00     0.033 A 
ATOM      4  C4  UNL d   1      -1.870   0.182  -0.084  0.00  0.00    -0.042 A 
ATOM      5  C5  UNL d   1      -2.105   0.679   1.193  0.00  0.00     0.033 A 
ATOM      6  C6  UNL d   1      -1.164   0.473   2.207  0.00  0.00    -0.057 A 
ENDROOT
BRANCH   1   7
ATOM      7  N   UNL d   1       0.879  -0.474   3.050  0.00  0.00    -0.732 N 
ATOM      8  C   UNL d   1       2.268  -0.820   2.835  0.00  0.00     0.284 C 
ATOM      9  H3  UNL d   1       0.725   0.168   3.824  0.00  0.00     0.395 HD
ENDBRANCH   1   7
TORSDOF 1
ENDMDL
