MODEL 1
REMARK minimizedAffinity -2.74812651
REMARK minimizedRMSD -1
REMARK  1 active torsions:
REMARK  status: ('A' for Active; 'I' for Inactive)
REMARK    1  A    between atoms: N_2  and  C1_3 
ROOT
ATOM      1  C1  UNL d   1      -0.924   0.403   1.524  0.00  0.00     0.143 A 
ATOM      2  C2  UNL d   1      -1.170   0.647   2.879  0.00  0.00    -0.057 A 
ATOM      3  C3  UNL d   1      -0.189   0.409   3.849  0.00  0.00     0.033 A 
ATOM      4  C4  UNL d   1       1.050  -0.107   3.482  0.00  0.00    -0.042 A 
ATOM      5  C5  UNL d   1       1.308  -0.381   2.144  0.00  0.00     0.033 A 
ATOM      6  C6  UNL d   1       0.326  -0.135   1.179  0.00  0.00    -0.057 A 
ENDROOT
BRANCH   1   7
ATOM      7  N   UNL d   1      -1.892   0.525   0.523  0.00  0.00    -0.732 N 
ATOM      8  C   UNL d   1      -2.027  -0.489  -0.500  0.00  0.00     0.284 C 
ATOM      9  H3  UNL d   1      -2.777   0.876   0.881  0.00  0.00     0.395 HD
ENDBRANCH   1   7
TORSDOF 1
ENDMDL
