MODEL 1
REMARK minimizedAffinity 2.41180277
REMARK minimizedRMSD -1
REMARK  1 active torsions:
REMARK  status: ('A' for Active; 'I' for Inactive)
REMARK    1  A    between atoms: N_2  and  C1_3 
ROOT
ATOM      1  C1  UNL d   1      -1.408  -0.220   1.537  0.00  0.00     0.143 A 
ATOM      2  C2  UNL d   1      -2.050  -0.846   0.463  0.00  0.00    -0.057 A 
ATOM      3  C3  UNL d   1      -1.494  -0.834  -0.822  0.00  0.00     0.033 A 
ATOM      4  C4  UNL d   1      -0.296  -0.169  -1.063  0.00  0.00    -0.042 A 
ATOM      5  C5  UNL d   1       0.347   0.482  -0.016  0.00  0.00     0.033 A 
ATOM      6  C6  UNL d   1      -0.210   0.461   1.267  0.00  0.00    -0.057 A 
ENDROOT
BRANCH   1   7
ATOM      7  N   UNL d   1      -1.958  -0.112   2.816  0.00  0.00    -0.732 N 
ATOM      8  C   UNL d   1      -2.792  -1.166   3.351  0.00  0.00     0.284 C 
ATOM      9  H3  UNL d   1      -1.304   0.282   3.488  0.00  0.00     0.395 HD
ENDBRANCH   1   7
TORSDOF 1
ENDMDL
