MODEL 1
REMARK minimizedAffinity -2.23012447
REMARK minimizedRMSD -1
REMARK  0 active torsions:
REMARK  status: ('A' for Active; 'I' for Inactive)
ROOT
ATOM      1  C4' PXY d   1       0.549  -4.626   3.833  0.00  0.00     0.077 C 
ATOM      2  C1' PXY d   1       2.870   0.235   1.733  0.00  0.00     0.077 C 
ATOM      3  C1  PXY d   1       2.252  -1.039   2.275  0.00  0.00    -0.082 A 
ATOM      4  C2  PXY d   1       2.451  -1.377   3.539  0.00  0.00     0.003 A 
ATOM      5  C3  PXY d   1       1.926  -2.542   4.036  0.00  0.00     0.003 A 
ATOM      6  C4  PXY d   1       1.146  -3.343   3.246  0.00  0.00    -0.082 A 
ATOM      7  C5  PXY d   1       0.930  -3.000   1.958  0.00  0.00     0.003 A 
ATOM      8  C6  PXY d   1       1.505  -1.835   1.461  0.00  0.00     0.003 A 
ENDROOT
TORSDOF 0
ENDMDL
