MODEL 1
REMARK minimizedAffinity 11.2783232
REMARK minimizedRMSD -1
REMARK  0 active torsions:
REMARK  status: ('A' for Active; 'I' for Inactive)
ROOT
ATOM      1  C4' PXY d   1       6.000  -4.626   6.000  0.00  0.00     0.077 C 
ATOM      2  C1' PXY d   1       2.388  -0.531   4.103  0.00  0.00     0.077 C 
ATOM      3  C1  PXY d   1       3.345  -1.597   4.598  0.00  0.00    -0.082 A 
ATOM      4  C2  PXY d   1       2.952  -2.860   4.643  0.00  0.00     0.003 A 
ATOM      5  C3  PXY d   1       3.794  -3.832   5.117  0.00  0.00     0.003 A 
ATOM      6  C4  PXY d   1       5.070  -3.517   5.499  0.00  0.00    -0.082 A 
ATOM      7  C5  PXY d   1       5.483  -2.233   5.446  0.00  0.00     0.003 A 
ATOM      8  C6  PXY d   1       4.599  -1.255   5.001  0.00  0.00     0.003 A 
ENDROOT
TORSDOF 0
ENDMDL
