MODEL 1
REMARK minimizedAffinity 5.86571264
REMARK minimizedRMSD -1
REMARK  0 active torsions:
REMARK  status: ('A' for Active; 'I' for Inactive)
ROOT
ATOM      1  C4' PXY d   1       1.949  -0.469   2.933  0.00  0.00     0.077 C 
ATOM      2  C1' PXY d   1       6.000  -3.226   6.000  0.00  0.00     0.077 C 
ATOM      3  C1  PXY d   1       4.928  -2.510   5.201  0.00  0.00    -0.082 A 
ATOM      4  C2  PXY d   1       5.255  -1.886   4.081  0.00  0.00     0.003 A 
ATOM      5  C3  PXY d   1       4.304  -1.207   3.363  0.00  0.00     0.003 A 
ATOM      6  C4  PXY d   1       2.996  -1.212   3.767  0.00  0.00    -0.082 A 
ATOM      7  C5  PXY d   1       2.653  -1.856   4.903  0.00  0.00     0.003 A 
ATOM      8  C6  PXY d   1       3.640  -2.505   5.639  0.00  0.00     0.003 A 
ENDROOT
TORSDOF 0
ENDMDL
