MODEL 1
REMARK minimizedAffinity 11.35742
REMARK minimizedRMSD -1
REMARK  0 active torsions:
REMARK  status: ('A' for Active; 'I' for Inactive)
ROOT
ATOM      1  C4' PXY d   1       2.977   2.483   1.510  0.00  0.00     0.077 C 
ATOM      2  C1' PXY d   1       1.591  -2.355   4.354  0.00  0.00     0.077 C 
ATOM      3  C1  PXY d   1       1.948  -1.079   3.617  0.00  0.00    -0.082 A 
ATOM      4  C2  PXY d   1       2.276  -1.134   2.336  0.00  0.00     0.003 A 
ATOM      5  C3  PXY d   1       2.633   0.006   1.663  0.00  0.00     0.003 A 
ATOM      6  C4  PXY d   1       2.601   1.221   2.292  0.00  0.00    -0.082 A 
ATOM      7  C5  PXY d   1       2.256   1.287   3.596  0.00  0.00     0.003 A 
ATOM      8  C6  PXY d   1       1.938   0.113   4.273  0.00  0.00     0.003 A 
ENDROOT
TORSDOF 0
ENDMDL
