MODEL 1
REMARK minimizedAffinity 13.9320364
REMARK minimizedRMSD -1
REMARK  0 active torsions:
REMARK  status: ('A' for Active; 'I' for Inactive)
ROOT
ATOM      1  C4' PXY d   1       1.024  -1.638   3.213  0.00  0.00     0.077 C 
ATOM      2  C1' PXY d   1       5.999  -2.588   6.000  0.00  0.00     0.077 C 
ATOM      3  C1  PXY d   1       4.687  -2.344   5.279  0.00  0.00    -0.082 A 
ATOM      4  C2  PXY d   1       4.682  -2.195   3.964  0.00  0.00     0.003 A 
ATOM      5  C3  PXY d   1       3.509  -1.942   3.300  0.00  0.00     0.003 A 
ATOM      6  C4  PXY d   1       2.323  -1.895   3.982  0.00  0.00    -0.082 A 
ATOM      7  C5  PXY d   1       2.319  -2.057   5.322  0.00  0.00     0.003 A 
ATOM      8  C6  PXY d   1       3.525  -2.272   5.982  0.00  0.00     0.003 A 
ENDROOT
TORSDOF 0
ENDMDL
