MODEL 1
REMARK minimizedAffinity 0.579867542
REMARK minimizedRMSD -1
REMARK  0 active torsions:
REMARK  status: ('A' for Active; 'I' for Inactive)
ROOT
ATOM      1  C4' PXY d   1       6.000  -3.002   6.000  0.00  0.00     0.077 C 
ATOM      2  C1' PXY d   1       1.944  -1.235   2.279  0.00  0.00     0.077 C 
ATOM      3  C1  PXY d   1       2.999  -1.696   3.264  0.00  0.00    -0.082 A 
ATOM      4  C2  PXY d   1       4.280  -1.583   2.952  0.00  0.00     0.003 A 
ATOM      5  C3  PXY d   1       5.247  -2.025   3.819  0.00  0.00     0.003 A 
ATOM      6  C4  PXY d   1       4.900  -2.540   5.039  0.00  0.00    -0.082 A 
ATOM      7  C5  PXY d   1       3.596  -2.649   5.369  0.00  0.00     0.003 A 
ATOM      8  C6  PXY d   1       2.629  -2.232   4.459  0.00  0.00     0.003 A 
ENDROOT
TORSDOF 0
ENDMDL
