MODEL 1
REMARK minimizedAffinity 6.21763802
REMARK minimizedRMSD -1
REMARK  0 active torsions:
REMARK  status: ('A' for Active; 'I' for Inactive)
ROOT
ATOM      1  C4' PXY d   1      -5.974  -1.045  -3.168  0.00  0.00     0.077 C 
ATOM      2  C1' PXY d   1      -5.982   4.450  -4.963  0.00  0.00     0.077 C 
ATOM      3  C1  PXY d   1      -5.985   3.005  -4.504  0.00  0.00    -0.082 A 
ATOM      4  C2  PXY d   1      -5.997   2.730  -3.210  0.00  0.00     0.003 A 
ATOM      5  C3  PXY d   1      -5.968   1.429  -2.776  0.00  0.00     0.003 A 
ATOM      6  C4  PXY d   1      -5.980   0.399  -3.678  0.00  0.00    -0.082 A 
ATOM      7  C5  PXY d   1      -5.979   0.671  -5.000  0.00  0.00     0.003 A 
ATOM      8  C6  PXY d   1      -5.967   1.998  -5.419  0.00  0.00     0.003 A 
ENDROOT
TORSDOF 0
ENDMDL
