MODEL 1
REMARK minimizedAffinity 0.734498799
REMARK minimizedRMSD -1
REMARK  0 active torsions:
REMARK  status: ('A' for Active; 'I' for Inactive)
ROOT
ATOM      1  C4' PXY d   1       6.000  -3.034   6.000  0.00  0.00     0.077 C 
ATOM      2  C1' PXY d   1       1.847  -0.905   2.588  0.00  0.00     0.077 C 
ATOM      3  C1  PXY d   1       2.944  -1.466   3.472  0.00  0.00    -0.082 A 
ATOM      4  C2  PXY d   1       2.634  -1.981   4.651  0.00  0.00     0.003 A 
ATOM      5  C3  PXY d   1       3.617  -2.463   5.477  0.00  0.00     0.003 A 
ATOM      6  C4  PXY d   1       4.924  -2.466   5.070  0.00  0.00    -0.082 A 
ATOM      7  C5  PXY d   1       5.247  -1.951   3.864  0.00  0.00     0.003 A 
ATOM      8  C6  PXY d   1       4.239  -1.429   3.058  0.00  0.00     0.003 A 
ENDROOT
TORSDOF 0
ENDMDL
