MODEL 1
REMARK minimizedAffinity 0.563172817
REMARK minimizedRMSD -1
REMARK  0 active torsions:
REMARK  status: ('A' for Active; 'I' for Inactive)
ROOT
ATOM      1  C4' PXY d   1       5.019  -3.091   5.959  0.00  0.00     0.077 C 
ATOM      2  C1' PXY d   1       1.233  -0.864   2.202  0.00  0.00     0.077 C 
ATOM      3  C1  PXY d   1       2.216  -1.451   3.195  0.00  0.00    -0.082 A 
ATOM      4  C2  PXY d   1       3.471  -1.031   3.200  0.00  0.00     0.003 A 
ATOM      5  C3  PXY d   1       4.381  -1.574   4.070  0.00  0.00     0.003 A 
ATOM      6  C4  PXY d   1       3.990  -2.520   4.980  0.00  0.00    -0.082 A 
ATOM      7  C5  PXY d   1       2.709  -2.946   4.988  0.00  0.00     0.003 A 
ATOM      8  C6  PXY d   1       1.811  -2.411   4.069  0.00  0.00     0.003 A 
ENDROOT
TORSDOF 0
ENDMDL
