MODEL 1
REMARK minimizedAffinity 16.1644287
REMARK minimizedRMSD -1
REMARK  0 active torsions:
REMARK  status: ('A' for Active; 'I' for Inactive)
ROOT
ATOM      1  C4' PXY d   1       3.071  -0.727   0.603  0.00  0.00     0.077 C 
ATOM      2  C1' PXY d   1       6.000  -2.280   5.338  0.00  0.00     0.077 C 
ATOM      3  C1  PXY d   1       5.221  -1.879   4.100  0.00  0.00    -0.082 A 
ATOM      4  C2  PXY d   1       5.872  -1.565   2.992  0.00  0.00     0.003 A 
ATOM      5  C3  PXY d   1       5.184  -1.169   1.873  0.00  0.00     0.003 A 
ATOM      6  C4  PXY d   1       3.815  -1.147   1.873  0.00  0.00    -0.082 A 
ATOM      7  C5  PXY d   1       3.144  -1.476   2.997  0.00  0.00     0.003 A 
ATOM      8  C6  PXY d   1       3.862  -1.835   4.134  0.00  0.00     0.003 A 
ENDROOT
TORSDOF 0
ENDMDL
