MODEL 1
REMARK minimizedAffinity 9.38709927
REMARK minimizedRMSD -1
REMARK  0 active torsions:
REMARK  status: ('A' for Active; 'I' for Inactive)
ROOT
ATOM      1  C4' PXY d   1       3.024  -4.275   5.247  0.00  0.00     0.077 C 
ATOM      2  C1' PXY d   1       2.122   0.376   1.935  0.00  0.00     0.077 C 
ATOM      3  C1  PXY d   1       2.366  -0.849   2.794  0.00  0.00    -0.082 A 
ATOM      4  C2  PXY d   1       1.534  -1.130   3.783  0.00  0.00     0.003 A 
ATOM      5  C3  PXY d   1       1.757  -2.216   4.590  0.00  0.00     0.003 A 
ATOM      6  C4  PXY d   1       2.812  -3.054   4.348  0.00  0.00    -0.082 A 
ATOM      7  C5  PXY d   1       3.660  -2.780   3.333  0.00  0.00     0.003 A 
ATOM      8  C6  PXY d   1       3.439  -1.649   2.552  0.00  0.00     0.003 A 
ENDROOT
TORSDOF 0
ENDMDL
