MODEL 1
REMARK minimizedAffinity 12.8837595
REMARK minimizedRMSD -1
REMARK  0 active torsions:
REMARK  status: ('A' for Active; 'I' for Inactive)
ROOT
ATOM      1  N1  IND d   1      -4.478   3.064  -3.021  0.00  0.00    -0.196 N 
ATOM      2  C2  IND d   1      -3.169   2.870  -2.677  0.00  0.00     0.054 A 
ATOM      3  C3  IND d   1      -2.628   1.883  -3.427  0.00  0.00    -0.031 A 
ATOM      4  C4  IND d   1      -3.676   0.524  -5.345  0.00  0.00     0.051 A 
ATOM      5  C5  IND d   1      -4.858   0.319  -5.999  0.00  0.00    -0.031 A 
ATOM      6  C6  IND d   1      -5.996   1.035  -5.690  0.00  0.00     0.015 A 
ATOM      7  C7  IND d   1      -5.992   1.995  -4.718  0.00  0.00    -0.016 A 
ATOM      8  C8  IND d   1      -4.795   2.201  -4.047  0.00  0.00    -0.047 A 
ATOM      9  C9  IND d   1      -3.647   1.448  -4.327  0.00  0.00    -0.096 A 
ATOM     10  HN1 IND d   1      -5.013   3.631  -2.658  0.00  0.00     0.298 HD
ENDROOT
TORSDOF 0
ENDMDL
