MODEL 1
REMARK minimizedAffinity 0.622290313
REMARK minimizedRMSD -1
REMARK  0 active torsions:
REMARK  status: ('A' for Active; 'I' for Inactive)
ROOT
ATOM      1  N1  IND d   1       1.168  -1.345  -0.201  0.00  0.00    -0.196 N 
ATOM      2  C2  IND d   1       1.781  -2.450   0.320  0.00  0.00     0.054 A 
ATOM      3  C3  IND d   1       1.323  -2.699   1.567  0.00  0.00    -0.031 A 
ATOM      4  C4  IND d   1      -0.507  -1.484   2.910  0.00  0.00     0.051 A 
ATOM      5  C5  IND d   1      -1.330  -0.393   2.866  0.00  0.00    -0.031 A 
ATOM      6  C6  IND d   1      -1.366   0.450   1.775  0.00  0.00     0.015 A 
ATOM      7  C7  IND d   1      -0.584   0.228   0.677  0.00  0.00    -0.016 A 
ATOM      8  C8  IND d   1       0.259  -0.874   0.721  0.00  0.00    -0.047 A 
ATOM      9  C9  IND d   1       0.330  -1.709   1.842  0.00  0.00    -0.096 A 
ATOM     10  HN1 IND d   1       1.323  -1.003  -0.974  0.00  0.00     0.298 HD
ENDROOT
TORSDOF 0
ENDMDL
