MODEL 1
REMARK minimizedAffinity 8.48560905
REMARK minimizedRMSD -1
REMARK  0 active torsions:
REMARK  status: ('A' for Active; 'I' for Inactive)
ROOT
ATOM      1  N1  IND d   1       4.673   3.296   1.014  0.00  0.00    -0.196 N 
ATOM      2  C2  IND d   1       5.229   3.380   2.260  0.00  0.00     0.054 A 
ATOM      3  C3  IND d   1       5.787   2.199   2.607  0.00  0.00    -0.031 A 
ATOM      4  C4  IND d   1       5.993   0.025   1.244  0.00  0.00     0.051 A 
ATOM      5  C5  IND d   1       5.607  -0.549   0.065  0.00  0.00    -0.031 A 
ATOM      6  C6  IND d   1       4.876   0.145  -0.878  0.00  0.00     0.015 A 
ATOM      7  C7  IND d   1       4.514   1.448  -0.681  0.00  0.00    -0.016 A 
ATOM      8  C8  IND d   1       4.899   2.031   0.518  0.00  0.00    -0.047 A 
ATOM      9  C9  IND d   1       5.603   1.318   1.497  0.00  0.00    -0.096 A 
ATOM     10  HN1 IND d   1       4.252   3.927   0.609  0.00  0.00     0.298 HD
ENDROOT
TORSDOF 0
ENDMDL
