MODEL 1
REMARK minimizedAffinity -4.22676229
REMARK minimizedRMSD -1
REMARK  0 active torsions:
REMARK  status: ('A' for Active; 'I' for Inactive)
ROOT
ATOM      1  N1  IND d   1       1.667  -0.796   3.591  0.00  0.00    -0.196 N 
ATOM      2  C2  IND d   1       0.640  -0.540   2.727  0.00  0.00     0.054 A 
ATOM      3  C3  IND d   1       0.579  -1.497   1.773  0.00  0.00    -0.031 A 
ATOM      4  C4  IND d   1       2.000  -3.625   1.498  0.00  0.00     0.051 A 
ATOM      5  C5  IND d   1       3.085  -4.271   2.021  0.00  0.00    -0.031 A 
ATOM      6  C6  IND d   1       3.764  -3.784   3.119  0.00  0.00     0.015 A 
ATOM      7  C7  IND d   1       3.376  -2.632   3.743  0.00  0.00    -0.016 A 
ATOM      8  C8  IND d   1       2.279  -1.970   3.210  0.00  0.00    -0.047 A 
ATOM      9  C9  IND d   1       1.612  -2.437   2.071  0.00  0.00    -0.096 A 
ATOM     10  HN1 IND d   1       1.894  -0.305   4.260  0.00  0.00     0.298 HD
ENDROOT
TORSDOF 0
ENDMDL
