MODEL 1
REMARK minimizedAffinity 5.80374956
REMARK minimizedRMSD -1
REMARK  0 active torsions:
REMARK  status: ('A' for Active; 'I' for Inactive)
ROOT
ATOM      1  N1  IND d   1       4.853  -5.405  -1.215  0.00  0.00    -0.196 N 
ATOM      2  C2  IND d   1       6.000  -5.974  -0.735  0.00  0.00     0.054 A 
ATOM      3  C3  IND d   1       6.000  -5.966   0.616  0.00  0.00    -0.031 A 
ATOM      4  C4  IND d   1       4.177  -5.162   2.247  0.00  0.00     0.051 A 
ATOM      5  C5  IND d   1       2.964  -4.533   2.282  0.00  0.00    -0.031 A 
ATOM      6  C6  IND d   1       2.304  -4.157   1.129  0.00  0.00     0.015 A 
ATOM      7  C7  IND d   1       2.830  -4.408  -0.107  0.00  0.00    -0.016 A 
ATOM      8  C8  IND d   1       4.065  -5.040  -0.145  0.00  0.00    -0.047 A 
ATOM      9  C9  IND d   1       4.758  -5.386   1.021  0.00  0.00    -0.096 A 
ATOM     10  HN1 IND d   1       4.657  -5.294  -2.044  0.00  0.00     0.298 HD
ENDROOT
TORSDOF 0
ENDMDL
