MODEL 1
REMARK minimizedAffinity 0.150592014
REMARK minimizedRMSD -1
REMARK  0 active torsions:
REMARK  status: ('A' for Active; 'I' for Inactive)
ROOT
ATOM      1  N1  IND d   1       1.282  -1.496  -0.373  0.00  0.00    -0.196 N 
ATOM      2  C2  IND d   1       2.050  -2.494   0.162  0.00  0.00     0.054 A 
ATOM      3  C3  IND d   1       1.765  -2.655   1.473  0.00  0.00    -0.031 A 
ATOM      4  C4  IND d   1       0.004  -1.461   2.923  0.00  0.00     0.051 A 
ATOM      5  C5  IND d   1      -0.913  -0.449   2.889  0.00  0.00    -0.031 A 
ATOM      6  C6  IND d   1      -1.152   0.280   1.741  0.00  0.00     0.015 A 
ATOM      7  C7  IND d   1      -0.488   0.013   0.577  0.00  0.00    -0.016 A 
ATOM      8  C8  IND d   1       0.449  -1.010   0.611  0.00  0.00    -0.047 A 
ATOM      9  C9  IND d   1       0.727  -1.724   1.784  0.00  0.00    -0.096 A 
ATOM     10  HN1 IND d   1       1.315  -1.219  -1.186  0.00  0.00     0.298 HD
ENDROOT
TORSDOF 0
ENDMDL
