MODEL 1
REMARK minimizedAffinity 2.244524
REMARK minimizedRMSD -1
REMARK  0 active torsions:
REMARK  status: ('A' for Active; 'I' for Inactive)
ROOT
ATOM      1  N1  IND d   1       5.621  -1.604   4.467  0.00  0.00    -0.196 N 
ATOM      2  C2  IND d   1       4.891  -2.387   5.317  0.00  0.00     0.054 A 
ATOM      3  C3  IND d   1       4.070  -3.202   4.618  0.00  0.00    -0.031 A 
ATOM      4  C4  IND d   1       3.835  -3.492   2.071  0.00  0.00     0.051 A 
ATOM      5  C5  IND d   1       4.266  -2.971   0.883  0.00  0.00    -0.031 A 
ATOM      6  C6  IND d   1       5.192  -1.949   0.828  0.00  0.00     0.015 A 
ATOM      7  C7  IND d   1       5.732  -1.415   1.964  0.00  0.00    -0.016 A 
ATOM      8  C8  IND d   1       5.291  -1.937   3.172  0.00  0.00    -0.047 A 
ATOM      9  C9  IND d   1       4.320  -2.944   3.235  0.00  0.00    -0.096 A 
ATOM     10  HN1 IND d   1       6.191  -1.004   4.702  0.00  0.00     0.298 HD
ENDROOT
TORSDOF 0
ENDMDL
