MODEL 1
REMARK minimizedAffinity 1.35391605
REMARK minimizedRMSD -1
REMARK  0 active torsions:
REMARK  status: ('A' for Active; 'I' for Inactive)
ROOT
ATOM      1  N1  IND d   1      -4.874   1.443  -5.669  0.00  0.00    -0.196 N 
ATOM      2  C2  IND d   1      -5.937   1.235  -4.835  0.00  0.00     0.054 A 
ATOM      3  C3  IND d   1      -5.714   0.158  -4.049  0.00  0.00    -0.031 A 
ATOM      4  C4  IND d   1      -3.633  -1.350  -3.891  0.00  0.00     0.051 A 
ATOM      5  C5  IND d   1      -2.420  -1.576  -4.478  0.00  0.00    -0.031 A 
ATOM      6  C6  IND d   1      -1.952  -0.790  -5.512  0.00  0.00     0.015 A 
ATOM      7  C7  IND d   1      -2.678   0.264  -5.991  0.00  0.00    -0.016 A 
ATOM      8  C8  IND d   1      -3.914   0.492  -5.402  0.00  0.00    -0.047 A 
ATOM      9  C9  IND d   1      -4.413  -0.329  -4.381  0.00  0.00    -0.096 A 
ATOM     10  HN1 IND d   1      -4.815   2.063  -6.262  0.00  0.00     0.298 HD
ENDROOT
TORSDOF 0
ENDMDL
