MODEL 1
REMARK minimizedAffinity 2.06896281
REMARK minimizedRMSD -1
REMARK  0 active torsions:
REMARK  status: ('A' for Active; 'I' for Inactive)
ROOT
ATOM      1  N1  IND d   1       2.565   4.544  -5.964  0.00  0.00    -0.196 N 
ATOM      2  C2  IND d   1       3.102   5.801  -5.999  0.00  0.00     0.054 A 
ATOM      3  C3  IND d   1       4.452   5.735  -5.981  0.00  0.00    -0.031 A 
ATOM      4  C4  IND d   1       5.990   3.671  -5.997  0.00  0.00     0.051 A 
ATOM      5  C5  IND d   1       5.962   2.306  -5.931  0.00  0.00    -0.031 A 
ATOM      6  C6  IND d   1       4.775   1.603  -5.873  0.00  0.00     0.015 A 
ATOM      7  C7  IND d   1       3.568   2.242  -5.892  0.00  0.00    -0.016 A 
ATOM      8  C8  IND d   1       3.593   3.628  -5.952  0.00  0.00    -0.047 A 
ATOM      9  C9  IND d   1       4.794   4.348  -5.968  0.00  0.00    -0.096 A 
ATOM     10  HN1 IND d   1       1.725   4.358  -5.951  0.00  0.00     0.298 HD
ENDROOT
TORSDOF 0
ENDMDL
