MODEL 1
REMARK minimizedAffinity -4.99877214
REMARK minimizedRMSD -1
REMARK  0 active torsions:
REMARK  status: ('A' for Active; 'I' for Inactive)
ROOT
ATOM      1  N1  IND d   1       5.284   4.408  -5.289  0.00  0.00    -0.196 N 
ATOM      2  C2  IND d   1       4.121   4.979  -5.722  0.00  0.00     0.054 A 
ATOM      3  C3  IND d   1       3.202   4.026  -5.999  0.00  0.00    -0.031 A 
ATOM      4  C4  IND d   1       3.360   1.472  -5.714  0.00  0.00     0.051 A 
ATOM      5  C5  IND d   1       4.237   0.477  -5.384  0.00  0.00    -0.031 A 
ATOM      6  C6  IND d   1       5.533   0.747  -4.995  0.00  0.00     0.015 A 
ATOM      7  C7  IND d   1       5.999   2.028  -4.910  0.00  0.00    -0.016 A 
ATOM      8  C8  IND d   1       5.114   3.041  -5.251  0.00  0.00    -0.047 A 
ATOM      9  C9  IND d   1       3.810   2.771  -5.688  0.00  0.00    -0.096 A 
ATOM     10  HN1 IND d   1       6.002   4.830  -5.075  0.00  0.00     0.298 HD
ENDROOT
TORSDOF 0
ENDMDL
