MODEL 1
REMARK minimizedAffinity -3.0967598
REMARK minimizedRMSD -1
REMARK  0 active torsions:
REMARK  status: ('A' for Active; 'I' for Inactive)
ROOT
ATOM      1  C4' PXY d   1       4.143  -1.418   0.313  0.00  0.00     0.077 C 
ATOM      2  C1' PXY d   1      -1.504  -0.235   0.680  0.00  0.00     0.077 C 
ATOM      3  C1  PXY d   1      -0.026  -0.556   0.576  0.00  0.00    -0.082 A 
ATOM      4  C2  PXY d   1       0.808  -0.102   1.498  0.00  0.00     0.003 A 
ATOM      5  C3  PXY d   1       2.152  -0.356   1.403  0.00  0.00     0.003 A 
ATOM      6  C4  PXY d   1       2.641  -1.126   0.382  0.00  0.00    -0.082 A 
ATOM      7  C5  PXY d   1       1.795  -1.602  -0.557  0.00  0.00     0.003 A 
ATOM      8  C6  PXY d   1       0.440  -1.298  -0.464  0.00  0.00     0.003 A 
ENDROOT
TORSDOF 0
ENDMDL
