MODEL 1
REMARK minimizedAffinity 1.23769748
REMARK minimizedRMSD -1
REMARK  0 active torsions:
REMARK  status: ('A' for Active; 'I' for Inactive)
ROOT
ATOM      1  C4' PXY d   1       0.607   5.013   5.990  0.00  0.00     0.077 C 
ATOM      2  C1' PXY d   1       4.031   4.654   1.347  0.00  0.00     0.077 C 
ATOM      3  C1  PXY d   1       3.127   4.737   2.561  0.00  0.00    -0.082 A 
ATOM      4  C2  PXY d   1       2.901   5.910   3.129  0.00  0.00     0.003 A 
ATOM      5  C3  PXY d   1       2.112   5.999   4.246  0.00  0.00     0.003 A 
ATOM      6  C4  PXY d   1       1.505   4.883   4.757  0.00  0.00    -0.082 A 
ATOM      7  C5  PXY d   1       1.722   3.684   4.177  0.00  0.00     0.003 A 
ATOM      8  C6  PXY d   1       2.560   3.609   3.067  0.00  0.00     0.003 A 
ENDROOT
TORSDOF 0
ENDMDL
