MODEL 1
REMARK minimizedAffinity -3.16014719
REMARK minimizedRMSD -1
REMARK  0 active torsions:
REMARK  status: ('A' for Active; 'I' for Inactive)
ROOT
ATOM      1  C4' PXY d   1       5.869   5.963   2.631  0.00  0.00     0.077 C 
ATOM      2  C1' PXY d   1       0.536   6.000   4.863  0.00  0.00     0.077 C 
ATOM      3  C1  PXY d   1       1.930   5.985   4.267  0.00  0.00    -0.082 A 
ATOM      4  C2  PXY d   1       2.984   5.980   5.067  0.00  0.00     0.003 A 
ATOM      5  C3  PXY d   1       4.252   5.998   4.544  0.00  0.00     0.003 A 
ATOM      6  C4  PXY d   1       4.443   5.969   3.189  0.00  0.00    -0.082 A 
ATOM      7  C5  PXY d   1       3.373   5.963   2.366  0.00  0.00     0.003 A 
ATOM      8  C6  PXY d   1       2.094   5.986   2.916  0.00  0.00     0.003 A 
ENDROOT
TORSDOF 0
ENDMDL
