MODEL 1
REMARK minimizedAffinity 0.641255438
REMARK minimizedRMSD -1
REMARK  0 active torsions:
REMARK  status: ('A' for Active; 'I' for Inactive)
ROOT
ATOM      1  C4' PXY d   1       4.106   5.991   0.650  0.00  0.00     0.077 C 
ATOM      2  C1' PXY d   1       1.912   5.955   5.998  0.00  0.00     0.077 C 
ATOM      3  C1  PXY d   1       2.498   5.970   4.600  0.00  0.00    -0.082 A 
ATOM      4  C2  PXY d   1       1.691   5.972   3.552  0.00  0.00     0.003 A 
ATOM      5  C3  PXY d   1       2.204   5.953   2.281  0.00  0.00     0.003 A 
ATOM      6  C4  PXY d   1       3.558   5.985   2.080  0.00  0.00    -0.082 A 
ATOM      7  C5  PXY d   1       4.389   5.993   3.144  0.00  0.00     0.003 A 
ATOM      8  C6  PXY d   1       3.848   5.971   4.426  0.00  0.00     0.003 A 
ENDROOT
TORSDOF 0
ENDMDL
