MODEL 1
REMARK minimizedAffinity 5.2953105
REMARK minimizedRMSD -1
REMARK  2 active torsions:
REMARK  status: ('A' for Active; 'I' for Inactive)
REMARK    1  A    between atoms: C2'_3  and  C1'_4 
REMARK    2  A    between atoms: C1'_4  and  C1_5 
ROOT
ATOM      1  C1  I4B d   1       0.495   1.351   0.016  0.00  0.00    -0.075 A 
ATOM      2  C2  I4B d   1      -0.069   1.053  -1.200  0.00  0.00     0.003 A 
ATOM      3  C3  I4B d   1      -0.154   2.044  -2.208  0.00  0.00     0.002 A 
ATOM      4  C4  I4B d   1       0.289   3.324  -1.942  0.00  0.00    -0.004 A 
ATOM      5  C5  I4B d   1       0.881   3.618  -0.717  0.00  0.00     0.002 A 
ATOM      6  C6  I4B d   1       0.996   2.622   0.264  0.00  0.00     0.003 A 
ENDROOT
BRANCH   1   7
ATOM      7  C1' I4B d   1       0.538   0.290   1.069  0.00  0.00     0.060 C 
BRANCH   7   8
ATOM      8  C2' I4B d   1       1.449  -0.818   0.579  0.00  0.00    -0.013 C 
ATOM      9  C4' I4B d   1       2.822  -0.703   1.186  0.00  0.00     0.013 C 
ATOM     10  C3' I4B d   1       0.811  -2.129   0.927  0.00  0.00     0.013 C 
ENDBRANCH   7   8
ENDBRANCH   1   7
TORSDOF 2
ENDMDL
