MODEL 1
REMARK minimizedAffinity 14.4431238
REMARK minimizedRMSD -1
REMARK  2 active torsions:
REMARK  status: ('A' for Active; 'I' for Inactive)
REMARK    1  A    between atoms: C2'_3  and  C1'_4 
REMARK    2  A    between atoms: C1'_4  and  C1_5 
ROOT
ATOM      1  C1  I4B d   1      -0.986  -5.835  -4.223  0.00  0.00    -0.075 A 
ATOM      2  C2  I4B d   1      -0.067  -5.792  -3.205  0.00  0.00     0.003 A 
ATOM      3  C3  I4B d   1       1.319  -5.838  -3.493  0.00  0.00     0.002 A 
ATOM      4  C4  I4B d   1       1.736  -5.977  -4.801  0.00  0.00    -0.004 A 
ATOM      5  C5  I4B d   1       0.803  -5.998  -5.833  0.00  0.00     0.002 A 
ATOM      6  C6  I4B d   1      -0.566  -5.914  -5.544  0.00  0.00     0.003 A 
ENDROOT
BRANCH   1   7
ATOM      7  C1' I4B d   1      -2.442  -5.818  -3.880  0.00  0.00     0.060 C 
BRANCH   7   8
ATOM      8  C2' I4B d   1      -2.593  -5.185  -2.512  0.00  0.00    -0.013 C 
ATOM      9  C4' I4B d   1      -3.030  -3.748  -2.621  0.00  0.00     0.013 C 
ATOM     10  C3' I4B d   1      -3.585  -5.996  -1.733  0.00  0.00     0.013 C 
ENDBRANCH   7   8
ENDBRANCH   1   7
TORSDOF 2
ENDMDL
