MODEL 1
REMARK minimizedAffinity 4.92963552
REMARK minimizedRMSD -1
REMARK  2 active torsions:
REMARK  status: ('A' for Active; 'I' for Inactive)
REMARK    1  A    between atoms: C2'_3  and  C1'_4 
REMARK    2  A    between atoms: C1'_4  and  C1_5 
ROOT
ATOM      1  C1  I4B d   1      -1.789  -5.994  -3.876  0.00  0.00    -0.075 A 
ATOM      2  C2  I4B d   1      -1.240  -5.989  -2.618  0.00  0.00     0.003 A 
ATOM      3  C3  I4B d   1      -2.077  -5.978  -1.475  0.00  0.00     0.002 A 
ATOM      4  C4  I4B d   1      -3.446  -5.921  -1.636  0.00  0.00    -0.004 A 
ATOM      5  C5  I4B d   1      -4.001  -5.949  -2.912  0.00  0.00     0.002 A 
ATOM      6  C6  I4B d   1      -3.168  -5.998  -4.039  0.00  0.00     0.003 A 
ENDROOT
BRANCH   1   7
ATOM      7  C1' I4B d   1      -0.876  -5.972  -5.060  0.00  0.00     0.060 C 
BRANCH   7   8
ATOM      8  C2' I4B d   1       0.551  -5.988  -4.550  0.00  0.00    -0.013 C 
ATOM      9  C4' I4B d   1       1.536  -5.839  -5.680  0.00  0.00     0.013 C 
ATOM     10  C3' I4B d   1       0.699  -4.878  -3.553  0.00  0.00     0.013 C 
ENDBRANCH   7   8
ENDBRANCH   1   7
TORSDOF 2
ENDMDL
