MODEL 1
REMARK minimizedAffinity -0.802184761
REMARK minimizedRMSD -1
REMARK  2 active torsions:
REMARK  status: ('A' for Active; 'I' for Inactive)
REMARK    1  A    between atoms: C2'_3  and  C1'_4 
REMARK    2  A    between atoms: C1'_4  and  C1_5 
ROOT
ATOM      1  C1  I4B d   1      -2.083  -5.985  -3.789  0.00  0.00    -0.075 A 
ATOM      2  C2  I4B d   1      -1.569  -5.941  -5.061  0.00  0.00     0.003 A 
ATOM      3  C3  I4B d   1      -0.168  -5.894  -5.262  0.00  0.00     0.002 A 
ATOM      4  C4  I4B d   1       0.674  -5.843  -4.170  0.00  0.00    -0.004 A 
ATOM      5  C5  I4B d   1       0.152  -5.910  -2.882  0.00  0.00     0.002 A 
ATOM      6  C6  I4B d   1      -1.235  -5.994  -2.689  0.00  0.00     0.003 A 
ENDROOT
BRANCH   1   7
ATOM      7  C1' I4B d   1      -3.569  -6.000  -3.612  0.00  0.00     0.060 C 
BRANCH   7   8
ATOM      8  C2' I4B d   1      -3.900  -5.186  -2.378  0.00  0.00    -0.013 C 
ATOM      9  C4' I4B d   1      -4.522  -3.865  -2.747  0.00  0.00     0.013 C 
ATOM     10  C3' I4B d   1      -4.824  -5.999  -1.521  0.00  0.00     0.013 C 
ENDBRANCH   7   8
ENDBRANCH   1   7
TORSDOF 2
ENDMDL
