MODEL 1
REMARK minimizedAffinity -0.355829865
REMARK minimizedRMSD -1
REMARK  2 active torsions:
REMARK  status: ('A' for Active; 'I' for Inactive)
REMARK    1  A    between atoms: C2'_3  and  C1'_4 
REMARK    2  A    between atoms: C1'_4  and  C1_5 
ROOT
ATOM      1  C1  I4B d   1      -1.373  -5.922  -3.657  0.00  0.00    -0.075 A 
ATOM      2  C2  I4B d   1      -0.654  -5.998  -2.490  0.00  0.00     0.003 A 
ATOM      3  C3  I4B d   1       0.761  -5.960  -2.521  0.00  0.00     0.002 A 
ATOM      4  C4  I4B d   1       1.413  -5.895  -3.735  0.00  0.00    -0.004 A 
ATOM      5  C5  I4B d   1       0.683  -5.795  -4.916  0.00  0.00     0.002 A 
ATOM      6  C6  I4B d   1      -0.719  -5.795  -4.876  0.00  0.00     0.003 A 
ENDROOT
BRANCH   1   7
ATOM      7  C1' I4B d   1      -2.865  -5.999  -3.591  0.00  0.00     0.060 C 
BRANCH   7   8
ATOM      8  C2' I4B d   1      -3.326  -5.138  -2.432  0.00  0.00    -0.013 C 
ATOM      9  C4' I4B d   1      -4.128  -3.958  -2.915  0.00  0.00     0.013 C 
ATOM     10  C3' I4B d   1      -4.133  -6.000  -1.508  0.00  0.00     0.013 C 
ENDBRANCH   7   8
ENDBRANCH   1   7
TORSDOF 2
ENDMDL
