MODEL 1
REMARK minimizedAffinity -2.32097864
REMARK minimizedRMSD -1
REMARK  2 active torsions:
REMARK  status: ('A' for Active; 'I' for Inactive)
REMARK    1  A    between atoms: C2'_3  and  C1'_4 
REMARK    2  A    between atoms: C1'_4  and  C1_5 
ROOT
ATOM      1  C1  I4B d   1      -1.210  -5.986  -3.366  0.00  0.00    -0.075 A 
ATOM      2  C2  I4B d   1      -1.349  -5.991  -4.732  0.00  0.00     0.003 A 
ATOM      3  C3  I4B d   1      -0.204  -5.999  -5.565  0.00  0.00     0.002 A 
ATOM      4  C4  I4B d   1       1.051  -5.951  -4.995  0.00  0.00    -0.004 A 
ATOM      5  C5  I4B d   1       1.191  -5.969  -3.610  0.00  0.00     0.002 A 
ATOM      6  C6  I4B d   1       0.054  -5.999  -2.790  0.00  0.00     0.003 A 
ENDROOT
BRANCH   1   7
ATOM      7  C1' I4B d   1      -2.440  -5.944  -2.516  0.00  0.00     0.060 C 
BRANCH   7   8
ATOM      8  C2' I4B d   1      -3.617  -5.624  -3.415  0.00  0.00    -0.013 C 
ATOM      9  C4' I4B d   1      -4.921  -6.000  -2.760  0.00  0.00     0.013 C 
ATOM     10  C3' I4B d   1      -3.573  -4.158  -3.731  0.00  0.00     0.013 C 
ENDBRANCH   7   8
ENDBRANCH   1   7
TORSDOF 2
ENDMDL
