MODEL 1
REMARK minimizedAffinity 10.331789
REMARK minimizedRMSD -1
REMARK  2 active torsions:
REMARK  status: ('A' for Active; 'I' for Inactive)
REMARK    1  A    between atoms: C2'_3  and  C1'_4 
REMARK    2  A    between atoms: C1'_4  and  C1_5 
ROOT
ATOM      1  C1  I4B d   1      -0.532  -5.991  -2.994  0.00  0.00    -0.075 A 
ATOM      2  C2  I4B d   1      -0.760  -5.990  -1.640  0.00  0.00     0.003 A 
ATOM      3  C3  I4B d   1      -2.085  -5.972  -1.141  0.00  0.00     0.002 A 
ATOM      4  C4  I4B d   1      -3.143  -5.905  -2.024  0.00  0.00    -0.004 A 
ATOM      5  C5  I4B d   1      -2.911  -5.930  -3.396  0.00  0.00     0.002 A 
ATOM      6  C6  I4B d   1      -1.597  -5.986  -3.884  0.00  0.00     0.003 A 
ENDROOT
BRANCH   1   7
ATOM      7  C1' I4B d   1       0.881  -5.977  -3.486  0.00  0.00     0.060 C 
BRANCH   7   8
ATOM      8  C2' I4B d   1       0.935  -5.101  -4.721  0.00  0.00    -0.013 C 
ATOM      9  C4' I4B d   1       2.117  -4.169  -4.676  0.00  0.00     0.013 C 
ATOM     10  C3' I4B d   1       0.998  -5.997  -5.922  0.00  0.00     0.013 C 
ENDBRANCH   7   8
ENDBRANCH   1   7
TORSDOF 2
ENDMDL
