MODEL 1
REMARK minimizedAffinity 9.519804
REMARK minimizedRMSD -1
REMARK  2 active torsions:
REMARK  status: ('A' for Active; 'I' for Inactive)
REMARK    1  A    between atoms: C2'_3  and  C1'_4 
REMARK    2  A    between atoms: C1'_4  and  C1_5 
ROOT
ATOM      1  C1  I4B d   1      -1.557  -5.960  -3.903  0.00  0.00    -0.075 A 
ATOM      2  C2  I4B d   1      -0.568  -5.937  -2.952  0.00  0.00     0.003 A 
ATOM      3  C3  I4B d   1       0.794  -5.931  -3.341  0.00  0.00     0.002 A 
ATOM      4  C4  I4B d   1       1.119  -5.999  -4.680  0.00  0.00    -0.004 A 
ATOM      5  C5  I4B d   1       0.114  -5.999  -5.643  0.00  0.00     0.002 A 
ATOM      6  C6  I4B d   1      -1.232  -5.967  -5.253  0.00  0.00     0.003 A 
ENDROOT
BRANCH   1   7
ATOM      7  C1' I4B d   1      -2.984  -6.000  -3.457  0.00  0.00     0.060 C 
BRANCH   7   8
ATOM      8  C2' I4B d   1      -3.103  -5.165  -2.199  0.00  0.00    -0.013 C 
ATOM      9  C4' I4B d   1      -3.448  -3.735  -2.523  0.00  0.00     0.013 C 
ATOM     10  C3' I4B d   1      -4.151  -5.789  -1.326  0.00  0.00     0.013 C 
ENDBRANCH   7   8
ENDBRANCH   1   7
TORSDOF 2
ENDMDL
