MODEL 1
REMARK minimizedAffinity 9.99751282
REMARK minimizedRMSD -1
REMARK  2 active torsions:
REMARK  status: ('A' for Active; 'I' for Inactive)
REMARK    1  A    between atoms: C2'_3  and  C1'_4 
REMARK    2  A    between atoms: C1'_4  and  C1_5 
ROOT
ATOM      1  C1  I4B d   1       0.392  -4.870  -1.201  0.00  0.00    -0.075 A 
ATOM      2  C2  I4B d   1       1.488  -4.901  -2.027  0.00  0.00     0.003 A 
ATOM      3  C3  I4B d   1       1.384  -5.450  -3.329  0.00  0.00     0.002 A 
ATOM      4  C4  I4B d   1       0.187  -5.999  -3.741  0.00  0.00    -0.004 A 
ATOM      5  C5  I4B d   1      -0.929  -5.946  -2.911  0.00  0.00     0.002 A 
ATOM      6  C6  I4B d   1      -0.830  -5.367  -1.637  0.00  0.00     0.003 A 
ENDROOT
BRANCH   1   7
ATOM      7  C1' I4B d   1       0.545  -4.313   0.179  0.00  0.00     0.060 C 
BRANCH   7   8
ATOM      8  C2' I4B d   1      -0.546  -3.284   0.390  0.00  0.00    -0.013 C 
ATOM      9  C4' I4B d   1      -1.456  -3.679   1.524  0.00  0.00     0.013 C 
ATOM     10  C3' I4B d   1       0.110  -1.962   0.658  0.00  0.00     0.013 C 
ENDBRANCH   7   8
ENDBRANCH   1   7
TORSDOF 2
ENDMDL
