MODEL 1
REMARK minimizedAffinity -1.99907887
REMARK minimizedRMSD -1
REMARK  2 active torsions:
REMARK  status: ('A' for Active; 'I' for Inactive)
REMARK    1  A    between atoms: C2'_3  and  C1'_4 
REMARK    2  A    between atoms: C1'_4  and  C1_5 
ROOT
ATOM      1  C1  I4B d   1      -1.436  -5.593  -4.142  0.00  0.00    -0.075 A 
ATOM      2  C2  I4B d   1      -0.874  -5.166  -5.319  0.00  0.00     0.003 A 
ATOM      3  C3  I4B d   1       0.477  -4.746  -5.353  0.00  0.00     0.002 A 
ATOM      4  C4  I4B d   1       1.211  -4.720  -4.184  0.00  0.00    -0.004 A 
ATOM      5  C5  I4B d   1       0.647  -5.175  -2.996  0.00  0.00     0.002 A 
ATOM      6  C6  I4B d   1      -0.681  -5.626  -2.976  0.00  0.00     0.003 A 
ENDROOT
BRANCH   1   7
ATOM      7  C1' I4B d   1      -2.875  -6.000  -4.135  0.00  0.00     0.060 C 
BRANCH   7   8
ATOM      8  C2' I4B d   1      -3.597  -5.146  -3.112  0.00  0.00    -0.013 C 
ATOM      9  C4' I4B d   1      -4.870  -4.575  -3.678  0.00  0.00     0.013 C 
ATOM     10  C3' I4B d   1      -3.873  -5.999  -1.910  0.00  0.00     0.013 C 
ENDBRANCH   7   8
ENDBRANCH   1   7
TORSDOF 2
ENDMDL
