MODEL 1
REMARK minimizedAffinity 1.69381785
REMARK minimizedRMSD -1
REMARK  2 active torsions:
REMARK  status: ('A' for Active; 'I' for Inactive)
REMARK    1  A    between atoms: C2'_3  and  C1'_4 
REMARK    2  A    between atoms: C1'_4  and  C1_5 
ROOT
ATOM      1  C1  I4B d   1      -0.306  -5.958  -3.570  0.00  0.00    -0.075 A 
ATOM      2  C2  I4B d   1       1.044  -5.943  -3.320  0.00  0.00     0.003 A 
ATOM      3  C3  I4B d   1       1.968  -5.939  -4.392  0.00  0.00     0.002 A 
ATOM      4  C4  I4B d   1       1.503  -6.000  -5.690  0.00  0.00    -0.004 A 
ATOM      5  C5  I4B d   1       0.134  -5.991  -5.943  0.00  0.00     0.002 A 
ATOM      6  C6  I4B d   1      -0.776  -5.957  -4.877  0.00  0.00     0.003 A 
ENDROOT
BRANCH   1   7
ATOM      7  C1' I4B d   1      -1.254  -5.995  -2.414  0.00  0.00     0.060 C 
BRANCH   7   8
ATOM      8  C2' I4B d   1      -2.664  -6.000  -2.966  0.00  0.00    -0.013 C 
ATOM      9  C4' I4B d   1      -3.684  -5.938  -1.859  0.00  0.00     0.013 C 
ATOM     10  C3' I4B d   1      -2.802  -4.830  -3.894  0.00  0.00     0.013 C 
ENDBRANCH   7   8
ENDBRANCH   1   7
TORSDOF 2
ENDMDL
