MODEL 1
REMARK minimizedAffinity 12.4088421
REMARK minimizedRMSD -1
REMARK  2 active torsions:
REMARK  status: ('A' for Active; 'I' for Inactive)
REMARK    1  A    between atoms: C2'_3  and  C1'_4 
REMARK    2  A    between atoms: C1'_4  and  C1_5 
ROOT
ATOM      1  C1  I4B d   1       2.878   2.115  -0.489  0.00  0.00    -0.075 A 
ATOM      2  C2  I4B d   1       1.793   2.938  -0.314  0.00  0.00     0.003 A 
ATOM      3  C3  I4B d   1       1.970   4.340  -0.221  0.00  0.00     0.002 A 
ATOM      4  C4  I4B d   1       3.244   4.868  -0.258  0.00  0.00    -0.004 A 
ATOM      5  C5  I4B d   1       4.340   4.035  -0.459  0.00  0.00     0.002 A 
ATOM      6  C6  I4B d   1       4.156   2.650  -0.587  0.00  0.00     0.003 A 
ENDROOT
BRANCH   1   7
ATOM      7  C1' I4B d   1       2.658   0.637  -0.549  0.00  0.00     0.060 C 
BRANCH   7   8
ATOM      8  C2' I4B d   1       2.672   0.104   0.869  0.00  0.00    -0.013 C 
ATOM      9  C4' I4B d   1       1.365  -0.559   1.215  0.00  0.00     0.013 C 
ATOM     10  C3' I4B d   1       3.816  -0.857   0.992  0.00  0.00     0.013 C 
ENDBRANCH   7   8
ENDBRANCH   1   7
TORSDOF 2
ENDMDL
