MODEL 1
REMARK minimizedAffinity 9.22006512
REMARK minimizedRMSD -1
REMARK  1 active torsions:
REMARK  status: ('A' for Active; 'I' for Inactive)
REMARK    1  A    between atoms: C1_2  and  C2_3 
ROOT
ATOM      1  C2  UNL d   1       1.726   2.238   0.948  0.00  0.00    -0.076 A 
ATOM      2  C3  UNL d   1       1.319   2.829  -0.261  0.00  0.00     0.004 A 
ATOM      3  C4  UNL d   1       0.691   4.073  -0.276  0.00  0.00    -0.003 A 
ATOM      4  C5  UNL d   1       0.461   4.747   0.918  0.00  0.00     0.000 A 
ATOM      5  C6  UNL d   1       0.874   4.184   2.125  0.00  0.00     0.000 A 
ATOM      6  C7  UNL d   1       1.523   2.938   2.156  0.00  0.00    -0.073 A 
ATOM      7  C8  UNL d   1       1.941   2.376   3.487  0.00  0.00     0.078 C 
ENDROOT
BRANCH   1   8
ATOM      8  C1  UNL d   1       2.378   0.875   0.904  0.00  0.00     0.053 C 
ATOM      9  C   UNL d   1       1.770  -0.029  -0.157  0.00  0.00     0.018 C 
ENDBRANCH   1   8
TORSDOF 1
ENDMDL
