MODEL 1
REMARK minimizedAffinity 8.84805965
REMARK minimizedRMSD -1
REMARK  1 active torsions:
REMARK  status: ('A' for Active; 'I' for Inactive)
REMARK    1  A    between atoms: C1_2  and  C2_3 
ROOT
ATOM      1  C2  UNL d   1       4.514   0.938   0.989  0.00  0.00    -0.076 A 
ATOM      2  C3  UNL d   1       3.342   1.252   0.280  0.00  0.00     0.004 A 
ATOM      3  C4  UNL d   1       2.337   0.303   0.098  0.00  0.00    -0.003 A 
ATOM      4  C5  UNL d   1       2.489  -0.976   0.623  0.00  0.00     0.000 A 
ATOM      5  C6  UNL d   1       3.638  -1.299   1.344  0.00  0.00     0.000 A 
ATOM      6  C7  UNL d   1       4.653  -0.349   1.550  0.00  0.00    -0.073 A 
ATOM      7  C8  UNL d   1       5.873  -0.754   2.330  0.00  0.00     0.078 C 
ENDROOT
BRANCH   1   8
ATOM      8  C1  UNL d   1       5.581   2.000   1.131  0.00  0.00     0.053 C 
ATOM      9  C   UNL d   1       5.519   2.713   2.473  0.00  0.00     0.018 C 
ENDBRANCH   1   8
TORSDOF 1
ENDMDL
