MODEL 1
REMARK minimizedAffinity 4.13698959
REMARK minimizedRMSD -1
REMARK  1 active torsions:
REMARK  status: ('A' for Active; 'I' for Inactive)
REMARK    1  A    between atoms: C1_2  and  C2_3 
ROOT
ATOM      1  C2  UNL d   1       3.874   1.422  -1.294  0.00  0.00    -0.076 A 
ATOM      2  C3  UNL d   1       3.985   0.619  -2.443  0.00  0.00     0.004 A 
ATOM      3  C4  UNL d   1       3.430  -0.659  -2.482  0.00  0.00    -0.003 A 
ATOM      4  C5  UNL d   1       2.754  -1.155  -1.372  0.00  0.00     0.000 A 
ATOM      5  C6  UNL d   1       2.619  -0.365  -0.230  0.00  0.00     0.000 A 
ATOM      6  C7  UNL d   1       3.159   0.931  -0.181  0.00  0.00    -0.073 A 
ATOM      7  C8  UNL d   1       2.989   1.736   1.078  0.00  0.00     0.078 C 
ENDROOT
BRANCH   1   8
ATOM      8  C1  UNL d   1       4.520   2.789  -1.301  0.00  0.00     0.053 C 
ATOM      9  C   UNL d   1       5.880   2.788  -1.983  0.00  0.00     0.018 C 
ENDBRANCH   1   8
TORSDOF 1
ENDMDL
