MODEL 1
REMARK minimizedAffinity 4.74570751
REMARK minimizedRMSD -1
REMARK  1 active torsions:
REMARK  status: ('A' for Active; 'I' for Inactive)
REMARK    1  A    between atoms: C1_2  and  C2_3 
ROOT
ATOM      1  C2  UNL d   1      -2.575   4.960   1.200  0.00  0.00    -0.076 A 
ATOM      2  C3  UNL d   1      -3.081   4.508  -0.031  0.00  0.00     0.004 A 
ATOM      3  C4  UNL d   1      -4.448   4.544  -0.301  0.00  0.00    -0.003 A 
ATOM      4  C5  UNL d   1      -5.331   5.033   0.655  0.00  0.00     0.000 A 
ATOM      5  C6  UNL d   1      -4.844   5.501   1.875  0.00  0.00     0.000 A 
ATOM      6  C7  UNL d   1      -3.468   5.488   2.157  0.00  0.00    -0.073 A 
ATOM      7  C8  UNL d   1      -2.998   6.000   3.491  0.00  0.00     0.078 C 
ENDROOT
BRANCH   1   8
ATOM      8  C1  UNL d   1      -1.086   4.871   1.446  0.00  0.00     0.053 C 
ATOM      9  C   UNL d   1      -0.360   4.092   0.361  0.00  0.00     0.018 C 
ENDBRANCH   1   8
TORSDOF 1
ENDMDL
