MODEL 1
REMARK minimizedAffinity 7.72157621
REMARK minimizedRMSD -1
REMARK  1 active torsions:
REMARK  status: ('A' for Active; 'I' for Inactive)
REMARK    1  A    between atoms: C1_2  and  C2_3 
ROOT
ATOM      1  C2  UNL d   1       4.606   0.806   0.549  0.00  0.00    -0.076 A 
ATOM      2  C3  UNL d   1       3.623  -0.180   0.360  0.00  0.00     0.004 A 
ATOM      3  C4  UNL d   1       2.319   0.165   0.009  0.00  0.00    -0.003 A 
ATOM      4  C5  UNL d   1       1.977   1.503  -0.159  0.00  0.00     0.000 A 
ATOM      5  C6  UNL d   1       2.944   2.493   0.008  0.00  0.00     0.000 A 
ATOM      6  C7  UNL d   1       4.268   2.161   0.346  0.00  0.00    -0.073 A 
ATOM      7  C8  UNL d   1       5.269   3.270   0.519  0.00  0.00     0.078 C 
ENDROOT
BRANCH   1   8
ATOM      8  C1  UNL d   1       5.997   0.374   0.956  0.00  0.00     0.053 C 
ATOM      9  C   UNL d   1       5.996  -0.489   2.208  0.00  0.00     0.018 C 
ENDBRANCH   1   8
TORSDOF 1
ENDMDL
