MODEL 1
REMARK minimizedAffinity 2.80233812
REMARK minimizedRMSD -1
REMARK  1 active torsions:
REMARK  status: ('A' for Active; 'I' for Inactive)
REMARK    1  A    between atoms: C1_2  and  C2_3 
ROOT
ATOM      1  C2  UNL d   1      -4.789   4.802   3.450  0.00  0.00    -0.076 A 
ATOM      2  C3  UNL d   1      -5.969   4.811   4.215  0.00  0.00     0.004 A 
ATOM      3  C4  UNL d   1      -6.000   5.396   5.479  0.00  0.00    -0.003 A 
ATOM      4  C5  UNL d   1      -4.852   5.984   6.000  0.00  0.00     0.000 A 
ATOM      5  C6  UNL d   1      -3.678   6.000   5.248  0.00  0.00     0.000 A 
ATOM      6  C7  UNL d   1      -3.633   5.428   3.965  0.00  0.00    -0.073 A 
ATOM      7  C8  UNL d   1      -2.339   5.469   3.200  0.00  0.00     0.078 C 
ENDROOT
BRANCH   1   8
ATOM      8  C1  UNL d   1      -4.808   4.128   2.097  0.00  0.00     0.053 C 
ATOM      9  C   UNL d   1      -4.505   5.093   0.961  0.00  0.00     0.018 C 
ENDBRANCH   1   8
TORSDOF 1
ENDMDL
