MODEL 1
REMARK minimizedAffinity 6.00872612
REMARK minimizedRMSD -1
REMARK  1 active torsions:
REMARK  status: ('A' for Active; 'I' for Inactive)
REMARK    1  A    between atoms: C1_2  and  C2_3 
ROOT
ATOM      1  C2  UNL d   1      -0.563  -3.779   3.724  0.00  0.00    -0.076 A 
ATOM      2  C3  UNL d   1      -0.667  -3.837   2.324  0.00  0.00     0.004 A 
ATOM      3  C4  UNL d   1      -1.260  -4.930   1.693  0.00  0.00    -0.003 A 
ATOM      4  C5  UNL d   1      -1.758  -5.982   2.453  0.00  0.00     0.000 A 
ATOM      5  C6  UNL d   1      -1.679  -5.933   3.845  0.00  0.00     0.000 A 
ATOM      6  C7  UNL d   1      -1.100  -4.831   4.497  0.00  0.00    -0.073 A 
ATOM      7  C8  UNL d   1      -1.036  -4.833   5.999  0.00  0.00     0.078 C 
ENDROOT
BRANCH   1   8
ATOM      8  C1  UNL d   1       0.114  -2.581   4.351  0.00  0.00     0.053 C 
ATOM      9  C   UNL d   1      -0.115  -1.302   3.559  0.00  0.00     0.018 C 
ENDBRANCH   1   8
TORSDOF 1
ENDMDL
