MODEL 1
REMARK minimizedAffinity 8.81976509
REMARK minimizedRMSD -1
REMARK  1 active torsions:
REMARK  status: ('A' for Active; 'I' for Inactive)
REMARK    1  A    between atoms: C1_2  and  C2_3 
ROOT
ATOM      1  C2  UNL d   1      -1.402  -0.269   2.970  0.00  0.00    -0.081 A 
ATOM      2  C3  UNL d   1      -2.760  -0.052   2.706  0.00  0.00     0.006 A 
ATOM      3  C4  UNL d   1      -3.169   0.454   1.469  0.00  0.00     0.002 A 
ATOM      4  C5  UNL d   1      -2.228   0.743   0.475  0.00  0.00    -0.080 A 
ATOM      5  C6  UNL d   1      -2.656   1.257  -0.867  0.00  0.00     0.076 C 
ATOM      6  C7  UNL d   1      -0.870   0.542   0.745  0.00  0.00     0.002 A 
ATOM      7  C8  UNL d   1      -0.461   0.037   1.981  0.00  0.00     0.006 A 
ENDROOT
BRANCH   1   8
ATOM      8  C1  UNL d   1      -0.963  -0.875   4.279  0.00  0.00     0.054 C 
ATOM      9  C   UNL d   1       0.546  -1.065   4.322  0.00  0.00     0.018 C 
ENDBRANCH   1   8
TORSDOF 1
ENDMDL
