MODEL 1
REMARK minimizedAffinity 2.3574357
REMARK minimizedRMSD -1
REMARK  1 active torsions:
REMARK  status: ('A' for Active; 'I' for Inactive)
REMARK    1  A    between atoms: C1_2  and  C2_3 
ROOT
ATOM      1  C2  UNL d   1      -2.050  -0.451   2.153  0.00  0.00    -0.081 A 
ATOM      2  C3  UNL d   1      -2.146  -0.217   0.775  0.00  0.00     0.006 A 
ATOM      3  C4  UNL d   1      -1.024   0.185   0.046  0.00  0.00     0.002 A 
ATOM      4  C5  UNL d   1       0.212   0.351   0.679  0.00  0.00    -0.080 A 
ATOM      5  C6  UNL d   1       1.431   0.752  -0.099  0.00  0.00     0.076 C 
ATOM      6  C7  UNL d   1       0.304   0.133   2.058  0.00  0.00     0.002 A 
ATOM      7  C8  UNL d   1      -0.817  -0.267   2.788  0.00  0.00     0.006 A 
ENDROOT
BRANCH   1   8
ATOM      8  C1  UNL d   1      -3.243  -0.946   2.930  0.00  0.00     0.054 C 
ATOM      9  C   UNL d   1      -2.835  -1.986   3.965  0.00  0.00     0.018 C 
ENDBRANCH   1   8
TORSDOF 1
ENDMDL
