MODEL 1
REMARK minimizedAffinity 13.4152145
REMARK minimizedRMSD -1
REMARK  1 active torsions:
REMARK  status: ('A' for Active; 'I' for Inactive)
REMARK    1  A    between atoms: C1_2  and  C2_3 
ROOT
ATOM      1  C2  UNL d   1      -2.215   0.281   1.647  0.00  0.00    -0.081 A 
ATOM      2  C3  UNL d   1      -3.117   0.256   0.576  0.00  0.00     0.006 A 
ATOM      3  C4  UNL d   1      -2.655   0.119  -0.735  0.00  0.00     0.002 A 
ATOM      4  C5  UNL d   1      -1.287  -0.003  -0.997  0.00  0.00    -0.080 A 
ATOM      5  C6  UNL d   1      -0.780  -0.181  -2.398  0.00  0.00     0.076 C 
ATOM      6  C7  UNL d   1      -0.384   0.040   0.071  0.00  0.00     0.002 A 
ATOM      7  C8  UNL d   1      -0.845   0.178   1.382  0.00  0.00     0.006 A 
ENDROOT
BRANCH   1   8
ATOM      8  C1  UNL d   1      -2.713   0.364   3.067  0.00  0.00     0.054 C 
ATOM      9  C   UNL d   1      -3.433  -0.913   3.476  0.00  0.00     0.018 C 
ENDBRANCH   1   8
TORSDOF 1
ENDMDL
