MODEL 1
REMARK minimizedAffinity 5.42539549
REMARK minimizedRMSD -1
REMARK  1 active torsions:
REMARK  status: ('A' for Active; 'I' for Inactive)
REMARK    1  A    between atoms: C1_2  and  C2_3 
ROOT
ATOM      1  C2  UNL d   1      -1.618  -0.284   1.065  0.00  0.00    -0.081 A 
ATOM      2  C3  UNL d   1      -0.237  -0.504   1.142  0.00  0.00     0.006 A 
ATOM      3  C4  UNL d   1       0.366  -0.807   2.365  0.00  0.00     0.002 A 
ATOM      4  C5  UNL d   1      -0.403  -0.903   3.530  0.00  0.00    -0.080 A 
ATOM      5  C6  UNL d   1       0.227  -1.258   4.844  0.00  0.00     0.076 C 
ATOM      6  C7  UNL d   1      -1.780  -0.667   3.457  0.00  0.00     0.002 A 
ATOM      7  C8  UNL d   1      -2.383  -0.363   2.234  0.00  0.00     0.006 A 
ENDROOT
BRANCH   1   8
ATOM      8  C1  UNL d   1      -2.280  -0.021  -0.263  0.00  0.00     0.054 C 
ATOM      9  C   UNL d   1      -3.225  -1.151  -0.643  0.00  0.00     0.018 C 
ENDBRANCH   1   8
TORSDOF 1
ENDMDL
