MODEL 1
REMARK minimizedAffinity -3.59570479
REMARK minimizedRMSD -1
REMARK  1 active torsions:
REMARK  status: ('A' for Active; 'I' for Inactive)
REMARK    1  A    between atoms: C1_2  and  C2_3 
ROOT
ATOM      1  C2  UNL d   1       0.156   1.389   2.459  0.00  0.00    -0.081 A 
ATOM      2  C3  UNL d   1       0.616   1.417   1.137  0.00  0.00     0.006 A 
ATOM      3  C4  UNL d   1       0.098   0.533   0.188  0.00  0.00     0.002 A 
ATOM      4  C5  UNL d   1      -0.895  -0.388   0.542  0.00  0.00    -0.080 A 
ATOM      5  C6  UNL d   1      -1.482  -1.321  -0.474  0.00  0.00     0.076 C 
ATOM      6  C7  UNL d   1      -1.342  -0.427   1.867  0.00  0.00     0.002 A 
ATOM      7  C8  UNL d   1      -0.824   0.456   2.817  0.00  0.00     0.006 A 
ENDROOT
BRANCH   1   8
ATOM      8  C1  UNL d   1       0.666   2.384   3.470  0.00  0.00     0.054 C 
ATOM      9  C   UNL d   1      -0.341   2.602   4.590  0.00  0.00     0.018 C 
ENDBRANCH   1   8
TORSDOF 1
ENDMDL
