MODEL 1
REMARK minimizedAffinity 11.0056791
REMARK minimizedRMSD -1
REMARK  1 active torsions:
REMARK  status: ('A' for Active; 'I' for Inactive)
REMARK    1  A    between atoms: C1_2  and  C2_3 
ROOT
ATOM      1  C2  UNL d   1       0.633  -0.033   0.901  0.00  0.00    -0.081 A 
ATOM      2  C3  UNL d   1       0.314  -0.507  -0.377  0.00  0.00     0.006 A 
ATOM      3  C4  UNL d   1      -1.020  -0.623  -0.777  0.00  0.00     0.002 A 
ATOM      4  C5  UNL d   1      -2.055  -0.259   0.091  0.00  0.00    -0.080 A 
ATOM      5  C6  UNL d   1      -3.490  -0.350  -0.337  0.00  0.00     0.076 C 
ATOM      6  C7  UNL d   1      -1.737   0.199   1.374  0.00  0.00     0.002 A 
ATOM      7  C8  UNL d   1      -0.404   0.314   1.775  0.00  0.00     0.006 A 
ENDROOT
BRANCH   1   8
ATOM      8  C1  UNL d   1       2.071   0.154   1.312  0.00  0.00     0.054 C 
ATOM      9  C   UNL d   1       2.585   1.531   0.917  0.00  0.00     0.018 C 
ENDBRANCH   1   8
TORSDOF 1
ENDMDL
