MODEL 1
REMARK minimizedAffinity 3.77863097
REMARK minimizedRMSD -1
REMARK  1 active torsions:
REMARK  status: ('A' for Active; 'I' for Inactive)
REMARK    1  A    between atoms: C1_2  and  C2_3 
ROOT
ATOM      1  C2  UNL d   1      -1.491   0.601   1.425  0.00  0.00    -0.081 A 
ATOM      2  C3  UNL d   1      -0.185   0.146   1.645  0.00  0.00     0.006 A 
ATOM      3  C4  UNL d   1       0.205  -0.306   2.908  0.00  0.00     0.002 A 
ATOM      4  C5  UNL d   1      -0.706  -0.316   3.970  0.00  0.00    -0.080 A 
ATOM      5  C6  UNL d   1      -0.310  -0.826   5.324  0.00  0.00     0.076 C 
ATOM      6  C7  UNL d   1      -2.006   0.155   3.755  0.00  0.00     0.002 A 
ATOM      7  C8  UNL d   1      -2.396   0.607   2.492  0.00  0.00     0.006 A 
ENDROOT
BRANCH   1   8
ATOM      8  C1  UNL d   1      -1.932   1.027   0.048  0.00  0.00     0.054 C 
ATOM      9  C   UNL d   1      -2.620  -0.112  -0.690  0.00  0.00     0.018 C 
ENDBRANCH   1   8
TORSDOF 1
ENDMDL
