MODEL 1
REMARK minimizedAffinity 30.4970074
REMARK minimizedRMSD -1
REMARK  0 active torsions:
REMARK  status: ('A' for Active; 'I' for Inactive)
ROOT
ATOM      1  C   UNL d   1       0.858  -1.439   1.697  0.00  0.00     0.124 A 
ATOM      2  C1  UNL d   1       1.341  -2.162   2.779  0.00  0.00     0.062 A 
ATOM      3  C2  UNL d   1       2.701  -2.442   2.882  0.00  0.00     0.162 A 
ATOM      4  C3  UNL d   1       3.587  -1.999   1.900  0.00  0.00    -0.034 A 
ATOM      5  C4  UNL d   1       3.093  -1.274   0.814  0.00  0.00     0.162 A 
ATOM      6  C5  UNL d   1       1.733  -0.996   0.716  0.00  0.00     0.062 A 
ATOM      7  F   UNL d   1       1.268  -0.298  -0.330  0.00  0.00    -0.097 F 
ATOM      8  F1  UNL d   1       3.917  -0.833  -0.148  0.00  0.00    -0.096 F 
ATOM      9  I   UNL d   1       5.620  -2.417   2.050  0.00  0.00    -0.060 I 
ATOM     10  F2  UNL d   1       3.140  -3.142   3.938  0.00  0.00    -0.096 F 
ATOM     11  F3  UNL d   1       0.497  -2.592   3.727  0.00  0.00    -0.097 F 
ATOM     12  F4  UNL d   1      -0.451  -1.172   1.600  0.00  0.00    -0.092 F 
ENDROOT
TORSDOF 0
ENDMDL
