MODEL 1
REMARK minimizedAffinity 23.0750999
REMARK minimizedRMSD -1
REMARK  0 active torsions:
REMARK  status: ('A' for Active; 'I' for Inactive)
ROOT
ATOM      1  C   UNL d   1       1.384   0.896   3.692  0.00  0.00     0.124 A 
ATOM      2  C1  UNL d   1       1.064  -0.185   4.502  0.00  0.00     0.062 A 
ATOM      3  C2  UNL d   1       1.106  -1.479   3.992  0.00  0.00     0.162 A 
ATOM      4  C3  UNL d   1       1.471  -1.701   2.664  0.00  0.00    -0.034 A 
ATOM      5  C4  UNL d   1       1.790  -0.609   1.855  0.00  0.00     0.162 A 
ATOM      6  C5  UNL d   1       1.746   0.683   2.369  0.00  0.00     0.062 A 
ATOM      7  F   UNL d   1       2.056   1.726   1.585  0.00  0.00    -0.097 F 
ATOM      8  F1  UNL d   1       2.145  -0.786   0.573  0.00  0.00    -0.096 F 
ATOM      9  I   UNL d   1       1.535  -3.634   1.897  0.00  0.00    -0.060 I 
ATOM     10  F2  UNL d   1       0.792  -2.504   4.798  0.00  0.00    -0.096 F 
ATOM     11  F3  UNL d   1       0.712   0.018   5.780  0.00  0.00    -0.097 F 
ATOM     12  F4  UNL d   1       1.341   2.140   4.185  0.00  0.00    -0.092 F 
ENDROOT
TORSDOF 0
ENDMDL
