MODEL 1
REMARK minimizedAffinity 29.417141
REMARK minimizedRMSD -1
REMARK  0 active torsions:
REMARK  status: ('A' for Active; 'I' for Inactive)
ROOT
ATOM      1  C   UNL d   1       1.153  -0.858   3.197  0.00  0.00     0.124 A 
ATOM      2  C1  UNL d   1       1.341  -0.870   1.821  0.00  0.00     0.062 A 
ATOM      3  C2  UNL d   1       1.809  -2.018   1.189  0.00  0.00     0.162 A 
ATOM      4  C3  UNL d   1       2.092  -3.165   1.931  0.00  0.00    -0.034 A 
ATOM      5  C4  UNL d   1       1.902  -3.145   3.314  0.00  0.00     0.162 A 
ATOM      6  C5  UNL d   1       1.433  -1.995   3.941  0.00  0.00     0.062 A 
ATOM      7  F   UNL d   1       1.252  -1.986   5.270  0.00  0.00    -0.097 F 
ATOM      8  F1  UNL d   1       2.164  -4.230   4.057  0.00  0.00    -0.096 F 
ATOM      9  I   UNL d   1       2.793  -4.884   0.989  0.00  0.00    -0.060 I 
ATOM     10  F2  UNL d   1       1.981  -2.001  -0.141  0.00  0.00    -0.096 F 
ATOM     11  F3  UNL d   1       1.071   0.227   1.100  0.00  0.00    -0.097 F 
ATOM     12  F4  UNL d   1       0.703   0.248   3.803  0.00  0.00    -0.092 F 
ENDROOT
TORSDOF 0
ENDMDL
