MODEL 1
REMARK minimizedAffinity 10.3451777
REMARK minimizedRMSD -1
REMARK  0 active torsions:
REMARK  status: ('A' for Active; 'I' for Inactive)
ROOT
ATOM      1  C   UNL d   1       1.879  -4.896   3.642  0.00  0.00     0.124 A 
ATOM      2  C1  UNL d   1       1.774  -4.810   2.261  0.00  0.00     0.062 A 
ATOM      3  C2  UNL d   1       1.249  -3.665   1.669  0.00  0.00     0.162 A 
ATOM      4  C3  UNL d   1       0.827  -2.595   2.458  0.00  0.00    -0.034 A 
ATOM      5  C4  UNL d   1       0.935  -2.689   3.846  0.00  0.00     0.162 A 
ATOM      6  C5  UNL d   1       1.460  -3.836   4.433  0.00  0.00     0.062 A 
ATOM      7  F   UNL d   1       1.562  -3.916   5.768  0.00  0.00    -0.097 F 
ATOM      8  F1  UNL d   1       0.538  -1.679   4.635  0.00  0.00    -0.096 F 
ATOM      9  I   UNL d   1       0.041  -0.881   1.576  0.00  0.00    -0.060 I 
ATOM     10  F2  UNL d   1       1.159  -3.610   0.331  0.00  0.00    -0.096 F 
ATOM     11  F3  UNL d   1       2.177  -5.834   1.494  0.00  0.00    -0.097 F 
ATOM     12  F4  UNL d   1       2.384  -5.999   4.209  0.00  0.00    -0.092 F 
ENDROOT
TORSDOF 0
ENDMDL
