MODEL 1
REMARK minimizedAffinity 16.1302013
REMARK minimizedRMSD -1
REMARK  0 active torsions:
REMARK  status: ('A' for Active; 'I' for Inactive)
ROOT
ATOM      1  C   UNL d   1       1.581   0.376   2.463  0.00  0.00     0.124 A 
ATOM      2  C1  UNL d   1       1.713  -0.972   2.161  0.00  0.00     0.062 A 
ATOM      3  C2  UNL d   1       1.542  -1.932   3.154  0.00  0.00     0.162 A 
ATOM      4  C3  UNL d   1       1.234  -1.547   4.459  0.00  0.00    -0.034 A 
ATOM      5  C4  UNL d   1       1.104  -0.189   4.756  0.00  0.00     0.162 A 
ATOM      6  C5  UNL d   1       1.277   0.766   3.759  0.00  0.00     0.062 A 
ATOM      7  F   UNL d   1       1.149   2.068   4.053  0.00  0.00    -0.097 F 
ATOM      8  F1  UNL d   1       0.809   0.215   6.000  0.00  0.00    -0.096 F 
ATOM      9  I   UNL d   1       0.977  -2.980   5.947  0.00  0.00    -0.060 I 
ATOM     10  F2  UNL d   1       1.675  -3.228   2.834  0.00  0.00    -0.096 F 
ATOM     11  F3  UNL d   1       2.008  -1.352   0.909  0.00  0.00    -0.097 F 
ATOM     12  F4  UNL d   1       1.748   1.298   1.506  0.00  0.00    -0.092 F 
ENDROOT
TORSDOF 0
ENDMDL
