MODEL 1
REMARK minimizedAffinity 27.446907
REMARK minimizedRMSD -1
REMARK  0 active torsions:
REMARK  status: ('A' for Active; 'I' for Inactive)
ROOT
ATOM      1  C   UNL d   1      -2.730   1.242  -1.744  0.00  0.00     0.124 A 
ATOM      2  C1  UNL d   1      -2.503   1.866  -0.525  0.00  0.00     0.062 A 
ATOM      3  C2  UNL d   1      -3.434   2.765  -0.015  0.00  0.00     0.162 A 
ATOM      4  C3  UNL d   1      -4.603   3.046  -0.723  0.00  0.00    -0.034 A 
ATOM      5  C4  UNL d   1      -4.824   2.415  -1.948  0.00  0.00     0.162 A 
ATOM      6  C5  UNL d   1      -3.890   1.517  -2.455  0.00  0.00     0.062 A 
ATOM      7  F   UNL d   1      -4.111   0.916  -3.632  0.00  0.00    -0.097 F 
ATOM      8  F1  UNL d   1      -5.937   2.662  -2.655  0.00  0.00    -0.096 F 
ATOM      9  I   UNL d   1      -5.998   4.390   0.038  0.00  0.00    -0.060 I 
ATOM     10  F2  UNL d   1      -3.189   3.353   1.166  0.00  0.00    -0.096 F 
ATOM     11  F3  UNL d   1      -1.382   1.602   0.162  0.00  0.00    -0.097 F 
ATOM     12  F4  UNL d   1      -1.831   0.378  -2.234  0.00  0.00    -0.092 F 
ENDROOT
TORSDOF 0
ENDMDL
