MODEL 1
REMARK minimizedAffinity 15.3339062
REMARK minimizedRMSD -1
REMARK  0 active torsions:
REMARK  status: ('A' for Active; 'I' for Inactive)
ROOT
ATOM      1  C   UNL d   1      -2.857   0.911  -1.648  0.00  0.00     0.124 A 
ATOM      2  C1  UNL d   1      -2.657   1.394  -0.362  0.00  0.00     0.062 A 
ATOM      3  C2  UNL d   1      -3.454   2.422   0.131  0.00  0.00     0.162 A 
ATOM      4  C3  UNL d   1      -4.460   2.975  -0.662  0.00  0.00    -0.034 A 
ATOM      5  C4  UNL d   1      -4.655   2.485  -1.954  0.00  0.00     0.162 A 
ATOM      6  C5  UNL d   1      -3.856   1.457  -2.443  0.00  0.00     0.062 A 
ATOM      7  F   UNL d   1      -4.050   0.991  -3.685  0.00  0.00    -0.097 F 
ATOM      8  F1  UNL d   1      -5.613   2.994  -2.743  0.00  0.00    -0.096 F 
ATOM      9  I   UNL d   1      -5.654   4.514   0.072  0.00  0.00    -0.060 I 
ATOM     10  F2  UNL d   1      -3.239   2.869   1.377  0.00  0.00    -0.096 F 
ATOM     11  F3  UNL d   1      -1.693   0.868   0.407  0.00  0.00    -0.097 F 
ATOM     12  F4  UNL d   1      -2.088  -0.079  -2.121  0.00  0.00    -0.092 F 
ENDROOT
TORSDOF 0
ENDMDL
