MODEL 1
REMARK minimizedAffinity 18.4496479
REMARK minimizedRMSD -1
REMARK  0 active torsions:
REMARK  status: ('A' for Active; 'I' for Inactive)
ROOT
ATOM      1  C   UNL d   1      -1.909   1.121  -1.240  0.00  0.00     0.124 A 
ATOM      2  C1  UNL d   1      -2.748   1.403  -2.309  0.00  0.00     0.062 A 
ATOM      3  C2  UNL d   1      -3.814   2.284  -2.148  0.00  0.00     0.162 A 
ATOM      4  C3  UNL d   1      -4.046   2.890  -0.913  0.00  0.00    -0.034 A 
ATOM      5  C4  UNL d   1      -3.198   2.601   0.157  0.00  0.00     0.162 A 
ATOM      6  C5  UNL d   1      -2.134   1.720  -0.008  0.00  0.00     0.062 A 
ATOM      7  F   UNL d   1      -1.324   1.448   1.025  0.00  0.00    -0.097 F 
ATOM      8  F1  UNL d   1      -3.392   3.166   1.358  0.00  0.00    -0.096 F 
ATOM      9  I   UNL d   1      -5.638   4.208  -0.669  0.00  0.00    -0.060 I 
ATOM     10  F2  UNL d   1      -4.609   2.538  -3.198  0.00  0.00    -0.096 F 
ATOM     11  F3  UNL d   1      -2.533   0.825  -3.499  0.00  0.00    -0.097 F 
ATOM     12  F4  UNL d   1      -0.884   0.272  -1.397  0.00  0.00    -0.092 F 
ENDROOT
TORSDOF 0
ENDMDL
