MODEL 1
REMARK minimizedAffinity 20.3637619
REMARK minimizedRMSD -1
REMARK  0 active torsions:
REMARK  status: ('A' for Active; 'I' for Inactive)
ROOT
ATOM      1  C   UNL d   1      -3.165   0.972  -1.745  0.00  0.00     0.124 A 
ATOM      2  C1  UNL d   1      -4.226   1.518  -2.454  0.00  0.00     0.062 A 
ATOM      3  C2  UNL d   1      -4.979   2.550  -1.902  0.00  0.00     0.162 A 
ATOM      4  C3  UNL d   1      -4.675   3.043  -0.634  0.00  0.00    -0.034 A 
ATOM      5  C4  UNL d   1      -3.607   2.488   0.074  0.00  0.00     0.162 A 
ATOM      6  C5  UNL d   1      -2.857   1.457  -0.482  0.00  0.00     0.062 A 
ATOM      7  F   UNL d   1      -1.832   0.931   0.205  0.00  0.00    -0.097 F 
ATOM      8  F1  UNL d   1      -3.286   2.939   1.296  0.00  0.00    -0.096 F 
ATOM      9  I   UNL d   1      -5.799   4.586   0.195  0.00  0.00    -0.060 I 
ATOM     10  F2  UNL d   1      -5.999   3.058  -2.610  0.00  0.00    -0.096 F 
ATOM     11  F3  UNL d   1      -4.526   1.050  -3.674  0.00  0.00    -0.097 F 
ATOM     12  F4  UNL d   1      -2.442  -0.022  -2.277  0.00  0.00    -0.092 F 
ENDROOT
TORSDOF 0
ENDMDL
