MODEL 1
REMARK minimizedAffinity 15.5316362
REMARK minimizedRMSD -1
REMARK  0 active torsions:
REMARK  status: ('A' for Active; 'I' for Inactive)
ROOT
ATOM      1  C   UNL d   1       2.252   0.191   1.999  0.00  0.00     0.124 A 
ATOM      2  C1  UNL d   1       2.421  -1.082   1.471  0.00  0.00     0.062 A 
ATOM      3  C2  UNL d   1       1.892  -2.189   2.129  0.00  0.00     0.162 A 
ATOM      4  C3  UNL d   1       1.189  -2.028   3.323  0.00  0.00    -0.034 A 
ATOM      5  C4  UNL d   1       1.025  -0.745   3.849  0.00  0.00     0.162 A 
ATOM      6  C5  UNL d   1       1.555   0.358   3.187  0.00  0.00     0.062 A 
ATOM      7  F   UNL d   1       1.392   1.586   3.699  0.00  0.00    -0.097 F 
ATOM      8  F1  UNL d   1       0.355  -0.555   4.995  0.00  0.00    -0.096 F 
ATOM      9  I   UNL d   1       0.398  -3.680   4.310  0.00  0.00    -0.060 I 
ATOM     10  F2  UNL d   1       2.070  -3.406   1.595  0.00  0.00    -0.096 F 
ATOM     11  F3  UNL d   1       3.095  -1.246   0.323  0.00  0.00    -0.097 F 
ATOM     12  F4  UNL d   1       2.763   1.254   1.364  0.00  0.00    -0.092 F 
ENDROOT
TORSDOF 0
ENDMDL
