MODEL 1
REMARK minimizedAffinity 5.75190353
REMARK minimizedRMSD -1
REMARK  1 active torsions:
REMARK  status: ('A' for Active; 'I' for Inactive)
REMARK    1  A    between atoms: C1_2  and  C2_3 
ROOT
ATOM      1  C2  UNL d   1      -0.093  -4.984  -3.865  0.00  0.00    -0.081 A 
ATOM      2  C3  UNL d   1      -1.105  -5.746  -3.268  0.00  0.00     0.006 A 
ATOM      3  C4  UNL d   1      -2.297  -5.999  -3.952  0.00  0.00     0.002 A 
ATOM      4  C5  UNL d   1      -2.493  -5.500  -5.244  0.00  0.00    -0.080 A 
ATOM      5  C6  UNL d   1      -3.756  -5.790  -6.000  0.00  0.00     0.076 C 
ATOM      6  C7  UNL d   1      -1.490  -4.724  -5.833  0.00  0.00     0.002 A 
ATOM      7  C8  UNL d   1      -0.298  -4.470  -5.150  0.00  0.00     0.006 A 
ENDROOT
BRANCH   1   8
ATOM      8  C1  UNL d   1       1.219  -4.764  -3.156  0.00  0.00     0.054 C 
ATOM      9  C   UNL d   1       1.451  -5.816  -2.081  0.00  0.00     0.018 C 
ENDBRANCH   1   8
TORSDOF 1
ENDMDL
