MODEL 1
REMARK minimizedAffinity 5.2918644
REMARK minimizedRMSD -1
REMARK  1 active torsions:
REMARK  status: ('A' for Active; 'I' for Inactive)
REMARK    1  A    between atoms: C1_2  and  C2_3 
ROOT
ATOM      1  C2  UNL d   1      -0.135  -4.945  -3.841  0.00  0.00    -0.081 A 
ATOM      2  C3  UNL d   1      -0.365  -4.205  -5.008  0.00  0.00     0.006 A 
ATOM      3  C4  UNL d   1      -1.560  -4.353  -5.716  0.00  0.00     0.002 A 
ATOM      4  C5  UNL d   1      -2.547  -5.236  -5.266  0.00  0.00    -0.080 A 
ATOM      5  C6  UNL d   1      -3.847  -5.382  -6.000  0.00  0.00     0.076 C 
ATOM      6  C7  UNL d   1      -2.310  -5.989  -4.110  0.00  0.00     0.002 A 
ATOM      7  C8  UNL d   1      -1.115  -5.842  -3.402  0.00  0.00     0.006 A 
ENDROOT
BRANCH   1   8
ATOM      8  C1  UNL d   1       1.125  -4.740  -3.040  0.00  0.00     0.054 C 
ATOM      9  C   UNL d   1       1.498  -5.996  -2.264  0.00  0.00     0.018 C 
ENDBRANCH   1   8
TORSDOF 1
ENDMDL
