MODEL 1
REMARK minimizedAffinity -2.76859999
REMARK minimizedRMSD -1
REMARK  1 active torsions:
REMARK  status: ('A' for Active; 'I' for Inactive)
REMARK    1  A    between atoms: C1_2  and  C2_3 
ROOT
ATOM      1  C2  UNL d   1       0.469  -4.921  -4.335  0.00  0.00    -0.081 A 
ATOM      2  C3  UNL d   1       0.752  -5.647  -3.171  0.00  0.00     0.006 A 
ATOM      3  C4  UNL d   1       2.067  -6.000  -2.860  0.00  0.00     0.002 A 
ATOM      4  C5  UNL d   1       3.121  -5.627  -3.701  0.00  0.00    -0.080 A 
ATOM      5  C6  UNL d   1       4.540  -5.974  -3.363  0.00  0.00     0.076 C 
ATOM      6  C7  UNL d   1       2.836  -4.917  -4.873  0.00  0.00     0.002 A 
ATOM      7  C8  UNL d   1       1.522  -4.564  -5.185  0.00  0.00     0.006 A 
ENDROOT
BRANCH   1   8
ATOM      8  C1  UNL d   1      -0.940  -4.482  -4.641  0.00  0.00     0.054 C 
ATOM      9  C   UNL d   1      -1.591  -5.392  -5.673  0.00  0.00     0.018 C 
ENDBRANCH   1   8
TORSDOF 1
ENDMDL
