MODEL 1
REMARK minimizedAffinity 9.3059597
REMARK minimizedRMSD -1
REMARK  1 active torsions:
REMARK  status: ('A' for Active; 'I' for Inactive)
REMARK    1  A    between atoms: C1_2  and  C2_3 
ROOT
ATOM      1  C2  UNL d   1       0.050   3.498  -0.202  0.00  0.00    -0.081 A 
ATOM      2  C3  UNL d   1       0.604   4.772  -0.379  0.00  0.00     0.006 A 
ATOM      3  C4  UNL d   1       0.200   5.578  -1.445  0.00  0.00     0.002 A 
ATOM      4  C5  UNL d   1      -0.770   5.128  -2.347  0.00  0.00    -0.080 A 
ATOM      5  C6  UNL d   1      -1.235   5.996  -3.478  0.00  0.00     0.076 C 
ATOM      6  C7  UNL d   1      -1.312   3.849  -2.180  0.00  0.00     0.002 A 
ATOM      7  C8  UNL d   1      -0.908   3.042  -1.115  0.00  0.00     0.006 A 
ENDROOT
BRANCH   1   8
ATOM      8  C1  UNL d   1       0.436   2.652   0.985  0.00  0.00     0.054 C 
ATOM      9  C   UNL d   1      -0.767   1.913   1.553  0.00  0.00     0.018 C 
ENDBRANCH   1   8
TORSDOF 1
ENDMDL
