MODEL 1
REMARK minimizedAffinity -4.51298237
REMARK minimizedRMSD -1
REMARK  2 active torsions:
REMARK  status: ('A' for Active; 'I' for Inactive)
REMARK    1  A    between atoms: C1_2  and  C2_3 
REMARK    2  A    between atoms: C2_3  and  C3_4 
ROOT
ATOM      1  C3  UNL d   1      -0.144   0.333  -1.285  0.00  0.00    -0.075 A 
ATOM      2  C4  UNL d   1      -0.171   0.641   0.083  0.00  0.00     0.002 A 
ATOM      3  C5  UNL d   1       0.794   0.121   0.945  0.00  0.00     0.002 A 
ATOM      4  C6  UNL d   1       1.791  -0.720   0.454  0.00  0.00    -0.004 A 
ATOM      5  C7  UNL d   1       1.818  -1.046  -0.900  0.00  0.00     0.002 A 
ATOM      6  C8  UNL d   1       0.856  -0.523  -1.766  0.00  0.00     0.002 A 
ENDROOT
BRANCH   1   7
ATOM      7  C2  UNL d   1      -1.168   0.917  -2.229  0.00  0.00     0.056 C 
BRANCH   7   8
ATOM      8  C1  UNL d   1      -0.720   2.214  -2.911  0.00  0.00     0.007 C 
ATOM      9  C   UNL d   1      -1.417   3.452  -2.362  0.00  0.00     0.009 C 
ENDBRANCH   7   8
ENDBRANCH   1   7
TORSDOF 2
ENDMDL
