MODEL 1
REMARK minimizedAffinity -4.05651236
REMARK minimizedRMSD -1
REMARK  2 active torsions:
REMARK  status: ('A' for Active; 'I' for Inactive)
REMARK    1  A    between atoms: C1_2  and  C2_3 
REMARK    2  A    between atoms: C2_3  and  C3_4 
ROOT
ATOM      1  C3  UNL d   1      -0.170   0.153  -0.794  0.00  0.00    -0.075 A 
ATOM      2  C4  UNL d   1      -0.472   0.146   0.575  0.00  0.00     0.002 A 
ATOM      3  C5  UNL d   1       0.464  -0.307   1.505  0.00  0.00     0.002 A 
ATOM      4  C6  UNL d   1       1.708  -0.767   1.078  0.00  0.00    -0.004 A 
ATOM      5  C7  UNL d   1       2.013  -0.781  -0.282  0.00  0.00     0.002 A 
ATOM      6  C8  UNL d   1       1.079  -0.324  -1.214  0.00  0.00     0.002 A 
ENDROOT
BRANCH   1   7
ATOM      7  C2  UNL d   1      -1.168   0.670  -1.803  0.00  0.00     0.056 C 
BRANCH   7   8
ATOM      8  C1  UNL d   1      -1.287   2.197  -1.837  0.00  0.00     0.007 C 
ATOM      9  C   UNL d   1      -0.281   2.857  -2.770  0.00  0.00     0.009 C 
ENDBRANCH   7   8
ENDBRANCH   1   7
TORSDOF 2
ENDMDL
