MODEL 1
REMARK minimizedAffinity -3.54002142
REMARK minimizedRMSD -1
REMARK  2 active torsions:
REMARK  status: ('A' for Active; 'I' for Inactive)
REMARK    1  A    between atoms: C1_2  and  C2_3 
REMARK    2  A    between atoms: C2_3  and  C3_4 
ROOT
ATOM      1  C3  UNL d   1      -0.801   0.156   0.667  0.00  0.00    -0.075 A 
ATOM      2  C4  UNL d   1      -1.437  -0.767   1.510  0.00  0.00     0.002 A 
ATOM      3  C5  UNL d   1      -0.717  -1.433   2.502  0.00  0.00     0.002 A 
ATOM      4  C6  UNL d   1       0.646  -1.194   2.657  0.00  0.00    -0.004 A 
ATOM      5  C7  UNL d   1       1.292  -0.292   1.814  0.00  0.00     0.002 A 
ATOM      6  C8  UNL d   1       0.573   0.380   0.824  0.00  0.00     0.002 A 
ENDROOT
BRANCH   1   7
ATOM      7  C2  UNL d   1      -1.581   0.902  -0.389  0.00  0.00     0.056 C 
BRANCH   7   8
ATOM      8  C1  UNL d   1      -0.739   1.343  -1.591  0.00  0.00     0.007 C 
ATOM      9  C   UNL d   1      -1.452   2.345  -2.489  0.00  0.00     0.009 C 
ENDBRANCH   7   8
ENDBRANCH   1   7
TORSDOF 2
ENDMDL
