MODEL 1
REMARK minimizedAffinity -3.79959822
REMARK minimizedRMSD -1
REMARK  2 active torsions:
REMARK  status: ('A' for Active; 'I' for Inactive)
REMARK    1  A    between atoms: C1_2  and  C2_3 
REMARK    2  A    between atoms: C2_3  and  C3_4 
ROOT
ATOM      1  C3  UNL d   1      -0.313   0.150  -0.650  0.00  0.00    -0.075 A 
ATOM      2  C4  UNL d   1       0.781  -0.127   0.181  0.00  0.00     0.002 A 
ATOM      3  C5  UNL d   1       0.592  -0.385   1.539  0.00  0.00     0.002 A 
ATOM      4  C6  UNL d   1      -0.690  -0.358   2.084  0.00  0.00    -0.004 A 
ATOM      5  C7  UNL d   1      -1.783  -0.068   1.270  0.00  0.00     0.002 A 
ATOM      6  C8  UNL d   1      -1.597   0.185  -0.090  0.00  0.00     0.002 A 
ENDROOT
BRANCH   1   7
ATOM      7  C2  UNL d   1      -0.118   0.400  -2.127  0.00  0.00     0.056 C 
BRANCH   7   8
ATOM      8  C1  UNL d   1      -0.854   1.636  -2.653  0.00  0.00     0.007 C 
ATOM      9  C   UNL d   1      -0.124   2.940  -2.358  0.00  0.00     0.009 C 
ENDBRANCH   7   8
ENDBRANCH   1   7
TORSDOF 2
ENDMDL
