MODEL 1
REMARK minimizedAffinity -5.85279322
REMARK minimizedRMSD -1
REMARK  2 active torsions:
REMARK  status: ('A' for Active; 'I' for Inactive)
REMARK    1  A    between atoms: C1_2  and  C2_3 
REMARK    2  A    between atoms: C2_3  and  C3_4 
ROOT
ATOM      1  C3  UNL d   1      -0.070   0.057  -0.089  0.00  0.00    -0.075 A 
ATOM      2  C4  UNL d   1      -1.060  -0.170   0.879  0.00  0.00     0.002 A 
ATOM      3  C5  UNL d   1      -0.710  -0.573   2.168  0.00  0.00     0.002 A 
ATOM      4  C6  UNL d   1       0.629  -0.764   2.502  0.00  0.00    -0.004 A 
ATOM      5  C7  UNL d   1       1.619  -0.557   1.544  0.00  0.00     0.002 A 
ATOM      6  C8  UNL d   1       1.272  -0.149   0.255  0.00  0.00     0.002 A 
ENDROOT
BRANCH   1   7
ATOM      7  C2  UNL d   1      -0.440   0.522  -1.477  0.00  0.00     0.056 C 
BRANCH   7   8
ATOM      8  C1  UNL d   1      -1.092   1.908  -1.518  0.00  0.00     0.007 C 
ATOM      9  C   UNL d   1      -0.269   2.937  -2.280  0.00  0.00     0.009 C 
ENDBRANCH   7   8
ENDBRANCH   1   7
TORSDOF 2
ENDMDL
