MODEL 1
REMARK minimizedAffinity -5.80423832
REMARK minimizedRMSD -1
REMARK  1 active torsions:
REMARK  status: ('A' for Active; 'I' for Inactive)
REMARK    1  A    between atoms: C1_2  and  C2_3 
ROOT
ATOM      1  C2  UNL d   1      -0.238   0.746  -0.730  0.00  0.00    -0.081 A 
ATOM      2  C3  UNL d   1       0.953   0.187  -0.250  0.00  0.00     0.006 A 
ATOM      3  C4  UNL d   1       1.887   0.979   0.422  0.00  0.00     0.002 A 
ATOM      4  C5  UNL d   1       1.642   2.340   0.632  0.00  0.00    -0.080 A 
ATOM      5  C6  UNL d   1       2.623   3.196   1.378  0.00  0.00     0.076 C 
ATOM      6  C7  UNL d   1       0.461   2.903   0.137  0.00  0.00     0.002 A 
ATOM      7  C8  UNL d   1      -0.473   2.111  -0.535  0.00  0.00     0.006 A 
ENDROOT
BRANCH   1   8
ATOM      8  C1  UNL d   1      -1.276  -0.120  -1.398  0.00  0.00     0.054 C 
ATOM      9  C   UNL d   1      -2.132  -0.848  -0.372  0.00  0.00     0.018 C 
ENDBRANCH   1   8
TORSDOF 1
ENDMDL
