MODEL 1
REMARK minimizedAffinity -1.37428343
REMARK minimizedRMSD -1
REMARK  1 active torsions:
REMARK  status: ('A' for Active; 'I' for Inactive)
REMARK    1  A    between atoms: C1_2  and  C2_3 
ROOT
ATOM      1  C2  UNL d   1      -1.817  -0.538  -1.078  0.00  0.00    -0.081 A 
ATOM      2  C3  UNL d   1      -0.512  -0.487  -1.583  0.00  0.00     0.006 A 
ATOM      3  C4  UNL d   1       0.504   0.140  -0.858  0.00  0.00     0.002 A 
ATOM      4  C5  UNL d   1       0.234   0.719   0.386  0.00  0.00    -0.080 A 
ATOM      5  C6  UNL d   1       1.322   1.369   1.189  0.00  0.00     0.076 C 
ATOM      6  C7  UNL d   1      -1.073   0.684   0.883  0.00  0.00     0.002 A 
ATOM      7  C8  UNL d   1      -2.090   0.058   0.158  0.00  0.00     0.006 A 
ENDROOT
BRANCH   1   8
ATOM      8  C1  UNL d   1      -2.901  -1.270  -1.828  0.00  0.00     0.054 C 
ATOM      9  C   UNL d   1      -2.348  -1.958  -3.067  0.00  0.00     0.018 C 
ENDBRANCH   1   8
TORSDOF 1
ENDMDL
