MODEL 1
REMARK minimizedAffinity -5.10752487
REMARK minimizedRMSD -1
REMARK  1 active torsions:
REMARK  status: ('A' for Active; 'I' for Inactive)
REMARK    1  A    between atoms: C1_2  and  C2_3 
ROOT
ATOM      1  C2  UNL d   1      -0.889   0.133  -0.644  0.00  0.00    -0.081 A 
ATOM      2  C3  UNL d   1      -0.940   1.531  -0.573  0.00  0.00     0.006 A 
ATOM      3  C4  UNL d   1      -0.048   2.232   0.243  0.00  0.00     0.002 A 
ATOM      4  C5  UNL d   1       0.913   1.548   0.994  0.00  0.00    -0.080 A 
ATOM      5  C6  UNL d   1       1.896   2.290   1.851  0.00  0.00     0.076 C 
ATOM      6  C7  UNL d   1       0.953   0.151   0.937  0.00  0.00     0.002 A 
ATOM      7  C8  UNL d   1       0.061  -0.550   0.122  0.00  0.00     0.006 A 
ENDROOT
BRANCH   1   8
ATOM      8  C1  UNL d   1      -1.806  -0.621  -1.572  0.00  0.00     0.054 C 
ATOM      9  C   UNL d   1      -2.546  -1.730  -0.837  0.00  0.00     0.018 C 
ENDBRANCH   1   8
TORSDOF 1
ENDMDL
