MODEL 1
REMARK minimizedAffinity -5.17242861
REMARK minimizedRMSD -1
REMARK  1 active torsions:
REMARK  status: ('A' for Active; 'I' for Inactive)
REMARK    1  A    between atoms: C1_2  and  C2_3 
ROOT
ATOM      1  C2  UNL d   1       0.825   0.018   0.084  0.00  0.00    -0.081 A 
ATOM      2  C3  UNL d   1       0.030   0.713  -0.836  0.00  0.00     0.006 A 
ATOM      3  C4  UNL d   1      -1.344   0.471  -0.909  0.00  0.00     0.002 A 
ATOM      4  C5  UNL d   1      -1.946  -0.463  -0.060  0.00  0.00    -0.080 A 
ATOM      5  C6  UNL d   1      -3.425  -0.710  -0.108  0.00  0.00     0.076 C 
ATOM      6  C7  UNL d   1      -1.150  -1.170   0.847  0.00  0.00     0.002 A 
ATOM      7  C8  UNL d   1       0.224  -0.929   0.921  0.00  0.00     0.006 A 
ENDROOT
BRANCH   1   8
ATOM      8  C1  UNL d   1       2.296   0.323   0.210  0.00  0.00     0.054 C 
ATOM      9  C   UNL d   1       2.526   1.673   0.875  0.00  0.00     0.018 C 
ENDBRANCH   1   8
TORSDOF 1
ENDMDL
