MODEL 1
REMARK minimizedAffinity 1.88978541
REMARK minimizedRMSD -1
REMARK  1 active torsions:
REMARK  status: ('A' for Active; 'I' for Inactive)
REMARK    1  A    between atoms: C1_2  and  C2_3 
ROOT
ATOM      1  C2  UNL d   1      -0.759  -0.225   0.197  0.00  0.00    -0.081 A 
ATOM      2  C3  UNL d   1       0.127  -1.072   0.873  0.00  0.00     0.006 A 
ATOM      3  C4  UNL d   1      -0.260  -1.701   2.059  0.00  0.00     0.002 A 
ATOM      4  C5  UNL d   1      -1.541  -1.500   2.583  0.00  0.00    -0.080 A 
ATOM      5  C6  UNL d   1      -1.980  -2.192   3.839  0.00  0.00     0.076 C 
ATOM      6  C7  UNL d   1      -2.421  -0.640   1.917  0.00  0.00     0.002 A 
ATOM      7  C8  UNL d   1      -2.034  -0.010   0.732  0.00  0.00     0.006 A 
ENDROOT
BRANCH   1   8
ATOM      8  C1  UNL d   1      -0.368   0.404  -1.116  0.00  0.00     0.054 C 
ATOM      9  C   UNL d   1       1.040  -0.006  -1.528  0.00  0.00     0.018 C 
ENDBRANCH   1   8
TORSDOF 1
ENDMDL
