MODEL 1
REMARK minimizedAffinity -5.78457355
REMARK minimizedRMSD -1
REMARK  1 active torsions:
REMARK  status: ('A' for Active; 'I' for Inactive)
REMARK    1  A    between atoms: C1_2  and  C2_3 
ROOT
ATOM      1  C2  UNL d   1       0.672   1.197   0.421  0.00  0.00    -0.081 A 
ATOM      2  C3  UNL d   1      -0.198   2.022  -0.302  0.00  0.00     0.006 A 
ATOM      3  C4  UNL d   1      -1.405   1.521  -0.794  0.00  0.00     0.002 A 
ATOM      4  C5  UNL d   1      -1.766   0.189  -0.565  0.00  0.00    -0.080 A 
ATOM      5  C6  UNL d   1      -3.073  -0.354  -1.061  0.00  0.00     0.076 C 
ATOM      6  C7  UNL d   1      -0.889  -0.641   0.143  0.00  0.00     0.002 A 
ATOM      7  C8  UNL d   1       0.318  -0.140   0.634  0.00  0.00     0.006 A 
ENDROOT
BRANCH   1   8
ATOM      8  C1  UNL d   1       1.945   1.752   1.008  0.00  0.00     0.054 C 
ATOM      9  C   UNL d   1       2.999   1.974  -0.067  0.00  0.00     0.018 C 
ENDBRANCH   1   8
TORSDOF 1
ENDMDL
