MODEL 1
REMARK minimizedAffinity -5.42871237
REMARK minimizedRMSD -1
REMARK  1 active torsions:
REMARK  status: ('A' for Active; 'I' for Inactive)
REMARK    1  A    between atoms: C1_2  and  C2_3 
ROOT
ATOM      1  C2  UNL d   1       0.211   0.673   0.250  0.00  0.00    -0.081 A 
ATOM      2  C3  UNL d   1       0.243   0.449  -1.132  0.00  0.00     0.006 A 
ATOM      3  C4  UNL d   1      -0.755  -0.307  -1.751  0.00  0.00     0.002 A 
ATOM      4  C5  UNL d   1      -1.806  -0.845  -1.001  0.00  0.00    -0.080 A 
ATOM      5  C6  UNL d   1      -2.900  -1.633  -1.657  0.00  0.00     0.076 C 
ATOM      6  C7  UNL d   1      -1.829  -0.637   0.383  0.00  0.00     0.002 A 
ATOM      7  C8  UNL d   1      -0.831   0.119   1.002  0.00  0.00     0.006 A 
ENDROOT
BRANCH   1   8
ATOM      8  C1  UNL d   1       1.250   1.542   0.911  0.00  0.00     0.054 C 
ATOM      9  C   UNL d   1       0.613   2.738   1.603  0.00  0.00     0.018 C 
ENDBRANCH   1   8
TORSDOF 1
ENDMDL
