MODEL 1
REMARK minimizedAffinity -5.58826876
REMARK minimizedRMSD -1
REMARK  1 active torsions:
REMARK  status: ('A' for Active; 'I' for Inactive)
REMARK    1  A    between atoms: C1_2  and  C2_3 
ROOT
ATOM      1  C2  UNL d   1       0.713   0.415   0.525  0.00  0.00    -0.081 A 
ATOM      2  C3  UNL d   1      -0.425  -0.119   1.143  0.00  0.00     0.006 A 
ATOM      3  C4  UNL d   1      -1.479  -0.618   0.375  0.00  0.00     0.002 A 
ATOM      4  C5  UNL d   1      -1.410  -0.600  -1.022  0.00  0.00    -0.080 A 
ATOM      5  C6  UNL d   1      -2.522  -1.161  -1.858  0.00  0.00     0.076 C 
ATOM      6  C7  UNL d   1      -0.281  -0.051  -1.640  0.00  0.00     0.002 A 
ATOM      7  C8  UNL d   1       0.773   0.449  -0.872  0.00  0.00     0.006 A 
ENDROOT
BRANCH   1   8
ATOM      8  C1  UNL d   1       1.879   0.895   1.351  0.00  0.00     0.054 C 
ATOM      9  C   UNL d   1       2.798   1.796   0.538  0.00  0.00     0.018 C 
ENDBRANCH   1   8
TORSDOF 1
ENDMDL
