MODEL 1
REMARK minimizedAffinity -3.22181249
REMARK minimizedRMSD -1
REMARK  1 active torsions:
REMARK  status: ('A' for Active; 'I' for Inactive)
REMARK    1  A    between atoms: C1_2  and  C2_3 
ROOT
ATOM      1  C2  UNL d   1       0.695   1.371   0.323  0.00  0.00    -0.081 A 
ATOM      2  C3  UNL d   1      -0.393   2.154  -0.083  0.00  0.00     0.006 A 
ATOM      3  C4  UNL d   1      -1.434   1.590  -0.824  0.00  0.00     0.002 A 
ATOM      4  C5  UNL d   1      -1.409   0.233  -1.165  0.00  0.00    -0.080 A 
ATOM      5  C6  UNL d   1      -2.535  -0.392  -1.934  0.00  0.00     0.076 C 
ATOM      6  C7  UNL d   1      -0.314  -0.545  -0.774  0.00  0.00     0.002 A 
ATOM      7  C8  UNL d   1       0.728   0.019  -0.034  0.00  0.00     0.006 A 
ENDROOT
BRANCH   1   8
ATOM      8  C1  UNL d   1       1.788   1.962   1.177  0.00  0.00     0.054 C 
ATOM      9  C   UNL d   1       2.197   3.340   0.677  0.00  0.00     0.018 C 
ENDBRANCH   1   8
TORSDOF 1
ENDMDL
