MODEL 1
REMARK minimizedAffinity -1.68790519
REMARK minimizedRMSD -1
REMARK  1 active torsions:
REMARK  status: ('A' for Active; 'I' for Inactive)
REMARK    1  A    between atoms: C1_2  and  C2_3 
ROOT
ATOM      1  C2  UNL d   1      -0.359   0.138   0.082  0.00  0.00    -0.081 A 
ATOM      2  C3  UNL d   1      -0.662  -1.210  -0.148  0.00  0.00     0.006 A 
ATOM      3  C4  UNL d   1      -1.589  -1.570  -1.129  0.00  0.00     0.002 A 
ATOM      4  C5  UNL d   1      -2.222  -0.589  -1.901  0.00  0.00    -0.080 A 
ATOM      5  C6  UNL d   1      -3.197  -0.964  -2.978  0.00  0.00     0.076 C 
ATOM      6  C7  UNL d   1      -1.932   0.758  -1.660  0.00  0.00     0.002 A 
ATOM      7  C8  UNL d   1      -1.005   1.118  -0.679  0.00  0.00     0.006 A 
ENDROOT
BRANCH   1   8
ATOM      8  C1  UNL d   1       0.689   0.525   1.094  0.00  0.00     0.054 C 
ATOM      9  C   UNL d   1       2.080   0.529   0.478  0.00  0.00     0.018 C 
ENDBRANCH   1   8
TORSDOF 1
ENDMDL
