MODEL 1
REMARK minimizedAffinity -4.18623877
REMARK minimizedRMSD -1
REMARK  0 active torsions:
REMARK  status: ('A' for Active; 'I' for Inactive)
ROOT
ATOM      1  C   UNL d   1      -0.519   1.657   2.896  0.00  0.00     0.078 C 
ATOM      2  C1  UNL d   1      -0.014   1.020   1.636  0.00  0.00    -0.077 A 
ATOM      3  C2  UNL d   1      -0.859   0.827   0.536  0.00  0.00    -0.001 A 
ATOM      4  C3  UNL d   1      -0.378   0.224  -0.627  0.00  0.00     0.003 A 
ATOM      5  C4  UNL d   1       0.950  -0.192  -0.702  0.00  0.00    -0.005 A 
ATOM      6  C5  UNL d   1       1.798  -0.007   0.388  0.00  0.00     0.003 A 
ATOM      7  C6  UNL d   1       1.318   0.596   1.552  0.00  0.00    -0.001 A 
ENDROOT
TORSDOF 0
ENDMDL
