MODEL 1
REMARK minimizedAffinity -2.03209853
REMARK minimizedRMSD -1
REMARK  0 active torsions:
REMARK  status: ('A' for Active; 'I' for Inactive)
ROOT
ATOM      1  C   UNL d   1       1.890  -1.166  -0.537  0.00  0.00     0.078 C 
ATOM      2  C1  UNL d   1       1.573  -0.488  -1.837  0.00  0.00    -0.077 A 
ATOM      3  C2  UNL d   1       0.339  -0.681  -2.469  0.00  0.00    -0.001 A 
ATOM      4  C3  UNL d   1       0.062  -0.051  -3.684  0.00  0.00     0.003 A 
ATOM      5  C4  UNL d   1       1.014   0.776  -4.276  0.00  0.00    -0.005 A 
ATOM      6  C5  UNL d   1       2.246   0.972  -3.656  0.00  0.00     0.003 A 
ATOM      7  C6  UNL d   1       2.525   0.343  -2.441  0.00  0.00    -0.001 A 
ENDROOT
TORSDOF 0
ENDMDL
