MODEL 1
REMARK minimizedAffinity -5.32038879
REMARK minimizedRMSD -1
REMARK  0 active torsions:
REMARK  status: ('A' for Active; 'I' for Inactive)
ROOT
ATOM      1  C   UNL d   1       0.371   0.391  -0.804  0.00  0.00     0.078 C 
ATOM      2  C1  UNL d   1       0.151   0.402   0.679  0.00  0.00    -0.077 A 
ATOM      3  C2  UNL d   1       1.226   0.284   1.569  0.00  0.00    -0.001 A 
ATOM      4  C3  UNL d   1       1.005   0.286   2.947  0.00  0.00     0.003 A 
ATOM      5  C4  UNL d   1      -0.290   0.405   3.448  0.00  0.00    -0.005 A 
ATOM      6  C5  UNL d   1      -1.366   0.522   2.570  0.00  0.00     0.003 A 
ATOM      7  C6  UNL d   1      -1.147   0.520   1.192  0.00  0.00    -0.001 A 
ENDROOT
TORSDOF 0
ENDMDL
