MODEL 1
REMARK minimizedAffinity -5.7280407
REMARK minimizedRMSD -1
REMARK  0 active torsions:
REMARK  status: ('A' for Active; 'I' for Inactive)
ROOT
ATOM      1  C   UNL d   1       0.121  -0.218  -1.461  0.00  0.00     0.078 C 
ATOM      2  C1  UNL d   1      -0.349   0.133  -0.081  0.00  0.00    -0.077 A 
ATOM      3  C2  UNL d   1       0.524   0.699   0.856  0.00  0.00    -0.001 A 
ATOM      4  C3  UNL d   1       0.075   1.011   2.141  0.00  0.00     0.003 A 
ATOM      5  C4  UNL d   1      -1.248   0.759   2.500  0.00  0.00    -0.005 A 
ATOM      6  C5  UNL d   1      -2.123   0.193   1.575  0.00  0.00     0.003 A 
ATOM      7  C6  UNL d   1      -1.676  -0.119   0.290  0.00  0.00    -0.001 A 
ENDROOT
TORSDOF 0
ENDMDL
