MODEL 1
REMARK minimizedAffinity -5.16333151
REMARK minimizedRMSD -1
REMARK  0 active torsions:
REMARK  status: ('A' for Active; 'I' for Inactive)
ROOT
ATOM      1  C   UNL d   1       0.365   1.652   2.268  0.00  0.00     0.078 C 
ATOM      2  C1  UNL d   1       0.514   0.709   1.112  0.00  0.00    -0.077 A 
ATOM      3  C2  UNL d   1      -0.475   0.614   0.125  0.00  0.00    -0.001 A 
ATOM      4  C3  UNL d   1      -0.327  -0.275  -0.940  0.00  0.00     0.003 A 
ATOM      5  C4  UNL d   1       0.808  -1.079  -1.028  0.00  0.00    -0.005 A 
ATOM      6  C5  UNL d   1       1.797  -0.993  -0.050  0.00  0.00     0.003 A 
ATOM      7  C6  UNL d   1       1.650  -0.104   1.016  0.00  0.00    -0.001 A 
ENDROOT
TORSDOF 0
ENDMDL
