MODEL 1
REMARK minimizedAffinity -2.75435853
REMARK minimizedRMSD -1
REMARK  0 active torsions:
REMARK  status: ('A' for Active; 'I' for Inactive)
ROOT
ATOM      1  C   UNL d   1      -0.531   0.826   2.673  0.00  0.00     0.078 C 
ATOM      2  C1  UNL d   1       0.136   0.369   1.410  0.00  0.00    -0.077 A 
ATOM      3  C2  UNL d   1      -0.171   0.959   0.178  0.00  0.00    -0.001 A 
ATOM      4  C3  UNL d   1       0.451   0.517  -0.991  0.00  0.00     0.003 A 
ATOM      5  C4  UNL d   1       1.382  -0.518  -0.939  0.00  0.00    -0.005 A 
ATOM      6  C5  UNL d   1       1.692  -1.113   0.282  0.00  0.00     0.003 A 
ATOM      7  C6  UNL d   1       1.072  -0.673   1.452  0.00  0.00    -0.001 A 
ENDROOT
TORSDOF 0
ENDMDL
