MODEL 1
REMARK minimizedAffinity 0.695032418
REMARK minimizedRMSD -1
REMARK  1 active torsions:
REMARK  status: ('A' for Active; 'I' for Inactive)
REMARK    1  A    between atoms: C1_2  and  C2_3 
ROOT
ATOM      1  C2  UNL d   1      -0.489   2.497   0.015  0.00  0.00    -0.073 A 
ATOM      2  C3  UNL d   1      -1.534   1.567  -0.006  0.00  0.00    -0.002 A 
ATOM      3  C4  UNL d   1      -1.768   0.744   1.097  0.00  0.00     0.004 A 
ATOM      4  C5  UNL d   1      -0.965   0.848   2.233  0.00  0.00    -0.004 A 
ATOM      5  C6  UNL d   1       0.077   1.780   2.277  0.00  0.00    -0.075 A 
ATOM      6  C7  UNL d   1       0.952   1.902   3.491  0.00  0.00     0.076 C 
ATOM      7  C8  UNL d   1       0.307   2.600   1.165  0.00  0.00     0.001 A 
ENDROOT
BRANCH   1   8
ATOM      8  C1  UNL d   1      -0.236   3.392  -1.171  0.00  0.00     0.053 C 
ATOM      9  C   UNL d   1      -1.400   3.382  -2.150  0.00  0.00     0.018 C 
ENDBRANCH   1   8
TORSDOF 1
ENDMDL
