MODEL 1
REMARK minimizedAffinity 7.5709486
REMARK minimizedRMSD -1
REMARK  1 active torsions:
REMARK  status: ('A' for Active; 'I' for Inactive)
REMARK    1  A    between atoms: C1_2  and  C2_3 
ROOT
ATOM      1  C2  UNL d   1       0.437   2.487   2.219  0.00  0.00    -0.073 A 
ATOM      2  C3  UNL d   1       1.490   3.277   2.695  0.00  0.00    -0.002 A 
ATOM      3  C4  UNL d   1       2.810   2.963   2.368  0.00  0.00     0.004 A 
ATOM      4  C5  UNL d   1       3.090   1.863   1.557  0.00  0.00    -0.004 A 
ATOM      5  C6  UNL d   1       2.050   1.069   1.063  0.00  0.00    -0.075 A 
ATOM      6  C7  UNL d   1       2.334  -0.120   0.192  0.00  0.00     0.076 C 
ATOM      7  C8  UNL d   1       0.728   1.389   1.398  0.00  0.00     0.001 A 
ENDROOT
BRANCH   1   8
ATOM      8  C1  UNL d   1      -0.990   2.826   2.565  0.00  0.00     0.053 C 
ATOM      9  C   UNL d   1      -1.945   2.497   1.428  0.00  0.00     0.018 C 
ENDBRANCH   1   8
TORSDOF 1
ENDMDL
