MODEL 1
REMARK minimizedAffinity 7.42456341
REMARK minimizedRMSD -1
REMARK  1 active torsions:
REMARK  status: ('A' for Active; 'I' for Inactive)
REMARK    1  A    between atoms: C1_2  and  C2_3 
ROOT
ATOM      1  C2  UNL d   1       1.079   1.380   0.726  0.00  0.00    -0.073 A 
ATOM      2  C3  UNL d   1      -0.314   1.291   0.637  0.00  0.00    -0.002 A 
ATOM      3  C4  UNL d   1      -1.125   2.023   1.505  0.00  0.00     0.004 A 
ATOM      4  C5  UNL d   1      -0.551   2.857   2.465  0.00  0.00    -0.004 A 
ATOM      5  C6  UNL d   1       0.839   2.969   2.562  0.00  0.00    -0.075 A 
ATOM      6  C7  UNL d   1       1.472   3.860   3.590  0.00  0.00     0.076 C 
ATOM      7  C8  UNL d   1       1.647   2.228   1.688  0.00  0.00     0.001 A 
ENDROOT
BRANCH   1   8
ATOM      8  C1  UNL d   1       1.959   0.596  -0.214  0.00  0.00     0.053 C 
ATOM      9  C   UNL d   1       2.019   1.225  -1.597  0.00  0.00     0.018 C 
ENDBRANCH   1   8
TORSDOF 1
ENDMDL
