MODEL 1
REMARK minimizedAffinity 0.0841927081
REMARK minimizedRMSD -1
REMARK  1 active torsions:
REMARK  status: ('A' for Active; 'I' for Inactive)
REMARK    1  A    between atoms: C1_2  and  C2_3 
ROOT
ATOM      1  C2  UNL d   1       1.693   2.091   1.558  0.00  0.00    -0.073 A 
ATOM      2  C3  UNL d   1       1.196   1.388   0.454  0.00  0.00    -0.002 A 
ATOM      3  C4  UNL d   1      -0.170   1.123   0.344  0.00  0.00     0.004 A 
ATOM      4  C5  UNL d   1      -1.052   1.563   1.331  0.00  0.00    -0.004 A 
ATOM      5  C6  UNL d   1      -0.576   2.277   2.436  0.00  0.00    -0.075 A 
ATOM      6  C7  UNL d   1      -1.511   2.755   3.507  0.00  0.00     0.076 C 
ATOM      7  C8  UNL d   1       0.797   2.537   2.540  0.00  0.00     0.001 A 
ENDROOT
BRANCH   1   8
ATOM      8  C1  UNL d   1       3.166   2.385   1.678  0.00  0.00     0.053 C 
ATOM      9  C   UNL d   1       3.436   3.866   1.889  0.00  0.00     0.018 C 
ENDBRANCH   1   8
TORSDOF 1
ENDMDL
