MODEL 1
REMARK minimizedAffinity 9.72853661
REMARK minimizedRMSD -1
REMARK  1 active torsions:
REMARK  status: ('A' for Active; 'I' for Inactive)
REMARK    1  A    between atoms: C1_2  and  C2_3 
ROOT
ATOM      1  C2  UNL d   1      -0.636   1.480   1.139  0.00  0.00    -0.073 A 
ATOM      2  C3  UNL d   1      -1.031   2.313   2.192  0.00  0.00    -0.002 A 
ATOM      3  C4  UNL d   1      -0.079   2.870   3.046  0.00  0.00     0.004 A 
ATOM      4  C5  UNL d   1       1.277   2.606   2.852  0.00  0.00    -0.004 A 
ATOM      5  C6  UNL d   1       1.693   1.786   1.799  0.00  0.00    -0.075 A 
ATOM      6  C7  UNL d   1       3.148   1.490   1.578  0.00  0.00     0.076 C 
ATOM      7  C8  UNL d   1       0.730   1.228   0.947  0.00  0.00     0.001 A 
ENDROOT
BRANCH   1   8
ATOM      8  C1  UNL d   1      -1.661   0.881   0.210  0.00  0.00     0.053 C 
ATOM      9  C   UNL d   1      -2.460  -0.225   0.880  0.00  0.00     0.018 C 
ENDBRANCH   1   8
TORSDOF 1
ENDMDL
