MODEL 1
REMARK minimizedAffinity -2.95794415
REMARK minimizedRMSD -1
REMARK  0 active torsions:
REMARK  status: ('A' for Active; 'I' for Inactive)
ROOT
ATOM      1  C1  BNZ d   1      -0.843   0.137  -1.250  0.00  0.00     0.000 A 
ATOM      2  C2  BNZ d   1      -0.784   0.962  -0.159  0.00  0.00     0.000 A 
ATOM      3  C3  BNZ d   1      -0.740   0.447   1.106  0.00  0.00     0.000 A 
ATOM      4  C4  BNZ d   1      -0.797  -0.890   1.281  0.00  0.00     0.000 A 
ATOM      5  C5  BNZ d   1      -0.866  -1.734   0.191  0.00  0.00     0.000 A 
ATOM      6  C6  BNZ d   1      -0.871  -1.213  -1.083  0.00  0.00     0.000 A 
ENDROOT
TORSDOF 0
ENDMDL
