MODEL 1
REMARK minimizedAffinity -4.31571627
REMARK minimizedRMSD -1
REMARK  0 active torsions:
REMARK  status: ('A' for Active; 'I' for Inactive)
ROOT
ATOM      1  C1  BNZ d   1      -0.679   0.135   0.471  0.00  0.00     0.000 A 
ATOM      2  C2  BNZ d   1      -0.910   0.352   1.803  0.00  0.00     0.000 A 
ATOM      3  C3  BNZ d   1      -0.116   1.201   2.522  0.00  0.00     0.000 A 
ATOM      4  C4  BNZ d   1       0.931   1.800   1.919  0.00  0.00     0.000 A 
ATOM      5  C5  BNZ d   1       1.183   1.584   0.579  0.00  0.00     0.000 A 
ATOM      6  C6  BNZ d   1       0.358   0.759  -0.151  0.00  0.00     0.000 A 
ENDROOT
TORSDOF 0
ENDMDL
