MODEL 1
REMARK minimizedAffinity -4.96240187
REMARK minimizedRMSD -1
REMARK  0 active torsions:
REMARK  status: ('A' for Active; 'I' for Inactive)
ROOT
ATOM      1  C1  BNZ d   1      -0.513   0.427   1.114  0.00  0.00     0.000 A 
ATOM      2  C2  BNZ d   1       0.292   1.527   1.244  0.00  0.00     0.000 A 
ATOM      3  C3  BNZ d   1       1.407   1.673   0.468  0.00  0.00     0.000 A 
ATOM      4  C4  BNZ d   1       1.738   0.702  -0.408  0.00  0.00     0.000 A 
ATOM      5  C5  BNZ d   1       0.941  -0.417  -0.544  0.00  0.00     0.000 A 
ATOM      6  C6  BNZ d   1      -0.202  -0.543   0.211  0.00  0.00     0.000 A 
ENDROOT
TORSDOF 0
ENDMDL
