MODEL 1
REMARK minimizedAffinity -3.38985014
REMARK minimizedRMSD -1
REMARK  0 active torsions:
REMARK  status: ('A' for Active; 'I' for Inactive)
ROOT
ATOM      1  C1  BNZ d   1      -3.837  -2.143  -1.950  0.00  0.00     0.000 A 
ATOM      2  C2  BNZ d   1      -3.728  -1.519  -3.164  0.00  0.00     0.000 A 
ATOM      3  C3  BNZ d   1      -2.522  -1.052  -3.606  0.00  0.00     0.000 A 
ATOM      4  C4  BNZ d   1      -1.435  -1.173  -2.817  0.00  0.00     0.000 A 
ATOM      5  C5  BNZ d   1      -1.530  -1.791  -1.586  0.00  0.00     0.000 A 
ATOM      6  C6  BNZ d   1      -2.738  -2.295  -1.162  0.00  0.00     0.000 A 
ENDROOT
TORSDOF 0
ENDMDL
