MODEL 1
REMARK minimizedAffinity -5.02232027
REMARK minimizedRMSD -1
REMARK  0 active torsions:
REMARK  status: ('A' for Active; 'I' for Inactive)
ROOT
ATOM      1  C1  BNZ d   1      -0.843   1.167   2.078  0.00  0.00     0.000 A 
ATOM      2  C2  BNZ d   1      -0.077   2.192   2.567  0.00  0.00     0.000 A 
ATOM      3  C3  BNZ d   1       1.038   2.613   1.898  0.00  0.00     0.000 A 
ATOM      4  C4  BNZ d   1       1.408   1.984   0.764  0.00  0.00     0.000 A 
ATOM      5  C5  BNZ d   1       0.653   0.942   0.264  0.00  0.00     0.000 A 
ATOM      6  C6  BNZ d   1      -0.491   0.546   0.919  0.00  0.00     0.000 A 
ENDROOT
TORSDOF 0
ENDMDL
