MODEL 1
REMARK minimizedAffinity -3.43518376
REMARK minimizedRMSD -1
REMARK  0 active torsions:
REMARK  status: ('A' for Active; 'I' for Inactive)
ROOT
ATOM      1  C1  BNZ d   1      -1.197  -1.231  -0.621  0.00  0.00     0.000 A 
ATOM      2  C2  BNZ d   1      -2.510  -1.534  -0.865  0.00  0.00     0.000 A 
ATOM      3  C3  BNZ d   1      -2.930  -1.861  -2.123  0.00  0.00     0.000 A 
ATOM      4  C4  BNZ d   1      -2.047  -1.845  -3.143  0.00  0.00     0.000 A 
ATOM      5  C5  BNZ d   1      -0.722  -1.532  -2.914  0.00  0.00     0.000 A 
ATOM      6  C6  BNZ d   1      -0.294  -1.241  -1.639  0.00  0.00     0.000 A 
ENDROOT
TORSDOF 0
ENDMDL
