MODEL 1
REMARK minimizedAffinity -2.39966536
REMARK minimizedRMSD -1
REMARK  0 active torsions:
REMARK  status: ('A' for Active; 'I' for Inactive)
ROOT
ATOM      1  C1  BNZ d   1      -2.174  -1.083  -3.773  0.00  0.00     0.000 A 
ATOM      2  C2  BNZ d   1      -1.474  -0.334  -2.865  0.00  0.00     0.000 A 
ATOM      3  C3  BNZ d   1      -1.307  -0.768  -1.580  0.00  0.00     0.000 A 
ATOM      4  C4  BNZ d   1      -1.874  -1.929  -1.193  0.00  0.00     0.000 A 
ATOM      5  C5  BNZ d   1      -2.591  -2.691  -2.094  0.00  0.00     0.000 A 
ATOM      6  C6  BNZ d   1      -2.723  -2.270  -3.398  0.00  0.00     0.000 A 
ENDROOT
TORSDOF 0
ENDMDL
