MODEL 1
REMARK minimizedAffinity -4.254354
REMARK minimizedRMSD -1
REMARK  0 active torsions:
REMARK  status: ('A' for Active; 'I' for Inactive)
ROOT
ATOM      1  C1  BNZ d   1      -0.127   1.838   1.683  0.00  0.00     0.000 A 
ATOM      2  C2  BNZ d   1      -0.976   0.786   1.464  0.00  0.00     0.000 A 
ATOM      3  C3  BNZ d   1      -0.778  -0.066   0.414  0.00  0.00     0.000 A 
ATOM      4  C4  BNZ d   1       0.243   0.158  -0.438  0.00  0.00     0.000 A 
ATOM      5  C5  BNZ d   1       1.102   1.220  -0.236  0.00  0.00     0.000 A 
ATOM      6  C6  BNZ d   1       0.923   2.053   0.845  0.00  0.00     0.000 A 
ENDROOT
TORSDOF 0
ENDMDL
