MODEL 1
REMARK minimizedAffinity -4.00481081
REMARK minimizedRMSD -1
REMARK  0 active torsions:
REMARK  status: ('A' for Active; 'I' for Inactive)
ROOT
ATOM      1  C1  BNZ d   1      -0.993  -0.581   1.066  0.00  0.00     0.000 A 
ATOM      2  C2  BNZ d   1      -0.527   0.676   1.347  0.00  0.00     0.000 A 
ATOM      3  C3  BNZ d   1       0.470   1.236   0.599  0.00  0.00     0.000 A 
ATOM      4  C4  BNZ d   1       1.026   0.526  -0.403  0.00  0.00     0.000 A 
ATOM      5  C5  BNZ d   1       0.574  -0.746  -0.693  0.00  0.00     0.000 A 
ATOM      6  C6  BNZ d   1      -0.456  -1.292   0.037  0.00  0.00     0.000 A 
ENDROOT
TORSDOF 0
ENDMDL
