MODEL 1
REMARK minimizedAffinity -4.76978016
REMARK minimizedRMSD -1
REMARK  0 active torsions:
REMARK  status: ('A' for Active; 'I' for Inactive)
ROOT
ATOM      1  C1  BNZ d   1       1.049   0.290  -0.099  0.00  0.00     0.000 A 
ATOM      2  C2  BNZ d   1       2.403   0.492  -0.127  0.00  0.00     0.000 A 
ATOM      3  C3  BNZ d   1       2.966   1.554   0.524  0.00  0.00     0.000 A 
ATOM      4  C4  BNZ d   1       2.173   2.433   1.168  0.00  0.00     0.000 A 
ATOM      5  C5  BNZ d   1       0.805   2.249   1.198  0.00  0.00     0.000 A 
ATOM      6  C6  BNZ d   1       0.245   1.157   0.574  0.00  0.00     0.000 A 
ENDROOT
TORSDOF 0
ENDMDL
