MODEL 1
REMARK minimizedAffinity -3.76947665
REMARK minimizedRMSD -1
REMARK  0 active torsions:
REMARK  status: ('A' for Active; 'I' for Inactive)
ROOT
ATOM      1  C1  BNZ d   1      -0.708   1.099   1.141  0.00  0.00     0.000 A 
ATOM      2  C2  BNZ d   1      -0.113   1.985   2.001  0.00  0.00     0.000 A 
ATOM      3  C3  BNZ d   1       1.164   2.421   1.783  0.00  0.00     0.000 A 
ATOM      4  C4  BNZ d   1       1.858   1.942   0.731  0.00  0.00     0.000 A 
ATOM      5  C5  BNZ d   1       1.275   1.042  -0.139  0.00  0.00     0.000 A 
ATOM      6  C6  BNZ d   1      -0.024   0.635   0.061  0.00  0.00     0.000 A 
ENDROOT
TORSDOF 0
ENDMDL
