MODEL 1
REMARK minimizedAffinity -4.96857262
REMARK minimizedRMSD -1
REMARK  0 active torsions:
REMARK  status: ('A' for Active; 'I' for Inactive)
ROOT
ATOM      1  C1  BNZ d   1       0.923   2.435   0.856  0.00  0.00     0.000 A 
ATOM      2  C2  BNZ d   1       2.288   2.533   0.819  0.00  0.00     0.000 A 
ATOM      3  C3  BNZ d   1       3.043   1.566   0.216  0.00  0.00     0.000 A 
ATOM      4  C4  BNZ d   1       2.436   0.484  -0.313  0.00  0.00     0.000 A 
ATOM      5  C5  BNZ d   1       1.061   0.366  -0.275  0.00  0.00     0.000 A 
ATOM      6  C6  BNZ d   1       0.301   1.360   0.298  0.00  0.00     0.000 A 
ENDROOT
TORSDOF 0
ENDMDL
