MODEL 1
REMARK minimizedAffinity 0.0932148993
REMARK minimizedRMSD -1
REMARK  0 active torsions:
REMARK  status: ('A' for Active; 'I' for Inactive)
ROOT
ATOM      1  C1  BNZ d   1      -2.813  -1.695  -2.277  0.00  0.00     0.000 A 
ATOM      2  C2  BNZ d   1      -2.075  -1.602  -1.127  0.00  0.00     0.000 A 
ATOM      3  C3  BNZ d   1      -0.889  -0.922  -1.109  0.00  0.00     0.000 A 
ATOM      4  C4  BNZ d   1      -0.423  -0.372  -2.249  0.00  0.00     0.000 A 
ATOM      5  C5  BNZ d   1      -1.151  -0.465  -3.419  0.00  0.00     0.000 A 
ATOM      6  C6  BNZ d   1      -2.363  -1.116  -3.424  0.00  0.00     0.000 A 
ENDROOT
TORSDOF 0
ENDMDL
