MODEL 1
REMARK minimizedAffinity -4.20967102
REMARK minimizedRMSD -1
REMARK  0 active torsions:
REMARK  status: ('A' for Active; 'I' for Inactive)
ROOT
ATOM      1  C1  BNZ d   1       1.702   2.472   0.003  0.00  0.00     0.000 A 
ATOM      2  C2  BNZ d   1       1.139   2.914   1.171  0.00  0.00     0.000 A 
ATOM      3  C3  BNZ d   1       0.351   2.090   1.925  0.00  0.00     0.000 A 
ATOM      4  C4  BNZ d   1       0.095   0.839   1.491  0.00  0.00     0.000 A 
ATOM      5  C5  BNZ d   1       0.647   0.381   0.311  0.00  0.00     0.000 A 
ATOM      6  C6  BNZ d   1       1.471   1.201  -0.425  0.00  0.00     0.000 A 
ENDROOT
TORSDOF 0
ENDMDL
