MODEL 1
REMARK minimizedAffinity -4.09474659
REMARK minimizedRMSD -1
REMARK  0 active torsions:
REMARK  status: ('A' for Active; 'I' for Inactive)
ROOT
ATOM      1  C1  BNZ d   1      -0.909   0.545   2.074  0.00  0.00     0.000 A 
ATOM      2  C2  BNZ d   1      -0.643   0.121   0.799  0.00  0.00     0.000 A 
ATOM      3  C3  BNZ d   1       0.320   0.732   0.045  0.00  0.00     0.000 A 
ATOM      4  C4  BNZ d   1       0.987   1.789   0.551  0.00  0.00     0.000 A 
ATOM      5  C5  BNZ d   1       0.724   2.234   1.831  0.00  0.00     0.000 A 
ATOM      6  C6  BNZ d   1      -0.218   1.592   2.602  0.00  0.00     0.000 A 
ENDROOT
TORSDOF 0
ENDMDL
