MODEL 1
REMARK minimizedAffinity 5.88590717
REMARK minimizedRMSD -1
REMARK  1 active torsions:
REMARK  status: ('A' for Active; 'I' for Inactive)
REMARK    1  A    between atoms: C1_2  and  C2_3 
ROOT
ATOM      1  C2  UNL d   1       0.397   1.453   0.014  0.00  0.00    -0.081 A 
ATOM      2  C3  UNL d   1      -0.154   1.055  -1.210  0.00  0.00     0.006 A 
ATOM      3  C4  UNL d   1      -0.168   1.931  -2.298  0.00  0.00     0.002 A 
ATOM      4  C5  UNL d   1       0.374   3.215  -2.183  0.00  0.00    -0.080 A 
ATOM      5  C6  UNL d   1       0.392   4.154  -3.352  0.00  0.00     0.076 C 
ATOM      6  C7  UNL d   1       0.909   3.619  -0.955  0.00  0.00     0.002 A 
ATOM      7  C8  UNL d   1       0.923   2.744   0.134  0.00  0.00     0.006 A 
ENDROOT
BRANCH   1   8
ATOM      8  C1  UNL d   1       0.473   0.489   1.170  0.00  0.00     0.054 C 
ATOM      9  C   UNL d   1       1.445  -0.647   0.881  0.00  0.00     0.018 C 
ENDBRANCH   1   8
TORSDOF 1
ENDMDL
