MODEL 1
REMARK minimizedAffinity -1.7166183
REMARK minimizedRMSD -1
REMARK  1 active torsions:
REMARK  status: ('A' for Active; 'I' for Inactive)
REMARK    1  A    between atoms: C1_2  and  C2_3 
ROOT
ATOM      1  C2  UNL d   1      -2.386  -5.941  -3.051  0.00  0.00    -0.081 A 
ATOM      2  C3  UNL d   1      -2.354  -5.886  -4.450  0.00  0.00     0.006 A 
ATOM      3  C4  UNL d   1      -1.134  -5.893  -5.131  0.00  0.00     0.002 A 
ATOM      4  C5  UNL d   1       0.072  -5.962  -4.426  0.00  0.00    -0.080 A 
ATOM      5  C6  UNL d   1       1.387  -6.000  -5.147  0.00  0.00     0.076 C 
ATOM      6  C7  UNL d   1       0.041  -5.999  -3.028  0.00  0.00     0.002 A 
ATOM      7  C8  UNL d   1      -1.178  -5.992  -2.346  0.00  0.00     0.006 A 
ENDROOT
BRANCH   1   8
ATOM      8  C1  UNL d   1      -3.701  -6.000  -2.316  0.00  0.00     0.054 C 
ATOM      9  C   UNL d   1      -4.501  -4.720  -2.511  0.00  0.00     0.018 C 
ENDBRANCH   1   8
TORSDOF 1
ENDMDL
