MODEL 1
REMARK minimizedAffinity 0.34301573
REMARK minimizedRMSD -1
REMARK  1 active torsions:
REMARK  status: ('A' for Active; 'I' for Inactive)
REMARK    1  A    between atoms: C1_2  and  C2_3 
ROOT
ATOM      1  C2  UNL d   1       0.563  -5.941  -4.221  0.00  0.00    -0.081 A 
ATOM      2  C3  UNL d   1      -0.342  -5.949  -5.289  0.00  0.00     0.006 A 
ATOM      3  C4  UNL d   1      -1.719  -5.977  -5.052  0.00  0.00     0.002 A 
ATOM      4  C5  UNL d   1      -2.213  -5.990  -3.743  0.00  0.00    -0.080 A 
ATOM      5  C6  UNL d   1      -3.688  -5.990  -3.474  0.00  0.00     0.076 C 
ATOM      6  C7  UNL d   1      -1.309  -6.000  -2.675  0.00  0.00     0.002 A 
ATOM      7  C8  UNL d   1       0.068  -5.973  -2.912  0.00  0.00     0.006 A 
ENDROOT
BRANCH   1   8
ATOM      8  C1  UNL d   1       2.046  -5.846  -4.473  0.00  0.00     0.054 C 
ATOM      9  C   UNL d   1       2.403  -4.550  -5.186  0.00  0.00     0.018 C 
ENDBRANCH   1   8
TORSDOF 1
ENDMDL
