MODEL 1
REMARK minimizedAffinity 6.04308844
REMARK minimizedRMSD -1
REMARK  1 active torsions:
REMARK  status: ('A' for Active; 'I' for Inactive)
REMARK    1  A    between atoms: C1_2  and  C2_3 
ROOT
ATOM      1  C2  UNL d   1       1.723  -0.333   0.454  0.00  0.00    -0.081 A 
ATOM      2  C3  UNL d   1       2.951   0.012  -0.123  0.00  0.00     0.006 A 
ATOM      3  C4  UNL d   1       4.085   0.183   0.674  0.00  0.00     0.002 A 
ATOM      4  C5  UNL d   1       4.012   0.005   2.060  0.00  0.00    -0.080 A 
ATOM      5  C6  UNL d   1       5.229   0.156   2.924  0.00  0.00     0.076 C 
ATOM      6  C7  UNL d   1       2.781  -0.323   2.639  0.00  0.00     0.002 A 
ATOM      7  C8  UNL d   1       1.647  -0.493   1.842  0.00  0.00     0.006 A 
ENDROOT
BRANCH   1   8
ATOM      8  C1  UNL d   1       0.513  -0.581  -0.410  0.00  0.00     0.054 C 
ATOM      9  C   UNL d   1      -0.053  -1.976  -0.182  0.00  0.00     0.018 C 
ENDBRANCH   1   8
TORSDOF 1
ENDMDL
