MODEL 1
REMARK minimizedAffinity -3.16741824
REMARK minimizedRMSD -1
REMARK  1 active torsions:
REMARK  status: ('A' for Active; 'I' for Inactive)
REMARK    1  A    between atoms: C1_2  and  C2_3 
ROOT
ATOM      1  C2  UNL d   1      -2.239  -5.941  -2.994  0.00  0.00    -0.081 A 
ATOM      2  C3  UNL d   1      -2.243  -5.907  -4.393  0.00  0.00     0.006 A 
ATOM      3  C4  UNL d   1      -1.041  -5.914  -5.105  0.00  0.00     0.002 A 
ATOM      4  C5  UNL d   1       0.183  -5.961  -4.430  0.00  0.00    -0.080 A 
ATOM      5  C6  UNL d   1       1.480  -5.999  -5.183  0.00  0.00     0.076 C 
ATOM      6  C7  UNL d   1       0.188  -5.977  -3.031  0.00  0.00     0.002 A 
ATOM      7  C8  UNL d   1      -1.014  -5.970  -2.319  0.00  0.00     0.006 A 
ENDROOT
BRANCH   1   8
ATOM      8  C1  UNL d   1      -3.535  -6.000  -2.225  0.00  0.00     0.054 C 
ATOM      9  C   UNL d   1      -4.735  -5.974  -3.160  0.00  0.00     0.018 C 
ENDBRANCH   1   8
TORSDOF 1
ENDMDL
