MODEL 1
REMARK minimizedAffinity -1.93605745
REMARK minimizedRMSD -1
REMARK  1 active torsions:
REMARK  status: ('A' for Active; 'I' for Inactive)
REMARK    1  A    between atoms: C1_2  and  C2_3 
ROOT
ATOM      1  C2  UNL d   1      -2.274  -5.951  -3.239  0.00  0.00    -0.081 A 
ATOM      2  C3  UNL d   1      -1.282  -5.913  -2.251  0.00  0.00     0.006 A 
ATOM      3  C4  UNL d   1       0.070  -5.913  -2.605  0.00  0.00     0.002 A 
ATOM      4  C5  UNL d   1       0.452  -5.944  -3.950  0.00  0.00    -0.080 A 
ATOM      5  C6  UNL d   1       1.898  -5.915  -4.344  0.00  0.00     0.076 C 
ATOM      6  C7  UNL d   1      -0.539  -6.000  -4.936  0.00  0.00     0.002 A 
ATOM      7  C8  UNL d   1      -1.891  -6.000  -4.583  0.00  0.00     0.006 A 
ENDROOT
BRANCH   1   8
ATOM      8  C1  UNL d   1      -3.732  -5.885  -2.863  0.00  0.00     0.054 C 
ATOM      9  C   UNL d   1      -3.921  -6.000  -1.357  0.00  0.00     0.018 C 
ENDBRANCH   1   8
TORSDOF 1
ENDMDL
