MODEL 1
REMARK minimizedAffinity 9.55130577
REMARK minimizedRMSD -1
REMARK  1 active torsions:
REMARK  status: ('A' for Active; 'I' for Inactive)
REMARK    1  A    between atoms: C1_2  and  C2_3 
ROOT
ATOM      1  C2  UNL d   1      -1.920  -5.080  -3.120  0.00  0.00    -0.081 A 
ATOM      2  C3  UNL d   1      -0.624  -4.788  -2.675  0.00  0.00     0.006 A 
ATOM      3  C4  UNL d   1       0.483  -5.096  -3.470  0.00  0.00     0.002 A 
ATOM      4  C5  UNL d   1       0.313  -5.692  -4.724  0.00  0.00    -0.080 A 
ATOM      5  C6  UNL d   1       1.492  -6.000  -5.599  0.00  0.00     0.076 C 
ATOM      6  C7  UNL d   1      -0.980  -6.000  -5.160  0.00  0.00     0.002 A 
ATOM      7  C8  UNL d   1      -2.087  -5.693  -4.366  0.00  0.00     0.006 A 
ENDROOT
BRANCH   1   8
ATOM      8  C1  UNL d   1      -3.119  -4.691  -2.294  0.00  0.00     0.054 C 
ATOM      9  C   UNL d   1      -3.999  -5.896  -1.995  0.00  0.00     0.018 C 
ENDBRANCH   1   8
TORSDOF 1
ENDMDL
