MODEL 1
REMARK minimizedAffinity 7.7677331
REMARK minimizedRMSD -1
REMARK  1 active torsions:
REMARK  status: ('A' for Active; 'I' for Inactive)
REMARK    1  A    between atoms: C1_2  and  C2_3 
ROOT
ATOM      1  C2  UNL d   1       4.315   0.113   1.420  0.00  0.00    -0.081 A 
ATOM      2  C3  UNL d   1       4.603   0.209   0.053  0.00  0.00     0.006 A 
ATOM      3  C4  UNL d   1       3.572   0.339  -0.881  0.00  0.00     0.002 A 
ATOM      4  C5  UNL d   1       2.238   0.384  -0.463  0.00  0.00    -0.080 A 
ATOM      5  C6  UNL d   1       1.124   0.554  -1.452  0.00  0.00     0.076 C 
ATOM      6  C7  UNL d   1       1.949   0.270   0.901  0.00  0.00     0.002 A 
ATOM      7  C8  UNL d   1       2.979   0.139   1.835  0.00  0.00     0.006 A 
ENDROOT
BRANCH   1   8
ATOM      8  C1  UNL d   1       5.428   0.038   2.434  0.00  0.00     0.054 C 
ATOM      9  C   UNL d   1       4.896   0.195   3.852  0.00  0.00     0.018 C 
ENDBRANCH   1   8
TORSDOF 1
ENDMDL
