MODEL 1
REMARK minimizedAffinity -2.51646709
REMARK minimizedRMSD -1
REMARK  1 active torsions:
REMARK  status: ('A' for Active; 'I' for Inactive)
REMARK    1  A    between atoms: C1_2  and  C2_3 
ROOT
ATOM      1  C2  UNL d   1      -2.191  -5.745  -3.007  0.00  0.00    -0.081 A 
ATOM      2  C3  UNL d   1      -2.536  -5.407  -4.321  0.00  0.00     0.006 A 
ATOM      3  C4  UNL d   1      -1.545  -5.230  -5.290  0.00  0.00     0.002 A 
ATOM      4  C5  UNL d   1      -0.195  -5.397  -4.963  0.00  0.00    -0.080 A 
ATOM      5  C6  UNL d   1       0.877  -5.240  -6.000  0.00  0.00     0.076 C 
ATOM      6  C7  UNL d   1       0.150  -5.718  -3.645  0.00  0.00     0.002 A 
ATOM      7  C8  UNL d   1      -0.840  -5.894  -2.676  0.00  0.00     0.006 A 
ENDROOT
BRANCH   1   8
ATOM      8  C1  UNL d   1      -3.261  -6.000  -1.976  0.00  0.00     0.054 C 
ATOM      9  C   UNL d   1      -4.647  -5.996  -2.604  0.00  0.00     0.018 C 
ENDBRANCH   1   8
TORSDOF 1
ENDMDL
