MODEL 1
REMARK minimizedAffinity 8.81711102
REMARK minimizedRMSD -1
REMARK  1 active torsions:
REMARK  status: ('A' for Active; 'I' for Inactive)
REMARK    1  A    between atoms: C1_2  and  C2_3 
ROOT
ATOM      1  C2  UNL d   1       0.418  -4.930  -1.342  0.00  0.00    -0.081 A 
ATOM      2  C3  UNL d   1       1.505  -4.610  -2.165  0.00  0.00     0.006 A 
ATOM      3  C4  UNL d   1       1.499  -4.965  -3.516  0.00  0.00     0.002 A 
ATOM      4  C5  UNL d   1       0.405  -5.639  -4.068  0.00  0.00    -0.080 A 
ATOM      5  C6  UNL d   1       0.373  -6.000  -5.523  0.00  0.00     0.076 C 
ATOM      6  C7  UNL d   1      -0.674  -5.975  -3.242  0.00  0.00     0.002 A 
ATOM      7  C8  UNL d   1      -0.668  -5.621  -1.891  0.00  0.00     0.006 A 
ENDROOT
BRANCH   1   8
ATOM      8  C1  UNL d   1       0.393  -4.491   0.100  0.00  0.00     0.054 C 
ATOM      9  C   UNL d   1      -0.823  -3.625   0.393  0.00  0.00     0.018 C 
ENDBRANCH   1   8
TORSDOF 1
ENDMDL
