MODEL 1
REMARK minimizedAffinity 9.88452053
REMARK minimizedRMSD -1
REMARK  1 active torsions:
REMARK  status: ('A' for Active; 'I' for Inactive)
REMARK    1  A    between atoms: C1_2  and  C2_3 
ROOT
ATOM      1  C2  UNL d   1      -3.797  -5.758  -2.987  0.00  0.00    -0.081 A 
ATOM      2  C3  UNL d   1      -3.117  -5.835  -1.765  0.00  0.00     0.006 A 
ATOM      3  C4  UNL d   1      -3.826  -5.901  -0.563  0.00  0.00     0.002 A 
ATOM      4  C5  UNL d   1      -5.225  -5.899  -0.563  0.00  0.00    -0.080 A 
ATOM      5  C6  UNL d   1      -5.998  -6.000   0.719  0.00  0.00     0.076 C 
ATOM      6  C7  UNL d   1      -5.904  -5.804  -1.782  0.00  0.00     0.002 A 
ATOM      7  C8  UNL d   1      -5.196  -5.738  -2.984  0.00  0.00     0.006 A 
ENDROOT
BRANCH   1   8
ATOM      8  C1  UNL d   1      -3.036  -5.752  -4.288  0.00  0.00     0.054 C 
ATOM      9  C   UNL d   1      -1.552  -5.999  -4.062  0.00  0.00     0.018 C 
ENDBRANCH   1   8
TORSDOF 1
ENDMDL
