MODEL 1
REMARK minimizedAffinity 2.32132077
REMARK minimizedRMSD -1
REMARK  1 active torsions:
REMARK  status: ('A' for Active; 'I' for Inactive)
REMARK    1  A    between atoms: C1_2  and  C2_3 
ROOT
ATOM      1  C2  UNL d   1       0.303  -0.535  -1.144  0.00  0.00    -0.081 A 
ATOM      2  C3  UNL d   1       0.252  -1.933  -1.099  0.00  0.00     0.006 A 
ATOM      3  C4  UNL d   1       0.193  -2.601   0.127  0.00  0.00     0.002 A 
ATOM      4  C5  UNL d   1       0.176  -1.881   1.327  0.00  0.00    -0.080 A 
ATOM      5  C6  UNL d   1       0.083  -2.584   2.648  0.00  0.00     0.076 C 
ATOM      6  C7  UNL d   1       0.245  -0.485   1.282  0.00  0.00     0.002 A 
ATOM      7  C8  UNL d   1       0.305   0.183   0.057  0.00  0.00     0.006 A 
ENDROOT
BRANCH   1   8
ATOM      8  C1  UNL d   1       0.302   0.190  -2.466  0.00  0.00     0.054 C 
ATOM      9  C   UNL d   1      -1.056   0.815  -2.752  0.00  0.00     0.018 C 
ENDBRANCH   1   8
TORSDOF 1
ENDMDL
