MODEL 1
REMARK minimizedAffinity 1.24263418
REMARK minimizedRMSD -1
REMARK  1 active torsions:
REMARK  status: ('A' for Active; 'I' for Inactive)
REMARK    1  A    between atoms: C1_2  and  C2_3 
ROOT
ATOM      1  C2  UNL d   1      -1.901   0.137   2.451  0.00  0.00    -0.076 A 
ATOM      2  C3  UNL d   1      -1.962  -0.420   1.162  0.00  0.00     0.004 A 
ATOM      3  C4  UNL d   1      -1.229   0.125   0.109  0.00  0.00    -0.003 A 
ATOM      4  C5  UNL d   1      -0.421   1.235   0.329  0.00  0.00     0.000 A 
ATOM      5  C6  UNL d   1      -0.334   1.790   1.605  0.00  0.00     0.000 A 
ATOM      6  C7  UNL d   1      -1.055   1.243   2.681  0.00  0.00    -0.073 A 
ATOM      7  C8  UNL d   1      -0.928   1.885   4.036  0.00  0.00     0.078 C 
ENDROOT
BRANCH   1   8
ATOM      8  C1  UNL d   1      -2.739  -0.481   3.548  0.00  0.00     0.053 C 
ATOM      9  C   UNL d   1      -2.267  -1.876   3.926  0.00  0.00     0.018 C 
ENDBRANCH   1   8
TORSDOF 1
ENDMDL
