MODEL 1
REMARK minimizedAffinity 2.10169959
REMARK minimizedRMSD -1
REMARK  1 active torsions:
REMARK  status: ('A' for Active; 'I' for Inactive)
REMARK    1  A    between atoms: C1_2  and  C2_3 
ROOT
ATOM      1  C2  UNL d   1       0.849   0.690  -4.210  0.00  0.00    -0.076 A 
ATOM      2  C3  UNL d   1       0.633   0.420  -5.573  0.00  0.00     0.004 A 
ATOM      3  C4  UNL d   1      -0.487  -0.294  -5.994  0.00  0.00    -0.003 A 
ATOM      4  C5  UNL d   1      -1.411  -0.749  -5.060  0.00  0.00     0.000 A 
ATOM      5  C6  UNL d   1      -1.222  -0.475  -3.706  0.00  0.00     0.000 A 
ATOM      6  C7  UNL d   1      -0.107   0.258  -3.266  0.00  0.00    -0.073 A 
ATOM      7  C8  UNL d   1       0.050   0.520  -1.793  0.00  0.00     0.078 C 
ENDROOT
BRANCH   1   8
ATOM      8  C1  UNL d   1       2.096   1.445  -3.810  0.00  0.00     0.053 C 
ATOM      9  C   UNL d   1       3.316   0.543  -3.710  0.00  0.00     0.018 C 
ENDBRANCH   1   8
TORSDOF 1
ENDMDL
