MODEL 1
REMARK minimizedAffinity 0.375680596
REMARK minimizedRMSD -1
REMARK  1 active torsions:
REMARK  status: ('A' for Active; 'I' for Inactive)
REMARK    1  A    between atoms: C1_2  and  C2_3 
ROOT
ATOM      1  C2  UNL d   1       2.071   0.461  -3.409  0.00  0.00    -0.076 A 
ATOM      2  C3  UNL d   1       2.687  -0.794  -3.255  0.00  0.00     0.004 A 
ATOM      3  C4  UNL d   1       4.010  -0.996  -3.644  0.00  0.00    -0.003 A 
ATOM      4  C5  UNL d   1       4.739   0.053  -4.193  0.00  0.00     0.000 A 
ATOM      5  C6  UNL d   1       4.149   1.309  -4.337  0.00  0.00     0.000 A 
ATOM      6  C7  UNL d   1       2.822   1.534  -3.935  0.00  0.00    -0.073 A 
ATOM      7  C8  UNL d   1       2.234   2.906  -4.119  0.00  0.00     0.078 C 
ENDROOT
BRANCH   1   8
ATOM      8  C1  UNL d   1       0.625   0.613  -2.994  0.00  0.00     0.053 C 
ATOM      9  C   UNL d   1      -0.342   0.321  -4.131  0.00  0.00     0.018 C 
ENDBRANCH   1   8
TORSDOF 1
ENDMDL
