MODEL 1
REMARK minimizedAffinity -2.97027516
REMARK minimizedRMSD -1
REMARK  1 active torsions:
REMARK  status: ('A' for Active; 'I' for Inactive)
REMARK    1  A    between atoms: C1_2  and  C2_3 
ROOT
ATOM      1  C2  UNL d   1       0.631   0.178  -0.669  0.00  0.00    -0.076 A 
ATOM      2  C3  UNL d   1      -0.334   1.151  -0.353  0.00  0.00     0.004 A 
ATOM      3  C4  UNL d   1      -0.584   1.510   0.970  0.00  0.00    -0.003 A 
ATOM      4  C5  UNL d   1       0.128   0.903   1.999  0.00  0.00     0.000 A 
ATOM      5  C6  UNL d   1       1.101  -0.051   1.703  0.00  0.00     0.000 A 
ATOM      6  C7  UNL d   1       1.377  -0.413   0.373  0.00  0.00    -0.073 A 
ATOM      7  C8  UNL d   1       2.433  -1.451   0.111  0.00  0.00     0.078 C 
ENDROOT
BRANCH   1   8
ATOM      8  C1  UNL d   1       0.839  -0.190  -2.121  0.00  0.00     0.053 C 
ATOM      9  C   UNL d   1       0.726   1.010  -3.049  0.00  0.00     0.018 C 
ENDBRANCH   1   8
TORSDOF 1
ENDMDL
