MODEL 1
REMARK minimizedAffinity 0.493068725
REMARK minimizedRMSD -1
REMARK  0 active torsions:
REMARK  status: ('A' for Active; 'I' for Inactive)
ROOT
ATOM      1  C2' OXE d   1       0.406  -1.725  -2.513  0.00  0.00     0.078 C 
ATOM      2  C1' OXE d   1       2.457  -0.372  -1.155  0.00  0.00     0.078 C 
ATOM      3  C1  OXE d   1       1.135  -0.539  -0.447  0.00  0.00    -0.078 A 
ATOM      4  C2  OXE d   1       0.123  -1.161  -1.137  0.00  0.00    -0.078 A 
ATOM      5  C3  OXE d   1      -1.100  -1.390  -0.511  0.00  0.00     0.003 A 
ATOM      6  C4  OXE d   1      -1.357  -0.856   0.757  0.00  0.00    -0.002 A 
ATOM      7  C5  OXE d   1      -0.352  -0.184   1.462  0.00  0.00    -0.002 A 
ATOM      8  C6  OXE d   1       0.910  -0.055   0.892  0.00  0.00     0.003 A 
ENDROOT
TORSDOF 0
ENDMDL
