MODEL 1
REMARK minimizedAffinity -4.24912071
REMARK minimizedRMSD -1
REMARK  0 active torsions:
REMARK  status: ('A' for Active; 'I' for Inactive)
ROOT
ATOM      1  C2' OXE d   1       0.291  -0.161   1.057  0.00  0.00     0.078 C 
ATOM      2  C1' OXE d   1      -1.925  -1.843   0.687  0.00  0.00     0.078 C 
ATOM      3  C1  OXE d   1      -0.764  -1.988  -0.265  0.00  0.00    -0.078 A 
ATOM      4  C2  OXE d   1       0.296  -1.129  -0.105  0.00  0.00    -0.078 A 
ATOM      5  C3  OXE d   1       1.416  -1.257  -0.922  0.00  0.00     0.003 A 
ATOM      6  C4  OXE d   1       1.408  -2.149  -2.001  0.00  0.00    -0.002 A 
ATOM      7  C5  OXE d   1       0.321  -3.006  -2.207  0.00  0.00    -0.002 A 
ATOM      8  C6  OXE d   1      -0.752  -2.968  -1.324  0.00  0.00     0.003 A 
ENDROOT
TORSDOF 0
ENDMDL
