MODEL 1
REMARK minimizedAffinity -1.3847419
REMARK minimizedRMSD -1
REMARK  0 active torsions:
REMARK  status: ('A' for Active; 'I' for Inactive)
ROOT
ATOM      1  C2' OXE d   1       0.352   3.447  -0.033  0.00  0.00     0.078 C 
ATOM      2  C1' OXE d   1      -0.840   1.947   2.018  0.00  0.00     0.078 C 
ATOM      3  C1  OXE d   1       0.015   1.213   1.015  0.00  0.00    -0.078 A 
ATOM      4  C2  OXE d   1       0.556   1.948  -0.012  0.00  0.00    -0.078 A 
ATOM      5  C3  OXE d   1       1.397   1.330  -0.933  0.00  0.00     0.003 A 
ATOM      6  C4  OXE d   1       1.573  -0.059  -0.912  0.00  0.00    -0.002 A 
ATOM      7  C5  OXE d   1       0.998  -0.832   0.102  0.00  0.00    -0.002 A 
ATOM      8  C6  OXE d   1       0.253  -0.207   1.096  0.00  0.00     0.003 A 
ENDROOT
TORSDOF 0
ENDMDL
