MODEL 1
REMARK minimizedAffinity -1.52414739
REMARK minimizedRMSD -1
REMARK  0 active torsions:
REMARK  status: ('A' for Active; 'I' for Inactive)
ROOT
ATOM      1  C2' OXE d   1       0.487   0.652  -0.008  0.00  0.00     0.078 C 
ATOM      2  C1' OXE d   1      -1.253  -1.320   0.973  0.00  0.00     0.078 C 
ATOM      3  C1  OXE d   1      -0.343  -1.691  -0.171  0.00  0.00    -0.078 A 
ATOM      4  C2  OXE d   1       0.472  -0.706  -0.675  0.00  0.00    -0.078 A 
ATOM      5  C3  OXE d   1       1.371  -1.010  -1.694  0.00  0.00     0.003 A 
ATOM      6  C4  OXE d   1       1.343  -2.266  -2.312  0.00  0.00    -0.002 A 
ATOM      7  C5  OXE d   1       0.492  -3.271  -1.840  0.00  0.00    -0.002 A 
ATOM      8  C6  OXE d   1      -0.325  -3.014  -0.745  0.00  0.00     0.003 A 
ENDROOT
TORSDOF 0
ENDMDL
