MODEL 1
REMARK minimizedAffinity -3.50133514
REMARK minimizedRMSD -1
REMARK  0 active torsions:
REMARK  status: ('A' for Active; 'I' for Inactive)
ROOT
ATOM      1  C2' OXE d   1       1.836  -1.810  -2.035  0.00  0.00     0.078 C 
ATOM      2  C1' OXE d   1       0.135  -3.832  -1.086  0.00  0.00     0.078 C 
ATOM      3  C1  OXE d   1       0.006  -2.459  -0.474  0.00  0.00    -0.078 A 
ATOM      4  C2  OXE d   1       0.874  -1.488  -0.911  0.00  0.00    -0.078 A 
ATOM      5  C3  OXE d   1       0.762  -0.191  -0.419  0.00  0.00     0.003 A 
ATOM      6  C4  OXE d   1      -0.124   0.097   0.626  0.00  0.00    -0.002 A 
ATOM      7  C5  OXE d   1      -0.989  -0.888   1.114  0.00  0.00    -0.002 A 
ATOM      8  C6  OXE d   1      -0.967  -2.157   0.547  0.00  0.00     0.003 A 
ENDROOT
TORSDOF 0
ENDMDL
