MODEL 1
REMARK minimizedAffinity -2.79296756
REMARK minimizedRMSD -1
REMARK  0 active torsions:
REMARK  status: ('A' for Active; 'I' for Inactive)
ROOT
ATOM      1  C2' OXE d   1       0.482  -2.038  -2.167  0.00  0.00     0.078 C 
ATOM      2  C1' OXE d   1       2.181  -0.137  -0.992  0.00  0.00     0.078 C 
ATOM      3  C1  OXE d   1       0.929  -0.520  -0.243  0.00  0.00    -0.078 A 
ATOM      4  C2  OXE d   1       0.080  -1.416  -0.847  0.00  0.00    -0.078 A 
ATOM      5  C3  OXE d   1      -1.061  -1.846  -0.175  0.00  0.00     0.003 A 
ATOM      6  C4  OXE d   1      -1.430  -1.258   1.041  0.00  0.00    -0.002 A 
ATOM      7  C5  OXE d   1      -0.600  -0.314   1.655  0.00  0.00    -0.002 A 
ATOM      8  C6  OXE d   1       0.601   0.034   1.048  0.00  0.00     0.003 A 
ENDROOT
TORSDOF 0
ENDMDL
