MODEL 1
REMARK minimizedAffinity -0.391425759
REMARK minimizedRMSD -1
REMARK  0 active torsions:
REMARK  status: ('A' for Active; 'I' for Inactive)
ROOT
ATOM      1  C2' OXE d   1      -0.606  -1.847  -1.177  0.00  0.00     0.078 C 
ATOM      2  C1' OXE d   1       1.637  -0.417  -0.281  0.00  0.00     0.078 C 
ATOM      3  C1  OXE d   1       0.330  -0.197   0.437  0.00  0.00    -0.078 A 
ATOM      4  C2  OXE d   1      -0.773  -0.866  -0.037  0.00  0.00    -0.078 A 
ATOM      5  C3  OXE d   1      -1.992  -0.740   0.623  0.00  0.00     0.003 A 
ATOM      6  C4  OXE d   1      -2.140   0.177   1.670  0.00  0.00    -0.002 A 
ATOM      7  C5  OXE d   1      -1.039   0.898   2.143  0.00  0.00    -0.002 A 
ATOM      8  C6  OXE d   1       0.210   0.692   1.567  0.00  0.00     0.003 A 
ENDROOT
TORSDOF 0
ENDMDL
