MODEL 1
REMARK minimizedAffinity -2.75033426
REMARK minimizedRMSD -1
REMARK  0 active torsions:
REMARK  status: ('A' for Active; 'I' for Inactive)
ROOT
ATOM      1  C2' OXE d   1      -0.387  -0.150   0.440  0.00  0.00     0.078 C 
ATOM      2  C1' OXE d   1       1.934   0.232  -1.093  0.00  0.00     0.078 C 
ATOM      3  C1  OXE d   1       1.172  -1.056  -1.279  0.00  0.00    -0.078 A 
ATOM      4  C2  OXE d   1       0.064  -1.255  -0.491  0.00  0.00    -0.078 A 
ATOM      5  C3  OXE d   1      -0.706  -2.402  -0.661  0.00  0.00     0.003 A 
ATOM      6  C4  OXE d   1      -0.277  -3.423  -1.518  0.00  0.00    -0.002 A 
ATOM      7  C5  OXE d   1       0.870  -3.258  -2.300  0.00  0.00    -0.002 A 
ATOM      8  C6  OXE d   1       1.581  -2.065  -2.225  0.00  0.00     0.003 A 
ENDROOT
TORSDOF 0
ENDMDL
