MODEL 1
REMARK minimizedAffinity 0.65466392
REMARK minimizedRMSD -1
REMARK  0 active torsions:
REMARK  status: ('A' for Active; 'I' for Inactive)
ROOT
ATOM      1  C2' OXE d   1       0.310  -1.380  -0.873  0.00  0.00     0.078 C 
ATOM      2  C1' OXE d   1       0.553   1.416  -0.952  0.00  0.00     0.078 C 
ATOM      3  C1  OXE d   1      -0.041   0.796   0.288  0.00  0.00    -0.078 A 
ATOM      4  C2  OXE d   1      -0.199  -0.568   0.300  0.00  0.00    -0.078 A 
ATOM      5  C3  OXE d   1      -0.691  -1.196   1.441  0.00  0.00     0.003 A 
ATOM      6  C4  OXE d   1      -1.168  -0.438   2.517  0.00  0.00    -0.002 A 
ATOM      7  C5  OXE d   1      -1.053   0.956   2.509  0.00  0.00    -0.002 A 
ATOM      8  C6  OXE d   1      -0.454   1.585   1.423  0.00  0.00     0.003 A 
ENDROOT
TORSDOF 0
ENDMDL
