MODEL 1
REMARK minimizedAffinity -1.24564481
REMARK minimizedRMSD -1
REMARK  0 active torsions:
REMARK  status: ('A' for Active; 'I' for Inactive)
ROOT
ATOM      1  C2' OXE d   1      -0.281  -0.068   1.628  0.00  0.00     0.078 C 
ATOM      2  C1' OXE d   1      -2.183  -2.038   1.011  0.00  0.00     0.078 C 
ATOM      3  C1  OXE d   1      -0.972  -1.925   0.118  0.00  0.00    -0.078 A 
ATOM      4  C2  OXE d   1      -0.070  -0.928   0.400  0.00  0.00    -0.078 A 
ATOM      5  C3  OXE d   1       1.092  -0.814  -0.358  0.00  0.00     0.003 A 
ATOM      6  C4  OXE d   1       1.274  -1.607  -1.498  0.00  0.00    -0.002 A 
ATOM      7  C5  OXE d   1       0.348  -2.602  -1.826  0.00  0.00    -0.002 A 
ATOM      8  C6  OXE d   1      -0.757  -2.802  -1.006  0.00  0.00     0.003 A 
ENDROOT
TORSDOF 0
ENDMDL
