MODEL 1
REMARK minimizedAffinity -1.61859047
REMARK minimizedRMSD -1
REMARK  0 active torsions:
REMARK  status: ('A' for Active; 'I' for Inactive)
ROOT
ATOM      1  C2' OXE d   1       0.908  -2.400  -2.020  0.00  0.00     0.078 C 
ATOM      2  C1' OXE d   1       2.582  -0.382  -1.018  0.00  0.00     0.078 C 
ATOM      3  C1  OXE d   1       1.300  -0.666  -0.276  0.00  0.00    -0.078 A 
ATOM      4  C2  OXE d   1       0.465  -1.623  -0.800  0.00  0.00    -0.078 A 
ATOM      5  C3  OXE d   1      -0.704  -1.962  -0.124  0.00  0.00     0.003 A 
ATOM      6  C4  OXE d   1      -1.112  -1.231   0.998  0.00  0.00    -0.002 A 
ATOM      7  C5  OXE d   1      -0.295  -0.226   1.526  0.00  0.00    -0.002 A 
ATOM      8  C6  OXE d   1       0.932   0.040   0.927  0.00  0.00     0.003 A 
ENDROOT
TORSDOF 0
ENDMDL
