MODEL 1
REMARK minimizedAffinity -4.99698687
REMARK minimizedRMSD -1
REMARK  0 active torsions:
REMARK  status: ('A' for Active; 'I' for Inactive)
ROOT
ATOM      1  C2' OXE d   1       1.813   0.000  -0.691  0.00  0.00     0.078 C 
ATOM      2  C1' OXE d   1       0.222   2.278  -0.288  0.00  0.00     0.078 C 
ATOM      3  C1  OXE d   1      -0.074   1.056   0.545  0.00  0.00    -0.078 A 
ATOM      4  C2  OXE d   1       0.679  -0.069   0.309  0.00  0.00    -0.078 A 
ATOM      5  C3  OXE d   1       0.484  -1.205   1.087  0.00  0.00     0.003 A 
ATOM      6  C4  OXE d   1      -0.574  -1.264   2.003  0.00  0.00    -0.002 A 
ATOM      7  C5  OXE d   1      -1.379  -0.143   2.231  0.00  0.00    -0.002 A 
ATOM      8  C6  OXE d   1      -1.116   1.036   1.542  0.00  0.00     0.003 A 
ENDROOT
TORSDOF 0
ENDMDL
