MODEL 1
REMARK minimizedAffinity -3.46590924
REMARK minimizedRMSD -1
REMARK  0 active torsions:
REMARK  status: ('A' for Active; 'I' for Inactive)
ROOT
ATOM      1  C2' OXE d   1       2.450  -2.570  -1.809  0.00  0.00     0.078 C 
ATOM      2  C1' OXE d   1      -0.128  -3.661  -1.594  0.00  0.00     0.078 C 
ATOM      3  C1  OXE d   1       0.115  -2.303  -0.983  0.00  0.00    -0.078 A 
ATOM      4  C2  OXE d   1       1.391  -1.797  -1.053  0.00  0.00    -0.078 A 
ATOM      5  C3  OXE d   1       1.656  -0.526  -0.554  0.00  0.00     0.003 A 
ATOM      6  C4  OXE d   1       0.674   0.178   0.154  0.00  0.00    -0.002 A 
ATOM      7  C5  OXE d   1      -0.622  -0.337   0.270  0.00  0.00    -0.002 A 
ATOM      8  C6  OXE d   1      -0.928  -1.554  -0.328  0.00  0.00     0.003 A 
ENDROOT
TORSDOF 0
ENDMDL
