MODEL 1
REMARK minimizedAffinity -6.14514875
REMARK minimizedRMSD -1
REMARK  0 active torsions:
REMARK  status: ('A' for Active; 'I' for Inactive)
ROOT
ATOM      1  C2' OXE d   1      -1.489   1.867   1.872  0.00  0.00     0.078 C 
ATOM      2  C1' OXE d   1      -0.088   3.899   0.535  0.00  0.00     0.078 C 
ATOM      3  C1  OXE d   1      -0.067   2.516  -0.068  0.00  0.00    -0.078 A 
ATOM      4  C2  OXE d   1      -0.716   1.518   0.618  0.00  0.00    -0.078 A 
ATOM      5  C3  OXE d   1      -0.774   0.236   0.079  0.00  0.00     0.003 A 
ATOM      6  C4  OXE d   1      -0.048  -0.080  -1.076  0.00  0.00    -0.002 A 
ATOM      7  C5  OXE d   1       0.652   0.913  -1.769  0.00  0.00    -0.002 A 
ATOM      8  C6  OXE d   1       0.618   2.223  -1.302  0.00  0.00     0.003 A 
ENDROOT
TORSDOF 0
ENDMDL
