MODEL 1
REMARK minimizedAffinity -1.67652988
REMARK minimizedRMSD -1
REMARK  0 active torsions:
REMARK  status: ('A' for Active; 'I' for Inactive)
ROOT
ATOM      1  C2' OXE d   1       0.151   0.855  -1.143  0.00  0.00     0.078 C 
ATOM      2  C1' OXE d   1       0.925  -0.925   0.885  0.00  0.00     0.078 C 
ATOM      3  C1  OXE d   1       0.866  -1.450  -0.528  0.00  0.00    -0.078 A 
ATOM      4  C2  OXE d   1       0.441  -0.585  -1.507  0.00  0.00    -0.078 A 
ATOM      5  C3  OXE d   1       0.421  -1.003  -2.835  0.00  0.00     0.003 A 
ATOM      6  C4  OXE d   1       0.682  -2.340  -3.161  0.00  0.00    -0.002 A 
ATOM      7  C5  OXE d   1       1.078  -3.247  -2.173  0.00  0.00    -0.002 A 
ATOM      8  C6  OXE d   1       1.216  -2.809  -0.861  0.00  0.00     0.003 A 
ENDROOT
TORSDOF 0
ENDMDL
