MODEL 1
REMARK minimizedAffinity -1.69783461
REMARK minimizedRMSD -1
REMARK  0 active torsions:
REMARK  status: ('A' for Active; 'I' for Inactive)
ROOT
ATOM      1  C2' OXE d   1      -1.038   1.608   2.251  0.00  0.00     0.078 C 
ATOM      2  C1' OXE d   1       0.148   2.696  -0.049  0.00  0.00     0.078 C 
ATOM      3  C1  OXE d   1       0.242   1.204   0.152  0.00  0.00    -0.078 A 
ATOM      4  C2  OXE d   1      -0.301   0.686   1.303  0.00  0.00    -0.078 A 
ATOM      5  C3  OXE d   1      -0.290  -0.690   1.511  0.00  0.00     0.003 A 
ATOM      6  C4  OXE d   1       0.402  -1.534   0.635  0.00  0.00    -0.002 A 
ATOM      7  C5  OXE d   1       0.996  -1.022  -0.524  0.00  0.00    -0.002 A 
ATOM      8  C6  OXE d   1       0.888   0.336  -0.801  0.00  0.00     0.003 A 
ENDROOT
TORSDOF 0
ENDMDL
