MODEL 1
REMARK minimizedAffinity -2.30760932
REMARK minimizedRMSD -1
REMARK  0 active torsions:
REMARK  status: ('A' for Active; 'I' for Inactive)
ROOT
ATOM      1  C2' OXE d   1       1.485   0.730  -1.152  0.00  0.00     0.078 C 
ATOM      2  C1' OXE d   1       0.324  -1.822  -1.296  0.00  0.00     0.078 C 
ATOM      3  C1  OXE d   1      -0.164  -0.887  -0.218  0.00  0.00    -0.078 A 
ATOM      4  C2  OXE d   1       0.442   0.343  -0.126  0.00  0.00    -0.078 A 
ATOM      5  C3  OXE d   1      -0.008   1.264   0.816  0.00  0.00     0.003 A 
ATOM      6  C4  OXE d   1      -0.966   0.895   1.767  0.00  0.00    -0.002 A 
ATOM      7  C5  OXE d   1      -1.569  -0.367   1.716  0.00  0.00    -0.002 A 
ATOM      8  C6  OXE d   1      -1.210  -1.252   0.705  0.00  0.00     0.003 A 
ENDROOT
TORSDOF 0
ENDMDL
