MODEL 1
REMARK minimizedAffinity -2.97382164
REMARK minimizedRMSD -1
REMARK  0 active torsions:
REMARK  status: ('A' for Active; 'I' for Inactive)
ROOT
ATOM      1  C2' OXE d   1       0.559   3.222  -0.816  0.00  0.00     0.078 C 
ATOM      2  C1' OXE d   1      -0.839   3.312   1.617  0.00  0.00     0.078 C 
ATOM      3  C1  OXE d   1      -0.448   1.958   1.080  0.00  0.00    -0.078 A 
ATOM      4  C2  OXE d   1       0.195   1.921  -0.134  0.00  0.00    -0.078 A 
ATOM      5  C3  OXE d   1       0.626   0.702  -0.649  0.00  0.00     0.003 A 
ATOM      6  C4  OXE d   1       0.277  -0.498  -0.017  0.00  0.00    -0.002 A 
ATOM      7  C5  OXE d   1      -0.412  -0.485   1.200  0.00  0.00    -0.002 A 
ATOM      8  C6  OXE d   1      -0.744   0.734   1.782  0.00  0.00     0.003 A 
ENDROOT
TORSDOF 0
ENDMDL
