MODEL 1
REMARK minimizedAffinity -2.96945596
REMARK minimizedRMSD -1
REMARK  0 active torsions:
REMARK  status: ('A' for Active; 'I' for Inactive)
ROOT
ATOM      1  C2' OXE d   1      -0.786   2.176   1.479  0.00  0.00     0.078 C 
ATOM      2  C1' OXE d   1       0.290   2.485  -1.095  0.00  0.00     0.078 C 
ATOM      3  C1  OXE d   1       0.122   1.083  -0.567  0.00  0.00    -0.078 A 
ATOM      4  C2  OXE d   1      -0.362   0.942   0.712  0.00  0.00    -0.078 A 
ATOM      5  C3  OXE d   1      -0.588  -0.330   1.228  0.00  0.00     0.003 A 
ATOM      6  C4  OXE d   1      -0.184  -1.466   0.516  0.00  0.00    -0.002 A 
ATOM      7  C5  OXE d   1       0.348  -1.344  -0.773  0.00  0.00    -0.002 A 
ATOM      8  C6  OXE d   1       0.467  -0.082  -1.344  0.00  0.00     0.003 A 
ENDROOT
TORSDOF 0
ENDMDL
