MODEL 1
REMARK minimizedAffinity -5.95788336
REMARK minimizedRMSD -1
REMARK  0 active torsions:
REMARK  status: ('A' for Active; 'I' for Inactive)
ROOT
ATOM      1  C   UNL d   1      -1.084   3.016   0.623  0.00  0.00    -0.002 A 
ATOM      2  C1  UNL d   1      -1.164   2.964  -0.762  0.00  0.00     0.010 A 
ATOM      3  C2  UNL d   1      -0.690   1.852  -1.459  0.00  0.00     0.041 A 
ATOM      4  C3  UNL d   1      -0.131   0.780  -0.735  0.00  0.00    -0.075 A 
ATOM      5  S   UNL d   1       0.512  -0.685  -1.377  0.00  0.00     0.015 SA
ATOM      6  C4  UNL d   1       0.906  -1.278   0.171  0.00  0.00     0.022 A 
ATOM      7  C5  UNL d   1       0.563  -0.392   1.165  0.00  0.00     0.026 A 
ATOM      8  C6  UNL d   1      -0.041   0.808   0.659  0.00  0.00    -0.082 A 
ATOM      9  C7  UNL d   1      -0.530   1.951   1.338  0.00  0.00     0.045 A 
ENDROOT
TORSDOF 0
ENDMDL
