MODEL 1
REMARK minimizedAffinity -3.55894804
REMARK minimizedRMSD -1
REMARK  0 active torsions:
REMARK  status: ('A' for Active; 'I' for Inactive)
ROOT
ATOM      1  C   UNL d   1      -0.726   3.455   0.558  0.00  0.00    -0.002 A 
ATOM      2  C1  UNL d   1      -0.785   3.140  -0.793  0.00  0.00     0.010 A 
ATOM      3  C2  UNL d   1      -0.565   1.831  -1.227  0.00  0.00     0.041 A 
ATOM      4  C3  UNL d   1      -0.285   0.834  -0.272  0.00  0.00    -0.075 A 
ATOM      5  S   UNL d   1       0.017  -0.837  -0.571  0.00  0.00     0.015 SA
ATOM      6  C4  UNL d   1       0.230  -1.172   1.086  0.00  0.00     0.022 A 
ATOM      7  C5  UNL d   1       0.078  -0.048   1.863  0.00  0.00     0.026 A 
ATOM      8  C6  UNL d   1      -0.221   1.127   1.094  0.00  0.00    -0.082 A 
ATOM      9  C7  UNL d   1      -0.447   2.463   1.502  0.00  0.00     0.045 A 
ENDROOT
TORSDOF 0
ENDMDL
