MODEL 1
REMARK minimizedAffinity -5.60466862
REMARK minimizedRMSD -1
REMARK  0 active torsions:
REMARK  status: ('A' for Active; 'I' for Inactive)
ROOT
ATOM      1  C   UNL d   1      -1.135   3.378   1.414  0.00  0.00    -0.002 A 
ATOM      2  C1  UNL d   1      -1.224   3.401   0.030  0.00  0.00     0.010 A 
ATOM      3  C2  UNL d   1      -0.831   2.294  -0.726  0.00  0.00     0.041 A 
ATOM      4  C3  UNL d   1      -0.344   1.153  -0.060  0.00  0.00    -0.075 A 
ATOM      5  S   UNL d   1       0.194  -0.319  -0.778  0.00  0.00     0.015 SA
ATOM      6  C4  UNL d   1       0.554  -1.014   0.736  0.00  0.00     0.022 A 
ATOM      7  C5  UNL d   1       0.276  -0.158   1.775  0.00  0.00     0.026 A 
ATOM      8  C6  UNL d   1      -0.246   1.105   1.334  0.00  0.00    -0.082 A 
ATOM      9  C7  UNL d   1      -0.652   2.243   2.072  0.00  0.00     0.045 A 
ENDROOT
TORSDOF 0
ENDMDL
