MODEL 1
REMARK minimizedAffinity -3.67626047
REMARK minimizedRMSD -1
REMARK  0 active torsions:
REMARK  status: ('A' for Active; 'I' for Inactive)
ROOT
ATOM      1  C   UNL d   1      -0.906   1.906   2.271  0.00  0.00    -0.002 A 
ATOM      2  C1  UNL d   1      -1.126   3.039   1.501  0.00  0.00     0.010 A 
ATOM      3  C2  UNL d   1      -0.769   3.061   0.151  0.00  0.00     0.041 A 
ATOM      4  C3  UNL d   1      -0.182   1.913  -0.417  0.00  0.00    -0.075 A 
ATOM      5  S   UNL d   1       0.335   1.710  -2.049  0.00  0.00     0.015 SA
ATOM      6  C4  UNL d   1       0.860   0.113  -1.763  0.00  0.00     0.022 A 
ATOM      7  C5  UNL d   1       0.653  -0.271  -0.459  0.00  0.00     0.026 A 
ATOM      8  C6  UNL d   1       0.048   0.759   0.338  0.00  0.00    -0.082 A 
ATOM      9  C7  UNL d   1      -0.324   0.769   1.704  0.00  0.00     0.045 A 
ENDROOT
TORSDOF 0
ENDMDL
