MODEL 1
REMARK minimizedAffinity -4.84151745
REMARK minimizedRMSD -1
REMARK  0 active torsions:
REMARK  status: ('A' for Active; 'I' for Inactive)
ROOT
ATOM      1  C   UNL d   1      -1.015   3.477   1.060  0.00  0.00    -0.002 A 
ATOM      2  C1  UNL d   1      -0.920   3.591  -0.320  0.00  0.00     0.010 A 
ATOM      3  C2  UNL d   1      -0.441   2.528  -1.089  0.00  0.00     0.041 A 
ATOM      4  C3  UNL d   1      -0.056   1.338  -0.442  0.00  0.00    -0.075 A 
ATOM      5  S   UNL d   1       0.559  -0.094  -1.179  0.00  0.00     0.015 SA
ATOM      6  C4  UNL d   1       0.709  -0.891   0.320  0.00  0.00     0.022 A 
ATOM      7  C5  UNL d   1       0.305  -0.099   1.368  0.00  0.00     0.026 A 
ATOM      8  C6  UNL d   1      -0.144   1.199   0.946  0.00  0.00    -0.082 A 
ATOM      9  C7  UNL d   1      -0.633   2.294   1.698  0.00  0.00     0.045 A 
ENDROOT
TORSDOF 0
ENDMDL
