MODEL 1
REMARK minimizedAffinity -5.3365016
REMARK minimizedRMSD -1
REMARK  0 active torsions:
REMARK  status: ('A' for Active; 'I' for Inactive)
ROOT
ATOM      1  C   UNL d   1      -1.087   3.175   1.501  0.00  0.00    -0.002 A 
ATOM      2  C1  UNL d   1      -0.836   3.754   0.265  0.00  0.00     0.010 A 
ATOM      3  C2  UNL d   1      -0.397   2.975  -0.807  0.00  0.00     0.041 A 
ATOM      4  C3  UNL d   1      -0.215   1.591  -0.615  0.00  0.00    -0.075 A 
ATOM      5  S   UNL d   1       0.314   0.440  -1.784  0.00  0.00     0.015 SA
ATOM      6  C4  UNL d   1       0.218  -0.847  -0.670  0.00  0.00     0.022 A 
ATOM      7  C5  UNL d   1      -0.205  -0.426   0.568  0.00  0.00     0.026 A 
ATOM      8  C6  UNL d   1      -0.462   0.985   0.620  0.00  0.00    -0.082 A 
ATOM      9  C7  UNL d   1      -0.905   1.802   1.688  0.00  0.00     0.045 A 
ENDROOT
TORSDOF 0
ENDMDL
