MODEL 1
REMARK minimizedAffinity -3.40081191
REMARK minimizedRMSD -1
REMARK  0 active torsions:
REMARK  status: ('A' for Active; 'I' for Inactive)
ROOT
ATOM      1  C   UNL d   1      -1.640   3.432   1.241  0.00  0.00    -0.002 A 
ATOM      2  C1  UNL d   1      -1.322   3.785  -0.063  0.00  0.00     0.010 A 
ATOM      3  C2  UNL d   1      -0.660   2.885  -0.901  0.00  0.00     0.041 A 
ATOM      4  C3  UNL d   1      -0.322   1.612  -0.402  0.00  0.00    -0.075 A 
ATOM      5  S   UNL d   1       0.488   0.346  -1.247  0.00  0.00     0.015 SA
ATOM      6  C4  UNL d   1       0.430  -0.693   0.102  0.00  0.00     0.022 A 
ATOM      7  C5  UNL d   1      -0.188  -0.105   1.180  0.00  0.00     0.026 A 
ATOM      8  C6  UNL d   1      -0.633   1.233   0.907  0.00  0.00    -0.082 A 
ATOM      9  C7  UNL d   1      -1.303   2.167   1.732  0.00  0.00     0.045 A 
ENDROOT
TORSDOF 0
ENDMDL
