MODEL 1
REMARK minimizedAffinity -2.78545403
REMARK minimizedRMSD -1
REMARK  0 active torsions:
REMARK  status: ('A' for Active; 'I' for Inactive)
ROOT
ATOM      1  C   UNL d   1       1.027  -1.213   0.000  0.00  0.00     0.124 A 
ATOM      2  C1  UNL d   1      -0.136  -0.457  -0.041  0.00  0.00     0.062 A 
ATOM      3  C2  UNL d   1      -0.189   0.703  -0.809  0.00  0.00     0.162 A 
ATOM      4  C3  UNL d   1       0.924   1.113  -1.543  0.00  0.00    -0.034 A 
ATOM      5  C4  UNL d   1       2.090   0.347  -1.495  0.00  0.00     0.162 A 
ATOM      6  C5  UNL d   1       2.138  -0.811  -0.726  0.00  0.00     0.062 A 
ATOM      7  F   UNL d   1       3.263  -1.541  -0.687  0.00  0.00    -0.097 F 
ATOM      8  F1  UNL d   1       3.179   0.713  -2.188  0.00  0.00    -0.096 F 
ATOM      9  I   UNL d   1       0.849   2.846  -2.692  0.00  0.00    -0.060 I 
ATOM     10  F2  UNL d   1      -1.326   1.415  -0.831  0.00  0.00    -0.096 F 
ATOM     11  F3  UNL d   1      -1.211  -0.843   0.660  0.00  0.00    -0.097 F 
ATOM     12  F4  UNL d   1       1.075  -2.328   0.741  0.00  0.00    -0.092 F 
ENDROOT
TORSDOF 0
ENDMDL
