MODEL 1
REMARK minimizedAffinity 0.304579824
REMARK minimizedRMSD -1
REMARK  0 active torsions:
REMARK  status: ('A' for Active; 'I' for Inactive)
ROOT
ATOM      1  C   UNL d   1       1.706  -0.142  -2.304  0.00  0.00     0.124 A 
ATOM      2  C1  UNL d   1       0.821   0.926  -2.246  0.00  0.00     0.062 A 
ATOM      3  C2  UNL d   1      -0.122   0.998  -1.225  0.00  0.00     0.162 A 
ATOM      4  C3  UNL d   1      -0.185  -0.001  -0.253  0.00  0.00    -0.034 A 
ATOM      5  C4  UNL d   1       0.708  -1.072  -0.319  0.00  0.00     0.162 A 
ATOM      6  C5  UNL d   1       1.649  -1.140  -1.341  0.00  0.00     0.062 A 
ATOM      7  F   UNL d   1       2.503  -2.172  -1.396  0.00  0.00    -0.097 F 
ATOM      8  F1  UNL d   1       0.675  -2.049   0.599  0.00  0.00    -0.096 F 
ATOM      9  I   UNL d   1      -1.594   0.103   1.275  0.00  0.00    -0.060 I 
ATOM     10  F2  UNL d   1      -0.965   2.041  -1.193  0.00  0.00    -0.096 F 
ATOM     11  F3  UNL d   1       0.874   1.890  -3.175  0.00  0.00    -0.097 F 
ATOM     12  F4  UNL d   1       2.612  -0.209  -3.288  0.00  0.00    -0.092 F 
ENDROOT
TORSDOF 0
ENDMDL
