MODEL 1
REMARK minimizedAffinity 0.237716734
REMARK minimizedRMSD -1
REMARK  0 active torsions:
REMARK  status: ('A' for Active; 'I' for Inactive)
ROOT
ATOM      1  C   UNL d   1       1.321  -1.885  -0.923  0.00  0.00     0.124 A 
ATOM      2  C1  UNL d   1       1.468  -0.588  -1.395  0.00  0.00     0.062 A 
ATOM      3  C2  UNL d   1       0.603   0.415  -0.968  0.00  0.00     0.162 A 
ATOM      4  C3  UNL d   1      -0.418   0.126  -0.063  0.00  0.00    -0.034 A 
ATOM      5  C4  UNL d   1      -0.561  -1.181   0.407  0.00  0.00     0.162 A 
ATOM      6  C5  UNL d   1       0.307  -2.180  -0.023  0.00  0.00     0.062 A 
ATOM      7  F   UNL d   1       0.163  -3.433   0.434  0.00  0.00    -0.097 F 
ATOM      8  F1  UNL d   1      -1.531  -1.495   1.278  0.00  0.00    -0.096 F 
ATOM      9  I   UNL d   1      -1.714   1.622   0.578  0.00  0.00    -0.060 I 
ATOM     10  F2  UNL d   1       0.769   1.660  -1.441  0.00  0.00    -0.096 F 
ATOM     11  F3  UNL d   1       2.446  -0.300  -2.266  0.00  0.00    -0.097 F 
ATOM     12  F4  UNL d   1       2.154  -2.848  -1.337  0.00  0.00    -0.092 F 
ENDROOT
TORSDOF 0
ENDMDL
