MODEL 1
REMARK minimizedAffinity -4.99641275
REMARK minimizedRMSD -1
REMARK  0 active torsions:
REMARK  status: ('A' for Active; 'I' for Inactive)
ROOT
ATOM      1  C   UNL d   1       0.710  -1.618   0.030  0.00  0.00     0.124 A 
ATOM      2  C1  UNL d   1      -0.213  -0.596   0.205  0.00  0.00     0.062 A 
ATOM      3  C2  UNL d   1      -0.071   0.602  -0.490  0.00  0.00     0.162 A 
ATOM      4  C3  UNL d   1       0.998   0.784  -1.368  0.00  0.00    -0.034 A 
ATOM      5  C4  UNL d   1       1.923  -0.248  -1.537  0.00  0.00     0.162 A 
ATOM      6  C5  UNL d   1       1.777  -1.443  -0.840  0.00  0.00     0.062 A 
ATOM      7  F   UNL d   1       2.669  -2.429  -1.010  0.00  0.00    -0.097 F 
ATOM      8  F1  UNL d   1       2.962  -0.107  -2.373  0.00  0.00    -0.096 F 
ATOM      9  I   UNL d   1       1.214   2.573  -2.409  0.00  0.00    -0.060 I 
ATOM     10  F2  UNL d   1      -0.978   1.572  -0.302  0.00  0.00    -0.096 F 
ATOM     11  F3  UNL d   1      -1.244  -0.761   1.046  0.00  0.00    -0.097 F 
ATOM     12  F4  UNL d   1       0.572  -2.768   0.701  0.00  0.00    -0.092 F 
ENDROOT
TORSDOF 0
ENDMDL
