MODEL 1
REMARK minimizedAffinity -3.07473063
REMARK minimizedRMSD -1
REMARK  0 active torsions:
REMARK  status: ('A' for Active; 'I' for Inactive)
ROOT
ATOM      1  C   UNL d   1       2.241  -0.649  -1.843  0.00  0.00     0.124 A 
ATOM      2  C1  UNL d   1       1.840   0.673  -1.701  0.00  0.00     0.062 A 
ATOM      3  C2  UNL d   1       0.744   0.990  -0.904  0.00  0.00     0.162 A 
ATOM      4  C3  UNL d   1       0.041  -0.017  -0.242  0.00  0.00    -0.034 A 
ATOM      5  C4  UNL d   1       0.449  -1.343  -0.390  0.00  0.00     0.162 A 
ATOM      6  C5  UNL d   1       1.546  -1.655  -1.188  0.00  0.00     0.062 A 
ATOM      7  F   UNL d   1       1.931  -2.932  -1.324  0.00  0.00    -0.097 F 
ATOM      8  F1  UNL d   1      -0.204  -2.335   0.232  0.00  0.00    -0.096 F 
ATOM      9  I   UNL d   1      -1.599   0.454   0.951  0.00  0.00    -0.060 I 
ATOM     10  F2  UNL d   1       0.379   2.275  -0.785  0.00  0.00    -0.096 F 
ATOM     11  F3  UNL d   1       2.510   1.647  -2.333  0.00  0.00    -0.097 F 
ATOM     12  F4  UNL d   1       3.296  -0.951  -2.611  0.00  0.00    -0.092 F 
ENDROOT
TORSDOF 0
ENDMDL
