MODEL 1
REMARK minimizedAffinity -2.35155916
REMARK minimizedRMSD -1
REMARK  0 active torsions:
REMARK  status: ('A' for Active; 'I' for Inactive)
ROOT
ATOM      1  C   UNL d   1       1.763   0.284  -2.016  0.00  0.00     0.124 A 
ATOM      2  C1  UNL d   1       1.718  -0.787  -1.135  0.00  0.00     0.062 A 
ATOM      3  C2  UNL d   1       0.682  -0.891  -0.211  0.00  0.00     0.162 A 
ATOM      4  C3  UNL d   1      -0.319   0.079  -0.165  0.00  0.00    -0.034 A 
ATOM      5  C4  UNL d   1      -0.266   1.154  -1.054  0.00  0.00     0.162 A 
ATOM      6  C5  UNL d   1       0.771   1.254  -1.975  0.00  0.00     0.062 A 
ATOM      7  F   UNL d   1       0.813   2.289  -2.826  0.00  0.00    -0.097 F 
ATOM      8  F1  UNL d   1      -1.213   2.105  -1.037  0.00  0.00    -0.096 F 
ATOM      9  I   UNL d   1      -1.870  -0.072   1.214  0.00  0.00    -0.060 I 
ATOM     10  F2  UNL d   1       0.664  -1.937   0.628  0.00  0.00    -0.096 F 
ATOM     11  F3  UNL d   1       2.676  -1.725  -1.172  0.00  0.00    -0.097 F 
ATOM     12  F4  UNL d   1       2.762   0.382  -2.903  0.00  0.00    -0.092 F 
ENDROOT
TORSDOF 0
ENDMDL
