MODEL 1
REMARK minimizedAffinity 0.922049463
REMARK minimizedRMSD -1
REMARK  0 active torsions:
REMARK  status: ('A' for Active; 'I' for Inactive)
ROOT
ATOM      1  C   UNL d   1       0.888  -0.170  -1.412  0.00  0.00     0.124 A 
ATOM      2  C1  UNL d   1      -0.121   0.783  -1.407  0.00  0.00     0.062 A 
ATOM      3  C2  UNL d   1      -0.963   0.906  -0.305  0.00  0.00     0.162 A 
ATOM      4  C3  UNL d   1      -0.798   0.074   0.802  0.00  0.00    -0.034 A 
ATOM      5  C4  UNL d   1       0.218  -0.883   0.790  0.00  0.00     0.162 A 
ATOM      6  C5  UNL d   1       1.057  -1.002  -0.314  0.00  0.00     0.062 A 
ATOM      7  F   UNL d   1       2.031  -1.923  -0.316  0.00  0.00    -0.097 F 
ATOM      8  F1  UNL d   1       0.404  -1.699   1.838  0.00  0.00    -0.096 F 
ATOM      9  I   UNL d   1      -2.055   0.255   2.452  0.00  0.00    -0.060 I 
ATOM     10  F2  UNL d   1      -1.929   1.836  -0.328  0.00  0.00    -0.096 F 
ATOM     11  F3  UNL d   1      -0.287   1.587  -2.467  0.00  0.00    -0.097 F 
ATOM     12  F4  UNL d   1       1.696  -0.287  -2.473  0.00  0.00    -0.092 F 
ENDROOT
TORSDOF 0
ENDMDL
