MODEL 1
REMARK minimizedAffinity -5.52872467
REMARK minimizedRMSD -1
REMARK  0 active torsions:
REMARK  status: ('A' for Active; 'I' for Inactive)
ROOT
ATOM      1  C   UNL d   1       0.992   1.513  -2.490  0.00  0.00     0.124 A 
ATOM      2  C1  UNL d   1       1.802   0.387  -2.446  0.00  0.00     0.062 A 
ATOM      3  C2  UNL d   1       1.549  -0.622  -1.521  0.00  0.00     0.162 A 
ATOM      4  C3  UNL d   1       0.480  -0.510  -0.632  0.00  0.00    -0.034 A 
ATOM      5  C4  UNL d   1      -0.330   0.627  -0.682  0.00  0.00     0.162 A 
ATOM      6  C5  UNL d   1      -0.072   1.632  -1.608  0.00  0.00     0.062 A 
ATOM      7  F   UNL d   1      -0.856   2.719  -1.649  0.00  0.00    -0.097 F 
ATOM      8  F1  UNL d   1      -1.366   0.767   0.158  0.00  0.00    -0.096 F 
ATOM      9  I   UNL d   1       0.098  -2.016   0.752  0.00  0.00    -0.060 I 
ATOM     10  F2  UNL d   1       2.348  -1.699  -1.501  0.00  0.00    -0.096 F 
ATOM     11  F3  UNL d   1       2.833   0.270  -3.297  0.00  0.00    -0.097 F 
ATOM     12  F4  UNL d   1       1.239   2.482  -3.381  0.00  0.00    -0.092 F 
ENDROOT
TORSDOF 0
ENDMDL
