MODEL 1
REMARK minimizedAffinity -4.93191862
REMARK minimizedRMSD -1
REMARK  0 active torsions:
REMARK  status: ('A' for Active; 'I' for Inactive)
ROOT
ATOM      1  C   UNL d   1       1.599   0.014  -2.039  0.00  0.00     0.124 A 
ATOM      2  C1  UNL d   1       1.453  -1.097  -1.219  0.00  0.00     0.062 A 
ATOM      3  C2  UNL d   1       0.397  -1.165  -0.314  0.00  0.00     0.162 A 
ATOM      4  C3  UNL d   1      -0.521  -0.119  -0.225  0.00  0.00    -0.034 A 
ATOM      5  C4  UNL d   1      -0.367   0.995  -1.052  0.00  0.00     0.162 A 
ATOM      6  C5  UNL d   1       0.689   1.058  -1.955  0.00  0.00     0.062 A 
ATOM      7  F   UNL d   1       0.829   2.132  -2.746  0.00  0.00    -0.097 F 
ATOM      8  F1  UNL d   1      -1.232   2.018  -0.992  0.00  0.00    -0.096 F 
ATOM      9  I   UNL d   1      -2.101  -0.217   1.127  0.00  0.00    -0.060 I 
ATOM     10  F2  UNL d   1       0.281  -2.250   0.465  0.00  0.00    -0.096 F 
ATOM     11  F3  UNL d   1       2.331  -2.107  -1.298  0.00  0.00    -0.097 F 
ATOM     12  F4  UNL d   1       2.616   0.077  -2.908  0.00  0.00    -0.092 F 
ENDROOT
TORSDOF 0
ENDMDL
