MODEL 1
REMARK minimizedAffinity 4.01538467
REMARK minimizedRMSD -1
REMARK  0 active torsions:
REMARK  status: ('A' for Active; 'I' for Inactive)
ROOT
ATOM      1  C   UNL d   1       0.389  -1.775   0.129  0.00  0.00     0.124 A 
ATOM      2  C1  UNL d   1      -0.412  -0.685   0.443  0.00  0.00     0.062 A 
ATOM      3  C2  UNL d   1      -0.300   0.498  -0.281  0.00  0.00     0.162 A 
ATOM      4  C3  UNL d   1       0.616   0.598  -1.328  0.00  0.00    -0.034 A 
ATOM      5  C4  UNL d   1       1.419  -0.501  -1.638  0.00  0.00     0.162 A 
ATOM      6  C5  UNL d   1       1.303  -1.682  -0.911  0.00  0.00     0.062 A 
ATOM      7  F   UNL d   1       2.077  -2.733  -1.216  0.00  0.00    -0.097 F 
ATOM      8  F1  UNL d   1       2.310  -0.439  -2.638  0.00  0.00    -0.096 F 
ATOM      9  I   UNL d   1       0.787   2.366  -2.413  0.00  0.00    -0.060 I 
ATOM     10  F2  UNL d   1      -1.087   1.534   0.045  0.00  0.00    -0.096 F 
ATOM     11  F3  UNL d   1      -1.296  -0.772   1.448  0.00  0.00    -0.097 F 
ATOM     12  F4  UNL d   1       0.279  -2.912   0.828  0.00  0.00    -0.092 F 
ENDROOT
TORSDOF 0
ENDMDL
