MODEL 1
REMARK minimizedAffinity -0.650569499
REMARK minimizedRMSD -1
REMARK  0 active torsions:
REMARK  status: ('A' for Active; 'I' for Inactive)
ROOT
ATOM      1  C   UNL d   1       1.963  -0.658  -1.320  0.00  0.00     0.124 A 
ATOM      2  C1  UNL d   1       1.605   0.560  -0.759  0.00  0.00     0.062 A 
ATOM      3  C2  UNL d   1       0.587   0.622   0.187  0.00  0.00     0.162 A 
ATOM      4  C3  UNL d   1      -0.081  -0.538   0.579  0.00  0.00    -0.034 A 
ATOM      5  C4  UNL d   1       0.284  -1.759   0.010  0.00  0.00     0.162 A 
ATOM      6  C5  UNL d   1       1.303  -1.816  -0.936  0.00  0.00     0.062 A 
ATOM      7  F   UNL d   1       1.647  -2.993  -1.477  0.00  0.00    -0.097 F 
ATOM      8  F1  UNL d   1      -0.338  -2.894   0.364  0.00  0.00    -0.096 F 
ATOM      9  I   UNL d   1      -1.605  -0.450   1.994  0.00  0.00    -0.060 I 
ATOM     10  F2  UNL d   1       0.261   1.812   0.713  0.00  0.00    -0.096 F 
ATOM     11  F3  UNL d   1       2.242   1.680  -1.130  0.00  0.00    -0.097 F 
ATOM     12  F4  UNL d   1       2.943  -0.715  -2.232  0.00  0.00    -0.092 F 
ENDROOT
TORSDOF 0
ENDMDL
