MODEL 1
REMARK minimizedAffinity 3.8184135
REMARK minimizedRMSD -1
REMARK  0 active torsions:
REMARK  status: ('A' for Active; 'I' for Inactive)
ROOT
ATOM      1  C   UNL d   1      -2.296   1.523   3.347  0.00  0.00     0.124 A 
ATOM      2  C1  UNL d   1      -1.216   1.948   2.586  0.00  0.00     0.062 A 
ATOM      3  C2  UNL d   1      -0.669   1.111   1.618  0.00  0.00     0.162 A 
ATOM      4  C3  UNL d   1      -1.202  -0.160   1.404  0.00  0.00    -0.034 A 
ATOM      5  C4  UNL d   1      -2.288  -0.581   2.174  0.00  0.00     0.162 A 
ATOM      6  C5  UNL d   1      -2.831   0.259   3.140  0.00  0.00     0.062 A 
ATOM      7  F   UNL d   1      -3.875  -0.153   3.875  0.00  0.00    -0.097 F 
ATOM      8  F1  UNL d   1      -2.825  -1.797   1.995  0.00  0.00    -0.096 F 
ATOM      9  I   UNL d   1      -0.387  -1.415  -0.042  0.00  0.00    -0.060 I 
ATOM     10  F2  UNL d   1       0.374   1.548   0.897  0.00  0.00    -0.096 F 
ATOM     11  F3  UNL d   1      -0.697   3.168   2.784  0.00  0.00    -0.097 F 
ATOM     12  F4  UNL d   1      -2.820   2.330   4.278  0.00  0.00    -0.092 F 
ENDROOT
TORSDOF 0
ENDMDL
