MODEL 1
REMARK minimizedAffinity 17.1437817
REMARK minimizedRMSD -1
REMARK  0 active torsions:
REMARK  status: ('A' for Active; 'I' for Inactive)
ROOT
ATOM      1  C   UNL d   1      -1.931   1.244   3.475  0.00  0.00     0.124 A 
ATOM      2  C1  UNL d   1      -2.557   0.045   3.163  0.00  0.00     0.062 A 
ATOM      3  C2  UNL d   1      -2.096  -0.731   2.104  0.00  0.00     0.162 A 
ATOM      4  C3  UNL d   1      -1.001  -0.311   1.348  0.00  0.00    -0.034 A 
ATOM      5  C4  UNL d   1      -0.377   0.896   1.667  0.00  0.00     0.162 A 
ATOM      6  C5  UNL d   1      -0.842   1.668   2.726  0.00  0.00     0.062 A 
ATOM      7  F   UNL d   1      -0.235   2.826   3.026  0.00  0.00    -0.097 F 
ATOM      8  F1  UNL d   1       0.678   1.329   0.961  0.00  0.00    -0.096 F 
ATOM      9  I   UNL d   1      -0.309  -1.469  -0.236  0.00  0.00    -0.060 I 
ATOM     10  F2  UNL d   1      -2.721  -1.885   1.826  0.00  0.00    -0.096 F 
ATOM     11  F3  UNL d   1      -3.610  -0.366   3.884  0.00  0.00    -0.097 F 
ATOM     12  F4  UNL d   1      -2.377   1.990   4.494  0.00  0.00    -0.092 F 
ENDROOT
TORSDOF 0
ENDMDL
