MODEL 1
REMARK minimizedAffinity -2.58558178
REMARK minimizedRMSD -1
REMARK  0 active torsions:
REMARK  status: ('A' for Active; 'I' for Inactive)
ROOT
ATOM      1  C   UNL d   1       0.490  -1.861   0.361  0.00  0.00     0.124 A 
ATOM      2  C1  UNL d   1       1.584  -1.802  -0.491  0.00  0.00     0.062 A 
ATOM      3  C2  UNL d   1       1.842  -0.646  -1.221  0.00  0.00     0.162 A 
ATOM      4  C3  UNL d   1       1.004   0.463  -1.101  0.00  0.00    -0.034 A 
ATOM      5  C4  UNL d   1      -0.096   0.396  -0.243  0.00  0.00     0.162 A 
ATOM      6  C5  UNL d   1      -0.348  -0.762   0.484  0.00  0.00     0.062 A 
ATOM      7  F   UNL d   1      -1.406  -0.817   1.307  0.00  0.00    -0.097 F 
ATOM      8  F1  UNL d   1      -0.922   1.443  -0.105  0.00  0.00    -0.096 F 
ATOM      9  I   UNL d   1       1.385   2.195  -2.191  0.00  0.00    -0.060 I 
ATOM     10  F2  UNL d   1       2.906  -0.617  -2.036  0.00  0.00    -0.096 F 
ATOM     11  F3  UNL d   1       2.396  -2.863  -0.612  0.00  0.00    -0.097 F 
ATOM     12  F4  UNL d   1       0.244  -2.976   1.062  0.00  0.00    -0.092 F 
ENDROOT
TORSDOF 0
ENDMDL
