MODEL 1
REMARK minimizedAffinity -0.551854968
REMARK minimizedRMSD -1
REMARK  0 active torsions:
REMARK  status: ('A' for Active; 'I' for Inactive)
ROOT
ATOM      1  C   UNL d   1       2.593  -0.758  -1.737  0.00  0.00     0.124 A 
ATOM      2  C1  UNL d   1       1.520  -1.635  -1.826  0.00  0.00     0.062 A 
ATOM      3  C2  UNL d   1       0.326  -1.348  -1.172  0.00  0.00     0.162 A 
ATOM      4  C3  UNL d   1       0.197  -0.179  -0.422  0.00  0.00    -0.034 A 
ATOM      5  C4  UNL d   1       1.281   0.697  -0.336  0.00  0.00     0.162 A 
ATOM      6  C5  UNL d   1       2.472   0.406  -0.992  0.00  0.00     0.062 A 
ATOM      7  F   UNL d   1       3.508   1.254  -0.904  0.00  0.00    -0.097 F 
ATOM      8  F1  UNL d   1       1.191   1.830   0.376  0.00  0.00    -0.096 F 
ATOM      9  I   UNL d   1      -1.587   0.253   0.558  0.00  0.00    -0.060 I 
ATOM     10  F2  UNL d   1      -0.694  -2.213  -1.276  0.00  0.00    -0.096 F 
ATOM     11  F3  UNL d   1       1.635  -2.761  -2.545  0.00  0.00    -0.097 F 
ATOM     12  F4  UNL d   1       3.742  -1.037  -2.366  0.00  0.00    -0.092 F 
ENDROOT
TORSDOF 0
ENDMDL
