MODEL 1
REMARK minimizedAffinity -3.33558846
REMARK minimizedRMSD -1
REMARK  2 active torsions:
REMARK  status: ('A' for Active; 'I' for Inactive)
REMARK    1  A    between atoms: C1_2  and  C2_3 
REMARK    2  A    between atoms: C2_3  and  C3_4 
ROOT
ATOM      1  C3  UNL d   1      -1.433   0.203   0.890  0.00  0.00    -0.075 A 
ATOM      2  C4  UNL d   1      -0.934   0.953  -0.185  0.00  0.00     0.002 A 
ATOM      3  C5  UNL d   1      -0.043   0.382  -1.094  0.00  0.00     0.002 A 
ATOM      4  C6  UNL d   1       0.367  -0.940  -0.935  0.00  0.00    -0.004 A 
ATOM      5  C7  UNL d   1      -0.109  -1.689   0.139  0.00  0.00     0.002 A 
ATOM      6  C8  UNL d   1      -1.004  -1.122   1.048  0.00  0.00     0.002 A 
ENDROOT
BRANCH   1   7
ATOM      7  C2  UNL d   1      -2.420   0.806   1.861  0.00  0.00     0.056 C 
BRANCH   7   8
ATOM      8  C1  UNL d   1      -1.769   1.487   3.070  0.00  0.00     0.007 C 
ATOM      9  C   UNL d   1      -1.729   0.601   4.308  0.00  0.00     0.009 C 
ENDBRANCH   7   8
ENDBRANCH   1   7
TORSDOF 2
ENDMDL
