MODEL 1
REMARK minimizedAffinity -3.91072488
REMARK minimizedRMSD -1
REMARK  2 active torsions:
REMARK  status: ('A' for Active; 'I' for Inactive)
REMARK    1  A    between atoms: C1_2  and  C2_3 
REMARK    2  A    between atoms: C2_3  and  C3_4 
ROOT
ATOM      1  C3  UNL d   1      -2.947   0.064   3.477  0.00  0.00    -0.075 A 
ATOM      2  C4  UNL d   1      -2.495  -0.385   2.228  0.00  0.00     0.002 A 
ATOM      3  C5  UNL d   1      -1.623   0.394   1.467  0.00  0.00     0.002 A 
ATOM      4  C6  UNL d   1      -1.201   1.635   1.939  0.00  0.00    -0.004 A 
ATOM      5  C7  UNL d   1      -1.656   2.099   3.172  0.00  0.00     0.002 A 
ATOM      6  C8  UNL d   1      -2.525   1.319   3.937  0.00  0.00     0.002 A 
ENDROOT
BRANCH   1   7
ATOM      7  C2  UNL d   1      -3.867  -0.788   4.318  0.00  0.00     0.056 C 
BRANCH   7   8
ATOM      8  C1  UNL d   1      -4.366  -2.052   3.611  0.00  0.00     0.007 C 
ATOM      9  C   UNL d   1      -5.851  -2.312   3.825  0.00  0.00     0.009 C 
ENDBRANCH   7   8
ENDBRANCH   1   7
TORSDOF 2
ENDMDL
