MODEL 1
REMARK minimizedAffinity -4.26684618
REMARK minimizedRMSD -1
REMARK  2 active torsions:
REMARK  status: ('A' for Active; 'I' for Inactive)
REMARK    1  A    between atoms: C1_2  and  C2_3 
REMARK    2  A    between atoms: C2_3  and  C3_4 
ROOT
ATOM      1  C3  UNL d   1      -0.326  -0.313   0.411  0.00  0.00    -0.075 A 
ATOM      2  C4  UNL d   1       0.099   0.602  -0.563  0.00  0.00     0.002 A 
ATOM      3  C5  UNL d   1       1.173   0.298  -1.400  0.00  0.00     0.002 A 
ATOM      4  C6  UNL d   1       1.839  -0.919  -1.269  0.00  0.00    -0.004 A 
ATOM      5  C7  UNL d   1       1.435  -1.829  -0.295  0.00  0.00     0.002 A 
ATOM      6  C8  UNL d   1       0.359  -1.529   0.542  0.00  0.00     0.002 A 
ENDROOT
BRANCH   1   7
ATOM      7  C2  UNL d   1      -1.506  -0.002   1.301  0.00  0.00     0.056 C 
BRANCH   7   8
ATOM      8  C1  UNL d   1      -1.196   0.996   2.421  0.00  0.00     0.007 C 
ATOM      9  C   UNL d   1      -1.782   0.589   3.767  0.00  0.00     0.009 C 
ENDBRANCH   7   8
ENDBRANCH   1   7
TORSDOF 2
ENDMDL
