MODEL 1
REMARK minimizedAffinity -4.25334787
REMARK minimizedRMSD -1
REMARK  2 active torsions:
REMARK  status: ('A' for Active; 'I' for Inactive)
REMARK    1  A    between atoms: C1_2  and  C2_3 
REMARK    2  A    between atoms: C2_3  and  C3_4 
ROOT
ATOM      1  C3  UNL d   1      -0.987   0.168   0.749  0.00  0.00    -0.075 A 
ATOM      2  C4  UNL d   1      -1.039   0.639  -0.571  0.00  0.00     0.002 A 
ATOM      3  C5  UNL d   1       0.013   0.391  -1.454  0.00  0.00     0.002 A 
ATOM      4  C6  UNL d   1       1.132  -0.320  -1.027  0.00  0.00    -0.004 A 
ATOM      5  C7  UNL d   1       1.202  -0.778   0.287  0.00  0.00     0.002 A 
ATOM      6  C8  UNL d   1       0.149  -0.535   1.171  0.00  0.00     0.002 A 
ENDROOT
BRANCH   1   7
ATOM      7  C2  UNL d   1      -2.134   0.407   1.700  0.00  0.00     0.056 C 
BRANCH   7   8
ATOM      8  C1  UNL d   1      -1.838   1.447   2.786  0.00  0.00     0.007 C 
ATOM      9  C   UNL d   1      -1.434   0.827   4.117  0.00  0.00     0.009 C 
ENDBRANCH   7   8
ENDBRANCH   1   7
TORSDOF 2
ENDMDL
