MODEL 1
REMARK minimizedAffinity -5.77825975
REMARK minimizedRMSD -1
REMARK  2 active torsions:
REMARK  status: ('A' for Active; 'I' for Inactive)
REMARK    1  A    between atoms: C1_2  and  C2_3 
REMARK    2  A    between atoms: C2_3  and  C3_4 
ROOT
ATOM      1  C3  UNL d   1      -0.277  -0.206   0.087  0.00  0.00    -0.075 A 
ATOM      2  C4  UNL d   1      -0.337  -1.591   0.301  0.00  0.00     0.002 A 
ATOM      3  C5  UNL d   1       0.750  -2.405  -0.020  0.00  0.00     0.002 A 
ATOM      4  C6  UNL d   1       1.903  -1.849  -0.567  0.00  0.00    -0.004 A 
ATOM      5  C7  UNL d   1       1.968  -0.477  -0.800  0.00  0.00     0.002 A 
ATOM      6  C8  UNL d   1       0.884   0.341  -0.476  0.00  0.00     0.002 A 
ENDROOT
BRANCH   1   7
ATOM      7  C2  UNL d   1      -1.438   0.684   0.459  0.00  0.00     0.056 C 
BRANCH   7   8
ATOM      8  C1  UNL d   1      -2.013   0.409   1.852  0.00  0.00     0.007 C 
ATOM      9  C   UNL d   1      -1.649   1.477   2.875  0.00  0.00     0.009 C 
ENDBRANCH   7   8
ENDBRANCH   1   7
TORSDOF 2
ENDMDL
