MODEL 1
REMARK minimizedAffinity -4.26943254
REMARK minimizedRMSD -1
REMARK  2 active torsions:
REMARK  status: ('A' for Active; 'I' for Inactive)
REMARK    1  A    between atoms: C1_2  and  C2_3 
REMARK    2  A    between atoms: C2_3  and  C3_4 
ROOT
ATOM      1  C3  UNL d   1      -0.692   0.292  -0.041  0.00  0.00    -0.075 A 
ATOM      2  C4  UNL d   1      -0.540  -1.102  -0.028  0.00  0.00     0.002 A 
ATOM      3  C5  UNL d   1       0.621  -1.693  -0.527  0.00  0.00     0.002 A 
ATOM      4  C6  UNL d   1       1.639  -0.900  -1.052  0.00  0.00    -0.004 A 
ATOM      5  C7  UNL d   1       1.492   0.485  -1.084  0.00  0.00     0.002 A 
ATOM      6  C8  UNL d   1       0.333   1.079  -0.582  0.00  0.00     0.002 A 
ENDROOT
BRANCH   1   7
ATOM      7  C2  UNL d   1      -1.934   0.939   0.524  0.00  0.00     0.056 C 
BRANCH   7   8
ATOM      8  C1  UNL d   1      -2.437   0.297   1.822  0.00  0.00     0.007 C 
ATOM      9  C   UNL d   1      -2.381   1.238   3.018  0.00  0.00     0.009 C 
ENDBRANCH   7   8
ENDBRANCH   1   7
TORSDOF 2
ENDMDL
