MODEL 1
REMARK minimizedAffinity -6.0309639
REMARK minimizedRMSD -1
REMARK  2 active torsions:
REMARK  status: ('A' for Active; 'I' for Inactive)
REMARK    1  A    between atoms: C1_2  and  C2_3 
REMARK    2  A    between atoms: C2_3  and  C3_4 
ROOT
ATOM      1  C3  UNL d   1      -0.161   0.317   0.201  0.00  0.00    -0.075 A 
ATOM      2  C4  UNL d   1       0.914   0.988  -0.400  0.00  0.00     0.002 A 
ATOM      3  C5  UNL d   1       1.822   0.295  -1.202  0.00  0.00     0.002 A 
ATOM      4  C6  UNL d   1       1.673  -1.075  -1.405  0.00  0.00    -0.004 A 
ATOM      5  C7  UNL d   1       0.618  -1.754  -0.800  0.00  0.00     0.002 A 
ATOM      6  C8  UNL d   1      -0.294  -1.063  -0.000  0.00  0.00     0.002 A 
ENDROOT
BRANCH   1   7
ATOM      7  C2  UNL d   1      -1.163   1.066   1.046  0.00  0.00     0.056 C 
BRANCH   7   8
ATOM      8  C1  UNL d   1      -2.140   0.161   1.804  0.00  0.00     0.007 C 
ATOM      9  C   UNL d   1      -2.358   0.590   3.249  0.00  0.00     0.009 C 
ENDBRANCH   7   8
ENDBRANCH   1   7
TORSDOF 2
ENDMDL
