MODEL 1
REMARK minimizedAffinity -5.16840792
REMARK minimizedRMSD -1
REMARK  2 active torsions:
REMARK  status: ('A' for Active; 'I' for Inactive)
REMARK    1  A    between atoms: C1_2  and  C2_3 
REMARK    2  A    between atoms: C2_3  and  C3_4 
ROOT
ATOM      1  C3  UNL d   1      -0.712   0.589   1.104  0.00  0.00    -0.075 A 
ATOM      2  C4  UNL d   1      -1.824  -0.260   1.199  0.00  0.00     0.002 A 
ATOM      3  C5  UNL d   1      -2.781  -0.066   2.195  0.00  0.00     0.002 A 
ATOM      4  C6  UNL d   1      -2.633   0.970   3.115  0.00  0.00    -0.004 A 
ATOM      5  C7  UNL d   1      -1.524   1.809   3.041  0.00  0.00     0.002 A 
ATOM      6  C8  UNL d   1      -0.567   1.620   2.042  0.00  0.00     0.002 A 
ENDROOT
BRANCH   1   7
ATOM      7  C2  UNL d   1       0.311   0.403   0.010  0.00  0.00     0.056 C 
BRANCH   7   8
ATOM      8  C1  UNL d   1       0.912  -1.005  -0.050  0.00  0.00     0.007 C 
ATOM      9  C   UNL d   1       2.266  -1.052  -0.746  0.00  0.00     0.009 C 
ENDBRANCH   7   8
ENDBRANCH   1   7
TORSDOF 2
ENDMDL
