MODEL 1
REMARK minimizedAffinity -5.47774887
REMARK minimizedRMSD -1
REMARK  2 active torsions:
REMARK  status: ('A' for Active; 'I' for Inactive)
REMARK    1  A    between atoms: C1_2  and  C2_3 
REMARK    2  A    between atoms: C2_3  and  C3_4 
ROOT
ATOM      1  C3  UNL d   1      -0.267   0.076   0.193  0.00  0.00    -0.075 A 
ATOM      2  C4  UNL d   1       0.427   1.056  -0.531  0.00  0.00     0.002 A 
ATOM      3  C5  UNL d   1       1.589   0.730  -1.230  0.00  0.00     0.002 A 
ATOM      4  C6  UNL d   1       2.077  -0.575  -1.206  0.00  0.00    -0.004 A 
ATOM      5  C7  UNL d   1       1.405  -1.553  -0.477  0.00  0.00     0.002 A 
ATOM      6  C8  UNL d   1       0.239  -1.230   0.220  0.00  0.00     0.002 A 
ENDROOT
BRANCH   1   7
ATOM      7  C2  UNL d   1      -1.542   0.417   0.928  0.00  0.00     0.056 C 
BRANCH   7   8
ATOM      8  C1  UNL d   1      -1.352   0.650   2.431  0.00  0.00     0.007 C 
ATOM      9  C   UNL d   1      -2.285   1.712   2.996  0.00  0.00     0.009 C 
ENDBRANCH   7   8
ENDBRANCH   1   7
TORSDOF 2
ENDMDL
