MODEL 1
REMARK minimizedAffinity 8.9219656
REMARK minimizedRMSD -1
REMARK  2 active torsions:
REMARK  status: ('A' for Active; 'I' for Inactive)
REMARK    1  A    between atoms: C1_2  and  C2_3 
REMARK    2  A    between atoms: C2_3  and  C3_4 
ROOT
ATOM      1  C3  UNL d   1      -1.642  -0.356  -0.187  0.00  0.00    -0.075 A 
ATOM      2  C4  UNL d   1      -0.435   0.014  -0.797  0.00  0.00     0.002 A 
ATOM      3  C5  UNL d   1       0.304   1.092  -0.310  0.00  0.00     0.002 A 
ATOM      4  C6  UNL d   1      -0.159   1.819   0.785  0.00  0.00    -0.004 A 
ATOM      5  C7  UNL d   1      -1.365   1.471   1.388  0.00  0.00     0.002 A 
ATOM      6  C8  UNL d   1      -2.104   0.389   0.906  0.00  0.00     0.002 A 
ENDROOT
BRANCH   1   7
ATOM      7  C2  UNL d   1      -2.432  -1.541  -0.691  0.00  0.00     0.056 C 
BRANCH   7   8
ATOM      8  C1  UNL d   1      -1.898  -2.895  -0.214  0.00  0.00     0.007 C 
ATOM      9  C   UNL d   1      -2.898  -4.030  -0.387  0.00  0.00     0.009 C 
ENDBRANCH   7   8
ENDBRANCH   1   7
TORSDOF 2
ENDMDL
