MODEL 1
REMARK minimizedAffinity -4.83093214
REMARK minimizedRMSD -1
REMARK  2 active torsions:
REMARK  status: ('A' for Active; 'I' for Inactive)
REMARK    1  A    between atoms: C1_2  and  C2_3 
REMARK    2  A    between atoms: C2_3  and  C3_4 
ROOT
ATOM      1  C3  UNL d   1       0.140   0.200  -0.448  0.00  0.00    -0.075 A 
ATOM      2  C4  UNL d   1      -1.164   0.130   0.063  0.00  0.00     0.002 A 
ATOM      3  C5  UNL d   1      -2.081   1.149  -0.194  0.00  0.00     0.002 A 
ATOM      4  C6  UNL d   1      -1.704   2.254  -0.955  0.00  0.00    -0.004 A 
ATOM      5  C7  UNL d   1      -0.406   2.342  -1.453  0.00  0.00     0.002 A 
ATOM      6  C8  UNL d   1       0.512   1.321  -1.202  0.00  0.00     0.002 A 
ENDROOT
BRANCH   1   7
ATOM      7  C2  UNL d   1       1.129  -0.915  -0.199  0.00  0.00     0.056 C 
BRANCH   7   8
ATOM      8  C1  UNL d   1       1.941  -1.316  -1.434  0.00  0.00     0.007 C 
ATOM      9  C   UNL d   1       3.389  -0.849  -1.378  0.00  0.00     0.009 C 
ENDBRANCH   7   8
ENDBRANCH   1   7
TORSDOF 2
ENDMDL
