MODEL 1
REMARK minimizedAffinity -3.12570333
REMARK minimizedRMSD -1
REMARK  2 active torsions:
REMARK  status: ('A' for Active; 'I' for Inactive)
REMARK    1  A    between atoms: C1_2  and  C2_3 
REMARK    2  A    between atoms: C2_3  and  C3_4 
ROOT
ATOM      1  C3  UNL d   1       1.119   0.261  -0.595  0.00  0.00    -0.075 A 
ATOM      2  C4  UNL d   1       0.917   1.434  -1.337  0.00  0.00     0.002 A 
ATOM      3  C5  UNL d   1       1.727   1.726  -2.435  0.00  0.00     0.002 A 
ATOM      4  C6  UNL d   1       2.754   0.857  -2.798  0.00  0.00    -0.004 A 
ATOM      5  C7  UNL d   1       2.974  -0.303  -2.058  0.00  0.00     0.002 A 
ATOM      6  C8  UNL d   1       2.162  -0.600  -0.962  0.00  0.00     0.002 A 
ENDROOT
BRANCH   1   7
ATOM      7  C2  UNL d   1       0.227  -0.076   0.576  0.00  0.00     0.056 C 
BRANCH   7   8
ATOM      8  C1  UNL d   1      -1.244   0.300   0.368  0.00  0.00     0.007 C 
ATOM      9  C   UNL d   1      -2.019   0.435   1.671  0.00  0.00     0.009 C 
ENDBRANCH   7   8
ENDBRANCH   1   7
TORSDOF 2
ENDMDL
