MODEL 1
REMARK minimizedAffinity -4.00300503
REMARK minimizedRMSD -1
REMARK  2 active torsions:
REMARK  status: ('A' for Active; 'I' for Inactive)
REMARK    1  A    between atoms: C1_2  and  C2_3 
REMARK    2  A    between atoms: C2_3  and  C3_4 
ROOT
ATOM      1  C3  UNL d   1      -0.869  -0.131   0.416  0.00  0.00    -0.075 A 
ATOM      2  C4  UNL d   1      -0.642  -1.471   0.071  0.00  0.00     0.002 A 
ATOM      3  C5  UNL d   1       0.496  -1.835  -0.649  0.00  0.00     0.002 A 
ATOM      4  C6  UNL d   1       1.415  -0.864  -1.041  0.00  0.00    -0.004 A 
ATOM      5  C7  UNL d   1       1.191   0.473  -0.719  0.00  0.00     0.002 A 
ATOM      6  C8  UNL d   1       0.055   0.838   0.005  0.00  0.00     0.002 A 
ENDROOT
BRANCH   1   7
ATOM      7  C2  UNL d   1      -2.084   0.265   1.220  0.00  0.00     0.056 C 
BRANCH   7   8
ATOM      8  C1  UNL d   1      -1.849   1.449   2.163  0.00  0.00     0.007 C 
ATOM      9  C   UNL d   1      -2.317   1.184   3.588  0.00  0.00     0.009 C 
ENDBRANCH   7   8
ENDBRANCH   1   7
TORSDOF 2
ENDMDL
