MODEL 1
REMARK minimizedAffinity -5.27608156
REMARK minimizedRMSD -1
REMARK  2 active torsions:
REMARK  status: ('A' for Active; 'I' for Inactive)
REMARK    1  A    between atoms: C1_2  and  C2_3 
REMARK    2  A    between atoms: C2_3  and  C3_4 
ROOT
ATOM      1  C3  UNL d   1       0.317   0.285  -0.580  0.00  0.00    -0.075 A 
ATOM      2  C4  UNL d   1       0.286   1.506  -1.269  0.00  0.00     0.002 A 
ATOM      3  C5  UNL d   1       1.230   1.786  -2.258  0.00  0.00     0.002 A 
ATOM      4  C6  UNL d   1       2.221   0.855  -2.562  0.00  0.00    -0.004 A 
ATOM      5  C7  UNL d   1       2.272  -0.354  -1.872  0.00  0.00     0.002 A 
ATOM      6  C8  UNL d   1       1.326  -0.639  -0.886  0.00  0.00     0.002 A 
ENDROOT
BRANCH   1   7
ATOM      7  C2  UNL d   1      -0.719  -0.037   0.471  0.00  0.00     0.056 C 
BRANCH   7   8
ATOM      8  C1  UNL d   1      -1.826   1.015   0.597  0.00  0.00     0.007 C 
ATOM      9  C   UNL d   1      -2.241   1.279   2.038  0.00  0.00     0.009 C 
ENDBRANCH   7   8
ENDBRANCH   1   7
TORSDOF 2
ENDMDL
