MODEL 1
REMARK minimizedAffinity -6.03823042
REMARK minimizedRMSD -1
REMARK  1 active torsions:
REMARK  status: ('A' for Active; 'I' for Inactive)
REMARK    1  A    between atoms: C1_2  and  C2_3 
ROOT
ATOM      1  C2  UNL d   1       0.157   0.088   1.028  0.00  0.00    -0.076 A 
ATOM      2  C3  UNL d   1       1.063   0.184   2.099  0.00  0.00     0.004 A 
ATOM      3  C4  UNL d   1       0.625   0.502   3.383  0.00  0.00    -0.003 A 
ATOM      4  C5  UNL d   1      -0.727   0.729   3.618  0.00  0.00     0.000 A 
ATOM      5  C6  UNL d   1      -1.642   0.621   2.571  0.00  0.00     0.000 A 
ATOM      6  C7  UNL d   1      -1.219   0.285   1.274  0.00  0.00    -0.073 A 
ATOM      7  C8  UNL d   1      -2.248   0.188   0.181  0.00  0.00     0.078 C 
ENDROOT
BRANCH   1   8
ATOM      8  C1  UNL d   1       0.693  -0.233  -0.348  0.00  0.00     0.053 C 
ATOM      9  C   UNL d   1       1.149  -1.679  -0.473  0.00  0.00     0.018 C 
ENDBRANCH   1   8
TORSDOF 1
ENDMDL
