MODEL 1
REMARK minimizedAffinity -4.22417879
REMARK minimizedRMSD -1
REMARK  1 active torsions:
REMARK  status: ('A' for Active; 'I' for Inactive)
REMARK    1  A    between atoms: C1_2  and  C2_3 
ROOT
ATOM      1  C2  UNL d   1      -0.003  -0.112  -0.157  0.00  0.00    -0.076 A 
ATOM      2  C3  UNL d   1      -1.280   0.457  -0.299  0.00  0.00     0.004 A 
ATOM      3  C4  UNL d   1      -2.045   0.790   0.818  0.00  0.00    -0.003 A 
ATOM      4  C5  UNL d   1      -1.545   0.559   2.094  0.00  0.00     0.000 A 
ATOM      5  C6  UNL d   1      -0.273   0.011   2.254  0.00  0.00     0.000 A 
ATOM      6  C7  UNL d   1       0.518  -0.315   1.138  0.00  0.00    -0.073 A 
ATOM      7  C8  UNL d   1       1.881  -0.909   1.368  0.00  0.00     0.078 C 
ENDROOT
BRANCH   1   8
ATOM      8  C1  UNL d   1       0.770  -0.477  -1.405  0.00  0.00     0.053 C 
ATOM      9  C   UNL d   1       1.202   0.744  -2.201  0.00  0.00     0.018 C 
ENDBRANCH   1   8
TORSDOF 1
ENDMDL
