MODEL 1
REMARK minimizedAffinity -4.67757559
REMARK minimizedRMSD -1
REMARK  1 active torsions:
REMARK  status: ('A' for Active; 'I' for Inactive)
REMARK    1  A    between atoms: C1_2  and  C2_3 
ROOT
ATOM      1  C2  UNL d   1      -0.039   0.412  -1.076  0.00  0.00    -0.076 A 
ATOM      2  C3  UNL d   1      -0.641   1.440  -1.821  0.00  0.00     0.004 A 
ATOM      3  C4  UNL d   1      -0.436   1.545  -3.196  0.00  0.00    -0.003 A 
ATOM      4  C5  UNL d   1       0.373   0.621  -3.848  0.00  0.00     0.000 A 
ATOM      5  C6  UNL d   1       0.964  -0.417  -3.127  0.00  0.00     0.000 A 
ATOM      6  C7  UNL d   1       0.754  -0.545  -1.743  0.00  0.00    -0.073 A 
ATOM      7  C8  UNL d   1       1.421  -1.680  -1.015  0.00  0.00     0.078 C 
ENDROOT
BRANCH   1   8
ATOM      8  C1  UNL d   1      -0.276   0.365   0.417  0.00  0.00     0.053 C 
ATOM      9  C   UNL d   1      -1.752   0.439   0.776  0.00  0.00     0.018 C 
ENDBRANCH   1   8
TORSDOF 1
ENDMDL
