MODEL 1
REMARK minimizedAffinity -1.14964187
REMARK minimizedRMSD -1
REMARK  1 active torsions:
REMARK  status: ('A' for Active; 'I' for Inactive)
REMARK    1  A    between atoms: C1_2  and  C2_3 
ROOT
ATOM      1  C2  UNL d   1       0.366   0.112   1.929  0.00  0.00    -0.076 A 
ATOM      2  C3  UNL d   1       1.047  -0.310   0.774  0.00  0.00     0.004 A 
ATOM      3  C4  UNL d   1       0.458  -0.204  -0.485  0.00  0.00    -0.003 A 
ATOM      4  C5  UNL d   1      -0.822   0.326  -0.609  0.00  0.00     0.000 A 
ATOM      5  C6  UNL d   1      -1.505   0.765   0.524  0.00  0.00     0.000 A 
ATOM      6  C7  UNL d   1      -0.919   0.681   1.799  0.00  0.00    -0.073 A 
ATOM      7  C8  UNL d   1      -1.704   1.164   2.988  0.00  0.00     0.078 C 
ENDROOT
BRANCH   1   8
ATOM      8  C1  UNL d   1       1.045  -0.052   3.270  0.00  0.00     0.053 C 
ATOM      9  C   UNL d   1       2.512  -0.431   3.138  0.00  0.00     0.018 C 
ENDBRANCH   1   8
TORSDOF 1
ENDMDL
