MODEL 1
REMARK minimizedAffinity -3.30044818
REMARK minimizedRMSD -1
REMARK  1 active torsions:
REMARK  status: ('A' for Active; 'I' for Inactive)
REMARK    1  A    between atoms: C1_2  and  C2_3 
ROOT
ATOM      1  C2  UNL d   1       0.247  -0.248   1.480  0.00  0.00    -0.076 A 
ATOM      2  C3  UNL d   1      -0.473   0.222   2.593  0.00  0.00     0.004 A 
ATOM      3  C4  UNL d   1      -1.689   0.884   2.432  0.00  0.00    -0.003 A 
ATOM      4  C5  UNL d   1      -2.205   1.087   1.157  0.00  0.00     0.000 A 
ATOM      5  C6  UNL d   1      -1.513   0.612   0.044  0.00  0.00     0.000 A 
ATOM      6  C7  UNL d   1      -0.293  -0.072   0.189  0.00  0.00    -0.073 A 
ATOM      7  C8  UNL d   1       0.414  -0.557  -1.047  0.00  0.00     0.078 C 
ENDROOT
BRANCH   1   8
ATOM      8  C1  UNL d   1       1.574  -0.935   1.714  0.00  0.00     0.053 C 
ATOM      9  C   UNL d   1       2.159  -0.621   3.083  0.00  0.00     0.018 C 
ENDBRANCH   1   8
TORSDOF 1
ENDMDL
