MODEL 1
REMARK minimizedAffinity -4.70357132
REMARK minimizedRMSD -1
REMARK  1 active torsions:
REMARK  status: ('A' for Active; 'I' for Inactive)
REMARK    1  A    between atoms: C1_2  and  C2_3 
ROOT
ATOM      1  C2  UNL d   1      -0.168   0.256   1.284  0.00  0.00    -0.076 A 
ATOM      2  C3  UNL d   1      -0.985   0.925   2.213  0.00  0.00     0.004 A 
ATOM      3  C4  UNL d   1      -0.586   1.078   3.539  0.00  0.00    -0.003 A 
ATOM      4  C5  UNL d   1       0.637   0.565   3.959  0.00  0.00     0.000 A 
ATOM      5  C6  UNL d   1       1.467  -0.086   3.047  0.00  0.00     0.000 A 
ATOM      6  C7  UNL d   1       1.087  -0.234   1.702  0.00  0.00    -0.073 A 
ATOM      7  C8  UNL d   1       2.020  -0.950   0.763  0.00  0.00     0.078 C 
ENDROOT
BRANCH   1   8
ATOM      8  C1  UNL d   1      -0.666   0.097  -0.135  0.00  0.00     0.053 C 
ATOM      9  C   UNL d   1      -2.150  -0.229  -0.199  0.00  0.00     0.018 C 
ENDBRANCH   1   8
TORSDOF 1
ENDMDL
