MODEL 1
REMARK minimizedAffinity 1.93557358
REMARK minimizedRMSD -1
REMARK  0 active torsions:
REMARK  status: ('A' for Active; 'I' for Inactive)
ROOT
ATOM      1  N1  IND d   1      -2.411   5.940   0.621  0.00  0.00    -0.196 N 
ATOM      2  C2  IND d   1      -2.727   5.599   1.907  0.00  0.00     0.054 A 
ATOM      3  C3  IND d   1      -2.242   4.373   2.202  0.00  0.00    -0.031 A 
ATOM      4  C4  IND d   1      -0.812   2.790   0.760  0.00  0.00     0.051 A 
ATOM      5  C5  IND d   1      -0.297   2.649  -0.498  0.00  0.00    -0.031 A 
ATOM      6  C6  IND d   1      -0.462   3.618  -1.467  0.00  0.00     0.015 A 
ATOM      7  C7  IND d   1      -1.141   4.775  -1.208  0.00  0.00    -0.016 A 
ATOM      8  C8  IND d   1      -1.671   4.919   0.067  0.00  0.00    -0.047 A 
ATOM      9  C9  IND d   1      -1.543   3.920   1.041  0.00  0.00    -0.096 A 
ATOM     10  HN1 IND d   1      -2.637   6.669   0.225  0.00  0.00     0.298 HD
ENDROOT
TORSDOF 0
ENDMDL
