MODEL 1
REMARK minimizedAffinity 7.86048841
REMARK minimizedRMSD -1
REMARK  0 active torsions:
REMARK  status: ('A' for Active; 'I' for Inactive)
ROOT
ATOM      1  N1  IND d   1      -0.375   2.369  -0.634  0.00  0.00    -0.196 N 
ATOM      2  C2  IND d   1       0.469   2.431   0.439  0.00  0.00     0.054 A 
ATOM      3  C3  IND d   1       1.147   3.601   0.438  0.00  0.00    -0.031 A 
ATOM      4  C4  IND d   1       0.953   5.601  -1.170  0.00  0.00     0.051 A 
ATOM      5  C5  IND d   1       0.342   5.998  -2.327  0.00  0.00    -0.031 A 
ATOM      6  C6  IND d   1      -0.559   5.191  -2.990  0.00  0.00     0.015 A 
ATOM      7  C7  IND d   1      -0.893   3.955  -2.513  0.00  0.00    -0.016 A 
ATOM      8  C8  IND d   1      -0.270   3.545  -1.343  0.00  0.00    -0.047 A 
ATOM      9  C9  IND d   1       0.678   4.343  -0.688  0.00  0.00    -0.096 A 
ATOM     10  HN1 IND d   1      -0.886   1.706  -0.833  0.00  0.00     0.298 HD
ENDROOT
TORSDOF 0
ENDMDL
