MODEL 1
REMARK minimizedAffinity 10.3850737
REMARK minimizedRMSD -1
REMARK  0 active torsions:
REMARK  status: ('A' for Active; 'I' for Inactive)
ROOT
ATOM      1  N1  IND d   1       4.889  -3.948  -4.460  0.00  0.00    -0.196 N 
ATOM      2  C2  IND d   1       4.271  -5.024  -5.033  0.00  0.00     0.054 A 
ATOM      3  C3  IND d   1       4.076  -5.998  -4.116  0.00  0.00    -0.031 A 
ATOM      4  C4  IND d   1       4.601  -6.000  -1.596  0.00  0.00     0.051 A 
ATOM      5  C5  IND d   1       5.201  -5.255  -0.620  0.00  0.00    -0.031 A 
ATOM      6  C6  IND d   1       5.737  -4.010  -0.879  0.00  0.00     0.015 A 
ATOM      7  C7  IND d   1       5.681  -3.456  -2.127  0.00  0.00    -0.016 A 
ATOM      8  C8  IND d   1       5.079  -4.213  -3.122  0.00  0.00    -0.047 A 
ATOM      9  C9  IND d   1       4.571  -5.495  -2.874  0.00  0.00    -0.096 A 
ATOM     10  HN1 IND d   1       5.121  -3.227  -4.868  0.00  0.00     0.298 HD
ENDROOT
TORSDOF 0
ENDMDL
