MODEL 1
REMARK minimizedAffinity 12.6800785
REMARK minimizedRMSD -1
REMARK  0 active torsions:
REMARK  status: ('A' for Active; 'I' for Inactive)
ROOT
ATOM      1  N1  IND d   1       1.432  -3.785  -0.760  0.00  0.00    -0.196 N 
ATOM      2  C2  IND d   1       0.752  -4.964  -0.887  0.00  0.00     0.054 A 
ATOM      3  C3  IND d   1       1.617  -5.999  -0.976  0.00  0.00    -0.031 A 
ATOM      4  C4  IND d   1       4.187  -5.999  -0.833  0.00  0.00     0.051 A 
ATOM      5  C5  IND d   1       5.262  -5.158  -0.756  0.00  0.00    -0.031 A 
ATOM      6  C6  IND d   1       5.112  -3.789  -0.672  0.00  0.00     0.015 A 
ATOM      7  C7  IND d   1       3.875  -3.208  -0.650  0.00  0.00    -0.016 A 
ATOM      8  C8  IND d   1       2.782  -4.058  -0.735  0.00  0.00    -0.047 A 
ATOM      9  C9  IND d   1       2.929  -5.445  -0.864  0.00  0.00    -0.096 A 
ATOM     10  HN1 IND d   1       1.076  -3.004  -0.705  0.00  0.00     0.298 HD
ENDROOT
TORSDOF 0
ENDMDL
