MODEL 1
REMARK minimizedAffinity 5.46017885
REMARK minimizedRMSD -1
REMARK  0 active torsions:
REMARK  status: ('A' for Active; 'I' for Inactive)
ROOT
ATOM      1  N1  IND d   1       1.205   4.102  -0.310  0.00  0.00    -0.196 N 
ATOM      2  C2  IND d   1       0.340   3.466   0.537  0.00  0.00     0.054 A 
ATOM      3  C3  IND d   1      -0.937   3.671   0.145  0.00  0.00    -0.031 A 
ATOM      4  C4  IND d   1      -1.835   4.930  -1.912  0.00  0.00     0.051 A 
ATOM      5  C5  IND d   1      -1.431   5.708  -2.960  0.00  0.00    -0.031 A 
ATOM      6  C6  IND d   1      -0.099   5.994  -3.185  0.00  0.00     0.015 A 
ATOM      7  C7  IND d   1       0.882   5.501  -2.372  0.00  0.00    -0.016 A 
ATOM      8  C8  IND d   1       0.474   4.716  -1.302  0.00  0.00    -0.047 A 
ATOM      9  C9  IND d   1      -0.879   4.458  -1.045  0.00  0.00    -0.096 A 
ATOM     10  HN1 IND d   1       2.061   4.116  -0.235  0.00  0.00     0.298 HD
ENDROOT
TORSDOF 0
ENDMDL
