MODEL 1
REMARK minimizedAffinity 8.88359642
REMARK minimizedRMSD -1
REMARK  0 active torsions:
REMARK  status: ('A' for Active; 'I' for Inactive)
ROOT
ATOM      1  N1  IND d   1       4.014  -5.279  -1.128  0.00  0.00    -0.196 N 
ATOM      2  C2  IND d   1       5.141  -4.662  -0.660  0.00  0.00     0.054 A 
ATOM      3  C3  IND d   1       5.999  -4.417  -1.676  0.00  0.00    -0.031 A 
ATOM      4  C4  IND d   1       5.715  -4.853  -4.197  0.00  0.00     0.051 A 
ATOM      5  C5  IND d   1       4.870  -5.431  -5.102  0.00  0.00    -0.031 A 
ATOM      6  C6  IND d   1       3.671  -5.997  -4.721  0.00  0.00     0.015 A 
ATOM      7  C7  IND d   1       3.265  -5.996  -3.416  0.00  0.00    -0.016 A 
ATOM      8  C8  IND d   1       4.124  -5.416  -2.494  0.00  0.00    -0.047 A 
ATOM      9  C9  IND d   1       5.362  -4.877  -2.869  0.00  0.00    -0.096 A 
ATOM     10  HN1 IND d   1       3.348  -5.537  -0.649  0.00  0.00     0.298 HD
ENDROOT
TORSDOF 0
ENDMDL
