MODEL 1
REMARK minimizedAffinity 5.4373517
REMARK minimizedRMSD -1
REMARK  0 active torsions:
REMARK  status: ('A' for Active; 'I' for Inactive)
ROOT
ATOM      1  N1  IND d   1      -0.741   0.452   3.598  0.00  0.00    -0.196 N 
ATOM      2  C2  IND d   1       0.294   1.045   2.931  0.00  0.00     0.054 A 
ATOM      3  C3  IND d   1       1.472   0.496   3.306  0.00  0.00    -0.031 A 
ATOM      4  C4  IND d   1       1.925  -1.455   4.923  0.00  0.00     0.051 A 
ATOM      5  C5  IND d   1       1.298  -2.294   5.802  0.00  0.00    -0.031 A 
ATOM      6  C6  IND d   1      -0.068  -2.261   5.992  0.00  0.00     0.015 A 
ATOM      7  C7  IND d   1      -0.864  -1.392   5.300  0.00  0.00    -0.016 A 
ATOM      8  C8  IND d   1      -0.230  -0.535   4.412  0.00  0.00    -0.047 A 
ATOM      9  C9  IND d   1       1.161  -0.534   4.246  0.00  0.00    -0.096 A 
ATOM     10  HN1 IND d   1      -1.572   0.660   3.521  0.00  0.00     0.298 HD
ENDROOT
TORSDOF 0
ENDMDL
