MODEL 1
REMARK minimizedAffinity 4.31210232
REMARK minimizedRMSD -1
REMARK  0 active torsions:
REMARK  status: ('A' for Active; 'I' for Inactive)
ROOT
ATOM      1  N1  IND d   1      -0.130  -0.835   4.754  0.00  0.00    -0.196 N 
ATOM      2  C2  IND d   1       0.890  -1.729   4.930  0.00  0.00     0.054 A 
ATOM      3  C3  IND d   1       1.940  -1.404   4.143  0.00  0.00    -0.031 A 
ATOM      4  C4  IND d   1       2.242   0.609   2.567  0.00  0.00     0.051 A 
ATOM      5  C5  IND d   1       1.571   1.679   2.046  0.00  0.00    -0.031 A 
ATOM      6  C6  IND d   1       0.274   1.974   2.411  0.00  0.00     0.015 A 
ATOM      7  C7  IND d   1      -0.400   1.212   3.323  0.00  0.00    -0.016 A 
ATOM      8  C8  IND d   1       0.275   0.120   3.848  0.00  0.00    -0.047 A 
ATOM      9  C9  IND d   1       1.577  -0.209   3.450  0.00  0.00    -0.096 A 
ATOM     10  HN1 IND d   1      -0.896  -0.865   5.144  0.00  0.00     0.298 HD
ENDROOT
TORSDOF 0
ENDMDL
