MODEL 1
REMARK minimizedAffinity 17.0858212
REMARK minimizedRMSD -1
REMARK  0 active torsions:
REMARK  status: ('A' for Active; 'I' for Inactive)
ROOT
ATOM      1  N1  IND d   1      -5.944   3.143  -4.780  0.00  0.00    -0.196 N 
ATOM      2  C2  IND d   1      -5.975   1.861  -5.253  0.00  0.00     0.054 A 
ATOM      3  C3  IND d   1      -5.964   0.981  -4.227  0.00  0.00    -0.031 A 
ATOM      4  C4  IND d   1      -5.998   1.425  -1.691  0.00  0.00     0.051 A 
ATOM      5  C5  IND d   1      -5.938   2.436  -0.774  0.00  0.00    -0.031 A 
ATOM      6  C6  IND d   1      -5.878   3.762  -1.153  0.00  0.00     0.015 A 
ATOM      7  C7  IND d   1      -5.888   4.127  -2.469  0.00  0.00    -0.016 A 
ATOM      8  C8  IND d   1      -5.942   3.103  -3.403  0.00  0.00    -0.047 A 
ATOM      9  C9  IND d   1      -5.959   1.754  -3.025  0.00  0.00    -0.096 A 
ATOM     10  HN1 IND d   1      -5.928   3.855  -5.262  0.00  0.00     0.298 HD
ENDROOT
TORSDOF 0
ENDMDL
