MODEL 1
REMARK minimizedAffinity 13.8255415
REMARK minimizedRMSD -1
REMARK  0 active torsions:
REMARK  status: ('A' for Active; 'I' for Inactive)
ROOT
ATOM      1  N1  IND d   1       0.200   3.546  -2.108  0.00  0.00    -0.196 N 
ATOM      2  C2  IND d   1      -0.095   4.677  -1.398  0.00  0.00     0.054 A 
ATOM      3  C3  IND d   1      -0.568   4.353  -0.173  0.00  0.00    -0.031 A 
ATOM      4  C4  IND d   1      -0.847   2.036   0.913  0.00  0.00     0.051 A 
ATOM      5  C5  IND d   1      -0.745   0.700   0.642  0.00  0.00    -0.031 A 
ATOM      6  C6  IND d   1      -0.312   0.235  -0.583  0.00  0.00     0.015 A 
ATOM      7  C7  IND d   1       0.048   1.093  -1.583  0.00  0.00    -0.016 A 
ATOM      8  C8  IND d   1      -0.061   2.450  -1.315  0.00  0.00    -0.047 A 
ATOM      9  C9  IND d   1      -0.540   2.928  -0.088  0.00  0.00    -0.096 A 
ATOM     10  HN1 IND d   1       0.497   3.524  -2.914  0.00  0.00     0.298 HD
ENDROOT
TORSDOF 0
ENDMDL
