MODEL 1
REMARK minimizedAffinity 9.11402512
REMARK minimizedRMSD -1
REMARK  0 active torsions:
REMARK  status: ('A' for Active; 'I' for Inactive)
ROOT
ATOM      1  N1  IND d   1       0.663   1.873   2.582  0.00  0.00    -0.196 N 
ATOM      2  C2  IND d   1       1.786   2.374   3.178  0.00  0.00     0.054 A 
ATOM      3  C3  IND d   1       2.274   3.413   2.464  0.00  0.00    -0.031 A 
ATOM      4  C4  IND d   1       1.332   4.524   0.342  0.00  0.00     0.051 A 
ATOM      5  C5  IND d   1       0.344   4.395  -0.594  0.00  0.00    -0.031 A 
ATOM      6  C6  IND d   1      -0.609   3.401  -0.515  0.00  0.00     0.015 A 
ATOM      7  C7  IND d   1      -0.616   2.500   0.512  0.00  0.00    -0.016 A 
ATOM      8  C8  IND d   1       0.389   2.624   1.460  0.00  0.00    -0.047 A 
ATOM      9  C9  IND d   1       1.384   3.605   1.363  0.00  0.00    -0.096 A 
ATOM     10  HN1 IND d   1       0.204   1.201   2.861  0.00  0.00     0.298 HD
ENDROOT
TORSDOF 0
ENDMDL
