MODEL 1
REMARK minimizedAffinity 4.70314407
REMARK minimizedRMSD -1
REMARK  0 active torsions:
REMARK  status: ('A' for Active; 'I' for Inactive)
ROOT
ATOM      1  N1  IND d   1       1.934   3.504   0.164  0.00  0.00    -0.196 N 
ATOM      2  C2  IND d   1       1.506   3.278   1.442  0.00  0.00     0.054 A 
ATOM      3  C3  IND d   1       0.178   3.511   1.542  0.00  0.00    -0.031 A 
ATOM      4  C4  IND d   1      -1.508   4.171  -0.288  0.00  0.00     0.051 A 
ATOM      5  C5  IND d   1      -1.584   4.526  -1.606  0.00  0.00    -0.031 A 
ATOM      6  C6  IND d   1      -0.468   4.557  -2.418  0.00  0.00     0.015 A 
ATOM      7  C7  IND d   1       0.768   4.221  -1.943  0.00  0.00    -0.016 A 
ATOM      8  C8  IND d   1       0.850   3.866  -0.604  0.00  0.00    -0.047 A 
ATOM      9  C9  IND d   1      -0.272   3.874   0.235  0.00  0.00    -0.096 A 
ATOM     10  HN1 IND d   1       2.745   3.432  -0.114  0.00  0.00     0.298 HD
ENDROOT
TORSDOF 0
ENDMDL
