MODEL 1
REMARK minimizedAffinity -1.58344007
REMARK minimizedRMSD -1
REMARK  0 active torsions:
REMARK  status: ('A' for Active; 'I' for Inactive)
ROOT
ATOM      1  N1  IND d   1      -2.697   0.839   0.637  0.00  0.00    -0.196 N 
ATOM      2  C2  IND d   1      -3.119   0.976   1.930  0.00  0.00     0.054 A 
ATOM      3  C3  IND d   1      -2.086   0.797   2.784  0.00  0.00    -0.031 A 
ATOM      4  C4  IND d   1       0.402   0.372   2.274  0.00  0.00     0.051 A 
ATOM      5  C5  IND d   1       1.264   0.132   1.242  0.00  0.00    -0.031 A 
ATOM      6  C6  IND d   1       0.842   0.119  -0.072  0.00  0.00     0.015 A 
ATOM      7  C7  IND d   1      -0.461   0.357  -0.404  0.00  0.00    -0.016 A 
ATOM      8  C8  IND d   1      -1.341   0.593   0.642  0.00  0.00    -0.047 A 
ATOM      9  C9  IND d   1      -0.927   0.566   1.980  0.00  0.00    -0.096 A 
ATOM     10  HN1 IND d   1      -3.194   0.898  -0.062  0.00  0.00     0.298 HD
ENDROOT
TORSDOF 0
ENDMDL
