MODEL 1
REMARK minimizedAffinity -1.12455666
REMARK minimizedRMSD -1
REMARK  0 active torsions:
REMARK  status: ('A' for Active; 'I' for Inactive)
ROOT
ATOM      1  N1  IND d   1       1.051  -0.405  -1.423  0.00  0.00    -0.196 N 
ATOM      2  C2  IND d   1       0.472   0.663  -2.049  0.00  0.00     0.054 A 
ATOM      3  C3  IND d   1      -0.208   1.419  -1.158  0.00  0.00    -0.031 A 
ATOM      4  C4  IND d   1      -0.420   1.146   1.393  0.00  0.00     0.051 A 
ATOM      5  C5  IND d   1      -0.095   0.300   2.417  0.00  0.00    -0.031 A 
ATOM      6  C6  IND d   1       0.646  -0.845   2.209  0.00  0.00     0.015 A 
ATOM      7  C7  IND d   1       1.101  -1.183   0.966  0.00  0.00    -0.016 A 
ATOM      8  C8  IND d   1       0.767  -0.331  -0.077  0.00  0.00    -0.047 A 
ATOM      9  C9  IND d   1      -0.020   0.811   0.121  0.00  0.00    -0.096 A 
ATOM     10  HN1 IND d   1       1.515  -1.020  -1.805  0.00  0.00     0.298 HD
ENDROOT
TORSDOF 0
ENDMDL
