MODEL 1
REMARK minimizedAffinity 0.758992076
REMARK minimizedRMSD -1
REMARK  0 active torsions:
REMARK  status: ('A' for Active; 'I' for Inactive)
ROOT
ATOM      1  N1  IND d   1      -0.933   0.869  -0.993  0.00  0.00    -0.196 N 
ATOM      2  C2  IND d   1       0.044   0.406  -1.831  0.00  0.00     0.054 A 
ATOM      3  C3  IND d   1       1.061  -0.128  -1.117  0.00  0.00    -0.031 A 
ATOM      4  C4  IND d   1       1.286  -0.441   1.428  0.00  0.00     0.051 A 
ATOM      5  C5  IND d   1       0.665  -0.144   2.609  0.00  0.00    -0.031 A 
ATOM      6  C6  IND d   1      -0.546   0.517   2.650  0.00  0.00     0.015 A 
ATOM      7  C7  IND d   1      -1.189   0.897   1.506  0.00  0.00    -0.016 A 
ATOM      8  C8  IND d   1      -0.558   0.603   0.306  0.00  0.00    -0.047 A 
ATOM      9  C9  IND d   1       0.690  -0.030   0.259  0.00  0.00    -0.096 A 
ATOM     10  HN1 IND d   1      -1.658   1.260  -1.237  0.00  0.00     0.298 HD
ENDROOT
TORSDOF 0
ENDMDL
