MODEL 1
REMARK minimizedAffinity -2.47194219
REMARK minimizedRMSD -1
REMARK  0 active torsions:
REMARK  status: ('A' for Active; 'I' for Inactive)
ROOT
ATOM      1  N1  IND d   1      -2.379   1.055   0.211  0.00  0.00    -0.196 N 
ATOM      2  C2  IND d   1      -2.945   1.041   1.455  0.00  0.00     0.054 A 
ATOM      3  C3  IND d   1      -2.016   0.740   2.391  0.00  0.00    -0.031 A 
ATOM      4  C4  IND d   1       0.511   0.333   2.116  0.00  0.00     0.051 A 
ATOM      5  C5  IND d   1       1.484   0.205   1.165  0.00  0.00    -0.031 A 
ATOM      6  C6  IND d   1       1.214   0.359  -0.180  0.00  0.00     0.015 A 
ATOM      7  C7  IND d   1      -0.042   0.660  -0.624  0.00  0.00    -0.016 A 
ATOM      8  C8  IND d   1      -1.034   0.784   0.338  0.00  0.00    -0.047 A 
ATOM      9  C9  IND d   1      -0.775   0.587   1.700  0.00  0.00    -0.096 A 
ATOM     10  HN1 IND d   1      -2.793   1.208  -0.527  0.00  0.00     0.298 HD
ENDROOT
TORSDOF 0
ENDMDL
