MODEL 1
REMARK minimizedAffinity 1.94359696
REMARK minimizedRMSD -1
REMARK  0 active torsions:
REMARK  status: ('A' for Active; 'I' for Inactive)
ROOT
ATOM      1  N1  IND d   1      -2.312   0.887   0.573  0.00  0.00    -0.196 N 
ATOM      2  C2  IND d   1      -2.283   0.863  -0.794  0.00  0.00     0.054 A 
ATOM      3  C3  IND d   1      -1.020   0.666  -1.234  0.00  0.00    -0.031 A 
ATOM      4  C4  IND d   1       1.136   0.257   0.112  0.00  0.00     0.051 A 
ATOM      5  C5  IND d   1       1.618   0.225   1.391  0.00  0.00    -0.031 A 
ATOM      6  C6  IND d   1       0.798   0.413   2.484  0.00  0.00     0.015 A 
ATOM      7  C7  IND d   1      -0.544   0.630   2.340  0.00  0.00    -0.016 A 
ATOM      8  C8  IND d   1      -1.035   0.670   1.043  0.00  0.00    -0.047 A 
ATOM      9  C9  IND d   1      -0.200   0.522  -0.072  0.00  0.00    -0.096 A 
ATOM     10  HN1 IND d   1      -3.010   1.015   1.058  0.00  0.00     0.298 HD
ENDROOT
TORSDOF 0
ENDMDL
