MODEL 1
REMARK minimizedAffinity 8.54891491
REMARK minimizedRMSD -1
REMARK  0 active torsions:
REMARK  status: ('A' for Active; 'I' for Inactive)
ROOT
ATOM      1  N1  IND d   1       0.484  -1.284   2.742  0.00  0.00    -0.196 N 
ATOM      2  C2  IND d   1       0.708  -2.208   1.759  0.00  0.00     0.054 A 
ATOM      3  C3  IND d   1       1.155  -1.601   0.637  0.00  0.00    -0.031 A 
ATOM      4  C4  IND d   1       1.691   0.883   0.223  0.00  0.00     0.051 A 
ATOM      5  C5  IND d   1       1.612   2.114   0.811  0.00  0.00    -0.031 A 
ATOM      6  C6  IND d   1       1.146   2.279   2.099  0.00  0.00     0.015 A 
ATOM      7  C7  IND d   1       0.751   1.212   2.855  0.00  0.00    -0.016 A 
ATOM      8  C8  IND d   1       0.823  -0.039   2.259  0.00  0.00    -0.047 A 
ATOM      9  C9  IND d   1       1.255  -0.208   0.937  0.00  0.00    -0.096 A 
ATOM     10  HN1 IND d   1       0.182  -1.453   3.529  0.00  0.00     0.298 HD
ENDROOT
TORSDOF 0
ENDMDL
