MODEL 1
REMARK minimizedAffinity -5.34266853
REMARK minimizedRMSD -1
REMARK  0 active torsions:
REMARK  status: ('A' for Active; 'I' for Inactive)
ROOT
ATOM      1  N1  IND d   1      -0.888  -1.107  -0.445  0.00  0.00    -0.196 N 
ATOM      2  C2  IND d   1      -1.245   0.198  -0.249  0.00  0.00     0.054 A 
ATOM      3  C3  IND d   1      -0.583   1.002  -1.111  0.00  0.00    -0.031 A 
ATOM      4  C4  IND d   1       1.056   0.380  -2.996  0.00  0.00     0.051 A 
ATOM      5  C5  IND d   1       1.721  -0.684  -3.538  0.00  0.00    -0.031 A 
ATOM      6  C6  IND d   1       1.544  -1.970  -3.070  0.00  0.00     0.015 A 
ATOM      7  C7  IND d   1       0.683  -2.242  -2.044  0.00  0.00    -0.016 A 
ATOM      8  C8  IND d   1       0.012  -1.163  -1.486  0.00  0.00    -0.047 A 
ATOM      9  C9  IND d   1       0.220   0.150  -1.930  0.00  0.00    -0.096 A 
ATOM     10  HN1 IND d   1      -1.177  -1.779   0.006  0.00  0.00     0.298 HD
ENDROOT
TORSDOF 0
ENDMDL
