MODEL 1
REMARK minimizedAffinity 0.0930011421
REMARK minimizedRMSD -1
REMARK  0 active torsions:
REMARK  status: ('A' for Active; 'I' for Inactive)
ROOT
ATOM      1  N1  IND d   1      -1.136  -0.913  -1.261  0.00  0.00    -0.196 N 
ATOM      2  C2  IND d   1      -0.871   0.114  -0.398  0.00  0.00     0.054 A 
ATOM      3  C3  IND d   1       0.369   0.606  -0.620  0.00  0.00    -0.031 A 
ATOM      4  C4  IND d   1       2.094  -0.054  -2.413  0.00  0.00     0.051 A 
ATOM      5  C5  IND d   1       2.319  -0.964  -3.407  0.00  0.00    -0.031 A 
ATOM      6  C6  IND d   1       1.384  -1.921  -3.746  0.00  0.00     0.015 A 
ATOM      7  C7  IND d   1       0.179  -1.997  -3.107  0.00  0.00    -0.016 A 
ATOM      8  C8  IND d   1      -0.051  -1.079  -2.092  0.00  0.00    -0.047 A 
ATOM      9  C9  IND d   1       0.911  -0.133  -1.716  0.00  0.00    -0.096 A 
ATOM     10  HN1 IND d   1      -1.860  -1.377  -1.281  0.00  0.00     0.298 HD
ENDROOT
TORSDOF 0
ENDMDL
