MODEL 1
REMARK minimizedAffinity -2.42652535
REMARK minimizedRMSD -1
REMARK  0 active torsions:
REMARK  status: ('A' for Active; 'I' for Inactive)
ROOT
ATOM      1  N1  IND d   1      -0.669  -1.230  -0.738  0.00  0.00    -0.196 N 
ATOM      2  C2  IND d   1      -0.428  -0.081  -0.036  0.00  0.00     0.054 A 
ATOM      3  C3  IND d   1       0.543   0.642  -0.637  0.00  0.00    -0.031 A 
ATOM      4  C4  IND d   1       1.805   0.181  -2.834  0.00  0.00     0.051 A 
ATOM      5  C5  IND d   1       1.956  -0.762  -3.811  0.00  0.00    -0.031 A 
ATOM      6  C6  IND d   1       1.223  -1.932  -3.816  0.00  0.00     0.015 A 
ATOM      7  C7  IND d   1       0.299  -2.197  -2.845  0.00  0.00    -0.016 A 
ATOM      8  C8  IND d   1       0.148  -1.246  -1.847  0.00  0.00    -0.047 A 
ATOM      9  C9  IND d   1       0.920  -0.076  -1.813  0.00  0.00    -0.096 A 
ATOM     10  HN1 IND d   1      -1.235  -1.840  -0.522  0.00  0.00     0.298 HD
ENDROOT
TORSDOF 0
ENDMDL
