MODEL 1
REMARK minimizedAffinity -5.35063124
REMARK minimizedRMSD -1
REMARK  0 active torsions:
REMARK  status: ('A' for Active; 'I' for Inactive)
ROOT
ATOM      1  N1  IND d   1      -0.189   0.792  -0.893  0.00  0.00    -0.196 N 
ATOM      2  C2  IND d   1       1.104   0.604  -0.493  0.00  0.00     0.054 A 
ATOM      3  C3  IND d   1       1.151   0.307   0.825  0.00  0.00    -0.031 A 
ATOM      4  C4  IND d   1      -0.778  -0.023   2.497  0.00  0.00     0.051 A 
ATOM      5  C5  IND d   1      -2.137   0.079   2.608  0.00  0.00    -0.031 A 
ATOM      6  C6  IND d   1      -2.932   0.428   1.535  0.00  0.00     0.015 A 
ATOM      7  C7  IND d   1      -2.396   0.679   0.303  0.00  0.00    -0.016 A 
ATOM      8  C8  IND d   1      -1.017   0.583   0.189  0.00  0.00    -0.047 A 
ATOM      9  C9  IND d   1      -0.201   0.271   1.284  0.00  0.00    -0.096 A 
ATOM     10  HN1 IND d   1      -0.443   1.005  -1.686  0.00  0.00     0.298 HD
ENDROOT
TORSDOF 0
ENDMDL
