MODEL 1
REMARK minimizedAffinity -0.47806561
REMARK minimizedRMSD -1
REMARK  0 active torsions:
REMARK  status: ('A' for Active; 'I' for Inactive)
ROOT
ATOM      1  N1  IND d   1       0.885   0.641   2.664  0.00  0.00    -0.196 N 
ATOM      2  C2  IND d   1       1.623   0.130   1.633  0.00  0.00     0.054 A 
ATOM      3  C3  IND d   1       0.839  -0.604   0.812  0.00  0.00    -0.031 A 
ATOM      4  C4  IND d   1      -1.700  -1.016   0.912  0.00  0.00     0.051 A 
ATOM      5  C5  IND d   1      -2.799  -0.785   1.691  0.00  0.00    -0.031 A 
ATOM      6  C6  IND d   1      -2.725  -0.049   2.857  0.00  0.00     0.015 A 
ATOM      7  C7  IND d   1      -1.546   0.494   3.282  0.00  0.00    -0.016 A 
ATOM      8  C8  IND d   1      -0.427   0.256   2.497  0.00  0.00    -0.047 A 
ATOM      9  C9  IND d   1      -0.488  -0.525   1.336  0.00  0.00    -0.096 A 
ATOM     10  HN1 IND d   1       1.189   1.123   3.308  0.00  0.00     0.298 HD
ENDROOT
TORSDOF 0
ENDMDL
