MODEL 1
REMARK minimizedAffinity -4.42209673
REMARK minimizedRMSD -1
REMARK  0 active torsions:
REMARK  status: ('A' for Active; 'I' for Inactive)
ROOT
ATOM      1  N1  IND d   1      -2.380   0.259   2.677  0.00  0.00    -0.196 N 
ATOM      2  C2  IND d   1      -1.477   0.057   3.683  0.00  0.00     0.054 A 
ATOM      3  C3  IND d   1      -0.216   0.081   3.195  0.00  0.00    -0.031 A 
ATOM      4  C4  IND d   1       0.601   0.536   0.796  0.00  0.00     0.051 A 
ATOM      5  C5  IND d   1       0.146   0.739  -0.477  0.00  0.00    -0.031 A 
ATOM      6  C6  IND d   1      -1.202   0.796  -0.769  0.00  0.00     0.015 A 
ATOM      7  C7  IND d   1      -2.148   0.663   0.207  0.00  0.00    -0.016 A 
ATOM      8  C8  IND d   1      -1.690   0.450   1.500  0.00  0.00    -0.047 A 
ATOM      9  C9  IND d   1      -0.325   0.349   1.796  0.00  0.00    -0.096 A 
ATOM     10  HN1 IND d   1      -3.235   0.265   2.764  0.00  0.00     0.298 HD
ENDROOT
TORSDOF 0
ENDMDL
