MODEL 1
REMARK minimizedAffinity -3.45019388
REMARK minimizedRMSD -1
REMARK  0 active torsions:
REMARK  status: ('A' for Active; 'I' for Inactive)
ROOT
ATOM      1  N1  IND d   1       0.777   0.617   0.396  0.00  0.00    -0.196 N 
ATOM      2  C2  IND d   1       1.778   0.534   1.323  0.00  0.00     0.054 A 
ATOM      3  C3  IND d   1       1.300   0.046   2.489  0.00  0.00    -0.031 A 
ATOM      4  C4  IND d   1      -1.068  -0.779   3.068  0.00  0.00     0.051 A 
ATOM      5  C5  IND d   1      -2.333  -0.868   2.558  0.00  0.00    -0.031 A 
ATOM      6  C6  IND d   1      -2.631  -0.460   1.274  0.00  0.00     0.015 A 
ATOM      7  C7  IND d   1      -1.669   0.043   0.445  0.00  0.00    -0.016 A 
ATOM      8  C8  IND d   1      -0.385   0.141   0.962  0.00  0.00    -0.047 A 
ATOM      9  C9  IND d   1      -0.085  -0.231   2.279  0.00  0.00    -0.096 A 
ATOM     10  HN1 IND d   1       0.859   0.916  -0.406  0.00  0.00     0.298 HD
ENDROOT
TORSDOF 0
ENDMDL
