MODEL 1
REMARK minimizedAffinity -5.57973671
REMARK minimizedRMSD -1
REMARK  0 active torsions:
REMARK  status: ('A' for Active; 'I' for Inactive)
ROOT
ATOM      1  N1  IND d   1      -0.597  -0.199  -0.473  0.00  0.00    -0.196 N 
ATOM      2  C2  IND d   1       0.761  -0.275  -0.337  0.00  0.00     0.054 A 
ATOM      3  C3  IND d   1       1.101  -0.326   0.970  0.00  0.00    -0.031 A 
ATOM      4  C4  IND d   1      -0.411  -0.400   3.052  0.00  0.00     0.051 A 
ATOM      5  C5  IND d   1      -1.720  -0.318   3.436  0.00  0.00    -0.031 A 
ATOM      6  C6  IND d   1      -2.743  -0.193   2.518  0.00  0.00     0.015 A 
ATOM      7  C7  IND d   1      -2.494  -0.156   1.175  0.00  0.00    -0.016 A 
ATOM      8  C8  IND d   1      -1.165  -0.232   0.782  0.00  0.00    -0.047 A 
ATOM      9  C9  IND d   1      -0.120  -0.316   1.711  0.00  0.00    -0.096 A 
ATOM     10  HN1 IND d   1      -1.025  -0.141  -1.216  0.00  0.00     0.298 HD
ENDROOT
TORSDOF 0
ENDMDL
