MODEL 1
REMARK minimizedAffinity -1.80618227
REMARK minimizedRMSD -1
REMARK  0 active torsions:
REMARK  status: ('A' for Active; 'I' for Inactive)
ROOT
ATOM      1  N1  IND d   1       0.446  -1.210  -0.535  0.00  0.00    -0.196 N 
ATOM      2  C2  IND d   1       1.756  -1.406  -0.195  0.00  0.00     0.054 A 
ATOM      3  C3  IND d   1       2.029  -0.812   0.988  0.00  0.00    -0.031 A 
ATOM      4  C4  IND d   1       0.454   0.449   2.588  0.00  0.00     0.051 A 
ATOM      5  C5  IND d   1      -0.825   0.917   2.693  0.00  0.00    -0.031 A 
ATOM      6  C6  IND d   1      -1.766   0.693   1.709  0.00  0.00     0.015 A 
ATOM      7  C7  IND d   1      -1.464  -0.020   0.583  0.00  0.00    -0.016 A 
ATOM      8  C8  IND d   1      -0.164  -0.491   0.470  0.00  0.00    -0.047 A 
ATOM      9  C9  IND d   1       0.807  -0.230   1.445  0.00  0.00    -0.096 A 
ATOM     10  HN1 IND d   1       0.067  -1.488  -1.254  0.00  0.00     0.298 HD
ENDROOT
TORSDOF 0
ENDMDL
