MODEL 1
REMARK minimizedAffinity -4.86390877
REMARK minimizedRMSD -1
REMARK  0 active torsions:
REMARK  status: ('A' for Active; 'I' for Inactive)
ROOT
ATOM      1  C   UNL d   1       0.093  -3.446   0.579  0.00  0.00     0.077 C 
ATOM      2  C1  UNL d   1      -0.312  -2.002   0.594  0.00  0.00    -0.074 A 
ATOM      3  C2  UNL d   1       0.321  -1.069  -0.233  0.00  0.00    -0.005 A 
ATOM      4  C3  UNL d   1      -0.074   0.269  -0.214  0.00  0.00     0.006 A 
ATOM      5  C4  UNL d   1      -1.103   0.687   0.630  0.00  0.00    -0.005 A 
ATOM      6  C5  UNL d   1      -1.748  -0.232   1.464  0.00  0.00    -0.074 A 
ATOM      7  C6  UNL d   1      -2.863   0.198   2.370  0.00  0.00     0.077 C 
ATOM      8  C7  UNL d   1      -1.351  -1.576   1.434  0.00  0.00    -0.001 A 
ENDROOT
TORSDOF 0
ENDMDL
