MODEL 1
REMARK minimizedAffinity -3.68504143
REMARK minimizedRMSD -1
REMARK  0 active torsions:
REMARK  status: ('A' for Active; 'I' for Inactive)
ROOT
ATOM      1  C   UNL d   1      -0.792  -1.002   0.926  0.00  0.00     0.077 C 
ATOM      2  C1  UNL d   1      -0.372   0.326   0.370  0.00  0.00    -0.074 A 
ATOM      3  C2  UNL d   1      -0.538   0.621  -0.987  0.00  0.00    -0.005 A 
ATOM      4  C3  UNL d   1      -0.152   1.864  -1.489  0.00  0.00     0.006 A 
ATOM      5  C4  UNL d   1       0.402   2.823  -0.640  0.00  0.00    -0.005 A 
ATOM      6  C5  UNL d   1       0.575   2.546   0.720  0.00  0.00    -0.074 A 
ATOM      7  C6  UNL d   1       1.160   3.569   1.648  0.00  0.00     0.077 C 
ATOM      8  C7  UNL d   1       0.178   1.297   1.218  0.00  0.00    -0.001 A 
ENDROOT
TORSDOF 0
ENDMDL
