MODEL 1
REMARK minimizedAffinity -5.14251423
REMARK minimizedRMSD -1
REMARK  0 active torsions:
REMARK  status: ('A' for Active; 'I' for Inactive)
ROOT
ATOM      1  C   UNL d   1      -4.260   1.317   1.197  0.00  0.00     0.077 C 
ATOM      2  C1  UNL d   1      -2.928   0.715   0.863  0.00  0.00    -0.074 A 
ATOM      3  C2  UNL d   1      -1.985   1.427   0.114  0.00  0.00    -0.005 A 
ATOM      4  C3  UNL d   1      -0.746   0.859  -0.181  0.00  0.00     0.006 A 
ATOM      5  C4  UNL d   1      -0.438  -0.426   0.268  0.00  0.00    -0.005 A 
ATOM      6  C5  UNL d   1      -1.368  -1.153   1.019  0.00  0.00    -0.074 A 
ATOM      7  C6  UNL d   1      -1.048  -2.531   1.518  0.00  0.00     0.077 C 
ATOM      8  C7  UNL d   1      -2.608  -0.572   1.317  0.00  0.00    -0.001 A 
ENDROOT
TORSDOF 0
ENDMDL
