MODEL 1
REMARK minimizedAffinity -4.4642663
REMARK minimizedRMSD -1
REMARK  0 active torsions:
REMARK  status: ('A' for Active; 'I' for Inactive)
ROOT
ATOM      1  C   UNL d   1       2.716   2.325   1.056  0.00  0.00     0.077 C 
ATOM      2  C1  UNL d   1       1.433   1.645   0.679  0.00  0.00    -0.074 A 
ATOM      3  C2  UNL d   1       0.342   2.381   0.208  0.00  0.00    -0.005 A 
ATOM      4  C3  UNL d   1      -0.842   1.734  -0.148  0.00  0.00     0.006 A 
ATOM      5  C4  UNL d   1      -0.946   0.347  -0.035  0.00  0.00    -0.005 A 
ATOM      6  C5  UNL d   1       0.136  -0.406   0.434  0.00  0.00    -0.074 A 
ATOM      7  C6  UNL d   1       0.044  -1.898   0.552  0.00  0.00     0.077 C 
ATOM      8  C7  UNL d   1       1.324   0.251   0.782  0.00  0.00    -0.001 A 
ENDROOT
TORSDOF 0
ENDMDL
