MODEL 1
REMARK minimizedAffinity -3.44086885
REMARK minimizedRMSD -1
REMARK  0 active torsions:
REMARK  status: ('A' for Active; 'I' for Inactive)
ROOT
ATOM      1  C   UNL d   1      -2.448  -1.617   3.215  0.00  0.00     0.077 C 
ATOM      2  C1  UNL d   1      -1.572  -1.626   1.997  0.00  0.00    -0.074 A 
ATOM      3  C2  UNL d   1      -1.156  -2.830   1.420  0.00  0.00    -0.005 A 
ATOM      4  C3  UNL d   1      -0.350  -2.823   0.282  0.00  0.00     0.006 A 
ATOM      5  C4  UNL d   1       0.048  -1.614  -0.289  0.00  0.00    -0.005 A 
ATOM      6  C5  UNL d   1      -0.359  -0.400   0.273  0.00  0.00    -0.074 A 
ATOM      7  C6  UNL d   1       0.052   0.908  -0.334  0.00  0.00     0.077 C 
ATOM      8  C7  UNL d   1      -1.175  -0.416   1.413  0.00  0.00    -0.001 A 
ENDROOT
TORSDOF 0
ENDMDL
