MODEL 1
REMARK minimizedAffinity -4.29923773
REMARK minimizedRMSD -1
REMARK  0 active torsions:
REMARK  status: ('A' for Active; 'I' for Inactive)
ROOT
ATOM      1  C   UNL d   1       0.335  -3.977  -0.335  0.00  0.00     0.077 C 
ATOM      2  C1  UNL d   1      -0.046  -2.612   0.157  0.00  0.00    -0.074 A 
ATOM      3  C2  UNL d   1      -0.817  -2.454   1.313  0.00  0.00    -0.005 A 
ATOM      4  C3  UNL d   1      -1.155  -1.178   1.763  0.00  0.00     0.006 A 
ATOM      5  C4  UNL d   1      -0.726  -0.049   1.064  0.00  0.00    -0.005 A 
ATOM      6  C5  UNL d   1       0.047  -0.188  -0.093  0.00  0.00    -0.074 A 
ATOM      7  C6  UNL d   1       0.525   1.015  -0.851  0.00  0.00     0.077 C 
ATOM      8  C7  UNL d   1       0.388  -1.473  -0.536  0.00  0.00    -0.001 A 
ENDROOT
TORSDOF 0
ENDMDL
