MODEL 1
REMARK minimizedAffinity -4.09392834
REMARK minimizedRMSD -1
REMARK  0 active torsions:
REMARK  status: ('A' for Active; 'I' for Inactive)
ROOT
ATOM      1  C   UNL d   1       0.297  -0.260  -1.749  0.00  0.00     0.077 C 
ATOM      2  C1  UNL d   1       0.053  -1.062  -0.505  0.00  0.00    -0.074 A 
ATOM      3  C2  UNL d   1      -1.226  -1.532  -0.191  0.00  0.00    -0.005 A 
ATOM      4  C3  UNL d   1      -1.435  -2.284   0.964  0.00  0.00     0.006 A 
ATOM      5  C4  UNL d   1      -0.369  -2.574   1.817  0.00  0.00    -0.005 A 
ATOM      6  C5  UNL d   1       0.917  -2.114   1.519  0.00  0.00    -0.074 A 
ATOM      7  C6  UNL d   1       2.076  -2.426   2.419  0.00  0.00     0.077 C 
ATOM      8  C7  UNL d   1       1.121  -1.365   0.352  0.00  0.00    -0.001 A 
ENDROOT
TORSDOF 0
ENDMDL
