MODEL 1
REMARK minimizedAffinity -4.43432283
REMARK minimizedRMSD -1
REMARK  0 active torsions:
REMARK  status: ('A' for Active; 'I' for Inactive)
ROOT
ATOM      1  C   UNL d   1       2.081   4.198  -2.318  0.00  0.00     0.077 C 
ATOM      2  C1  UNL d   1       1.749   3.399  -1.093  0.00  0.00    -0.074 A 
ATOM      3  C2  UNL d   1       2.515   3.517   0.072  0.00  0.00    -0.005 A 
ATOM      4  C3  UNL d   1       2.188   2.774   1.206  0.00  0.00     0.006 A 
ATOM      5  C4  UNL d   1       1.095   1.907   1.187  0.00  0.00    -0.005 A 
ATOM      6  C5  UNL d   1       0.318   1.776   0.032  0.00  0.00    -0.074 A 
ATOM      7  C6  UNL d   1      -0.866   0.856  -0.002  0.00  0.00     0.077 C 
ATOM      8  C7  UNL d   1       0.648   2.531  -1.102  0.00  0.00    -0.001 A 
ENDROOT
TORSDOF 0
ENDMDL
