MODEL 1
REMARK minimizedAffinity -1.48975253
REMARK minimizedRMSD -1
REMARK  0 active torsions:
REMARK  status: ('A' for Active; 'I' for Inactive)
ROOT
ATOM      1  C   UNL d   1       2.990   2.918   0.714  0.00  0.00     0.077 C 
ATOM      2  C1  UNL d   1       1.831   2.238   0.048  0.00  0.00    -0.074 A 
ATOM      3  C2  UNL d   1       1.059   2.907  -0.908  0.00  0.00    -0.005 A 
ATOM      4  C3  UNL d   1      -0.010   2.259  -1.526  0.00  0.00     0.006 A 
ATOM      5  C4  UNL d   1      -0.318   0.939  -1.195  0.00  0.00    -0.005 A 
ATOM      6  C5  UNL d   1       0.443   0.254  -0.243  0.00  0.00    -0.074 A 
ATOM      7  C6  UNL d   1       0.132  -1.168   0.117  0.00  0.00     0.077 C 
ATOM      8  C7  UNL d   1       1.520   0.910   0.369  0.00  0.00    -0.001 A 
ENDROOT
TORSDOF 0
ENDMDL
