MODEL 1
REMARK minimizedAffinity -5.12669277
REMARK minimizedRMSD -1
REMARK  0 active torsions:
REMARK  status: ('A' for Active; 'I' for Inactive)
ROOT
ATOM      1  C   UNL d   1      -2.179  -2.292   2.273  0.00  0.00     0.077 C 
ATOM      2  C1  UNL d   1      -1.099  -1.981   1.280  0.00  0.00    -0.074 A 
ATOM      3  C2  UNL d   1      -0.234  -2.981   0.823  0.00  0.00    -0.005 A 
ATOM      4  C3  UNL d   1       0.760  -2.679  -0.108  0.00  0.00     0.006 A 
ATOM      5  C4  UNL d   1       0.899  -1.377  -0.591  0.00  0.00    -0.005 A 
ATOM      6  C5  UNL d   1       0.042  -0.365  -0.146  0.00  0.00    -0.074 A 
ATOM      7  C6  UNL d   1       0.171   1.037  -0.662  0.00  0.00     0.077 C 
ATOM      8  C7  UNL d   1      -0.959  -0.678   0.784  0.00  0.00    -0.001 A 
ENDROOT
TORSDOF 0
ENDMDL
