MODEL 1
REMARK minimizedAffinity -4.26791859
REMARK minimizedRMSD -1
REMARK  0 active torsions:
REMARK  status: ('A' for Active; 'I' for Inactive)
ROOT
ATOM      1  C   UNL d   1       0.469   1.047   0.697  0.00  0.00     0.077 C 
ATOM      2  C1  UNL d   1       0.128  -0.414   0.678  0.00  0.00    -0.074 A 
ATOM      3  C2  UNL d   1       1.127  -1.383   0.542  0.00  0.00    -0.005 A 
ATOM      4  C3  UNL d   1       0.795  -2.738   0.536  0.00  0.00     0.006 A 
ATOM      5  C4  UNL d   1      -0.536  -3.137   0.664  0.00  0.00    -0.005 A 
ATOM      6  C5  UNL d   1      -1.548  -2.181   0.802  0.00  0.00    -0.074 A 
ATOM      7  C6  UNL d   1      -2.983  -2.593   0.951  0.00  0.00     0.077 C 
ATOM      8  C7  UNL d   1      -1.206  -0.822   0.815  0.00  0.00    -0.001 A 
ENDROOT
TORSDOF 0
ENDMDL
