MODEL 1
REMARK minimizedAffinity -4.14732885
REMARK minimizedRMSD -1
REMARK  0 active torsions:
REMARK  status: ('A' for Active; 'I' for Inactive)
ROOT
ATOM      1  C   UNL d   1      -1.815  -2.350   2.296  0.00  0.00     0.077 C 
ATOM      2  C1  UNL d   1      -0.956  -1.867   1.166  0.00  0.00    -0.074 A 
ATOM      3  C2  UNL d   1      -0.216  -2.765   0.390  0.00  0.00    -0.005 A 
ATOM      4  C3  UNL d   1       0.572  -2.302  -0.663  0.00  0.00     0.006 A 
ATOM      5  C4  UNL d   1       0.627  -0.938  -0.952  0.00  0.00    -0.005 A 
ATOM      6  C5  UNL d   1      -0.106  -0.025  -0.188  0.00  0.00    -0.074 A 
ATOM      7  C6  UNL d   1      -0.065   1.444  -0.491  0.00  0.00     0.077 C 
ATOM      8  C7  UNL d   1      -0.901  -0.499   0.865  0.00  0.00    -0.001 A 
ENDROOT
TORSDOF 0
ENDMDL
