MODEL 1
REMARK minimizedAffinity -0.771801114
REMARK minimizedRMSD -1
REMARK  0 active torsions:
REMARK  status: ('A' for Active; 'I' for Inactive)
ROOT
ATOM      1  C   UNL d   1       0.258   1.521  -0.022  0.00  0.00     0.077 C 
ATOM      2  C1  UNL d   1      -0.074   0.058  -0.003  0.00  0.00    -0.074 A 
ATOM      3  C2  UNL d   1       0.276  -0.772  -1.072  0.00  0.00    -0.005 A 
ATOM      4  C3  UNL d   1      -0.032  -2.132  -1.036  0.00  0.00     0.006 A 
ATOM      5  C4  UNL d   1      -0.691  -2.675   0.068  0.00  0.00    -0.005 A 
ATOM      6  C5  UNL d   1      -1.048  -1.860   1.147  0.00  0.00    -0.074 A 
ATOM      7  C6  UNL d   1      -1.748  -2.428   2.346  0.00  0.00     0.077 C 
ATOM      8  C7  UNL d   1      -0.729  -0.495   1.106  0.00  0.00    -0.001 A 
ENDROOT
TORSDOF 0
ENDMDL
