MODEL 1
REMARK minimizedAffinity -4.42378998
REMARK minimizedRMSD -1
REMARK  0 active torsions:
REMARK  status: ('A' for Active; 'I' for Inactive)
ROOT
ATOM      1  C   UNL d   1      -0.040   0.664   2.414  0.00  0.00     0.077 C 
ATOM      2  C1  UNL d   1      -0.315  -0.423   1.418  0.00  0.00    -0.074 A 
ATOM      3  C2  UNL d   1      -1.173  -1.483   1.729  0.00  0.00    -0.005 A 
ATOM      4  C3  UNL d   1      -1.427  -2.482   0.789  0.00  0.00     0.006 A 
ATOM      5  C4  UNL d   1      -0.826  -2.431  -0.470  0.00  0.00    -0.005 A 
ATOM      6  C5  UNL d   1       0.034  -1.378  -0.799  0.00  0.00    -0.074 A 
ATOM      7  C6  UNL d   1       0.679  -1.303  -2.151  0.00  0.00     0.077 C 
ATOM      8  C7  UNL d   1       0.278  -0.375   0.148  0.00  0.00    -0.001 A 
ENDROOT
TORSDOF 0
ENDMDL
