MODEL 1
REMARK minimizedAffinity 3.48403311
REMARK minimizedRMSD -1
REMARK  0 active torsions:
REMARK  status: ('A' for Active; 'I' for Inactive)
ROOT
ATOM      1  C   UNL d   1       1.545   4.287   1.808  0.00  0.00     0.077 C 
ATOM      2  C1  UNL d   1       2.368   3.952   0.600  0.00  0.00    -0.074 A 
ATOM      3  C2  UNL d   1       3.691   4.390   0.487  0.00  0.00    -0.005 A 
ATOM      4  C3  UNL d   1       4.447   4.062  -0.638  0.00  0.00     0.006 A 
ATOM      5  C4  UNL d   1       3.889   3.294  -1.660  0.00  0.00    -0.005 A 
ATOM      6  C5  UNL d   1       2.567   2.846  -1.565  0.00  0.00    -0.074 A 
ATOM      7  C6  UNL d   1       1.955   2.011  -2.650  0.00  0.00     0.077 C 
ATOM      8  C7  UNL d   1       1.816   3.174  -0.427  0.00  0.00    -0.001 A 
ENDROOT
TORSDOF 0
ENDMDL
