MODEL 1
REMARK minimizedAffinity 5.83015013
REMARK minimizedRMSD -1
REMARK  0 active torsions:
REMARK  status: ('A' for Active; 'I' for Inactive)
ROOT
ATOM      1  C   UNL d   1      -2.948   2.794   0.889  0.00  0.00     0.077 C 
ATOM      2  C1  UNL d   1      -1.831   1.847   0.567  0.00  0.00    -0.074 A 
ATOM      3  C2  UNL d   1      -1.653   0.669   1.300  0.00  0.00    -0.005 A 
ATOM      4  C3  UNL d   1      -0.615  -0.207   0.983  0.00  0.00     0.006 A 
ATOM      5  C4  UNL d   1       0.255   0.085  -0.068  0.00  0.00    -0.005 A 
ATOM      6  C5  UNL d   1       0.093   1.258  -0.812  0.00  0.00    -0.074 A 
ATOM      7  C6  UNL d   1       1.013   1.583  -1.951  0.00  0.00     0.077 C 
ATOM      8  C7  UNL d   1      -0.957   2.130  -0.492  0.00  0.00    -0.001 A 
ENDROOT
TORSDOF 0
ENDMDL
