MODEL 1
REMARK minimizedAffinity 2.48696136
REMARK minimizedRMSD -1
REMARK  3 active torsions:
REMARK  status: ('A' for Active; 'I' for Inactive)
REMARK    1  A    between atoms: C3'_2  and  C2'_3 
REMARK    2  A    between atoms: C2'_3  and  C1'_4 
REMARK    3  A    between atoms: C1'_4  and  C1_5 
ROOT
ATOM      1  C1  N4B d   1       3.352  -5.933  -2.969  0.00  0.00    -0.075 A 
ATOM      2  C2  N4B d   1       4.755  -5.908  -3.129  0.00  0.00     0.002 A 
ATOM      3  C3  N4B d   1       5.302  -5.932  -4.388  0.00  0.00     0.002 A 
ATOM      4  C4  N4B d   1       4.471  -5.999  -5.497  0.00  0.00    -0.004 A 
ATOM      5  C5  N4B d   1       3.117  -5.996  -5.334  0.00  0.00     0.002 A 
ATOM      6  C6  N4B d   1       2.552  -5.969  -4.074  0.00  0.00     0.002 A 
ENDROOT
BRANCH   1   7
ATOM      7  C1' N4B d   1       2.709  -5.995  -1.610  0.00  0.00     0.057 C 
BRANCH   7   8
ATOM      8  C2' N4B d   1       3.632  -5.338  -0.589  0.00  0.00     0.009 C 
BRANCH   8   9
ATOM      9  C3' N4B d   1       3.495  -5.967   0.788  0.00  0.00     0.004 C 
ATOM     10  C4' N4B d   1       2.226  -5.572   1.482  0.00  0.00     0.003 C 
ENDBRANCH   8   9
ENDBRANCH   7   8
ENDBRANCH   1   7
TORSDOF 3
ENDMDL
