MODEL 1
REMARK minimizedAffinity 3.80519128
REMARK minimizedRMSD -1
REMARK  3 active torsions:
REMARK  status: ('A' for Active; 'I' for Inactive)
REMARK    1  A    between atoms: C3'_2  and  C2'_3 
REMARK    2  A    between atoms: C2'_3  and  C1'_4 
REMARK    3  A    between atoms: C1'_4  and  C1_5 
ROOT
ATOM      1  C1  N4B d   1       3.242  -5.918  -3.226  0.00  0.00    -0.075 A 
ATOM      2  C2  N4B d   1       3.943  -5.917  -4.451  0.00  0.00     0.002 A 
ATOM      3  C3  N4B d   1       3.251  -5.937  -5.638  0.00  0.00     0.002 A 
ATOM      4  C4  N4B d   1       1.865  -5.978  -5.623  0.00  0.00    -0.004 A 
ATOM      5  C5  N4B d   1       1.195  -5.953  -4.435  0.00  0.00     0.002 A 
ATOM      6  C6  N4B d   1       1.877  -5.929  -3.235  0.00  0.00     0.002 A 
ENDROOT
BRANCH   1   7
ATOM      7  C1' N4B d   1       3.955  -5.983  -1.903  0.00  0.00     0.057 C 
BRANCH   7   8
ATOM      8  C2' N4B d   1       2.925  -5.980  -0.777  0.00  0.00     0.009 C 
BRANCH   8   9
ATOM      9  C3' N4B d   1       3.580  -5.936   0.592  0.00  0.00     0.004 C 
ATOM     10  C4' N4B d   1       2.784  -5.151   1.592  0.00  0.00     0.003 C 
ENDBRANCH   8   9
ENDBRANCH   7   8
ENDBRANCH   1   7
TORSDOF 3
ENDMDL
