MODEL 1
REMARK minimizedAffinity 5.92328215
REMARK minimizedRMSD -1
REMARK  3 active torsions:
REMARK  status: ('A' for Active; 'I' for Inactive)
REMARK    1  A    between atoms: C3'_2  and  C2'_3 
REMARK    2  A    between atoms: C2'_3  and  C1'_4 
REMARK    3  A    between atoms: C1'_4  and  C1_5 
ROOT
ATOM      1  C1  N4B d   1       3.157  -5.310  -1.484  0.00  0.00    -0.075 A 
ATOM      2  C2  N4B d   1       2.081  -5.738  -2.293  0.00  0.00     0.002 A 
ATOM      3  C3  N4B d   1       2.286  -5.998  -3.626  0.00  0.00     0.002 A 
ATOM      4  C4  N4B d   1       3.548  -5.821  -4.173  0.00  0.00    -0.004 A 
ATOM      5  C5  N4B d   1       4.587  -5.431  -3.379  0.00  0.00     0.002 A 
ATOM      6  C6  N4B d   1       4.396  -5.170  -2.038  0.00  0.00     0.002 A 
ENDROOT
BRANCH   1   7
ATOM      7  C1' N4B d   1       2.963  -4.930  -0.041  0.00  0.00     0.057 C 
BRANCH   7   8
ATOM      8  C2' N4B d   1       3.594  -5.998   0.847  0.00  0.00     0.009 C 
BRANCH   8   9
ATOM      9  C3' N4B d   1       2.999  -6.000   2.244  0.00  0.00     0.004 C 
ATOM     10  C4' N4B d   1       3.530  -4.891   3.103  0.00  0.00     0.003 C 
ENDBRANCH   8   9
ENDBRANCH   7   8
ENDBRANCH   1   7
TORSDOF 3
ENDMDL
