MODEL 1
REMARK minimizedAffinity 4.70118761
REMARK minimizedRMSD -1
REMARK  3 active torsions:
REMARK  status: ('A' for Active; 'I' for Inactive)
REMARK    1  A    between atoms: C3'_2  and  C2'_3 
REMARK    2  A    between atoms: C2'_3  and  C1'_4 
REMARK    3  A    between atoms: C1'_4  and  C1_5 
ROOT
ATOM      1  C1  N4B d   1       3.701  -5.935  -2.378  0.00  0.00    -0.075 A 
ATOM      2  C2  N4B d   1       4.664  -5.907  -3.411  0.00  0.00     0.002 A 
ATOM      3  C3  N4B d   1       4.263  -5.930  -4.724  0.00  0.00     0.002 A 
ATOM      4  C4  N4B d   1       2.912  -5.999  -5.028  0.00  0.00    -0.004 A 
ATOM      5  C5  N4B d   1       1.987  -5.999  -4.025  0.00  0.00     0.002 A 
ATOM      6  C6  N4B d   1       2.375  -5.973  -2.700  0.00  0.00     0.002 A 
ENDROOT
BRANCH   1   7
ATOM      7  C1' N4B d   1       4.093  -5.999  -0.927  0.00  0.00     0.057 C 
BRANCH   7   8
ATOM      8  C2' N4B d   1       2.833  -5.999  -0.067  0.00  0.00     0.009 C 
BRANCH   8   9
ATOM      9  C3' N4B d   1       3.155  -5.881   1.413  0.00  0.00     0.004 C 
ATOM     10  C4' N4B d   1       2.086  -5.169   2.185  0.00  0.00     0.003 C 
ENDBRANCH   8   9
ENDBRANCH   7   8
ENDBRANCH   1   7
TORSDOF 3
ENDMDL
