MODEL 1
REMARK minimizedAffinity 3.90604949
REMARK minimizedRMSD -1
REMARK  3 active torsions:
REMARK  status: ('A' for Active; 'I' for Inactive)
REMARK    1  A    between atoms: C3'_2  and  C2'_3 
REMARK    2  A    between atoms: C2'_3  and  C1'_4 
REMARK    3  A    between atoms: C1'_4  and  C1_5 
ROOT
ATOM      1  C1  N4B d   1       3.202  -5.913  -1.413  0.00  0.00    -0.075 A 
ATOM      2  C2  N4B d   1       4.183  -5.832  -2.425  0.00  0.00     0.002 A 
ATOM      3  C3  N4B d   1       3.809  -5.839  -3.746  0.00  0.00     0.002 A 
ATOM      4  C4  N4B d   1       2.467  -5.945  -4.078  0.00  0.00    -0.004 A 
ATOM      5  C5  N4B d   1       1.523  -5.997  -3.095  0.00  0.00     0.002 A 
ATOM      6  C6  N4B d   1       1.885  -5.987  -1.762  0.00  0.00     0.002 A 
ENDROOT
BRANCH   1   7
ATOM      7  C1' N4B d   1       3.568  -5.996   0.044  0.00  0.00     0.057 C 
BRANCH   7   8
ATOM      8  C2' N4B d   1       2.310  -5.816   0.888  0.00  0.00     0.009 C 
BRANCH   8   9
ATOM      9  C3' N4B d   1       2.636  -5.434   2.321  0.00  0.00     0.004 C 
ATOM     10  C4' N4B d   1       1.763  -4.331   2.842  0.00  0.00     0.003 C 
ENDBRANCH   8   9
ENDBRANCH   7   8
ENDBRANCH   1   7
TORSDOF 3
ENDMDL
