MODEL 1
REMARK minimizedAffinity 9.30997086
REMARK minimizedRMSD -1
REMARK  0 active torsions:
REMARK  status: ('A' for Active; 'I' for Inactive)
ROOT
ATOM      1  C   UNL d   1      -0.567  -0.964   3.869  0.00  0.00     0.124 A 
ATOM      2  C1  UNL d   1      -1.446   0.030   4.276  0.00  0.00     0.062 A 
ATOM      3  C2  UNL d   1      -2.428   0.495   3.406  0.00  0.00     0.162 A 
ATOM      4  C3  UNL d   1      -2.537  -0.034   2.120  0.00  0.00    -0.034 A 
ATOM      5  C4  UNL d   1      -1.649  -1.033   1.718  0.00  0.00     0.162 A 
ATOM      6  C5  UNL d   1      -0.670  -1.495   2.591  0.00  0.00     0.062 A 
ATOM      7  F   UNL d   1       0.179  -2.456   2.196  0.00  0.00    -0.097 F 
ATOM      8  F1  UNL d   1      -1.727  -1.564   0.488  0.00  0.00    -0.096 F 
ATOM      9  I   UNL d   1      -4.004   0.659   0.817  0.00  0.00    -0.060 I 
ATOM     10  F2  UNL d   1      -3.263   1.457   3.826  0.00  0.00    -0.096 F 
ATOM     11  F3  UNL d   1      -1.348   0.545   5.510  0.00  0.00    -0.097 F 
ATOM     12  F4  UNL d   1       0.378  -1.409   4.707  0.00  0.00    -0.092 F 
ENDROOT
TORSDOF 0
ENDMDL
