MODEL 1
REMARK minimizedAffinity 9.25473499
REMARK minimizedRMSD -1
REMARK  0 active torsions:
REMARK  status: ('A' for Active; 'I' for Inactive)
ROOT
ATOM      1  C   UNL d   1      -2.950  -0.323   1.979  0.00  0.00     0.124 A 
ATOM      2  C1  UNL d   1      -2.136  -0.138   3.087  0.00  0.00     0.062 A 
ATOM      3  C2  UNL d   1      -2.566   0.655   4.147  0.00  0.00     0.162 A 
ATOM      4  C3  UNL d   1      -3.818   1.268   4.104  0.00  0.00    -0.034 A 
ATOM      5  C4  UNL d   1      -4.631   1.078   2.986  0.00  0.00     0.162 A 
ATOM      6  C5  UNL d   1      -4.196   0.285   1.929  0.00  0.00     0.062 A 
ATOM      7  F   UNL d   1      -4.985   0.107   0.859  0.00  0.00    -0.097 F 
ATOM      8  F1  UNL d   1      -5.840   1.653   2.912  0.00  0.00    -0.096 F 
ATOM      9  I   UNL d   1      -4.464   2.455   5.687  0.00  0.00    -0.060 I 
ATOM     10  F2  UNL d   1      -1.758   0.816   5.206  0.00  0.00    -0.096 F 
ATOM     11  F3  UNL d   1      -0.930  -0.724   3.137  0.00  0.00    -0.097 F 
ATOM     12  F4  UNL d   1      -2.533  -1.086   0.960  0.00  0.00    -0.092 F 
ENDROOT
TORSDOF 0
ENDMDL
