MODEL 1
REMARK minimizedAffinity 20.2971268
REMARK minimizedRMSD -1
REMARK  0 active torsions:
REMARK  status: ('A' for Active; 'I' for Inactive)
ROOT
ATOM      1  C   UNL d   1      -2.515  -0.515   2.015  0.00  0.00     0.124 A 
ATOM      2  C1  UNL d   1      -3.806  -0.025   1.877  0.00  0.00     0.062 A 
ATOM      3  C2  UNL d   1      -4.346   0.810   2.851  0.00  0.00     0.162 A 
ATOM      4  C3  UNL d   1      -3.594   1.162   3.972  0.00  0.00    -0.034 A 
ATOM      5  C4  UNL d   1      -2.296   0.664   4.104  0.00  0.00     0.162 A 
ATOM      6  C5  UNL d   1      -1.761  -0.170   3.128  0.00  0.00     0.062 A 
ATOM      7  F   UNL d   1      -0.514  -0.643   3.263  0.00  0.00    -0.097 F 
ATOM      8  F1  UNL d   1      -1.546   0.982   5.169  0.00  0.00    -0.096 F 
ATOM      9  I   UNL d   1      -4.397   2.410   5.430  0.00  0.00    -0.060 I 
ATOM     10  F2  UNL d   1      -5.596   1.269   2.691  0.00  0.00    -0.096 F 
ATOM     11  F3  UNL d   1      -4.537  -0.358   0.803  0.00  0.00    -0.097 F 
ATOM     12  F4  UNL d   1      -1.999  -1.319   1.077  0.00  0.00    -0.092 F 
ENDROOT
TORSDOF 0
ENDMDL
