MODEL 1
REMARK minimizedAffinity 22.9754658
REMARK minimizedRMSD -1
REMARK  0 active torsions:
REMARK  status: ('A' for Active; 'I' for Inactive)
ROOT
ATOM      1  C   UNL d   1      -5.752   1.943   1.234  0.00  0.00     0.124 A 
ATOM      2  C1  UNL d   1      -5.733   2.607   0.015  0.00  0.00     0.062 A 
ATOM      3  C2  UNL d   1      -5.804   1.889  -1.175  0.00  0.00     0.162 A 
ATOM      4  C3  UNL d   1      -5.894   0.497  -1.152  0.00  0.00    -0.034 A 
ATOM      5  C4  UNL d   1      -5.911  -0.164   0.077  0.00  0.00     0.162 A 
ATOM      6  C5  UNL d   1      -5.841   0.559   1.264  0.00  0.00     0.062 A 
ATOM      7  F   UNL d   1      -5.859  -0.084   2.440  0.00  0.00    -0.097 F 
ATOM      8  F1  UNL d   1      -5.998  -1.501   0.135  0.00  0.00    -0.096 F 
ATOM      9  I   UNL d   1      -6.000  -0.581  -2.929  0.00  0.00    -0.060 I 
ATOM     10  F2  UNL d   1      -5.784   2.557  -2.338  0.00  0.00    -0.096 F 
ATOM     11  F3  UNL d   1      -5.646   3.945  -0.017  0.00  0.00    -0.097 F 
ATOM     12  F4  UNL d   1      -5.683   2.637   2.377  0.00  0.00    -0.092 F 
ENDROOT
TORSDOF 0
ENDMDL
