MODEL 1
REMARK minimizedAffinity 20.8046799
REMARK minimizedRMSD -1
REMARK  0 active torsions:
REMARK  status: ('A' for Active; 'I' for Inactive)
ROOT
ATOM      1  C   UNL d   1      -0.203  -1.169   2.373  0.00  0.00     0.124 A 
ATOM      2  C1  UNL d   1       0.059  -0.640   3.629  0.00  0.00     0.062 A 
ATOM      3  C2  UNL d   1      -0.838   0.249   4.215  0.00  0.00     0.162 A 
ATOM      4  C3  UNL d   1      -2.006   0.613   3.546  0.00  0.00    -0.034 A 
ATOM      5  C4  UNL d   1      -2.262   0.078   2.282  0.00  0.00     0.162 A 
ATOM      6  C5  UNL d   1      -1.363  -0.810   1.701  0.00  0.00     0.062 A 
ATOM      7  F   UNL d   1      -1.617  -1.320   0.487  0.00  0.00    -0.097 F 
ATOM      8  F1  UNL d   1      -3.376   0.407   1.611  0.00  0.00    -0.096 F 
ATOM      9  I   UNL d   1      -3.350   1.942   4.418  0.00  0.00    -0.060 I 
ATOM     10  F2  UNL d   1      -0.559   0.744   5.430  0.00  0.00    -0.096 F 
ATOM     11  F3  UNL d   1       1.179  -0.985   4.280  0.00  0.00    -0.097 F 
ATOM     12  F4  UNL d   1       0.662  -2.023   1.811  0.00  0.00    -0.092 F 
ENDROOT
TORSDOF 0
ENDMDL
