MODEL 1
REMARK minimizedAffinity 18.3457966
REMARK minimizedRMSD -1
REMARK  0 active torsions:
REMARK  status: ('A' for Active; 'I' for Inactive)
ROOT
ATOM      1  C   UNL d   1      -2.276   0.085   2.638  0.00  0.00     0.124 A 
ATOM      2  C1  UNL d   1      -1.575   0.418   3.789  0.00  0.00     0.062 A 
ATOM      3  C2  UNL d   1      -2.158   1.239   4.750  0.00  0.00     0.162 A 
ATOM      4  C3  UNL d   1      -3.450   1.733   4.564  0.00  0.00    -0.034 A 
ATOM      5  C4  UNL d   1      -4.148   1.394   3.404  0.00  0.00     0.162 A 
ATOM      6  C5  UNL d   1      -3.561   0.573   2.446  0.00  0.00     0.062 A 
ATOM      7  F   UNL d   1      -4.239   0.252   1.335  0.00  0.00    -0.097 F 
ATOM      8  F1  UNL d   1      -5.391   1.851   3.194  0.00  0.00    -0.096 F 
ATOM      9  I   UNL d   1      -4.325   2.961   5.999  0.00  0.00    -0.060 I 
ATOM     10  F2  UNL d   1      -1.458   1.545   5.853  0.00  0.00    -0.096 F 
ATOM     11  F3  UNL d   1      -0.333  -0.051   3.976  0.00  0.00    -0.097 F 
ATOM     12  F4  UNL d   1      -1.712  -0.704   1.714  0.00  0.00    -0.092 F 
ENDROOT
TORSDOF 0
ENDMDL
