MODEL 1
REMARK minimizedAffinity 20.7313118
REMARK minimizedRMSD -1
REMARK  0 active torsions:
REMARK  status: ('A' for Active; 'I' for Inactive)
ROOT
ATOM      1  C   UNL d   1       2.161  -0.563   2.189  0.00  0.00     0.124 A 
ATOM      2  C1  UNL d   1       2.976   0.542   1.982  0.00  0.00     0.062 A 
ATOM      3  C2  UNL d   1       2.911   1.244   0.782  0.00  0.00     0.162 A 
ATOM      4  C3  UNL d   1       2.027   0.844  -0.221  0.00  0.00    -0.034 A 
ATOM      5  C4  UNL d   1       1.211  -0.268  -0.005  0.00  0.00     0.162 A 
ATOM      6  C5  UNL d   1       1.280  -0.967   1.196  0.00  0.00     0.062 A 
ATOM      7  F   UNL d   1       0.492  -2.034   1.395  0.00  0.00    -0.097 F 
ATOM      8  F1  UNL d   1       0.350  -0.680  -0.947  0.00  0.00    -0.096 F 
ATOM      9  I   UNL d   1       1.927   1.891  -2.016  0.00  0.00    -0.060 I 
ATOM     10  F2  UNL d   1       3.710   2.307   0.609  0.00  0.00    -0.096 F 
ATOM     11  F3  UNL d   1       3.829   0.933   2.939  0.00  0.00    -0.097 F 
ATOM     12  F4  UNL d   1       2.227  -1.237   3.344  0.00  0.00    -0.092 F 
ENDROOT
TORSDOF 0
ENDMDL
