MODEL 1
REMARK minimizedAffinity 20.5551605
REMARK minimizedRMSD -1
REMARK  0 active torsions:
REMARK  status: ('A' for Active; 'I' for Inactive)
ROOT
ATOM      1  C   UNL d   1      -2.608  -0.006   2.707  0.00  0.00     0.124 A 
ATOM      2  C1  UNL d   1      -1.917   0.325   3.864  0.00  0.00     0.062 A 
ATOM      3  C2  UNL d   1      -2.493   1.173   4.805  0.00  0.00     0.162 A 
ATOM      4  C3  UNL d   1      -3.769   1.695   4.594  0.00  0.00    -0.034 A 
ATOM      5  C4  UNL d   1      -4.458   1.359   3.428  0.00  0.00     0.162 A 
ATOM      6  C5  UNL d   1      -3.877   0.511   2.490  0.00  0.00     0.062 A 
ATOM      7  F   UNL d   1      -4.547   0.192   1.372  0.00  0.00    -0.097 F 
ATOM      8  F1  UNL d   1      -5.686   1.843   3.193  0.00  0.00    -0.096 F 
ATOM      9  I   UNL d   1      -4.634   2.963   6.000  0.00  0.00    -0.060 I 
ATOM     10  F2  UNL d   1      -1.802   1.475   5.914  0.00  0.00    -0.096 F 
ATOM     11  F3  UNL d   1      -0.689  -0.172   4.075  0.00  0.00    -0.097 F 
ATOM     12  F4  UNL d   1      -2.051  -0.821   1.802  0.00  0.00    -0.092 F 
ENDROOT
TORSDOF 0
ENDMDL
