MODEL 1
REMARK minimizedAffinity 14.4449825
REMARK minimizedRMSD -1
REMARK  0 active torsions:
REMARK  status: ('A' for Active; 'I' for Inactive)
ROOT
ATOM      1  C   UNL d   1      -0.099  -1.120   2.865  0.00  0.00     0.124 A 
ATOM      2  C1  UNL d   1      -1.149  -0.576   2.139  0.00  0.00     0.062 A 
ATOM      3  C2  UNL d   1      -1.968   0.393   2.712  0.00  0.00     0.162 A 
ATOM      4  C3  UNL d   1      -1.739   0.826   4.018  0.00  0.00    -0.034 A 
ATOM      5  C4  UNL d   1      -0.681   0.274   4.742  0.00  0.00     0.162 A 
ATOM      6  C5  UNL d   1       0.135  -0.695   4.165  0.00  0.00     0.062 A 
ATOM      7  F   UNL d   1       1.149  -1.219   4.868  0.00  0.00    -0.097 F 
ATOM      8  F1  UNL d   1      -0.432   0.667   6.000  0.00  0.00    -0.096 F 
ATOM      9  I   UNL d   1      -2.961   2.274   4.878  0.00  0.00    -0.060 I 
ATOM     10  F2  UNL d   1      -2.976   0.901   1.987  0.00  0.00    -0.096 F 
ATOM     11  F3  UNL d   1      -1.377  -0.986   0.883  0.00  0.00    -0.097 F 
ATOM     12  F4  UNL d   1       0.687  -2.053   2.312  0.00  0.00    -0.092 F 
ENDROOT
TORSDOF 0
ENDMDL
