MODEL 1
REMARK minimizedAffinity 20.4498615
REMARK minimizedRMSD -1
REMARK  0 active torsions:
REMARK  status: ('A' for Active; 'I' for Inactive)
ROOT
ATOM      1  C   UNL d   1      -0.376  -1.087   2.662  0.00  0.00     0.124 A 
ATOM      2  C1  UNL d   1      -1.408  -0.610   1.865  0.00  0.00     0.062 A 
ATOM      3  C2  UNL d   1      -2.363   0.251   2.398  0.00  0.00     0.162 A 
ATOM      4  C3  UNL d   1      -2.291   0.641   3.735  0.00  0.00    -0.034 A 
ATOM      5  C4  UNL d   1      -1.251   0.156   4.530  0.00  0.00     0.162 A 
ATOM      6  C5  UNL d   1      -0.299  -0.704   3.993  0.00  0.00     0.062 A 
ATOM      7  F   UNL d   1       0.697  -1.164   4.764  0.00  0.00    -0.097 F 
ATOM      8  F1  UNL d   1      -1.152   0.511   5.820  0.00  0.00    -0.096 F 
ATOM      9  I   UNL d   1      -3.717   1.928   4.535  0.00  0.00    -0.060 I 
ATOM     10  F2  UNL d   1      -3.349   0.697   1.604  0.00  0.00    -0.096 F 
ATOM     11  F3  UNL d   1      -1.485  -0.980   0.578  0.00  0.00    -0.097 F 
ATOM     12  F4  UNL d   1       0.541  -1.916   2.147  0.00  0.00    -0.092 F 
ENDROOT
TORSDOF 0
ENDMDL
