MODEL 1
REMARK minimizedAffinity 31.0635242
REMARK minimizedRMSD -1
REMARK  0 active torsions:
REMARK  status: ('A' for Active; 'I' for Inactive)
ROOT
ATOM      1  C   UNL d   1       0.101  -1.220   2.515  0.00  0.00     0.124 A 
ATOM      2  C1  UNL d   1      -1.092  -0.983   1.846  0.00  0.00     0.062 A 
ATOM      3  C2  UNL d   1      -2.081  -0.201   2.435  0.00  0.00     0.162 A 
ATOM      4  C3  UNL d   1      -1.881   0.352   3.700  0.00  0.00    -0.034 A 
ATOM      5  C4  UNL d   1      -0.679   0.109   4.367  0.00  0.00     0.162 A 
ATOM      6  C5  UNL d   1       0.306  -0.674   3.774  0.00  0.00     0.062 A 
ATOM      7  F   UNL d   1       1.458  -0.901   4.422  0.00  0.00    -0.097 F 
ATOM      8  F1  UNL d   1      -0.455   0.625   5.585  0.00  0.00    -0.096 F 
ATOM      9  I   UNL d   1      -3.358   1.522   4.584  0.00  0.00    -0.060 I 
ATOM     10  F2  UNL d   1      -3.224   0.011   1.766  0.00  0.00    -0.096 F 
ATOM     11  F3  UNL d   1      -1.293  -1.510   0.630  0.00  0.00    -0.097 F 
ATOM     12  F4  UNL d   1       1.051  -1.973   1.947  0.00  0.00    -0.092 F 
ENDROOT
TORSDOF 0
ENDMDL
