MODEL 1
REMARK minimizedAffinity 20.4200687
REMARK minimizedRMSD -1
REMARK  0 active torsions:
REMARK  status: ('A' for Active; 'I' for Inactive)
ROOT
ATOM      1  C   UNL d   1       2.649   0.471   0.237  0.00  0.00     0.124 A 
ATOM      2  C1  UNL d   1       1.739   0.349  -0.804  0.00  0.00     0.062 A 
ATOM      3  C2  UNL d   1       0.632  -0.484  -0.673  0.00  0.00     0.162 A 
ATOM      4  C3  UNL d   1       0.427  -1.202   0.505  0.00  0.00    -0.034 A 
ATOM      5  C4  UNL d   1       1.347  -1.075   1.548  0.00  0.00     0.162 A 
ATOM      6  C5  UNL d   1       2.452  -0.241   1.412  0.00  0.00     0.062 A 
ATOM      7  F   UNL d   1       3.330  -0.125   2.419  0.00  0.00    -0.097 F 
ATOM      8  F1  UNL d   1       1.181  -1.751   2.694  0.00  0.00    -0.096 F 
ATOM      9  I   UNL d   1      -1.227  -2.449   0.706  0.00  0.00    -0.060 I 
ATOM     10  F2  UNL d   1      -0.231  -0.582  -1.695  0.00  0.00    -0.096 F 
ATOM     11  F3  UNL d   1       1.927   1.036  -1.941  0.00  0.00    -0.097 F 
ATOM     12  F4  UNL d   1       3.714   1.272   0.107  0.00  0.00    -0.092 F 
ENDROOT
TORSDOF 0
ENDMDL
