MODEL 1
REMARK minimizedAffinity 15.0666857
REMARK minimizedRMSD -1
REMARK  0 active torsions:
REMARK  status: ('A' for Active; 'I' for Inactive)
ROOT
ATOM      1  C   UNL d   1      -0.747   0.358   3.956  0.00  0.00     0.124 A 
ATOM      2  C1  UNL d   1      -0.926   0.226   2.586  0.00  0.00     0.062 A 
ATOM      3  C2  UNL d   1      -0.512  -0.932   1.934  0.00  0.00     0.162 A 
ATOM      4  C3  UNL d   1       0.085  -1.969   2.652  0.00  0.00    -0.034 A 
ATOM      5  C4  UNL d   1       0.263  -1.828   4.029  0.00  0.00     0.162 A 
ATOM      6  C5  UNL d   1      -0.153  -0.669   4.676  0.00  0.00     0.062 A 
ATOM      7  F   UNL d   1       0.021  -0.543   6.000  0.00  0.00    -0.097 F 
ATOM      8  F1  UNL d   1       0.833  -2.806   4.750  0.00  0.00    -0.096 F 
ATOM      9  I   UNL d   1       0.705  -3.702   1.681  0.00  0.00    -0.060 I 
ATOM     10  F2  UNL d   1      -0.698  -1.033   0.610  0.00  0.00    -0.096 F 
ATOM     11  F3  UNL d   1      -1.499   1.217   1.888  0.00  0.00    -0.097 F 
ATOM     12  F4  UNL d   1      -1.145   1.473   4.580  0.00  0.00    -0.092 F 
ENDROOT
TORSDOF 0
ENDMDL
