MODEL 1
REMARK minimizedAffinity 11.1641941
REMARK minimizedRMSD -1
REMARK  0 active torsions:
REMARK  status: ('A' for Active; 'I' for Inactive)
ROOT
ATOM      1  C   UNL d   1      -1.458  -5.737  -3.925  0.00  0.00     0.124 A 
ATOM      2  C1  UNL d   1      -2.114  -5.738  -2.702  0.00  0.00     0.062 A 
ATOM      3  C2  UNL d   1      -1.412  -5.469  -1.530  0.00  0.00     0.162 A 
ATOM      4  C3  UNL d   1      -0.045  -5.195  -1.577  0.00  0.00    -0.034 A 
ATOM      5  C4  UNL d   1       0.608  -5.197  -2.810  0.00  0.00     0.162 A 
ATOM      6  C5  UNL d   1      -0.098  -5.467  -3.978  0.00  0.00     0.062 A 
ATOM      7  F   UNL d   1       0.538  -5.466  -5.159  0.00  0.00    -0.097 F 
ATOM      8  F1  UNL d   1       1.922  -4.938  -2.891  0.00  0.00    -0.096 F 
ATOM      9  I   UNL d   1       1.009  -4.792   0.172  0.00  0.00    -0.060 I 
ATOM     10  F2  UNL d   1      -2.072  -5.476  -0.362  0.00  0.00    -0.096 F 
ATOM     11  F3  UNL d   1      -3.428  -6.000  -2.647  0.00  0.00    -0.097 F 
ATOM     12  F4  UNL d   1      -2.136  -5.998  -5.050  0.00  0.00    -0.092 F 
ENDROOT
TORSDOF 0
ENDMDL
