MODEL 1
REMARK minimizedAffinity 20.4108887
REMARK minimizedRMSD -1
REMARK  0 active torsions:
REMARK  status: ('A' for Active; 'I' for Inactive)
ROOT
ATOM      1  C   UNL d   1      -0.183  -0.199   3.491  0.00  0.00     0.124 A 
ATOM      2  C1  UNL d   1      -0.489  -0.733   2.247  0.00  0.00     0.062 A 
ATOM      3  C2  UNL d   1      -1.765  -0.580   1.713  0.00  0.00     0.162 A 
ATOM      4  C3  UNL d   1      -2.746   0.113   2.422  0.00  0.00    -0.034 A 
ATOM      5  C4  UNL d   1      -2.432   0.647   3.673  0.00  0.00     0.162 A 
ATOM      6  C5  UNL d   1      -1.155   0.491   4.203  0.00  0.00     0.062 A 
ATOM      7  F   UNL d   1      -0.862   1.008   5.405  0.00  0.00    -0.097 F 
ATOM      8  F1  UNL d   1      -3.351   1.319   4.383  0.00  0.00    -0.096 F 
ATOM      9  I   UNL d   1      -4.655   0.345   1.628  0.00  0.00    -0.060 I 
ATOM     10  F2  UNL d   1      -2.032  -1.107   0.509  0.00  0.00    -0.096 F 
ATOM     11  F3  UNL d   1       0.448  -1.401   1.557  0.00  0.00    -0.097 F 
ATOM     12  F4  UNL d   1       1.045  -0.349   4.003  0.00  0.00    -0.092 F 
ENDROOT
TORSDOF 0
ENDMDL
