MODEL 1
REMARK minimizedAffinity 4.51917696
REMARK minimizedRMSD -1
REMARK  0 active torsions:
REMARK  status: ('A' for Active; 'I' for Inactive)
ROOT
ATOM      1  C   UNL d   1       0.192   0.413  -1.836  0.00  0.00     0.020 A 
ATOM      2  C1  UNL d   1      -0.616   1.347  -1.190  0.00  0.00     0.020 A 
ATOM      3  C2  UNL d   1      -0.551   1.485   0.198  0.00  0.00     0.034 A 
ATOM      4  C3  UNL d   1       0.324   0.688   0.944  0.00  0.00     0.017 A 
ATOM      5  C4  UNL d   1       1.136  -0.249   0.295  0.00  0.00     0.017 A 
ATOM      6  C5  UNL d   1       1.067  -0.384  -1.096  0.00  0.00     0.034 A 
ATOM      7 Cl   UNL d   1       2.241  -1.268   1.148  0.00  0.00    -0.070 Cl
ATOM      8 Cl1  UNL d   1       0.353   0.912   2.657  0.00  0.00    -0.070 Cl
ENDROOT
TORSDOF 0
ENDMDL
