MODEL 1
REMARK minimizedAffinity 7.38039446
REMARK minimizedRMSD -1
REMARK  0 active torsions:
REMARK  status: ('A' for Active; 'I' for Inactive)
ROOT
ATOM      1  C   UNL d   1      -1.221   1.546  -0.661  0.00  0.00     0.020 A 
ATOM      2  C1  UNL d   1      -0.585   1.004  -1.777  0.00  0.00     0.020 A 
ATOM      3  C2  UNL d   1       0.479   0.116  -1.612  0.00  0.00     0.034 A 
ATOM      4  C3  UNL d   1       0.912  -0.233  -0.327  0.00  0.00     0.017 A 
ATOM      5  C4  UNL d   1       0.273   0.311   0.793  0.00  0.00     0.017 A 
ATOM      6  C5  UNL d   1      -0.792   1.200   0.621  0.00  0.00     0.034 A 
ATOM      7 Cl   UNL d   1       0.751  -0.072   2.409  0.00  0.00    -0.070 Cl
ATOM      8 Cl1  UNL d   1       2.234  -1.338  -0.197  0.00  0.00    -0.070 Cl
ENDROOT
TORSDOF 0
ENDMDL
