MODEL 1
REMARK minimizedAffinity 6.34362364
REMARK minimizedRMSD -1
REMARK  0 active torsions:
REMARK  status: ('A' for Active; 'I' for Inactive)
ROOT
ATOM      1  C   UNL d   1      -5.993  -0.293   0.978  0.00  0.00     0.020 A 
ATOM      2  C1  UNL d   1      -5.996  -1.677   0.804  0.00  0.00     0.020 A 
ATOM      3  C2  UNL d   1      -5.997  -2.520   1.917  0.00  0.00     0.034 A 
ATOM      4  C3  UNL d   1      -5.995  -1.981   3.209  0.00  0.00     0.017 A 
ATOM      5  C4  UNL d   1      -5.992  -0.592   3.382  0.00  0.00     0.017 A 
ATOM      6  C5  UNL d   1      -5.992   0.248   2.264  0.00  0.00     0.034 A 
ATOM      7 Cl   UNL d   1      -5.990   0.147   4.944  0.00  0.00    -0.070 Cl
ATOM      8 Cl1  UNL d   1      -5.997  -3.083   4.540  0.00  0.00    -0.070 Cl
ENDROOT
TORSDOF 0
ENDMDL
