MODEL 1
REMARK minimizedAffinity -3.06657243
REMARK minimizedRMSD -1
REMARK  0 active torsions:
REMARK  status: ('A' for Active; 'I' for Inactive)
ROOT
ATOM      1  C   UNL d   1      -0.257   1.533  -1.553  0.00  0.00     0.020 A 
ATOM      2  C1  UNL d   1       0.214   0.225  -1.670  0.00  0.00     0.020 A 
ATOM      3  C2  UNL d   1       0.677  -0.454  -0.542  0.00  0.00     0.034 A 
ATOM      4  C3  UNL d   1       0.671   0.174   0.709  0.00  0.00     0.017 A 
ATOM      5  C4  UNL d   1       0.199   1.487   0.826  0.00  0.00     0.017 A 
ATOM      6  C5  UNL d   1      -0.264   2.162  -0.308  0.00  0.00     0.034 A 
ATOM      7 Cl   UNL d   1       0.161   2.327   2.335  0.00  0.00    -0.070 Cl
ATOM      8 Cl1  UNL d   1       1.259  -0.725   2.063  0.00  0.00    -0.070 Cl
ENDROOT
TORSDOF 0
ENDMDL
