MODEL 1
REMARK minimizedAffinity 7.74977827
REMARK minimizedRMSD -1
REMARK  0 active torsions:
REMARK  status: ('A' for Active; 'I' for Inactive)
ROOT
ATOM      1  C   UNL d   1      -0.687   1.542  -0.922  0.00  0.00     0.020 A 
ATOM      2  C1  UNL d   1      -1.015   2.271   0.221  0.00  0.00     0.020 A 
ATOM      3  C2  UNL d   1      -0.372   1.999   1.430  0.00  0.00     0.034 A 
ATOM      4  C3  UNL d   1       0.602   0.996   1.500  0.00  0.00     0.017 A 
ATOM      5  C4  UNL d   1       0.930   0.266   0.352  0.00  0.00     0.017 A 
ATOM      6  C5  UNL d   1       0.283   0.542  -0.856  0.00  0.00     0.034 A 
ATOM      7 Cl   UNL d   1       2.121  -0.987   0.360  0.00  0.00    -0.070 Cl
ATOM      8 Cl1  UNL d   1       1.357   0.714   3.028  0.00  0.00    -0.070 Cl
ENDROOT
TORSDOF 0
ENDMDL
