MODEL 1
REMARK minimizedAffinity 2.58654952
REMARK minimizedRMSD -1
REMARK  0 active torsions:
REMARK  status: ('A' for Active; 'I' for Inactive)
ROOT
ATOM      1  C   UNL d   1       0.329   1.067  -0.997  0.00  0.00     0.020 A 
ATOM      2  C1  UNL d   1      -0.765   0.234  -1.226  0.00  0.00     0.020 A 
ATOM      3  C2  UNL d   1      -1.055  -0.800  -0.333  0.00  0.00     0.034 A 
ATOM      4  C3  UNL d   1      -0.250  -1.003   0.793  0.00  0.00     0.017 A 
ATOM      5  C4  UNL d   1       0.848  -0.166   1.023  0.00  0.00     0.017 A 
ATOM      6  C5  UNL d   1       1.134   0.868   0.125  0.00  0.00     0.034 A 
ATOM      7 Cl   UNL d   1       1.888  -0.354   2.391  0.00  0.00    -0.070 Cl
ATOM      8 Cl1  UNL d   1      -0.666  -2.300   1.856  0.00  0.00    -0.070 Cl
ENDROOT
TORSDOF 0
ENDMDL
