MODEL 1
REMARK minimizedAffinity -1.12531972
REMARK minimizedRMSD -1
REMARK  0 active torsions:
REMARK  status: ('A' for Active; 'I' for Inactive)
ROOT
ATOM      1  C   UNL d   1      -0.066   2.025   2.266  0.00  0.00     0.020 A 
ATOM      2  C1  UNL d   1       0.157   3.397   2.164  0.00  0.00     0.020 A 
ATOM      3  C2  UNL d   1       0.197   4.007   0.908  0.00  0.00     0.034 A 
ATOM      4  C3  UNL d   1       0.014   3.243  -0.251  0.00  0.00     0.017 A 
ATOM      5  C4  UNL d   1      -0.210   1.866  -0.148  0.00  0.00     0.017 A 
ATOM      6  C5  UNL d   1      -0.249   1.261   1.112  0.00  0.00     0.034 A 
ATOM      7 Cl   UNL d   1      -0.445   0.858  -1.532  0.00  0.00    -0.070 Cl
ATOM      8 Cl1  UNL d   1       0.076   4.063  -1.771  0.00  0.00    -0.070 Cl
ENDROOT
TORSDOF 0
ENDMDL
