MODEL 1
REMARK minimizedAffinity 11.4255867
REMARK minimizedRMSD -1
REMARK  0 active torsions:
REMARK  status: ('A' for Active; 'I' for Inactive)
ROOT
ATOM      1  C   UNL d   1      -5.954  -0.684   5.326  0.00  0.00     0.020 A 
ATOM      2  C1  UNL d   1      -5.983  -2.077   5.288  0.00  0.00     0.020 A 
ATOM      3  C2  UNL d   1      -5.997  -2.743   4.061  0.00  0.00     0.034 A 
ATOM      4  C3  UNL d   1      -5.982  -2.015   2.865  0.00  0.00     0.017 A 
ATOM      5  C4  UNL d   1      -5.952  -0.616   2.904  0.00  0.00     0.017 A 
ATOM      6  C5  UNL d   1      -5.938   0.045   4.136  0.00  0.00     0.034 A 
ATOM      7 Cl   UNL d   1      -5.932   0.351   1.471  0.00  0.00    -0.070 Cl
ATOM      8 Cl1  UNL d   1      -6.000  -2.903   1.383  0.00  0.00    -0.070 Cl
ENDROOT
TORSDOF 0
ENDMDL
