MODEL 1
REMARK minimizedAffinity 2.35646105
REMARK minimizedRMSD -1
REMARK  0 active torsions:
REMARK  status: ('A' for Active; 'I' for Inactive)
ROOT
ATOM      1  C   UNL d   1       2.003  -0.654   1.521  0.00  0.00     0.020 A 
ATOM      2  C1  UNL d   1       2.140  -0.543   0.137  0.00  0.00     0.020 A 
ATOM      3  C2  UNL d   1       1.385   0.398  -0.565  0.00  0.00     0.034 A 
ATOM      4  C3  UNL d   1       0.490   1.233   0.114  0.00  0.00     0.017 A 
ATOM      5  C4  UNL d   1       0.354   1.121   1.503  0.00  0.00     0.017 A 
ATOM      6  C5  UNL d   1       1.113   0.177   2.202  0.00  0.00     0.034 A 
ATOM      7 Cl   UNL d   1      -0.728   2.116   2.411  0.00  0.00    -0.070 Cl
ATOM      8 Cl1  UNL d   1      -0.411   2.375  -0.818  0.00  0.00    -0.070 Cl
ENDROOT
TORSDOF 0
ENDMDL
