MODEL 1
REMARK minimizedAffinity 0.742508292
REMARK minimizedRMSD -1
REMARK  0 active torsions:
REMARK  status: ('A' for Active; 'I' for Inactive)
ROOT
ATOM      1  C   UNL d   1      -0.352   1.536  -0.776  0.00  0.00     0.020 A 
ATOM      2  C1  UNL d   1       0.114   0.229  -0.915  0.00  0.00     0.020 A 
ATOM      3  C2  UNL d   1       0.819  -0.376   0.128  0.00  0.00     0.034 A 
ATOM      4  C3  UNL d   1       1.060   0.327   1.314  0.00  0.00     0.017 A 
ATOM      5  C4  UNL d   1       0.593   1.638   1.453  0.00  0.00     0.017 A 
ATOM      6  C5  UNL d   1      -0.113   2.239   0.405  0.00  0.00     0.034 A 
ATOM      7 Cl   UNL d   1       0.852   2.569   2.886  0.00  0.00    -0.070 Cl
ATOM      8 Cl1  UNL d   1       1.938  -0.483   2.563  0.00  0.00    -0.070 Cl
ENDROOT
TORSDOF 0
ENDMDL
