MODEL 1
REMARK minimizedAffinity 13.1394081
REMARK minimizedRMSD -1
REMARK  1 active torsions:
REMARK  status: ('A' for Active; 'I' for Inactive)
REMARK    1  A    between atoms: C1_2  and  C2_3 
ROOT
ATOM      1  C2  UNL d   1       5.421  -2.967  -2.020  0.00  0.00    -0.073 A 
ATOM      2  C3  UNL d   1       5.998  -2.606  -3.243  0.00  0.00    -0.002 A 
ATOM      3  C4  UNL d   1       5.623  -3.258  -4.418  0.00  0.00     0.004 A 
ATOM      4  C5  UNL d   1       4.664  -4.270  -4.384  0.00  0.00    -0.004 A 
ATOM      5  C6  UNL d   1       4.067  -4.637  -3.174  0.00  0.00    -0.075 A 
ATOM      6  C7  UNL d   1       3.036  -5.725  -3.120  0.00  0.00     0.076 C 
ATOM      7  C8  UNL d   1       4.451  -3.979  -1.997  0.00  0.00     0.001 A 
ENDROOT
BRANCH   1   8
ATOM      8  C1  UNL d   1       5.818  -2.262  -0.748  0.00  0.00     0.053 C 
ATOM      9  C   UNL d   1       4.610  -1.872   0.088  0.00  0.00     0.018 C 
ENDBRANCH   1   8
TORSDOF 1
ENDMDL
