MODEL 1
REMARK minimizedAffinity 14.5364189
REMARK minimizedRMSD -1
REMARK  1 active torsions:
REMARK  status: ('A' for Active; 'I' for Inactive)
REMARK    1  A    between atoms: C1_2  and  C2_3 
ROOT
ATOM      1  C2  UNL d   1       5.290  -3.218   5.743  0.00  0.00    -0.073 A 
ATOM      2  C3  UNL d   1       5.957  -2.015   6.000  0.00  0.00    -0.002 A 
ATOM      3  C4  UNL d   1       5.323  -0.794   5.767  0.00  0.00     0.004 A 
ATOM      4  C5  UNL d   1       4.016  -0.763   5.282  0.00  0.00    -0.004 A 
ATOM      5  C6  UNL d   1       3.328  -1.954   5.031  0.00  0.00    -0.075 A 
ATOM      6  C7  UNL d   1       1.922  -1.938   4.508  0.00  0.00     0.076 C 
ATOM      7  C8  UNL d   1       3.972  -3.177   5.265  0.00  0.00     0.001 A 
ENDROOT
BRANCH   1   8
ATOM      8  C1  UNL d   1       5.967  -4.539   5.999  0.00  0.00     0.053 C 
ATOM      9  C   UNL d   1       5.793  -5.504   4.837  0.00  0.00     0.018 C 
ENDBRANCH   1   8
TORSDOF 1
ENDMDL
