MODEL 1
REMARK minimizedAffinity 11.9002485
REMARK minimizedRMSD -1
REMARK  1 active torsions:
REMARK  status: ('A' for Active; 'I' for Inactive)
REMARK    1  A    between atoms: C1_2  and  C2_3 
ROOT
ATOM      1  C2  UNL d   1       0.415   4.317   1.185  0.00  0.00    -0.073 A 
ATOM      2  C3  UNL d   1       1.656   4.943   1.028  0.00  0.00    -0.002 A 
ATOM      3  C4  UNL d   1       2.733   4.586   1.841  0.00  0.00     0.004 A 
ATOM      4  C5  UNL d   1       2.582   3.596   2.812  0.00  0.00    -0.004 A 
ATOM      5  C6  UNL d   1       1.352   2.951   2.976  0.00  0.00    -0.075 A 
ATOM      6  C7  UNL d   1       1.173   1.886   4.017  0.00  0.00     0.076 C 
ATOM      7  C8  UNL d   1       0.275   3.317   2.158  0.00  0.00     0.001 A 
ENDROOT
BRANCH   1   8
ATOM      8  C1  UNL d   1      -0.749   4.695   0.306  0.00  0.00     0.053 C 
ATOM      9  C   UNL d   1      -1.552   5.848   0.887  0.00  0.00     0.018 C 
ENDBRANCH   1   8
TORSDOF 1
ENDMDL
