MODEL 1
REMARK minimizedAffinity 11.6319323
REMARK minimizedRMSD -1
REMARK  1 active torsions:
REMARK  status: ('A' for Active; 'I' for Inactive)
REMARK    1  A    between atoms: C1_2  and  C2_3 
ROOT
ATOM      1  C2  UNL d   1       0.463   3.584   1.014  0.00  0.00    -0.073 A 
ATOM      2  C3  UNL d   1      -0.474   4.384   1.680  0.00  0.00    -0.002 A 
ATOM      3  C4  UNL d   1      -0.903   5.585   1.115  0.00  0.00     0.004 A 
ATOM      4  C5  UNL d   1      -0.407   5.996  -0.122  0.00  0.00    -0.004 A 
ATOM      5  C6  UNL d   1       0.520   5.205  -0.808  0.00  0.00    -0.075 A 
ATOM      6  C7  UNL d   1       1.065   5.634  -2.139  0.00  0.00     0.076 C 
ATOM      7  C8  UNL d   1       0.948   4.001  -0.233  0.00  0.00     0.001 A 
ENDROOT
BRANCH   1   8
ATOM      8  C1  UNL d   1       0.924   2.283   1.618  0.00  0.00     0.053 C 
ATOM      9  C   UNL d   1       0.549   2.171   3.087  0.00  0.00     0.018 C 
ENDBRANCH   1   8
TORSDOF 1
ENDMDL
