MODEL 1
REMARK minimizedAffinity 8.07009888
REMARK minimizedRMSD -1
REMARK  1 active torsions:
REMARK  status: ('A' for Active; 'I' for Inactive)
REMARK    1  A    between atoms: C1_2  and  C2_3 
ROOT
ATOM      1  C2  UNL d   1       3.520  -1.572  -0.931  0.00  0.00    -0.073 A 
ATOM      2  C3  UNL d   1       4.696  -1.954  -1.588  0.00  0.00    -0.002 A 
ATOM      3  C4  UNL d   1       5.472  -3.001  -1.090  0.00  0.00     0.004 A 
ATOM      4  C5  UNL d   1       5.078  -3.681   0.063  0.00  0.00    -0.004 A 
ATOM      5  C6  UNL d   1       3.901  -3.321   0.726  0.00  0.00    -0.075 A 
ATOM      6  C7  UNL d   1       3.465  -4.040   1.969  0.00  0.00     0.076 C 
ATOM      7  C8  UNL d   1       3.128  -2.267   0.222  0.00  0.00     0.001 A 
ENDROOT
BRANCH   1   8
ATOM      8  C1  UNL d   1       2.675  -0.446  -1.469  0.00  0.00     0.053 C 
ATOM      9  C   UNL d   1       1.216  -0.586  -1.066  0.00  0.00     0.018 C 
ENDBRANCH   1   8
TORSDOF 1
ENDMDL
