MODEL 1
REMARK minimizedAffinity 9.03771496
REMARK minimizedRMSD -1
REMARK  1 active torsions:
REMARK  status: ('A' for Active; 'I' for Inactive)
REMARK    1  A    between atoms: C1_2  and  C2_3 
ROOT
ATOM      1  C2  UNL d   1       0.968   4.593   0.413  0.00  0.00    -0.073 A 
ATOM      2  C3  UNL d   1       2.155   5.009   1.027  0.00  0.00    -0.002 A 
ATOM      3  C4  UNL d   1       2.536   4.476   2.259  0.00  0.00     0.004 A 
ATOM      4  C5  UNL d   1       1.738   3.519   2.887  0.00  0.00    -0.004 A 
ATOM      5  C6  UNL d   1       0.555   3.082   2.284  0.00  0.00    -0.075 A 
ATOM      6  C7  UNL d   1      -0.315   2.054   2.947  0.00  0.00     0.076 C 
ATOM      7  C8  UNL d   1       0.178   3.623   1.047  0.00  0.00     0.001 A 
ENDROOT
BRANCH   1   8
ATOM      8  C1  UNL d   1       0.556   5.160  -0.921  0.00  0.00     0.053 C 
ATOM      9  C   UNL d   1      -0.882   5.653  -0.911  0.00  0.00     0.018 C 
ENDBRANCH   1   8
TORSDOF 1
ENDMDL
