MODEL 1
REMARK minimizedAffinity 7.9434576
REMARK minimizedRMSD -1
REMARK  1 active torsions:
REMARK  status: ('A' for Active; 'I' for Inactive)
REMARK    1  A    between atoms: C1_2  and  C2_3 
ROOT
ATOM      1  C2  UNL d   1      -0.326   2.234   0.063  0.00  0.00    -0.073 A 
ATOM      2  C3  UNL d   1       0.391   2.426   1.249  0.00  0.00    -0.002 A 
ATOM      3  C4  UNL d   1       0.951   3.671   1.540  0.00  0.00     0.004 A 
ATOM      4  C5  UNL d   1       0.794   4.736   0.654  0.00  0.00    -0.004 A 
ATOM      5  C6  UNL d   1       0.070   4.567  -0.531  0.00  0.00    -0.075 A 
ATOM      6  C7  UNL d   1      -0.106   5.702  -1.496  0.00  0.00     0.076 C 
ATOM      7  C8  UNL d   1      -0.487   3.313  -0.818  0.00  0.00     0.001 A 
ENDROOT
BRANCH   1   8
ATOM      8  C1  UNL d   1      -0.938   0.894  -0.252  0.00  0.00     0.053 C 
ATOM      9  C   UNL d   1      -2.456   0.963  -0.325  0.00  0.00     0.018 C 
ENDBRANCH   1   8
TORSDOF 1
ENDMDL
