MODEL 1
REMARK minimizedAffinity -6.39723921
REMARK minimizedRMSD -1
REMARK  2 active torsions:
REMARK  status: ('A' for Active; 'I' for Inactive)
REMARK    1  A    between atoms: C2'_3  and  C1'_4 
REMARK    2  A    between atoms: C1'_4  and  C1_5 
ROOT
ATOM      1  C1  I4B d   1      -0.690  -0.052  -0.564  0.00  0.00    -0.075 A 
ATOM      2  C2  I4B d   1      -1.007  -0.891  -1.604  0.00  0.00     0.003 A 
ATOM      3  C3  I4B d   1      -1.689  -0.391  -2.740  0.00  0.00     0.002 A 
ATOM      4  C4  I4B d   1      -2.077   0.933  -2.773  0.00  0.00    -0.004 A 
ATOM      5  C5  I4B d   1      -1.734   1.786  -1.728  0.00  0.00     0.002 A 
ATOM      6  C6  I4B d   1      -1.026   1.294  -0.622  0.00  0.00     0.003 A 
ENDROOT
BRANCH   1   7
ATOM      7  C1' I4B d   1       0.001  -0.620   0.634  0.00  0.00     0.060 C 
BRANCH   7   8
ATOM      8  C2' I4B d   1       1.276  -1.290   0.164  0.00  0.00    -0.013 C 
ATOM      9  C4' I4B d   1       2.363  -0.278  -0.086  0.00  0.00     0.013 C 
ATOM     10  C3' I4B d   1       1.691  -2.282   1.210  0.00  0.00     0.013 C 
ENDBRANCH   7   8
ENDBRANCH   1   7
TORSDOF 2
ENDMDL
