MODEL 1
REMARK minimizedAffinity -5.28540468
REMARK minimizedRMSD -1
REMARK  2 active torsions:
REMARK  status: ('A' for Active; 'I' for Inactive)
REMARK    1  A    between atoms: C2'_3  and  C1'_4 
REMARK    2  A    between atoms: C1'_4  and  C1_5 
ROOT
ATOM      1  C1  I4B d   1       0.700  -0.669  -0.222  0.00  0.00    -0.075 A 
ATOM      2  C2  I4B d   1      -0.100  -1.769  -0.402  0.00  0.00     0.003 A 
ATOM      3  C3  I4B d   1       0.290  -3.027   0.118  0.00  0.00     0.002 A 
ATOM      4  C4  I4B d   1       1.503  -3.149   0.763  0.00  0.00    -0.004 A 
ATOM      5  C5  I4B d   1       2.303  -2.028   0.964  0.00  0.00     0.002 A 
ATOM      6  C6  I4B d   1       1.894  -0.777   0.480  0.00  0.00     0.003 A 
ENDROOT
BRANCH   1   7
ATOM      7  C1' I4B d   1       0.273   0.638  -0.813  0.00  0.00     0.060 C 
BRANCH   7   8
ATOM      8  C2' I4B d   1      -1.208   0.808  -0.547  0.00  0.00    -0.013 C 
ATOM      9  C4' I4B d   1      -1.471   1.102   0.906  0.00  0.00     0.013 C 
ATOM     10  C3' I4B d   1      -1.711   1.917  -1.424  0.00  0.00     0.013 C 
ENDBRANCH   7   8
ENDBRANCH   1   7
TORSDOF 2
ENDMDL
