MODEL 1
REMARK minimizedAffinity -2.00440073
REMARK minimizedRMSD -1
REMARK  2 active torsions:
REMARK  status: ('A' for Active; 'I' for Inactive)
REMARK    1  A    between atoms: C2'_3  and  C1'_4 
REMARK    2  A    between atoms: C1'_4  and  C1_5 
ROOT
ATOM      1  C1  I4B d   1       0.110   0.166   0.426  0.00  0.00    -0.075 A 
ATOM      2  C2  I4B d   1       1.449  -0.087   0.590  0.00  0.00     0.003 A 
ATOM      3  C3  I4B d   1       1.875  -1.181   1.382  0.00  0.00     0.002 A 
ATOM      4  C4  I4B d   1       0.936  -1.960   2.027  0.00  0.00    -0.004 A 
ATOM      5  C5  I4B d   1      -0.421  -1.715   1.841  0.00  0.00     0.002 A 
ATOM      6  C6  I4B d   1      -0.838  -0.653   1.025  0.00  0.00     0.003 A 
ENDROOT
BRANCH   1   7
ATOM      7  C1' I4B d   1      -0.304   1.350  -0.390  0.00  0.00     0.060 C 
BRANCH   7   8
ATOM      8  C2' I4B d   1      -0.991   0.838  -1.640  0.00  0.00    -0.013 C 
ATOM      9  C4' I4B d   1      -1.722   1.945  -2.352  0.00  0.00     0.013 C 
ATOM     10  C3' I4B d   1       0.053   0.222  -2.523  0.00  0.00     0.013 C 
ENDBRANCH   7   8
ENDBRANCH   1   7
TORSDOF 2
ENDMDL
