MODEL 1
REMARK minimizedAffinity -1.71853983
REMARK minimizedRMSD -1
REMARK  2 active torsions:
REMARK  status: ('A' for Active; 'I' for Inactive)
REMARK    1  A    between atoms: C2'_3  and  C1'_4 
REMARK    2  A    between atoms: C1'_4  and  C1_5 
ROOT
ATOM      1  C1  I4B d   1       0.341  -1.325  -0.146  0.00  0.00    -0.075 A 
ATOM      2  C2  I4B d   1       1.199  -2.253   0.389  0.00  0.00     0.003 A 
ATOM      3  C3  I4B d   1       0.910  -2.852   1.639  0.00  0.00     0.002 A 
ATOM      4  C4  I4B d   1      -0.213  -2.460   2.338  0.00  0.00    -0.004 A 
ATOM      5  C5  I4B d   1      -1.093  -1.536   1.783  0.00  0.00     0.002 A 
ATOM      6  C6  I4B d   1      -0.822  -0.974   0.527  0.00  0.00     0.003 A 
ENDROOT
BRANCH   1   7
ATOM      7  C1' I4B d   1       0.693  -0.688  -1.453  0.00  0.00     0.060 C 
BRANCH   7   8
ATOM      8  C2' I4B d   1       1.264   0.685  -1.164  0.00  0.00    -0.013 C 
ATOM      9  C4' I4B d   1       0.260   1.556  -0.456  0.00  0.00     0.013 C 
ATOM     10  C3' I4B d   1       2.503   0.506  -0.338  0.00  0.00     0.013 C 
ENDBRANCH   7   8
ENDBRANCH   1   7
TORSDOF 2
ENDMDL
