MODEL 1
REMARK minimizedAffinity -3.9754014
REMARK minimizedRMSD -1
REMARK  2 active torsions:
REMARK  status: ('A' for Active; 'I' for Inactive)
REMARK    1  A    between atoms: C2'_3  and  C1'_4 
REMARK    2  A    between atoms: C1'_4  and  C1_5 
ROOT
ATOM      1  C1  I4B d   1       0.126   0.312  -0.008  0.00  0.00    -0.075 A 
ATOM      2  C2  I4B d   1      -0.087  -0.987   0.379  0.00  0.00     0.003 A 
ATOM      3  C3  I4B d   1       1.011  -1.855   0.596  0.00  0.00     0.002 A 
ATOM      4  C4  I4B d   1       2.293  -1.400   0.367  0.00  0.00    -0.004 A 
ATOM      5  C5  I4B d   1       2.508  -0.076  -0.004  0.00  0.00     0.002 A 
ATOM      6  C6  I4B d   1       1.418   0.790  -0.181  0.00  0.00     0.003 A 
ENDROOT
BRANCH   1   7
ATOM      7  C1' I4B d   1      -1.057   1.192  -0.260  0.00  0.00     0.060 C 
BRANCH   7   8
ATOM      8  C2' I4B d   1      -1.177   1.396  -1.757  0.00  0.00    -0.013 C 
ATOM      9  C4' I4B d   1      -2.568   1.082  -2.241  0.00  0.00     0.013 C 
ATOM     10  C3' I4B d   1      -0.805   2.817  -2.061  0.00  0.00     0.013 C 
ENDBRANCH   7   8
ENDBRANCH   1   7
TORSDOF 2
ENDMDL
