MODEL 1
REMARK minimizedAffinity -5.55719328
REMARK minimizedRMSD -1
REMARK  2 active torsions:
REMARK  status: ('A' for Active; 'I' for Inactive)
REMARK    1  A    between atoms: C2'_3  and  C1'_4 
REMARK    2  A    between atoms: C1'_4  and  C1_5 
ROOT
ATOM      1  C1  I4B d   1       0.693  -0.652  -0.827  0.00  0.00    -0.075 A 
ATOM      2  C2  I4B d   1       1.934  -0.355  -0.321  0.00  0.00     0.003 A 
ATOM      3  C3  I4B d   1       2.556  -1.230   0.602  0.00  0.00     0.002 A 
ATOM      4  C4  I4B d   1       1.884  -2.358   1.027  0.00  0.00    -0.004 A 
ATOM      5  C5  I4B d   1       0.636  -2.670   0.496  0.00  0.00     0.002 A 
ATOM      6  C6  I4B d   1       0.042  -1.818  -0.447  0.00  0.00     0.003 A 
ENDROOT
BRANCH   1   7
ATOM      7  C1' I4B d   1       0.051   0.311  -1.775  0.00  0.00     0.060 C 
BRANCH   7   8
ATOM      8  C2' I4B d   1      -1.343   0.611  -1.263  0.00  0.00    -0.013 C 
ATOM      9  C4' I4B d   1      -1.307   1.092   0.164  0.00  0.00     0.013 C 
ATOM     10  C3' I4B d   1      -1.956   1.639  -2.166  0.00  0.00     0.013 C 
ENDBRANCH   7   8
ENDBRANCH   1   7
TORSDOF 2
ENDMDL
