MODEL 1
REMARK minimizedAffinity -2.00837445
REMARK minimizedRMSD -1
REMARK  2 active torsions:
REMARK  status: ('A' for Active; 'I' for Inactive)
REMARK    1  A    between atoms: C2'_3  and  C1'_4 
REMARK    2  A    between atoms: C1'_4  and  C1_5 
ROOT
ATOM      1  C1  I4B d   1       0.680  -0.128  -0.003  0.00  0.00    -0.075 A 
ATOM      2  C2  I4B d   1       0.177  -1.271   0.566  0.00  0.00     0.003 A 
ATOM      3  C3  I4B d   1       1.044  -2.196   1.195  0.00  0.00     0.002 A 
ATOM      4  C4  I4B d   1       2.405  -1.966   1.188  0.00  0.00    -0.004 A 
ATOM      5  C5  I4B d   1       2.912  -0.795   0.630  0.00  0.00     0.002 A 
ATOM      6  C6  I4B d   1       2.043   0.135   0.042  0.00  0.00     0.003 A 
ENDROOT
BRANCH   1   7
ATOM      7  C1' I4B d   1      -0.261   0.811  -0.688  0.00  0.00     0.060 C 
BRANCH   7   8
ATOM      8  C2' I4B d   1      -0.796   0.118  -1.924  0.00  0.00    -0.013 C 
ATOM      9  C4' I4B d   1      -1.885   0.928  -2.576  0.00  0.00     0.013 C 
ATOM     10  C3' I4B d   1       0.352  -0.103  -2.864  0.00  0.00     0.013 C 
ENDBRANCH   7   8
ENDBRANCH   1   7
TORSDOF 2
ENDMDL
