MODEL 1
REMARK minimizedAffinity -3.26974177
REMARK minimizedRMSD -1
REMARK  2 active torsions:
REMARK  status: ('A' for Active; 'I' for Inactive)
REMARK    1  A    between atoms: C2'_3  and  C1'_4 
REMARK    2  A    between atoms: C1'_4  and  C1_5 
ROOT
ATOM      1  C1  I4B d   1      -0.635   1.089  -0.318  0.00  0.00    -0.075 A 
ATOM      2  C2  I4B d   1      -1.257   0.681   0.835  0.00  0.00     0.003 A 
ATOM      3  C3  I4B d   1      -0.701  -0.363   1.614  0.00  0.00     0.002 A 
ATOM      4  C4  I4B d   1       0.443  -1.001   1.178  0.00  0.00    -0.004 A 
ATOM      5  C5  I4B d   1       1.084  -0.571   0.020  0.00  0.00     0.002 A 
ATOM      6  C6  I4B d   1       0.549   0.488  -0.727  0.00  0.00     0.003 A 
ENDROOT
BRANCH   1   7
ATOM      7  C1' I4B d   1      -1.267   2.172  -1.134  0.00  0.00     0.060 C 
BRANCH   7   8
ATOM      8  C2' I4B d   1      -1.903   1.530  -2.350  0.00  0.00    -0.013 C 
ATOM      9  C4' I4B d   1      -3.405   1.620  -2.292  0.00  0.00     0.013 C 
ATOM     10  C3' I4B d   1      -1.366   2.217  -3.570  0.00  0.00     0.013 C 
ENDBRANCH   7   8
ENDBRANCH   1   7
TORSDOF 2
ENDMDL
