MODEL 1
REMARK minimizedAffinity 0.578500211
REMARK minimizedRMSD -1
REMARK  2 active torsions:
REMARK  status: ('A' for Active; 'I' for Inactive)
REMARK    1  A    between atoms: C2'_3  and  C1'_4 
REMARK    2  A    between atoms: C1'_4  and  C1_5 
ROOT
ATOM      1  C1  I4B d   1       0.307  -0.225   0.622  0.00  0.00    -0.075 A 
ATOM      2  C2  I4B d   1      -0.338  -0.566  -0.541  0.00  0.00     0.003 A 
ATOM      3  C3  I4B d   1      -1.745  -0.445  -0.637  0.00  0.00     0.002 A 
ATOM      4  C4  I4B d   1      -2.469  -0.030   0.462  0.00  0.00    -0.004 A 
ATOM      5  C5  I4B d   1      -1.811   0.337   1.633  0.00  0.00     0.002 A 
ATOM      6  C6  I4B d   1      -0.413   0.251   1.709  0.00  0.00     0.003 A 
ENDROOT
BRANCH   1   7
ATOM      7  C1' I4B d   1       1.791  -0.396   0.700  0.00  0.00     0.060 C 
BRANCH   7   8
ATOM      8  C2' I4B d   1       2.109  -1.128   1.987  0.00  0.00    -0.013 C 
ATOM      9  C4' I4B d   1       1.806  -2.598   1.868  0.00  0.00     0.013 C 
ATOM     10  C3' I4B d   1       3.557  -0.898   2.305  0.00  0.00     0.013 C 
ENDBRANCH   7   8
ENDBRANCH   1   7
TORSDOF 2
ENDMDL
