MODEL 1
REMARK minimizedAffinity -2.81873345
REMARK minimizedRMSD -1
REMARK  2 active torsions:
REMARK  status: ('A' for Active; 'I' for Inactive)
REMARK    1  A    between atoms: C2'_3  and  C1'_4 
REMARK    2  A    between atoms: C1'_4  and  C1_5 
ROOT
ATOM      1  C1  I4B d   1      -0.031   0.413  -0.382  0.00  0.00    -0.075 A 
ATOM      2  C2  I4B d   1       1.252   0.819  -0.112  0.00  0.00     0.003 A 
ATOM      3  C3  I4B d   1       2.283  -0.137   0.055  0.00  0.00     0.002 A 
ATOM      4  C4  I4B d   1       1.979  -1.482  -0.008  0.00  0.00    -0.004 A 
ATOM      5  C5  I4B d   1       0.682  -1.892  -0.305  0.00  0.00     0.002 A 
ATOM      6  C6  I4B d   1      -0.327  -0.938  -0.506  0.00  0.00     0.003 A 
ENDROOT
BRANCH   1   7
ATOM      7  C1' I4B d   1      -1.101   1.449  -0.519  0.00  0.00     0.060 C 
BRANCH   7   8
ATOM      8  C2' I4B d   1      -1.691   1.329  -1.910  0.00  0.00    -0.013 C 
ATOM      9  C4' I4B d   1      -3.197   1.325  -1.864  0.00  0.00     0.013 C 
ATOM     10  C3' I4B d   1      -1.177   2.474  -2.731  0.00  0.00     0.013 C 
ENDBRANCH   7   8
ENDBRANCH   1   7
TORSDOF 2
ENDMDL
