MODEL 1
REMARK minimizedAffinity -3.78545141
REMARK minimizedRMSD -1
REMARK  2 active torsions:
REMARK  status: ('A' for Active; 'I' for Inactive)
REMARK    1  A    between atoms: C2'_3  and  C1'_4 
REMARK    2  A    between atoms: C1'_4  and  C1_5 
ROOT
ATOM      1  C1  I4B d   1      -0.176   0.024  -1.435  0.00  0.00    -0.075 A 
ATOM      2  C2  I4B d   1      -0.553   0.273  -2.731  0.00  0.00     0.003 A 
ATOM      3  C3  I4B d   1      -1.415   1.356  -3.028  0.00  0.00     0.002 A 
ATOM      4  C4  I4B d   1      -1.914   2.129  -1.999  0.00  0.00    -0.004 A 
ATOM      5  C5  I4B d   1      -1.513   1.890  -0.688  0.00  0.00     0.002 A 
ATOM      6  C6  I4B d   1      -0.629   0.839  -0.405  0.00  0.00     0.003 A 
ENDROOT
BRANCH   1   7
ATOM      7  C1' I4B d   1       0.709  -1.148  -1.154  0.00  0.00     0.060 C 
BRANCH   7   8
ATOM      8  C2' I4B d   1       1.408  -0.899   0.167  0.00  0.00    -0.013 C 
ATOM      9  C4' I4B d   1       1.440  -2.146   1.011  0.00  0.00     0.013 C 
ATOM     10  C3' I4B d   1       2.795  -0.410  -0.128  0.00  0.00     0.013 C 
ENDBRANCH   7   8
ENDBRANCH   1   7
TORSDOF 2
ENDMDL
