MODEL 1
REMARK minimizedAffinity -2.8070426
REMARK minimizedRMSD -1
REMARK  0 active torsions:
REMARK  status: ('A' for Active; 'I' for Inactive)
ROOT
ATOM      1  C   UNL d   1      -0.032   1.097   2.209  0.00  0.00     0.172 C 
ATOM      2  N   UNL d   1       0.460   0.898   0.866  0.00  0.00    -0.070 N 
ATOM      3  C1  UNL d   1       1.354  -0.065   0.478  0.00  0.00    -0.004 A 
ATOM      4  C2  UNL d   1       1.565   0.077  -0.876  0.00  0.00    -0.047 A 
ATOM      5  C3  UNL d   1       0.772   1.163  -1.317  0.00  0.00    -0.047 A 
ATOM      6  C4  UNL d   1       0.098   1.652  -0.218  0.00  0.00    -0.004 A 
ENDROOT
TORSDOF 0
ENDMDL
