MODEL 1
REMARK minimizedAffinity -1.1848489
REMARK minimizedRMSD -1
REMARK  0 active torsions:
REMARK  status: ('A' for Active; 'I' for Inactive)
ROOT
ATOM      1  C   UNL d   1       0.468   1.137   2.485  0.00  0.00     0.172 C 
ATOM      2  N   UNL d   1       0.718   0.562   1.184  0.00  0.00    -0.070 N 
ATOM      3  C1  UNL d   1       0.122   0.948   0.013  0.00  0.00    -0.004 A 
ATOM      4  C2  UNL d   1       0.628   0.159  -0.998  0.00  0.00    -0.047 A 
ATOM      5  C3  UNL d   1       1.559  -0.732  -0.414  0.00  0.00    -0.047 A 
ATOM      6  C4  UNL d   1       1.595  -0.461   0.938  0.00  0.00    -0.004 A 
ENDROOT
TORSDOF 0
ENDMDL
