MODEL 1
REMARK minimizedAffinity -2.9791193
REMARK minimizedRMSD -1
REMARK  0 active torsions:
REMARK  status: ('A' for Active; 'I' for Inactive)
ROOT
ATOM      1  C   UNL d   1      -6.000  -1.094   2.428  0.00  0.00     0.172 C 
ATOM      2  N   UNL d   1      -5.708  -1.513   3.778  0.00  0.00    -0.070 N 
ATOM      3  C1  UNL d   1      -5.384  -2.786   4.166  0.00  0.00    -0.004 A 
ATOM      4  C2  UNL d   1      -5.180  -2.772   5.529  0.00  0.00    -0.047 A 
ATOM      5  C3  UNL d   1      -5.389  -1.446   5.976  0.00  0.00    -0.047 A 
ATOM      6  C4  UNL d   1      -5.715  -0.687   4.871  0.00  0.00    -0.004 A 
ENDROOT
TORSDOF 0
ENDMDL
