MODEL 1
REMARK minimizedAffinity 0.746364355
REMARK minimizedRMSD -1
REMARK  0 active torsions:
REMARK  status: ('A' for Active; 'I' for Inactive)
ROOT
ATOM      1  C   UNL d   1       0.719   2.702   2.407  0.00  0.00     0.172 C 
ATOM      2  N   UNL d   1       0.921   1.336   1.986  0.00  0.00    -0.070 N 
ATOM      3  C1  UNL d   1       0.503   0.796   0.799  0.00  0.00    -0.004 A 
ATOM      4  C2  UNL d   1       0.889  -0.527   0.778  0.00  0.00    -0.047 A 
ATOM      5  C3  UNL d   1       1.560  -0.792   1.995  0.00  0.00    -0.047 A 
ATOM      6  C4  UNL d   1       1.566   0.379   2.724  0.00  0.00    -0.004 A 
ENDROOT
TORSDOF 0
ENDMDL
