MODEL 1
REMARK minimizedAffinity -3.24834847
REMARK minimizedRMSD -1
REMARK  0 active torsions:
REMARK  status: ('A' for Active; 'I' for Inactive)
ROOT
ATOM      1  C   UNL d   1       1.192  -0.205   1.822  0.00  0.00     0.172 C 
ATOM      2  N   UNL d   1       0.768   1.161   1.623  0.00  0.00    -0.070 N 
ATOM      3  C1  UNL d   1       0.777   2.146   2.573  0.00  0.00    -0.004 A 
ATOM      4  C2  UNL d   1       0.300   3.300   1.990  0.00  0.00    -0.047 A 
ATOM      5  C3  UNL d   1      -0.007   2.997   0.642  0.00  0.00    -0.047 A 
ATOM      6  C4  UNL d   1       0.292   1.666   0.442  0.00  0.00    -0.004 A 
ENDROOT
TORSDOF 0
ENDMDL
