MODEL 1
REMARK minimizedAffinity -0.766975582
REMARK minimizedRMSD -1
REMARK  0 active torsions:
REMARK  status: ('A' for Active; 'I' for Inactive)
ROOT
ATOM      1  C   UNL d   1       0.446   1.363   0.716  0.00  0.00     0.172 C 
ATOM      2  N   UNL d   1       0.756   2.773   0.755  0.00  0.00    -0.070 N 
ATOM      3  C1  UNL d   1       0.414   3.692  -0.201  0.00  0.00    -0.004 A 
ATOM      4  C2  UNL d   1       0.889   4.920   0.205  0.00  0.00    -0.047 A 
ATOM      5  C3  UNL d   1       1.540   4.732   1.447  0.00  0.00    -0.047 A 
ATOM      6  C4  UNL d   1       1.443   3.394   1.764  0.00  0.00    -0.004 A 
ENDROOT
TORSDOF 0
ENDMDL
