MODEL 1
REMARK minimizedAffinity -1.48508155
REMARK minimizedRMSD -1
REMARK  0 active torsions:
REMARK  status: ('A' for Active; 'I' for Inactive)
ROOT
ATOM      1  C   UNL d   1      -0.064   1.860   2.250  0.00  0.00     0.172 C 
ATOM      2  N   UNL d   1       0.306   0.943   1.198  0.00  0.00    -0.070 N 
ATOM      3  C1  UNL d   1      -0.195   0.946  -0.077  0.00  0.00    -0.004 A 
ATOM      4  C2  UNL d   1       0.409  -0.080  -0.770  0.00  0.00    -0.047 A 
ATOM      5  C3  UNL d   1       1.304  -0.723   0.118  0.00  0.00    -0.047 A 
ATOM      6  C4  UNL d   1       1.220  -0.069   1.329  0.00  0.00    -0.004 A 
ENDROOT
TORSDOF 0
ENDMDL
