MODEL 1
REMARK minimizedAffinity -2.93338227
REMARK minimizedRMSD -1
REMARK  0 active torsions:
REMARK  status: ('A' for Active; 'I' for Inactive)
ROOT
ATOM      1  C   UNL d   1       0.815   4.520   0.199  0.00  0.00     0.172 C 
ATOM      2  N   UNL d   1       0.630   3.235   0.832  0.00  0.00    -0.070 N 
ATOM      3  C1  UNL d   1       0.349   2.060   0.186  0.00  0.00    -0.004 A 
ATOM      4  C2  UNL d   1       0.249   1.069   1.139  0.00  0.00    -0.047 A 
ATOM      5  C3  UNL d   1       0.476   1.669   2.400  0.00  0.00    -0.047 A 
ATOM      6  C4  UNL d   1       0.709   3.010   2.181  0.00  0.00    -0.004 A 
ENDROOT
TORSDOF 0
ENDMDL
