MODEL 1
REMARK minimizedAffinity 0.800846398
REMARK minimizedRMSD -1
REMARK  0 active torsions:
REMARK  status: ('A' for Active; 'I' for Inactive)
ROOT
ATOM      1  C   UNL d   1      -2.204  -0.407  -2.646  0.00  0.00     0.172 C 
ATOM      2  N   UNL d   1      -2.349  -0.017  -1.263  0.00  0.00    -0.070 N 
ATOM      3  C1  UNL d   1      -3.536   0.173  -0.607  0.00  0.00    -0.004 A 
ATOM      4  C2  UNL d   1      -3.247   0.537   0.690  0.00  0.00    -0.047 A 
ATOM      5  C3  UNL d   1      -1.838   0.567   0.818  0.00  0.00    -0.047 A 
ATOM      6  C4  UNL d   1      -1.307   0.221  -0.406  0.00  0.00    -0.004 A 
ENDROOT
TORSDOF 0
ENDMDL
