MODEL 1
REMARK minimizedAffinity 13.6849842
REMARK minimizedRMSD -1
REMARK  0 active torsions:
REMARK  status: ('A' for Active; 'I' for Inactive)
ROOT
ATOM      1  C   UNL d   1       2.227  -5.963   2.496  0.00  0.00     0.023 A 
ATOM      2  C1  UNL d   1       2.005  -5.933   1.119  0.00  0.00     0.003 A 
ATOM      3  C2  UNL d   1       0.701  -5.938   0.621  0.00  0.00     0.048 A 
ATOM      4  C3  UNL d   1      -0.377  -5.971   1.505  0.00  0.00     0.023 A 
ATOM      5  C4  UNL d   1      -0.160  -6.000   2.883  0.00  0.00     0.048 A 
ATOM      6  C5  UNL d   1       1.146  -5.996   3.377  0.00  0.00     0.003 A 
ATOM      7  I   UNL d   1      -2.320  -5.978   0.765  0.00  0.00    -0.146 I 
ENDROOT
TORSDOF 0
ENDMDL
