MODEL 1
REMARK minimizedAffinity 4.73992348
REMARK minimizedRMSD -1
REMARK  0 active torsions:
REMARK  status: ('A' for Active; 'I' for Inactive)
ROOT
ATOM      1  C   UNL d   1      -0.739   1.522  -1.784  0.00  0.00     0.023 A 
ATOM      2  C1  UNL d   1      -1.927   0.791  -1.786  0.00  0.00     0.003 A 
ATOM      3  C2  UNL d   1      -2.534   0.445  -2.995  0.00  0.00     0.048 A 
ATOM      4  C3  UNL d   1      -1.947   0.832  -4.199  0.00  0.00     0.023 A 
ATOM      5  C4  UNL d   1      -0.758   1.563  -4.202  0.00  0.00     0.048 A 
ATOM      6  C5  UNL d   1      -0.155   1.907  -2.991  0.00  0.00     0.003 A 
ATOM      7  I   UNL d   1      -2.848   0.317  -6.000  0.00  0.00    -0.146 I 
ENDROOT
TORSDOF 0
ENDMDL
