MODEL 1
REMARK minimizedAffinity 12.5757093
REMARK minimizedRMSD -1
REMARK  0 active torsions:
REMARK  status: ('A' for Active; 'I' for Inactive)
ROOT
ATOM      1  C   UNL d   1      -1.629  -6.000   1.156  0.00  0.00     0.023 A 
ATOM      2  C1  UNL d   1      -0.731  -6.000   0.089  0.00  0.00     0.003 A 
ATOM      3  C2  UNL d   1       0.644  -5.997   0.333  0.00  0.00     0.048 A 
ATOM      4  C3  UNL d   1       1.114  -5.996   1.646  0.00  0.00     0.023 A 
ATOM      5  C4  UNL d   1       0.219  -5.997   2.717  0.00  0.00     0.048 A 
ATOM      6  C5  UNL d   1      -1.155  -5.999   2.468  0.00  0.00     0.003 A 
ATOM      7  I   UNL d   1       3.160  -5.993   2.011  0.00  0.00    -0.146 I 
ENDROOT
TORSDOF 0
ENDMDL
