MODEL 1
REMARK minimizedAffinity 8.97094536
REMARK minimizedRMSD -1
REMARK  0 active torsions:
REMARK  status: ('A' for Active; 'I' for Inactive)
ROOT
ATOM      1  C   UNL d   1      -5.766   1.189   5.998  0.00  0.00     0.023 A 
ATOM      2  C1  UNL d   1      -5.694  -0.200   5.888  0.00  0.00     0.003 A 
ATOM      3  C2  UNL d   1      -5.762  -0.807   4.632  0.00  0.00     0.048 A 
ATOM      4  C3  UNL d   1      -5.900  -0.019   3.490  0.00  0.00     0.023 A 
ATOM      5  C4  UNL d   1      -5.970   1.371   3.595  0.00  0.00     0.048 A 
ATOM      6  C5  UNL d   1      -5.904   1.973   4.853  0.00  0.00     0.003 A 
ATOM      7  I   UNL d   1      -6.000  -0.920   1.620  0.00  0.00    -0.146 I 
ENDROOT
TORSDOF 0
ENDMDL
