MODEL 1
REMARK minimizedAffinity 6.85027218
REMARK minimizedRMSD -1
REMARK  0 active torsions:
REMARK  status: ('A' for Active; 'I' for Inactive)
ROOT
ATOM      1  C   UNL d   1      -3.014   0.060  -3.477  0.00  0.00     0.023 A 
ATOM      2  C1  UNL d   1      -2.433   1.299  -3.209  0.00  0.00     0.003 A 
ATOM      3  C2  UNL d   1      -1.904   1.565  -1.944  0.00  0.00     0.048 A 
ATOM      4  C3  UNL d   1      -1.959   0.587  -0.952  0.00  0.00     0.023 A 
ATOM      5  C4  UNL d   1      -2.539  -0.655  -1.216  0.00  0.00     0.048 A 
ATOM      6  C5  UNL d   1      -3.067  -0.916  -2.482  0.00  0.00     0.003 A 
ATOM      7  I   UNL d   1      -1.173   0.980   0.931  0.00  0.00    -0.146 I 
ENDROOT
TORSDOF 0
ENDMDL
