MODEL 1
REMARK minimizedAffinity 6.85044718
REMARK minimizedRMSD -1
REMARK  0 active torsions:
REMARK  status: ('A' for Active; 'I' for Inactive)
ROOT
ATOM      1  C   UNL d   1      -5.740   0.065   1.445  0.00  0.00     0.023 A 
ATOM      2  C1  UNL d   1      -5.979  -0.803   2.511  0.00  0.00     0.003 A 
ATOM      3  C2  UNL d   1      -5.999  -0.314   3.819  0.00  0.00     0.048 A 
ATOM      4  C3  UNL d   1      -5.781   1.043   4.053  0.00  0.00     0.023 A 
ATOM      5  C4  UNL d   1      -5.543   1.915   2.989  0.00  0.00     0.048 A 
ATOM      6  C5  UNL d   1      -5.523   1.422   1.684  0.00  0.00     0.003 A 
ATOM      7  I   UNL d   1      -5.811   1.773   5.999  0.00  0.00    -0.146 I 
ENDROOT
TORSDOF 0
ENDMDL
