MODEL 1
REMARK minimizedAffinity 5.64143658
REMARK minimizedRMSD -1
REMARK  0 active torsions:
REMARK  status: ('A' for Active; 'I' for Inactive)
ROOT
ATOM      1  C   UNL d   1       3.017   1.016  -2.699  0.00  0.00     0.023 A 
ATOM      2  C1  UNL d   1       2.109   1.779  -1.964  0.00  0.00     0.003 A 
ATOM      3  C2  UNL d   1       1.675   3.012  -2.453  0.00  0.00     0.048 A 
ATOM      4  C3  UNL d   1       2.151   3.477  -3.679  0.00  0.00     0.023 A 
ATOM      5  C4  UNL d   1       3.059   2.716  -4.418  0.00  0.00     0.048 A 
ATOM      6  C5  UNL d   1       3.491   1.484  -3.924  0.00  0.00     0.003 A 
ATOM      7  I   UNL d   1       1.506   5.312  -4.409  0.00  0.00    -0.146 I 
ENDROOT
TORSDOF 0
ENDMDL
