MODEL 1
REMARK minimizedAffinity 1.25242341
REMARK minimizedRMSD -1
REMARK  0 active torsions:
REMARK  status: ('A' for Active; 'I' for Inactive)
ROOT
ATOM      1  C   UNL d   1       4.021  -1.265  -3.367  0.00  0.00     0.023 A 
ATOM      2  C1  UNL d   1       2.992  -1.826  -2.611  0.00  0.00     0.003 A 
ATOM      3  C2  UNL d   1       1.828  -1.095  -2.363  0.00  0.00     0.048 A 
ATOM      4  C3  UNL d   1       1.700   0.196  -2.876  0.00  0.00     0.023 A 
ATOM      5  C4  UNL d   1       2.727   0.760  -3.634  0.00  0.00     0.048 A 
ATOM      6  C5  UNL d   1       3.889   0.026  -3.878  0.00  0.00     0.003 A 
ATOM      7  I   UNL d   1      -0.032   1.285  -2.509  0.00  0.00    -0.146 I 
ENDROOT
TORSDOF 0
ENDMDL
