MODEL 1
REMARK minimizedAffinity 4.79738331
REMARK minimizedRMSD -1
REMARK  0 active torsions:
REMARK  status: ('A' for Active; 'I' for Inactive)
ROOT
ATOM      1  C   UNL d   1      -2.143   1.595  -3.220  0.00  0.00     0.023 A 
ATOM      2  C1  UNL d   1      -2.079   0.312  -3.765  0.00  0.00     0.003 A 
ATOM      3  C2  UNL d   1      -0.855  -0.357  -3.837  0.00  0.00     0.048 A 
ATOM      4  C3  UNL d   1       0.300   0.262  -3.361  0.00  0.00     0.023 A 
ATOM      5  C4  UNL d   1       0.241   1.544  -2.814  0.00  0.00     0.048 A 
ATOM      6  C5  UNL d   1      -0.984   2.210  -2.745  0.00  0.00     0.003 A 
ATOM      7  I   UNL d   1       2.122  -0.733  -3.466  0.00  0.00    -0.146 I 
ENDROOT
TORSDOF 0
ENDMDL
