MODEL 1
REMARK minimizedAffinity 11.5667925
REMARK minimizedRMSD -1
REMARK  0 active torsions:
REMARK  status: ('A' for Active; 'I' for Inactive)
ROOT
ATOM      1  C   UNL d   1      -4.611   1.545   1.129  0.00  0.00     0.023 A 
ATOM      2  C1  UNL d   1      -5.835   1.227   1.719  0.00  0.00     0.003 A 
ATOM      3  C2  UNL d   1      -6.000   1.356   3.100  0.00  0.00     0.048 A 
ATOM      4  C3  UNL d   1      -4.938   1.804   3.884  0.00  0.00     0.023 A 
ATOM      5  C4  UNL d   1      -3.712   2.124   3.298  0.00  0.00     0.048 A 
ATOM      6  C5  UNL d   1      -3.551   1.993   1.918  0.00  0.00     0.003 A 
ATOM      7  I   UNL d   1      -5.181   1.996   5.940  0.00  0.00    -0.146 I 
ENDROOT
TORSDOF 0
ENDMDL
