MODEL 1
REMARK minimizedAffinity 10.0841742
REMARK minimizedRMSD -1
REMARK  0 active torsions:
REMARK  status: ('A' for Active; 'I' for Inactive)
ROOT
ATOM      1  C   UNL d   1      -2.733   0.156  -4.819  0.00  0.00     0.023 A 
ATOM      2  C1  UNL d   1      -1.925  -0.516  -3.901  0.00  0.00     0.003 A 
ATOM      3  C2  UNL d   1      -0.954   0.183  -3.182  0.00  0.00     0.048 A 
ATOM      4  C3  UNL d   1      -0.796   1.554  -3.383  0.00  0.00     0.023 A 
ATOM      5  C4  UNL d   1      -1.603   2.230  -4.300  0.00  0.00     0.048 A 
ATOM      6  C5  UNL d   1      -2.572   1.527  -5.018  0.00  0.00     0.003 A 
ATOM      7  I   UNL d   1       0.648   2.596  -2.313  0.00  0.00    -0.146 I 
ENDROOT
TORSDOF 0
ENDMDL
