MODEL 1
REMARK minimizedAffinity -0.074547179
REMARK minimizedRMSD -1
REMARK  0 active torsions:
REMARK  status: ('A' for Active; 'I' for Inactive)
ROOT
ATOM      1  C   UNL d   1      -1.753   1.729  -3.285  0.00  0.00     0.023 A 
ATOM      2  C1  UNL d   1      -1.669   0.394  -3.682  0.00  0.00     0.003 A 
ATOM      3  C2  UNL d   1      -0.422  -0.226  -3.791  0.00  0.00     0.048 A 
ATOM      4  C3  UNL d   1       0.736   0.494  -3.500  0.00  0.00     0.023 A 
ATOM      5  C4  UNL d   1       0.657   1.829  -3.102  0.00  0.00     0.048 A 
ATOM      6  C5  UNL d   1      -0.592   2.445  -2.995  0.00  0.00     0.003 A 
ATOM      7  I   UNL d   1       2.592  -0.427  -3.661  0.00  0.00    -0.146 I 
ENDROOT
TORSDOF 0
ENDMDL
