MODEL 1
REMARK minimizedAffinity -2.09983826
REMARK minimizedRMSD -1
REMARK  0 active torsions:
REMARK  status: ('A' for Active; 'I' for Inactive)
ROOT
ATOM      1  C   UNL d   1       2.358   0.798  -2.594  0.00  0.00     0.023 A 
ATOM      2  C1  UNL d   1       1.329   1.722  -2.414  0.00  0.00     0.003 A 
ATOM      3  C2  UNL d   1       0.065   1.475  -2.954  0.00  0.00     0.048 A 
ATOM      4  C3  UNL d   1      -0.163   0.301  -3.672  0.00  0.00     0.023 A 
ATOM      5  C4  UNL d   1       0.864  -0.627  -3.854  0.00  0.00     0.048 A 
ATOM      6  C5  UNL d   1       2.126  -0.375  -3.313  0.00  0.00     0.003 A 
ATOM      7  I   UNL d   1      -2.043  -0.069  -4.476  0.00  0.00    -0.146 I 
ENDROOT
TORSDOF 0
ENDMDL
