MODEL 1
REMARK minimizedAffinity -1.94928551
REMARK minimizedRMSD -1
REMARK  0 active torsions:
REMARK  status: ('A' for Active; 'I' for Inactive)
ROOT
ATOM      1  C   UNL d   1       2.129   0.449  -2.250  0.00  0.00     0.023 A 
ATOM      2  C1  UNL d   1       1.140   1.430  -2.167  0.00  0.00     0.003 A 
ATOM      3  C2  UNL d   1      -0.035   1.303  -2.911  0.00  0.00     0.048 A 
ATOM      4  C3  UNL d   1      -0.215   0.192  -3.735  0.00  0.00     0.023 A 
ATOM      5  C4  UNL d   1       0.771  -0.791  -3.820  0.00  0.00     0.048 A 
ATOM      6  C5  UNL d   1       1.945  -0.660  -3.076  0.00  0.00     0.003 A 
ATOM      7  I   UNL d   1      -1.963   0.001  -4.843  0.00  0.00    -0.146 I 
ENDROOT
TORSDOF 0
ENDMDL
