MODEL 1
REMARK minimizedAffinity 8.02945042
REMARK minimizedRMSD -1
REMARK  0 active torsions:
REMARK  status: ('A' for Active; 'I' for Inactive)
ROOT
ATOM      1  C   UNL d   1       2.739   3.358  -4.769  0.00  0.00     0.023 A 
ATOM      2  C1  UNL d   1       3.769   2.445  -4.542  0.00  0.00     0.003 A 
ATOM      3  C2  UNL d   1       3.873   1.802  -3.307  0.00  0.00     0.048 A 
ATOM      4  C3  UNL d   1       2.944   2.075  -2.304  0.00  0.00     0.023 A 
ATOM      5  C4  UNL d   1       1.911   2.987  -2.527  0.00  0.00     0.048 A 
ATOM      6  C5  UNL d   1       1.811   3.629  -3.763  0.00  0.00     0.003 A 
ATOM      7  I   UNL d   1       3.097   1.118  -0.465  0.00  0.00    -0.146 I 
ENDROOT
TORSDOF 0
ENDMDL
