MODEL 1
REMARK minimizedAffinity 0.953419209
REMARK minimizedRMSD -1
REMARK  0 active torsions:
REMARK  status: ('A' for Active; 'I' for Inactive)
ROOT
ATOM      1  C   UNL d   1      -1.492   0.828  -4.304  0.00  0.00     0.023 A 
ATOM      2  C1  UNL d   1      -0.848  -0.270  -3.733  0.00  0.00     0.003 A 
ATOM      3  C2  UNL d   1       0.186  -0.075  -2.815  0.00  0.00     0.048 A 
ATOM      4  C3  UNL d   1       0.570   1.220  -2.471  0.00  0.00     0.023 A 
ATOM      5  C4  UNL d   1      -0.072   2.322  -3.039  0.00  0.00     0.048 A 
ATOM      6  C5  UNL d   1      -1.105   2.123  -3.957  0.00  0.00     0.003 A 
ATOM      7  I   UNL d   1       2.108   1.513  -1.104  0.00  0.00    -0.146 I 
ENDROOT
TORSDOF 0
ENDMDL
