MODEL 1
REMARK minimizedAffinity 1.13432574
REMARK minimizedRMSD -1
REMARK  0 active torsions:
REMARK  status: ('A' for Active; 'I' for Inactive)
ROOT
ATOM      1  C   UNL d   1      -4.435  -0.764   4.745  0.00  0.00     0.023 A 
ATOM      2  C1  UNL d   1      -5.498  -0.626   5.638  0.00  0.00     0.003 A 
ATOM      3  C2  UNL d   1      -5.948   0.645   6.000  0.00  0.00     0.048 A 
ATOM      4  C3  UNL d   1      -5.331   1.775   5.463  0.00  0.00     0.023 A 
ATOM      5  C4  UNL d   1      -4.268   1.643   4.569  0.00  0.00     0.048 A 
ATOM      6  C5  UNL d   1      -3.821   0.369   4.211  0.00  0.00     0.003 A 
ATOM      7  I   UNL d   1      -5.999   3.669   6.000  0.00  0.00    -0.146 I 
ENDROOT
TORSDOF 0
ENDMDL
