MODEL 1
REMARK minimizedAffinity 11.6518202
REMARK minimizedRMSD -1
REMARK  0 active torsions:
REMARK  status: ('A' for Active; 'I' for Inactive)
ROOT
ATOM      1  C   UNL d   1       2.365  -3.529   1.778  0.00  0.00     0.023 A 
ATOM      2  C1  UNL d   1       2.281  -4.549   0.830  0.00  0.00     0.003 A 
ATOM      3  C2  UNL d   1       1.052  -5.158   0.566  0.00  0.00     0.048 A 
ATOM      4  C3  UNL d   1      -0.088  -4.742   1.252  0.00  0.00     0.023 A 
ATOM      5  C4  UNL d   1      -0.008  -3.721   2.201  0.00  0.00     0.048 A 
ATOM      6  C5  UNL d   1       1.223  -3.116   2.462  0.00  0.00     0.003 A 
ATOM      7  I   UNL d   1      -1.917  -5.647   0.860  0.00  0.00    -0.146 I 
ENDROOT
TORSDOF 0
ENDMDL
