MODEL 1
REMARK minimizedAffinity -2.62453365
REMARK minimizedRMSD -1
REMARK  1 active torsions:
REMARK  status: ('A' for Active; 'I' for Inactive)
REMARK    1  A    between atoms: C1_2  and  C2_3 
ROOT
ATOM      1  C2  UNL d   1      -0.941  -0.398   0.935  0.00  0.00    -0.081 A 
ATOM      2  C3  UNL d   1      -0.701   0.230  -0.293  0.00  0.00     0.006 A 
ATOM      3  C4  UNL d   1       0.246   1.252  -0.392  0.00  0.00     0.002 A 
ATOM      4  C5  UNL d   1       0.974   1.658   0.732  0.00  0.00    -0.080 A 
ATOM      5  C6  UNL d   1       2.015   2.733   0.632  0.00  0.00     0.076 C 
ATOM      6  C7  UNL d   1       0.722   1.042   1.962  0.00  0.00     0.002 A 
ATOM      7  C8  UNL d   1      -0.225   0.020   2.063  0.00  0.00     0.006 A 
ENDROOT
BRANCH   1   8
ATOM      8  C1  UNL d   1      -1.915  -1.544   1.032  0.00  0.00     0.054 C 
ATOM      9  C   UNL d   1      -1.223  -2.821   1.490  0.00  0.00     0.018 C 
ENDBRANCH   1   8
TORSDOF 1
ENDMDL
