MODEL 1
REMARK minimizedAffinity -2.70544982
REMARK minimizedRMSD -1
REMARK  1 active torsions:
REMARK  status: ('A' for Active; 'I' for Inactive)
REMARK    1  A    between atoms: C1_2  and  C2_3 
ROOT
ATOM      1  C2  UNL d   1      -1.555   0.822   1.767  0.00  0.00    -0.081 A 
ATOM      2  C3  UNL d   1      -0.179   0.585   1.879  0.00  0.00     0.006 A 
ATOM      3  C4  UNL d   1       0.614   0.462   0.736  0.00  0.00     0.002 A 
ATOM      4  C5  UNL d   1       0.047   0.581  -0.537  0.00  0.00    -0.080 A 
ATOM      5  C6  UNL d   1       0.892   0.481  -1.772  0.00  0.00     0.076 C 
ATOM      6  C7  UNL d   1      -1.331   0.799  -0.650  0.00  0.00     0.002 A 
ATOM      7  C8  UNL d   1      -2.124   0.922   0.493  0.00  0.00     0.006 A 
ENDROOT
BRANCH   1   8
ATOM      8  C1  UNL d   1      -2.402   1.020   2.998  0.00  0.00     0.054 C 
ATOM      9  C   UNL d   1      -3.712   1.718   2.663  0.00  0.00     0.018 C 
ENDBRANCH   1   8
TORSDOF 1
ENDMDL
