MODEL 1
REMARK minimizedAffinity -2.48591805
REMARK minimizedRMSD -1
REMARK  1 active torsions:
REMARK  status: ('A' for Active; 'I' for Inactive)
REMARK    1  A    between atoms: C1_2  and  C2_3 
ROOT
ATOM      1  C2  UNL d   1       0.234   0.764  -0.857  0.00  0.00    -0.081 A 
ATOM      2  C3  UNL d   1       1.086   1.166   0.179  0.00  0.00     0.006 A 
ATOM      3  C4  UNL d   1       0.698   1.021   1.512  0.00  0.00     0.002 A 
ATOM      4  C5  UNL d   1      -0.545   0.465   1.833  0.00  0.00    -0.080 A 
ATOM      5  C6  UNL d   1      -0.962   0.275   3.261  0.00  0.00     0.076 C 
ATOM      6  C7  UNL d   1      -1.404   0.079   0.798  0.00  0.00     0.002 A 
ATOM      7  C8  UNL d   1      -1.017   0.225  -0.536  0.00  0.00     0.006 A 
ENDROOT
BRANCH   1   8
ATOM      8  C1  UNL d   1       0.676   0.860  -2.295  0.00  0.00     0.054 C 
ATOM      9  C   UNL d   1       1.273  -0.454  -2.778  0.00  0.00     0.018 C 
ENDBRANCH   1   8
TORSDOF 1
ENDMDL
