MODEL 1
REMARK minimizedAffinity -3.70971441
REMARK minimizedRMSD -1
REMARK  1 active torsions:
REMARK  status: ('A' for Active; 'I' for Inactive)
REMARK    1  A    between atoms: C1_2  and  C2_3 
ROOT
ATOM      1  C2  UNL d   1      -0.287   0.542   0.553  0.00  0.00    -0.081 A 
ATOM      2  C3  UNL d   1       0.361   0.675   1.787  0.00  0.00     0.006 A 
ATOM      3  C4  UNL d   1      -0.269   0.266   2.965  0.00  0.00     0.002 A 
ATOM      4  C5  UNL d   1      -1.552  -0.290   2.928  0.00  0.00    -0.080 A 
ATOM      5  C6  UNL d   1      -2.227  -0.761   4.182  0.00  0.00     0.076 C 
ATOM      6  C7  UNL d   1      -2.206  -0.407   1.697  0.00  0.00     0.002 A 
ATOM      7  C8  UNL d   1      -1.577   0.003   0.519  0.00  0.00     0.006 A 
ENDROOT
BRANCH   1   8
ATOM      8  C1  UNL d   1       0.415   0.922  -0.726  0.00  0.00     0.054 C 
ATOM      9  C   UNL d   1       0.453  -0.243  -1.704  0.00  0.00     0.018 C 
ENDBRANCH   1   8
TORSDOF 1
ENDMDL
