MODEL 1
REMARK minimizedAffinity -2.98879313
REMARK minimizedRMSD -1
REMARK  1 active torsions:
REMARK  status: ('A' for Active; 'I' for Inactive)
REMARK    1  A    between atoms: C1_2  and  C2_3 
ROOT
ATOM      1  C2  UNL d   1       0.332   0.155  -0.012  0.00  0.00    -0.081 A 
ATOM      2  C3  UNL d   1      -0.819  -0.641   0.014  0.00  0.00     0.006 A 
ATOM      3  C4  UNL d   1      -1.425  -0.969   1.229  0.00  0.00     0.002 A 
ATOM      4  C5  UNL d   1      -0.896  -0.500   2.436  0.00  0.00    -0.080 A 
ATOM      5  C6  UNL d   1      -1.554  -0.820   3.745  0.00  0.00     0.076 C 
ATOM      6  C7  UNL d   1       0.264   0.281   2.411  0.00  0.00     0.002 A 
ATOM      7  C8  UNL d   1       0.871   0.609   1.197  0.00  0.00     0.006 A 
ENDROOT
BRANCH   1   8
ATOM      8  C1  UNL d   1       0.951   0.564  -1.324  0.00  0.00     0.054 C 
ATOM      9  C   UNL d   1       1.822  -0.546  -1.895  0.00  0.00     0.018 C 
ENDBRANCH   1   8
TORSDOF 1
ENDMDL
