MODEL 1
REMARK minimizedAffinity -3.03034616
REMARK minimizedRMSD -1
REMARK  1 active torsions:
REMARK  status: ('A' for Active; 'I' for Inactive)
REMARK    1  A    between atoms: C1_2  and  C2_3 
ROOT
ATOM      1  C2  UNL d   1      -0.416   0.190  -0.174  0.00  0.00    -0.081 A 
ATOM      2  C3  UNL d   1      -1.776  -0.027   0.080  0.00  0.00     0.006 A 
ATOM      3  C4  UNL d   1      -2.230  -0.220   1.387  0.00  0.00     0.002 A 
ATOM      4  C5  UNL d   1      -1.335  -0.192   2.461  0.00  0.00    -0.080 A 
ATOM      5  C6  UNL d   1      -1.813  -0.368   3.872  0.00  0.00     0.076 C 
ATOM      6  C7  UNL d   1       0.026   0.007   2.206  0.00  0.00     0.002 A 
ATOM      7  C8  UNL d   1       0.481   0.200   0.899  0.00  0.00     0.006 A 
ENDROOT
BRANCH   1   8
ATOM      8  C1  UNL d   1       0.068   0.463  -1.575  0.00  0.00     0.054 C 
ATOM      9  C   UNL d   1       0.728  -0.766  -2.182  0.00  0.00     0.018 C 
ENDBRANCH   1   8
TORSDOF 1
ENDMDL
