MODEL 1
REMARK minimizedAffinity -2.92587948
REMARK minimizedRMSD -1
REMARK  1 active torsions:
REMARK  status: ('A' for Active; 'I' for Inactive)
REMARK    1  A    between atoms: C1_2  and  C2_3 
ROOT
ATOM      1  C2  UNL d   1       1.168   0.241  -1.234  0.00  0.00    -0.081 A 
ATOM      2  C3  UNL d   1       1.586  -0.100   0.058  0.00  0.00     0.006 A 
ATOM      3  C4  UNL d   1       0.649  -0.378   1.055  0.00  0.00     0.002 A 
ATOM      4  C5  UNL d   1      -0.721  -0.326   0.776  0.00  0.00    -0.080 A 
ATOM      5  C6  UNL d   1      -1.738  -0.651   1.830  0.00  0.00     0.076 C 
ATOM      6  C7  UNL d   1      -1.139   0.031  -0.510  0.00  0.00     0.002 A 
ATOM      7  C8  UNL d   1      -0.202   0.309  -1.508  0.00  0.00     0.006 A 
ENDROOT
BRANCH   1   8
ATOM      8  C1  UNL d   1       2.177   0.477  -2.329  0.00  0.00     0.054 C 
ATOM      9  C   UNL d   1       2.855  -0.820  -2.747  0.00  0.00     0.018 C 
ENDBRANCH   1   8
TORSDOF 1
ENDMDL
