MODEL 1
REMARK minimizedAffinity -2.46077704
REMARK minimizedRMSD -1
REMARK  1 active torsions:
REMARK  status: ('A' for Active; 'I' for Inactive)
REMARK    1  A    between atoms: C1_2  and  C2_3 
ROOT
ATOM      1  C2  UNL d   1      -0.006   0.359  -0.615  0.00  0.00    -0.081 A 
ATOM      2  C3  UNL d   1       1.001   0.242   0.352  0.00  0.00     0.006 A 
ATOM      3  C4  UNL d   1       0.677  -0.048   1.680  0.00  0.00     0.002 A 
ATOM      4  C5  UNL d   1      -0.657  -0.232   2.061  0.00  0.00    -0.080 A 
ATOM      5  C6  UNL d   1      -1.016  -0.573   3.477  0.00  0.00     0.076 C 
ATOM      6  C7  UNL d   1      -1.663  -0.097   1.099  0.00  0.00     0.002 A 
ATOM      7  C8  UNL d   1      -1.340   0.193  -0.229  0.00  0.00     0.006 A 
ENDROOT
BRANCH   1   8
ATOM      8  C1  UNL d   1       0.345   0.608  -2.060  0.00  0.00     0.054 C 
ATOM      9  C   UNL d   1       1.445  -0.333  -2.532  0.00  0.00     0.018 C 
ENDBRANCH   1   8
TORSDOF 1
ENDMDL
