MODEL 1
REMARK minimizedAffinity 9.22591019
REMARK minimizedRMSD -1
REMARK  0 active torsions:
REMARK  status: ('A' for Active; 'I' for Inactive)
ROOT
ATOM      1  C2' OXE d   1      -2.225   0.929   0.201  0.00  0.00     0.078 C 
ATOM      2  C1' OXE d   1       0.244  -0.043   1.117  0.00  0.00     0.078 C 
ATOM      3  C1  OXE d   1      -0.983  -0.356   1.936  0.00  0.00    -0.078 A 
ATOM      4  C2  OXE d   1      -2.180   0.163   1.506  0.00  0.00    -0.078 A 
ATOM      5  C3  OXE d   1      -3.351  -0.141   2.195  0.00  0.00     0.003 A 
ATOM      6  C4  OXE d   1      -3.299  -0.841   3.406  0.00  0.00    -0.002 A 
ATOM      7  C5  OXE d   1      -2.085  -1.345   3.883  0.00  0.00    -0.002 A 
ATOM      8  C6  OXE d   1      -0.926  -1.148   3.140  0.00  0.00     0.003 A 
ENDROOT
TORSDOF 0
ENDMDL
