MODEL 1
REMARK minimizedAffinity 2.89775157
REMARK minimizedRMSD -1
REMARK  0 active torsions:
REMARK  status: ('A' for Active; 'I' for Inactive)
ROOT
ATOM      1  C2' OXE d   1      -1.445  -0.221  -1.244  0.00  0.00     0.078 C 
ATOM      2  C1' OXE d   1       0.174   0.969  -3.204  0.00  0.00     0.078 C 
ATOM      3  C1  OXE d   1       0.716   0.886  -1.799  0.00  0.00    -0.078 A 
ATOM      4  C2  OXE d   1      -0.101   0.345  -0.837  0.00  0.00    -0.078 A 
ATOM      5  C3  OXE d   1       0.370   0.195   0.464  0.00  0.00     0.003 A 
ATOM      6  C4  OXE d   1       1.610   0.730   0.835  0.00  0.00    -0.002 A 
ATOM      7  C5  OXE d   1       2.442   1.321  -0.122  0.00  0.00    -0.002 A 
ATOM      8  C6  OXE d   1       2.029   1.369  -1.448  0.00  0.00     0.003 A 
ENDROOT
TORSDOF 0
ENDMDL
