MODEL 1
REMARK minimizedAffinity 3.41137505
REMARK minimizedRMSD -1
REMARK  0 active torsions:
REMARK  status: ('A' for Active; 'I' for Inactive)
ROOT
ATOM      1  C2' OXE d   1      -2.142   0.767   2.330  0.00  0.00     0.078 C 
ATOM      2  C1' OXE d   1       0.138  -0.441   1.224  0.00  0.00     0.078 C 
ATOM      3  C1  OXE d   1      -1.134  -0.466   0.414  0.00  0.00    -0.078 A 
ATOM      4  C2  OXE d   1      -2.257   0.086   0.982  0.00  0.00    -0.078 A 
ATOM      5  C3  OXE d   1      -3.443   0.139   0.256  0.00  0.00     0.003 A 
ATOM      6  C4  OXE d   1      -3.542  -0.501  -0.985  0.00  0.00    -0.002 A 
ATOM      7  C5  OXE d   1      -2.421  -1.104  -1.565  0.00  0.00    -0.002 A 
ATOM      8  C6  OXE d   1      -1.202  -1.058  -0.899  0.00  0.00     0.003 A 
ENDROOT
TORSDOF 0
ENDMDL
