MODEL 1
REMARK minimizedAffinity 7.77116966
REMARK minimizedRMSD -1
REMARK  0 active torsions:
REMARK  status: ('A' for Active; 'I' for Inactive)
ROOT
ATOM      1  C2' OXE d   1       3.436   3.647   1.788  0.00  0.00     0.078 C 
ATOM      2  C1' OXE d   1       4.646   2.749  -0.580  0.00  0.00     0.078 C 
ATOM      3  C1  OXE d   1       3.378   2.064  -0.135  0.00  0.00    -0.078 A 
ATOM      4  C2  OXE d   1       2.818   2.479   1.050  0.00  0.00    -0.078 A 
ATOM      5  C3  OXE d   1       1.619   1.918   1.479  0.00  0.00     0.003 A 
ATOM      6  C4  OXE d   1       1.059   0.832   0.795  0.00  0.00    -0.002 A 
ATOM      7  C5  OXE d   1       1.635   0.367  -0.392  0.00  0.00    -0.002 A 
ATOM      8  C6  OXE d   1       2.768   0.999  -0.892  0.00  0.00     0.003 A 
ENDROOT
TORSDOF 0
ENDMDL
