MODEL 1
REMARK minimizedAffinity 5.07019186
REMARK minimizedRMSD -1
REMARK  0 active torsions:
REMARK  status: ('A' for Active; 'I' for Inactive)
ROOT
ATOM      1  C2' OXE d   1       1.311  -0.169   0.288  0.00  0.00     0.078 C 
ATOM      2  C1' OXE d   1      -0.679  -0.966  -1.525  0.00  0.00     0.078 C 
ATOM      3  C1  OXE d   1      -1.119  -0.303  -0.244  0.00  0.00    -0.078 A 
ATOM      4  C2  OXE d   1      -0.142   0.041   0.658  0.00  0.00    -0.078 A 
ATOM      5  C3  OXE d   1      -0.490   0.706   1.831  0.00  0.00     0.003 A 
ATOM      6  C4  OXE d   1      -1.836   0.888   2.170  0.00  0.00    -0.002 A 
ATOM      7  C5  OXE d   1      -2.849   0.508   1.283  0.00  0.00    -0.002 A 
ATOM      8  C6  OXE d   1      -2.507  -0.049   0.056  0.00  0.00     0.003 A 
ENDROOT
TORSDOF 0
ENDMDL
