MODEL 1
REMARK minimizedAffinity 5.47715187
REMARK minimizedRMSD -1
REMARK  0 active torsions:
REMARK  status: ('A' for Active; 'I' for Inactive)
ROOT
ATOM      1  C2' OXE d   1       0.644  -0.086   0.836  0.00  0.00     0.078 C 
ATOM      2  C1' OXE d   1      -1.956   0.670   0.097  0.00  0.00     0.078 C 
ATOM      3  C1  OXE d   1      -1.766   0.038   1.453  0.00  0.00    -0.078 A 
ATOM      4  C2  OXE d   1      -0.498  -0.371   1.788  0.00  0.00    -0.078 A 
ATOM      5  C3  OXE d   1      -0.257  -0.910   3.048  0.00  0.00     0.003 A 
ATOM      6  C4  OXE d   1      -1.321  -1.180   3.918  0.00  0.00    -0.002 A 
ATOM      7  C5  OXE d   1      -2.626  -0.807   3.581  0.00  0.00    -0.002 A 
ATOM      8  C6  OXE d   1      -2.859  -0.159   2.373  0.00  0.00     0.003 A 
ENDROOT
TORSDOF 0
ENDMDL
