MODEL 1
REMARK minimizedAffinity 8.21882248
REMARK minimizedRMSD -1
REMARK  0 active torsions:
REMARK  status: ('A' for Active; 'I' for Inactive)
ROOT
ATOM      1  C2' OXE d   1      -0.876   0.877   1.652  0.00  0.00     0.078 C 
ATOM      2  C1' OXE d   1       0.334  -0.697   3.637  0.00  0.00     0.078 C 
ATOM      3  C1  OXE d   1      -1.150  -0.856   3.420  0.00  0.00    -0.078 A 
ATOM      4  C2  OXE d   1      -1.742  -0.049   2.478  0.00  0.00    -0.078 A 
ATOM      5  C3  OXE d   1      -3.098  -0.194   2.199  0.00  0.00     0.003 A 
ATOM      6  C4  OXE d   1      -3.894  -1.046   2.975  0.00  0.00    -0.002 A 
ATOM      7  C5  OXE d   1      -3.318  -1.848   3.966  0.00  0.00    -0.002 A 
ATOM      8  C6  OXE d   1      -1.944  -1.797   4.172  0.00  0.00     0.003 A 
ENDROOT
TORSDOF 0
ENDMDL
