MODEL 1
REMARK minimizedAffinity 11.0056744
REMARK minimizedRMSD -1
REMARK  0 active torsions:
REMARK  status: ('A' for Active; 'I' for Inactive)
ROOT
ATOM      1  C2' OXE d   1      -1.251   1.462   2.465  0.00  0.00     0.078 C 
ATOM      2  C1' OXE d   1       0.963   0.561   0.993  0.00  0.00     0.078 C 
ATOM      3  C1  OXE d   1      -0.410   0.322   0.416  0.00  0.00    -0.078 A 
ATOM      4  C2  OXE d   1      -1.490   0.724   1.165  0.00  0.00    -0.078 A 
ATOM      5  C3  OXE d   1      -2.776   0.578   0.654  0.00  0.00     0.003 A 
ATOM      6  C4  OXE d   1      -2.988  -0.114  -0.545  0.00  0.00    -0.002 A 
ATOM      7  C5  OXE d   1      -1.905  -0.568  -1.304  0.00  0.00    -0.002 A 
ATOM      8  C6  OXE d   1      -0.610  -0.320  -0.860  0.00  0.00     0.003 A 
ENDROOT
TORSDOF 0
ENDMDL
