MODEL 1
REMARK minimizedAffinity 11.8628817
REMARK minimizedRMSD -1
REMARK  0 active torsions:
REMARK  status: ('A' for Active; 'I' for Inactive)
ROOT
ATOM      1  C2' OXE d   1       2.766   4.676   0.658  0.00  0.00     0.078 C 
ATOM      2  C1' OXE d   1       2.983   1.921   0.165  0.00  0.00     0.078 C 
ATOM      3  C1  OXE d   1       3.539   2.449   1.464  0.00  0.00    -0.078 A 
ATOM      4  C2  OXE d   1       3.470   3.805   1.676  0.00  0.00    -0.078 A 
ATOM      5  C3  OXE d   1       3.919   4.337   2.881  0.00  0.00     0.003 A 
ATOM      6  C4  OXE d   1       4.578   3.526   3.813  0.00  0.00    -0.002 A 
ATOM      7  C5  OXE d   1       4.694   2.149   3.599  0.00  0.00    -0.002 A 
ATOM      8  C6  OXE d   1       4.143   1.589   2.451  0.00  0.00     0.003 A 
ENDROOT
TORSDOF 0
ENDMDL
