MODEL 1
REMARK minimizedAffinity 1.26371777
REMARK minimizedRMSD -1
REMARK  0 active torsions:
REMARK  status: ('A' for Active; 'I' for Inactive)
ROOT
ATOM      1  C2' OXE d   1       0.761  -1.025   3.557  0.00  0.00     0.078 C 
ATOM      2  C1' OXE d   1       1.160  -0.571   0.816  0.00  0.00     0.078 C 
ATOM      3  C1  OXE d   1      -0.163  -0.159   1.411  0.00  0.00    -0.078 A 
ATOM      4  C2  OXE d   1      -0.367  -0.428   2.744  0.00  0.00    -0.078 A 
ATOM      5  C3  OXE d   1      -1.549  -0.019   3.356  0.00  0.00     0.003 A 
ATOM      6  C4  OXE d   1      -2.591   0.523   2.594  0.00  0.00    -0.002 A 
ATOM      7  C5  OXE d   1      -2.419   0.769   1.228  0.00  0.00    -0.002 A 
ATOM      8  C6  OXE d   1      -1.198   0.473   0.631  0.00  0.00     0.003 A 
ENDROOT
TORSDOF 0
ENDMDL
