MODEL 1
REMARK minimizedAffinity -0.345727772
REMARK minimizedRMSD -1
REMARK  0 active torsions:
REMARK  status: ('A' for Active; 'I' for Inactive)
ROOT
ATOM      1  C2' OXE d   1      -2.119  -0.720   2.982  0.00  0.00     0.078 C 
ATOM      2  C1' OXE d   1       0.012  -0.360   1.190  0.00  0.00     0.078 C 
ATOM      3  C1  OXE d   1       0.326  -0.930   2.551  0.00  0.00    -0.078 A 
ATOM      4  C2  OXE d   1      -0.716  -1.059   3.438  0.00  0.00    -0.078 A 
ATOM      5  C3  OXE d   1      -0.491  -1.629   4.688  0.00  0.00     0.003 A 
ATOM      6  C4  OXE d   1       0.811  -1.930   5.105  0.00  0.00    -0.002 A 
ATOM      7  C5  OXE d   1       1.892  -1.769   4.232  0.00  0.00    -0.002 A 
ATOM      8  C6  OXE d   1       1.661  -1.311   2.939  0.00  0.00     0.003 A 
ENDROOT
TORSDOF 0
ENDMDL
