MODEL 1
REMARK minimizedAffinity -2.97066879
REMARK minimizedRMSD -1
REMARK  1 active torsions:
REMARK  status: ('A' for Active; 'I' for Inactive)
REMARK    1  A    between atoms: C1_2  and  C2_3 
ROOT
ATOM      1  C2  UNL d   1      -0.653   0.602   0.805  0.00  0.00    -0.077 A 
ATOM      2  C3  UNL d   1      -1.496   0.209  -0.244  0.00  0.00     0.002 A 
ATOM      3  C4  UNL d   1      -0.981  -0.477  -1.345  0.00  0.00     0.002 A 
ATOM      4  C5  UNL d   1       0.378  -0.781  -1.406  0.00  0.00    -0.004 A 
ATOM      5  C6  UNL d   1       1.225  -0.393  -0.368  0.00  0.00     0.002 A 
ATOM      6  C7  UNL d   1       0.712   0.294   0.732  0.00  0.00     0.002 A 
ENDROOT
BRANCH   1   7
ATOM      7  C1  UNL d   1      -1.215   1.299   2.017  0.00  0.00     0.055 C 
ATOM      8  C   UNL d   1      -0.315   1.113   3.230  0.00  0.00     0.019 C 
ENDBRANCH   1   7
TORSDOF 1
ENDMDL
