MODEL 1
REMARK minimizedAffinity -4.52409649
REMARK minimizedRMSD -1
REMARK  1 active torsions:
REMARK  status: ('A' for Active; 'I' for Inactive)
REMARK    1  A    between atoms: C1_2  and  C2_3 
ROOT
ATOM      1  C2  UNL d   1       0.889   0.169   0.986  0.00  0.00    -0.077 A 
ATOM      2  C3  UNL d   1       1.595   0.230   2.195  0.00  0.00     0.002 A 
ATOM      3  C4  UNL d   1       0.986   0.743   3.343  0.00  0.00     0.002 A 
ATOM      4  C5  UNL d   1      -0.331   1.193   3.293  0.00  0.00    -0.004 A 
ATOM      5  C6  UNL d   1      -1.041   1.138   2.094  0.00  0.00     0.002 A 
ATOM      6  C7  UNL d   1      -0.434   0.627   0.946  0.00  0.00     0.002 A 
ENDROOT
BRANCH   1   7
ATOM      7  C1  UNL d   1       1.527  -0.429  -0.241  0.00  0.00     0.055 C 
ATOM      8  C   UNL d   1       0.484  -0.776  -1.294  0.00  0.00     0.019 C 
ENDBRANCH   1   7
TORSDOF 1
ENDMDL
