MODEL 1
REMARK minimizedAffinity -5.468081
REMARK minimizedRMSD -1
REMARK  1 active torsions:
REMARK  status: ('A' for Active; 'I' for Inactive)
REMARK    1  A    between atoms: C1_2  and  C2_3 
ROOT
ATOM      1  C2  UNL d   1      -0.050  -0.019   0.072  0.00  0.00    -0.077 A 
ATOM      2  C3  UNL d   1       0.806   0.845   0.769  0.00  0.00     0.002 A 
ATOM      3  C4  UNL d   1       0.324   1.610   1.833  0.00  0.00     0.002 A 
ATOM      4  C5  UNL d   1      -1.014   1.516   2.211  0.00  0.00    -0.004 A 
ATOM      5  C6  UNL d   1      -1.874   0.661   1.523  0.00  0.00     0.002 A 
ATOM      6  C7  UNL d   1      -1.394  -0.104   0.458  0.00  0.00     0.002 A 
ENDROOT
BRANCH   1   7
ATOM      7  C1  UNL d   1       0.479  -0.881  -1.044  0.00  0.00     0.055 C 
ATOM      8  C   UNL d   1       0.670  -0.078  -2.322  0.00  0.00     0.019 C 
ENDBRANCH   1   7
TORSDOF 1
ENDMDL
