MODEL 1
REMARK minimizedAffinity -5.80362654
REMARK minimizedRMSD -1
REMARK  1 active torsions:
REMARK  status: ('A' for Active; 'I' for Inactive)
REMARK    1  A    between atoms: C1_2  and  C2_3 
ROOT
ATOM      1  C2  UNL d   1      -0.384   0.730   1.205  0.00  0.00    -0.077 A 
ATOM      2  C3  UNL d   1      -1.458   0.414   0.361  0.00  0.00     0.002 A 
ATOM      3  C4  UNL d   1      -1.236  -0.244  -0.850  0.00  0.00     0.002 A 
ATOM      4  C5  UNL d   1       0.059  -0.595  -1.226  0.00  0.00    -0.004 A 
ATOM      5  C6  UNL d   1       1.134  -0.283  -0.395  0.00  0.00     0.002 A 
ATOM      6  C7  UNL d   1       0.914   0.376   0.815  0.00  0.00     0.002 A 
ENDROOT
BRANCH   1   7
ATOM      7  C1  UNL d   1      -0.627   1.396   2.534  0.00  0.00     0.055 C 
ATOM      8  C   UNL d   1      -1.460   0.512   3.451  0.00  0.00     0.019 C 
ENDBRANCH   1   7
TORSDOF 1
ENDMDL
