MODEL 1
REMARK minimizedAffinity -4.49678898
REMARK minimizedRMSD -1
REMARK  1 active torsions:
REMARK  status: ('A' for Active; 'I' for Inactive)
REMARK    1  A    between atoms: C1_2  and  C2_3 
ROOT
ATOM      1  C2  UNL d   1       0.047  -0.074  -0.703  0.00  0.00    -0.077 A 
ATOM      2  C3  UNL d   1      -1.161   0.523  -0.316  0.00  0.00     0.002 A 
ATOM      3  C4  UNL d   1      -1.410   0.805   1.028  0.00  0.00     0.002 A 
ATOM      4  C5  UNL d   1      -0.455   0.498   1.995  0.00  0.00    -0.004 A 
ATOM      5  C6  UNL d   1       0.749  -0.097   1.621  0.00  0.00     0.002 A 
ATOM      6  C7  UNL d   1       0.999  -0.381   0.277  0.00  0.00     0.002 A 
ENDROOT
BRANCH   1   7
ATOM      7  C1  UNL d   1       0.338  -0.335  -2.158  0.00  0.00     0.055 C 
ATOM      8  C   UNL d   1       1.154   0.795  -2.770  0.00  0.00     0.019 C 
ENDBRANCH   1   7
TORSDOF 1
ENDMDL
