MODEL 1
REMARK minimizedAffinity -5.33564854
REMARK minimizedRMSD -1
REMARK  1 active torsions:
REMARK  status: ('A' for Active; 'I' for Inactive)
REMARK    1  A    between atoms: C1_2  and  C2_3 
ROOT
ATOM      1  C2  UNL d   1       0.101   0.046  -0.024  0.00  0.00    -0.077 A 
ATOM      2  C3  UNL d   1       0.865   0.681   0.965  0.00  0.00     0.002 A 
ATOM      3  C4  UNL d   1       0.239   1.349   2.020  0.00  0.00     0.002 A 
ATOM      4  C5  UNL d   1      -1.151   1.383   2.099  0.00  0.00    -0.004 A 
ATOM      5  C6  UNL d   1      -1.920   0.756   1.119  0.00  0.00     0.002 A 
ATOM      6  C7  UNL d   1      -1.297   0.090   0.063  0.00  0.00     0.002 A 
ENDROOT
BRANCH   1   7
ATOM      7  C1  UNL d   1       0.773  -0.716  -1.136  0.00  0.00     0.055 C 
ATOM      8  C   UNL d   1       0.873   0.123  -2.401  0.00  0.00     0.019 C 
ENDBRANCH   1   7
TORSDOF 1
ENDMDL
