MODEL 1
REMARK minimizedAffinity 0.14485772
REMARK minimizedRMSD -1
REMARK  1 active torsions:
REMARK  status: ('A' for Active; 'I' for Inactive)
REMARK    1  A    between atoms: N_2  and  C1_3 
ROOT
ATOM      1  C1  UNL d   1       2.745   2.640   2.458  0.00  0.00     0.143 A 
ATOM      2  C2  UNL d   1       1.431   2.850   2.888  0.00  0.00    -0.057 A 
ATOM      3  C3  UNL d   1       0.353   2.203   2.272  0.00  0.00     0.033 A 
ATOM      4  C4  UNL d   1       0.569   1.354   1.192  0.00  0.00    -0.042 A 
ATOM      5  C5  UNL d   1       1.865   1.150   0.731  0.00  0.00     0.033 A 
ATOM      6  C6  UNL d   1       2.938   1.794   1.355  0.00  0.00    -0.057 A 
ENDROOT
BRANCH   1   7
ATOM      7  N   UNL d   1       3.849   3.330   2.965  0.00  0.00    -0.732 N 
ATOM      8  C   UNL d   1       3.958   4.764   2.808  0.00  0.00     0.284 C 
ATOM      9  H3  UNL d   1       4.133   2.989   3.881  0.00  0.00     0.395 HD
ENDBRANCH   1   7
TORSDOF 1
ENDMDL
