MODEL 1
REMARK minimizedAffinity 6.00991583
REMARK minimizedRMSD -1
REMARK  1 active torsions:
REMARK  status: ('A' for Active; 'I' for Inactive)
REMARK    1  A    between atoms: N_2  and  C1_3 
ROOT
ATOM      1  C1  UNL d   1       2.206   0.603  -1.362  0.00  0.00     0.143 A 
ATOM      2  C2  UNL d   1       2.467   1.864  -0.815  0.00  0.00    -0.057 A 
ATOM      3  C3  UNL d   1       2.103   2.175   0.501  0.00  0.00     0.033 A 
ATOM      4  C4  UNL d   1       1.442   1.235   1.286  0.00  0.00    -0.042 A 
ATOM      5  C5  UNL d   1       1.149  -0.016   0.755  0.00  0.00     0.033 A 
ATOM      6  C6  UNL d   1       1.522  -0.322  -0.557  0.00  0.00    -0.057 A 
ENDROOT
BRANCH   1   7
ATOM      7  N   UNL d   1       2.455   0.267  -2.694  0.00  0.00    -0.732 N 
ATOM      8  C   UNL d   1       1.522   0.642  -3.736  0.00  0.00     0.284 C 
ATOM      9  H3  UNL d   1       3.432   0.387  -2.949  0.00  0.00     0.395 HD
ENDBRANCH   1   7
TORSDOF 1
ENDMDL
