MODEL 1
REMARK minimizedAffinity 9.92794228
REMARK minimizedRMSD -1
REMARK  1 active torsions:
REMARK  status: ('A' for Active; 'I' for Inactive)
REMARK    1  A    between atoms: N_2  and  C1_3 
ROOT
ATOM      1  C1  UNL d   1       1.901   0.343  -0.833  0.00  0.00     0.143 A 
ATOM      2  C2  UNL d   1       1.082   0.930  -1.803  0.00  0.00    -0.057 A 
ATOM      3  C3  UNL d   1       1.368   0.802  -3.168  0.00  0.00     0.033 A 
ATOM      4  C4  UNL d   1       2.498   0.106  -3.586  0.00  0.00    -0.042 A 
ATOM      5  C5  UNL d   1       3.339  -0.464  -2.638  0.00  0.00     0.033 A 
ATOM      6  C6  UNL d   1       3.045  -0.339  -1.277  0.00  0.00    -0.057 A 
ENDROOT
BRANCH   1   7
ATOM      7  N   UNL d   1       1.725   0.517   0.542  0.00  0.00    -0.732 N 
ATOM      8  C   UNL d   1       2.142   1.743   1.189  0.00  0.00     0.284 C 
ATOM      9  H3  UNL d   1       0.830   0.159   0.868  0.00  0.00     0.395 HD
ENDBRANCH   1   7
TORSDOF 1
ENDMDL
