MODEL 1
REMARK minimizedAffinity 9.40200138
REMARK minimizedRMSD -1
REMARK  1 active torsions:
REMARK  status: ('A' for Active; 'I' for Inactive)
REMARK    1  A    between atoms: N_2  and  C1_3 
ROOT
ATOM      1  C1  UNL d   1       0.924   1.378  -2.999  0.00  0.00     0.143 A 
ATOM      2  C2  UNL d   1       2.294   1.656  -3.038  0.00  0.00    -0.057 A 
ATOM      3  C3  UNL d   1       3.242   0.691  -2.676  0.00  0.00     0.033 A 
ATOM      4  C4  UNL d   1       2.833  -0.564  -2.238  0.00  0.00    -0.042 A 
ATOM      5  C5  UNL d   1       1.475  -0.854  -2.167  0.00  0.00     0.033 A 
ATOM      6  C6  UNL d   1       0.534   0.111  -2.537  0.00  0.00    -0.057 A 
ENDROOT
BRANCH   1   7
ATOM      7  N   UNL d   1      -0.070   2.326  -3.253  0.00  0.00    -0.732 N 
ATOM      8  C   UNL d   1      -0.488   3.250  -2.220  0.00  0.00     0.284 C 
ATOM      9  H3  UNL d   1       0.021   2.747  -4.175  0.00  0.00     0.395 HD
ENDBRANCH   1   7
TORSDOF 1
ENDMDL
