MODEL 1
REMARK minimizedAffinity 5.02078485
REMARK minimizedRMSD -1
REMARK  1 active torsions:
REMARK  status: ('A' for Active; 'I' for Inactive)
REMARK    1  A    between atoms: N_2  and  C1_3 
ROOT
ATOM      1  C1  UNL d   1       2.226  -0.004  -1.809  0.00  0.00     0.143 A 
ATOM      2  C2  UNL d   1       2.054   1.020  -0.871  0.00  0.00    -0.057 A 
ATOM      3  C3  UNL d   1       1.641   0.743   0.438  0.00  0.00     0.033 A 
ATOM      4  C4  UNL d   1       1.363  -0.564   0.824  0.00  0.00    -0.042 A 
ATOM      5  C5  UNL d   1       1.503  -1.594  -0.099  0.00  0.00     0.033 A 
ATOM      6  C6  UNL d   1       1.922  -1.312  -1.402  0.00  0.00    -0.057 A 
ENDROOT
BRANCH   1   7
ATOM      7  N   UNL d   1       2.540   0.217  -3.152  0.00  0.00    -0.732 N 
ATOM      8  C   UNL d   1       1.550   0.754  -4.062  0.00  0.00     0.284 C 
ATOM      9  H3  UNL d   1       3.471   0.607  -3.275  0.00  0.00     0.395 HD
ENDBRANCH   1   7
TORSDOF 1
ENDMDL
