MODEL 1
REMARK minimizedAffinity 12.2087755
REMARK minimizedRMSD -1
REMARK  1 active torsions:
REMARK  status: ('A' for Active; 'I' for Inactive)
REMARK    1  A    between atoms: N_2  and  C1_3 
ROOT
ATOM      1  C1  UNL d   1       2.967   2.662   1.923  0.00  0.00     0.143 A 
ATOM      2  C2  UNL d   1       3.259   2.015   0.718  0.00  0.00    -0.057 A 
ATOM      3  C3  UNL d   1       2.265   1.343  -0.005  0.00  0.00     0.033 A 
ATOM      4  C4  UNL d   1       0.964   1.281   0.483  0.00  0.00    -0.042 A 
ATOM      5  C5  UNL d   1       0.657   1.895   1.692  0.00  0.00     0.033 A 
ATOM      6  C6  UNL d   1       1.652   2.571   2.405  0.00  0.00    -0.057 A 
ENDROOT
BRANCH   1   7
ATOM      7  N   UNL d   1       3.931   3.262   2.737  0.00  0.00    -0.732 N 
ATOM      8  C   UNL d   1       5.030   2.488   3.273  0.00  0.00     0.284 C 
ATOM      9  H3  UNL d   1       4.197   4.187   2.406  0.00  0.00     0.395 HD
ENDBRANCH   1   7
TORSDOF 1
ENDMDL
