MODEL 1
REMARK minimizedAffinity 5.73801041
REMARK minimizedRMSD -1
REMARK  1 active torsions:
REMARK  status: ('A' for Active; 'I' for Inactive)
REMARK    1  A    between atoms: N_2  and  C1_3 
ROOT
ATOM      1  C1  UNL d   1      -5.266   2.573   0.387  0.00  0.00     0.143 A 
ATOM      2  C2  UNL d   1      -5.651   2.964  -0.900  0.00  0.00    -0.057 A 
ATOM      3  C3  UNL d   1      -6.000   4.290  -1.182  0.00  0.00     0.033 A 
ATOM      4  C4  UNL d   1      -5.998   5.246  -0.172  0.00  0.00    -0.042 A 
ATOM      5  C5  UNL d   1      -5.642   4.875   1.120  0.00  0.00     0.033 A 
ATOM      6  C6  UNL d   1      -5.288   3.550   1.394  0.00  0.00    -0.057 A 
ENDROOT
BRANCH   1   7
ATOM      7  N   UNL d   1      -5.003   1.250   0.752  0.00  0.00    -0.732 N 
ATOM      8  C   UNL d   1      -3.682   0.856   1.193  0.00  0.00     0.284 C 
ATOM      9  H3  UNL d   1      -5.761   0.838   1.291  0.00  0.00     0.395 HD
ENDBRANCH   1   7
TORSDOF 1
ENDMDL
