MODEL 1
REMARK minimizedAffinity 9.26171017
REMARK minimizedRMSD -1
REMARK  1 active torsions:
REMARK  status: ('A' for Active; 'I' for Inactive)
REMARK    1  A    between atoms: N_2  and  C1_3 
ROOT
ATOM      1  C1  UNL d   1       2.194   0.357  -0.680  0.00  0.00     0.143 A 
ATOM      2  C2  UNL d   1       3.285  -0.429  -1.065  0.00  0.00    -0.057 A 
ATOM      3  C3  UNL d   1       3.512  -0.748  -2.409  0.00  0.00     0.033 A 
ATOM      4  C4  UNL d   1       2.632  -0.309  -3.392  0.00  0.00    -0.042 A 
ATOM      5  C5  UNL d   1       1.526   0.452  -3.030  0.00  0.00     0.033 A 
ATOM      6  C6  UNL d   1       1.309   0.773  -1.687  0.00  0.00    -0.057 A 
ENDROOT
BRANCH   1   7
ATOM      7  N   UNL d   1       1.859   0.625   0.650  0.00  0.00    -0.732 N 
ATOM      8  C   UNL d   1       0.720   1.458   0.969  0.00  0.00     0.284 C 
ATOM      9  H3  UNL d   1       1.958  -0.192   1.248  0.00  0.00     0.395 HD
ENDBRANCH   1   7
TORSDOF 1
ENDMDL
