MODEL 1
REMARK minimizedAffinity 5.59393024
REMARK minimizedRMSD -1
REMARK  1 active torsions:
REMARK  status: ('A' for Active; 'I' for Inactive)
REMARK    1  A    between atoms: N_2  and  C1_3 
ROOT
ATOM      1  C1  UNL d   1       1.258   0.874   0.515  0.00  0.00     0.143 A 
ATOM      2  C2  UNL d   1       1.162  -0.476   0.869  0.00  0.00    -0.057 A 
ATOM      3  C3  UNL d   1       1.637  -1.484   0.022  0.00  0.00     0.033 A 
ATOM      4  C4  UNL d   1       2.192  -1.160  -1.212  0.00  0.00    -0.042 A 
ATOM      5  C5  UNL d   1       2.275   0.174  -1.596  0.00  0.00     0.033 A 
ATOM      6  C6  UNL d   1       1.805   1.176  -0.742  0.00  0.00    -0.057 A 
ENDROOT
BRANCH   1   7
ATOM      7  N   UNL d   1       0.714   1.917   1.269  0.00  0.00    -0.732 N 
ATOM      8  C   UNL d   1      -0.645   2.359   1.044  0.00  0.00     0.284 C 
ATOM      9  H3  UNL d   1       0.977   1.863   2.251  0.00  0.00     0.395 HD
ENDBRANCH   1   7
TORSDOF 1
ENDMDL
