MODEL 1
REMARK minimizedAffinity 5.84131765
REMARK minimizedRMSD -1
REMARK  1 active torsions:
REMARK  status: ('A' for Active; 'I' for Inactive)
REMARK    1  A    between atoms: N_2  and  C1_3 
ROOT
ATOM      1  C1  UNL d   1       0.637   1.671   1.391  0.00  0.00     0.143 A 
ATOM      2  C2  UNL d   1      -0.443   2.018   0.572  0.00  0.00    -0.057 A 
ATOM      3  C3  UNL d   1      -1.667   2.424   1.117  0.00  0.00     0.033 A 
ATOM      4  C4  UNL d   1      -1.842   2.462   2.496  0.00  0.00    -0.042 A 
ATOM      5  C5  UNL d   1      -0.791   2.097   3.330  0.00  0.00     0.033 A 
ATOM      6  C6  UNL d   1       0.431   1.699   2.779  0.00  0.00    -0.057 A 
ENDROOT
BRANCH   1   7
ATOM      7  N   UNL d   1       1.847   1.165   0.910  0.00  0.00    -0.732 N 
ATOM      8  C   UNL d   1       1.930  -0.186   0.398  0.00  0.00     0.284 C 
ATOM      9  H3  UNL d   1       2.364   1.849   0.362  0.00  0.00     0.395 HD
ENDBRANCH   1   7
TORSDOF 1
ENDMDL
