MODEL 1
REMARK minimizedAffinity 3.69231129
REMARK minimizedRMSD -1
REMARK  1 active torsions:
REMARK  status: ('A' for Active; 'I' for Inactive)
REMARK    1  A    between atoms: N_2  and  C1_3 
ROOT
ATOM      1  C1  UNL d   1       2.801   0.420  -1.326  0.00  0.00     0.143 A 
ATOM      2  C2  UNL d   1       3.035   1.611  -0.630  0.00  0.00    -0.057 A 
ATOM      3  C3  UNL d   1       2.780   1.711   0.743  0.00  0.00     0.033 A 
ATOM      4  C4  UNL d   1       2.258   0.627   1.441  0.00  0.00    -0.042 A 
ATOM      5  C5  UNL d   1       1.995  -0.559   0.765  0.00  0.00     0.033 A 
ATOM      6  C6  UNL d   1       2.257  -0.655  -0.605  0.00  0.00    -0.057 A 
ENDROOT
BRANCH   1   7
ATOM      7  N   UNL d   1       2.941   0.287  -2.710  0.00  0.00    -0.732 N 
ATOM      8  C   UNL d   1       1.878   0.699  -3.601  0.00  0.00     0.284 C 
ATOM      9  H3  UNL d   1       3.874   0.537  -3.031  0.00  0.00     0.395 HD
ENDBRANCH   1   7
TORSDOF 1
ENDMDL
