MODEL 1
REMARK minimizedAffinity -3.09698582
REMARK minimizedRMSD -1
REMARK  1 active torsions:
REMARK  status: ('A' for Active; 'I' for Inactive)
REMARK    1  A    between atoms: C1_2  and  C2_3 
ROOT
ATOM      1  C2  UNL d   1       0.232   1.374  -0.260  0.00  0.00    -0.076 A 
ATOM      2  C3  UNL d   1       0.625   1.102  -1.582  0.00  0.00     0.004 A 
ATOM      3  C4  UNL d   1       0.628  -0.201  -2.076  0.00  0.00    -0.003 A 
ATOM      4  C5  UNL d   1       0.236  -1.254  -1.256  0.00  0.00     0.000 A 
ATOM      5  C6  UNL d   1      -0.174  -1.001   0.052  0.00  0.00     0.000 A 
ATOM      6  C7  UNL d   1      -0.198   0.309   0.561  0.00  0.00    -0.073 A 
ATOM      7  C8  UNL d   1      -0.643   0.524   1.981  0.00  0.00     0.078 C 
ENDROOT
BRANCH   1   8
ATOM      8  C1  UNL d   1       0.275   2.804   0.229  0.00  0.00     0.053 C 
ATOM      9  C   UNL d   1       1.685   3.259   0.575  0.00  0.00     0.018 C 
ENDBRANCH   1   8
TORSDOF 1
ENDMDL
