MODEL 1
REMARK minimizedAffinity -4.07421637
REMARK minimizedRMSD -1
REMARK  1 active torsions:
REMARK  status: ('A' for Active; 'I' for Inactive)
REMARK    1  A    between atoms: C1_2  and  C2_3 
ROOT
ATOM      1  C2  UNL d   1      -0.003  -0.247   0.057  0.00  0.00    -0.076 A 
ATOM      2  C3  UNL d   1       0.985  -1.240  -0.070  0.00  0.00     0.004 A 
ATOM      3  C4  UNL d   1       0.756  -2.541   0.373  0.00  0.00    -0.003 A 
ATOM      4  C5  UNL d   1      -0.465  -2.872   0.951  0.00  0.00     0.000 A 
ATOM      5  C6  UNL d   1      -1.462  -1.904   1.070  0.00  0.00     0.000 A 
ATOM      6  C7  UNL d   1      -1.254  -0.592   0.613  0.00  0.00    -0.073 A 
ATOM      7  C8  UNL d   1      -2.362   0.413   0.771  0.00  0.00     0.078 C 
ENDROOT
BRANCH   1   8
ATOM      8  C1  UNL d   1       0.312   1.153  -0.417  0.00  0.00     0.053 C 
ATOM      9  C   UNL d   1       1.506   1.758   0.305  0.00  0.00     0.018 C 
ENDBRANCH   1   8
TORSDOF 1
ENDMDL
