MODEL 1
REMARK minimizedAffinity -4.99562931
REMARK minimizedRMSD -1
REMARK  1 active torsions:
REMARK  status: ('A' for Active; 'I' for Inactive)
REMARK    1  A    between atoms: C1_2  and  C2_3 
ROOT
ATOM      1  C2  UNL d   1       0.079  -0.157  -0.315  0.00  0.00    -0.076 A 
ATOM      2  C3  UNL d   1       0.702  -1.002  -1.249  0.00  0.00     0.004 A 
ATOM      3  C4  UNL d   1       0.741  -2.381  -1.055  0.00  0.00    -0.003 A 
ATOM      4  C5  UNL d   1       0.156  -2.939   0.076  0.00  0.00     0.000 A 
ATOM      5  C6  UNL d   1      -0.482  -2.117   1.005  0.00  0.00     0.000 A 
ATOM      6  C7  UNL d   1      -0.544  -0.726   0.817  0.00  0.00    -0.073 A 
ATOM      7  C8  UNL d   1      -1.239   0.113   1.853  0.00  0.00     0.078 C 
ENDROOT
BRANCH   1   8
ATOM      8  C1  UNL d   1       0.092   1.335  -0.565  0.00  0.00     0.053 C 
ATOM      9  C   UNL d   1       1.077   2.067   0.334  0.00  0.00     0.018 C 
ENDBRANCH   1   8
TORSDOF 1
ENDMDL
