MODEL 1
REMARK minimizedAffinity -5.0537529
REMARK minimizedRMSD -1
REMARK  1 active torsions:
REMARK  status: ('A' for Active; 'I' for Inactive)
REMARK    1  A    between atoms: C1_2  and  C2_3 
ROOT
ATOM      1  C2  UNL d   1       0.114   0.736   0.105  0.00  0.00    -0.076 A 
ATOM      2  C3  UNL d   1      -0.064   0.110   1.351  0.00  0.00     0.004 A 
ATOM      3  C4  UNL d   1      -0.288  -1.263   1.440  0.00  0.00    -0.003 A 
ATOM      4  C5  UNL d   1      -0.337  -2.033   0.283  0.00  0.00     0.000 A 
ATOM      5  C6  UNL d   1      -0.145  -1.432  -0.961  0.00  0.00     0.000 A 
ATOM      6  C7  UNL d   1       0.098  -0.051  -1.066  0.00  0.00    -0.073 A 
ATOM      7  C8  UNL d   1       0.291   0.545  -2.433  0.00  0.00     0.078 C 
ENDROOT
BRANCH   1   8
ATOM      8  C1  UNL d   1       0.326   2.232   0.070  0.00  0.00     0.053 C 
ATOM      9  C   UNL d   1       1.571   2.663   0.830  0.00  0.00     0.018 C 
ENDBRANCH   1   8
TORSDOF 1
ENDMDL
