MODEL 1
REMARK minimizedAffinity -4.67808914
REMARK minimizedRMSD -1
REMARK  1 active torsions:
REMARK  status: ('A' for Active; 'I' for Inactive)
REMARK    1  A    between atoms: C1_2  and  C2_3 
ROOT
ATOM      1  C2  UNL d   1      -0.346   0.163  -0.111  0.00  0.00    -0.076 A 
ATOM      2  C3  UNL d   1       0.556  -0.790  -0.618  0.00  0.00     0.004 A 
ATOM      3  C4  UNL d   1       0.533  -2.109  -0.169  0.00  0.00    -0.003 A 
ATOM      4  C5  UNL d   1      -0.392  -2.498   0.793  0.00  0.00     0.000 A 
ATOM      5  C6  UNL d   1      -1.305  -1.571   1.294  0.00  0.00     0.000 A 
ATOM      6  C7  UNL d   1      -1.307  -0.241   0.841  0.00  0.00    -0.073 A 
ATOM      7  C8  UNL d   1      -2.310   0.719   1.420  0.00  0.00     0.078 C 
ENDROOT
BRANCH   1   8
ATOM      8  C1  UNL d   1      -0.256   1.585  -0.616  0.00  0.00     0.053 C 
ATOM      9  C   UNL d   1       0.722   2.428   0.187  0.00  0.00     0.018 C 
ENDBRANCH   1   8
TORSDOF 1
ENDMDL
