MODEL 1
REMARK minimizedAffinity -6.28538227
REMARK minimizedRMSD -1
REMARK  1 active torsions:
REMARK  status: ('A' for Active; 'I' for Inactive)
REMARK    1  A    between atoms: C1_2  and  C2_3 
ROOT
ATOM      1  C2  UNL d   1      -0.221  -0.651  -0.753  0.00  0.00    -0.076 A 
ATOM      2  C3  UNL d   1       0.202  -1.337  -1.905  0.00  0.00     0.004 A 
ATOM      3  C4  UNL d   1       0.366  -2.721  -1.896  0.00  0.00    -0.003 A 
ATOM      4  C5  UNL d   1       0.108  -3.442  -0.736  0.00  0.00     0.000 A 
ATOM      5  C6  UNL d   1      -0.329  -2.780   0.411  0.00  0.00     0.000 A 
ATOM      6  C7  UNL d   1      -0.515  -1.387   0.415  0.00  0.00    -0.073 A 
ATOM      7  C8  UNL d   1      -0.983  -0.724   1.681  0.00  0.00     0.078 C 
ENDROOT
BRANCH   1   8
ATOM      8  C1  UNL d   1      -0.354   0.854  -0.814  0.00  0.00     0.053 C 
ATOM      9  C   UNL d   1       0.784   1.569  -0.104  0.00  0.00     0.018 C 
ENDBRANCH   1   8
TORSDOF 1
ENDMDL
