MODEL 1
REMARK minimizedAffinity -5.61294889
REMARK minimizedRMSD -1
REMARK  1 active torsions:
REMARK  status: ('A' for Active; 'I' for Inactive)
REMARK    1  A    between atoms: C1_2  and  C2_3 
ROOT
ATOM      1  C2  UNL d   1       0.180  -1.589   0.093  0.00  0.00    -0.076 A 
ATOM      2  C3  UNL d   1      -0.348  -0.734   1.075  0.00  0.00     0.004 A 
ATOM      3  C4  UNL d   1      -0.607   0.607   0.796  0.00  0.00    -0.003 A 
ATOM      4  C5  UNL d   1      -0.341   1.114  -0.471  0.00  0.00     0.000 A 
ATOM      5  C6  UNL d   1       0.167   0.276  -1.463  0.00  0.00     0.000 A 
ATOM      6  C7  UNL d   1       0.418  -1.082  -1.203  0.00  0.00    -0.073 A 
ATOM      7  C8  UNL d   1       0.971  -1.938  -2.308  0.00  0.00     0.078 C 
ENDROOT
BRANCH   1   8
ATOM      8  C1  UNL d   1       0.466  -3.028   0.461  0.00  0.00     0.053 C 
ATOM      9  C   UNL d   1      -0.769  -3.911   0.361  0.00  0.00     0.018 C 
ENDBRANCH   1   8
TORSDOF 1
ENDMDL
