MODEL 1
REMARK minimizedAffinity -4.38273096
REMARK minimizedRMSD -1
REMARK  1 active torsions:
REMARK  status: ('A' for Active; 'I' for Inactive)
REMARK    1  A    between atoms: C1_2  and  C2_3 
ROOT
ATOM      1  C2  UNL d   1       0.000   0.065  -0.136  0.00  0.00    -0.076 A 
ATOM      2  C3  UNL d   1      -0.560  -0.370   1.078  0.00  0.00     0.004 A 
ATOM      3  C4  UNL d   1      -0.713  -1.728   1.351  0.00  0.00    -0.003 A 
ATOM      4  C5  UNL d   1      -0.307  -2.673   0.415  0.00  0.00     0.000 A 
ATOM      5  C6  UNL d   1       0.267  -2.260  -0.787  0.00  0.00     0.000 A 
ATOM      6  C7  UNL d   1       0.443  -0.895  -1.071  0.00  0.00    -0.073 A 
ATOM      7  C8  UNL d   1       1.062  -0.505  -2.385  0.00  0.00     0.078 C 
ENDROOT
BRANCH   1   8
ATOM      8  C1  UNL d   1       0.116   1.552  -0.388  0.00  0.00     0.053 C 
ATOM      9  C   UNL d   1       1.481   2.103  -0.004  0.00  0.00     0.018 C 
ENDBRANCH   1   8
TORSDOF 1
ENDMDL
