MODEL 1
REMARK minimizedAffinity -2.92333031
REMARK minimizedRMSD -1
REMARK  0 active torsions:
REMARK  status: ('A' for Active; 'I' for Inactive)
ROOT
ATOM      1  C2' OXE d   1      -0.338   1.642   2.077  0.00  0.00     0.078 C 
ATOM      2  C1' OXE d   1       2.199   0.445   1.985  0.00  0.00     0.078 C 
ATOM      3  C1  OXE d   1       1.236   0.142   0.863  0.00  0.00    -0.078 A 
ATOM      4  C2  OXE d   1      -0.019   0.695   0.941  0.00  0.00    -0.078 A 
ATOM      5  C3  OXE d   1      -0.927   0.493  -0.094  0.00  0.00     0.003 A 
ATOM      6  C4  OXE d   1      -0.627  -0.393  -1.137  0.00  0.00    -0.002 A 
ATOM      7  C5  OXE d   1       0.632  -0.998  -1.214  0.00  0.00    -0.002 A 
ATOM      8  C6  OXE d   1       1.588  -0.708  -0.247  0.00  0.00     0.003 A 
ENDROOT
TORSDOF 0
ENDMDL
