MODEL 1
REMARK minimizedAffinity -6.25785971
REMARK minimizedRMSD -1
REMARK  0 active torsions:
REMARK  status: ('A' for Active; 'I' for Inactive)
ROOT
ATOM      1  C2' OXE d   1      -1.847  -0.015   0.058  0.00  0.00     0.078 C 
ATOM      2  C1' OXE d   1       0.871  -0.631  -0.273  0.00  0.00     0.078 C 
ATOM      3  C1  OXE d   1       0.447   0.004   1.028  0.00  0.00    -0.078 A 
ATOM      4  C2  OXE d   1      -0.877   0.344   1.163  0.00  0.00    -0.078 A 
ATOM      5  C3  OXE d   1      -1.331   0.883   2.363  0.00  0.00     0.003 A 
ATOM      6  C4  OXE d   1      -0.426   1.222   3.376  0.00  0.00    -0.002 A 
ATOM      7  C5  OXE d   1       0.934   0.920   3.243  0.00  0.00    -0.002 A 
ATOM      8  C6  OXE d   1       1.379   0.273   2.095  0.00  0.00     0.003 A 
ENDROOT
TORSDOF 0
ENDMDL
