MODEL 1
REMARK minimizedAffinity -1.33083999
REMARK minimizedRMSD -1
REMARK  0 active torsions:
REMARK  status: ('A' for Active; 'I' for Inactive)
ROOT
ATOM      1  C2' OXE d   1      -2.888  -0.431  -0.770  0.00  0.00     0.078 C 
ATOM      2  C1' OXE d   1      -0.332  -0.706  -1.899  0.00  0.00     0.078 C 
ATOM      3  C1  OXE d   1      -0.425  -0.191  -0.484  0.00  0.00    -0.078 A 
ATOM      4  C2  OXE d   1      -1.681  -0.015   0.044  0.00  0.00    -0.078 A 
ATOM      5  C3  OXE d   1      -1.822   0.405   1.363  0.00  0.00     0.003 A 
ATOM      6  C4  OXE d   1      -0.701   0.797   2.106  0.00  0.00    -0.002 A 
ATOM      7  C5  OXE d   1       0.585   0.663   1.573  0.00  0.00    -0.002 A 
ATOM      8  C6  OXE d   1       0.743   0.132   0.298  0.00  0.00     0.003 A 
ENDROOT
TORSDOF 0
ENDMDL
