MODEL 1
REMARK minimizedAffinity -3.99474382
REMARK minimizedRMSD -1
REMARK  0 active torsions:
REMARK  status: ('A' for Active; 'I' for Inactive)
ROOT
ATOM      1  C2' OXE d   1      -1.501   0.572  -0.480  0.00  0.00     0.078 C 
ATOM      2  C1' OXE d   1      -0.486   1.462   1.981  0.00  0.00     0.078 C 
ATOM      3  C1  OXE d   1       0.324   0.450   1.210  0.00  0.00    -0.078 A 
ATOM      4  C2  OXE d   1      -0.203  -0.015   0.029  0.00  0.00    -0.078 A 
ATOM      5  C3  OXE d   1       0.529  -0.908  -0.748  0.00  0.00     0.003 A 
ATOM      6  C4  OXE d   1       1.725  -1.453  -0.265  0.00  0.00    -0.002 A 
ATOM      7  C5  OXE d   1       2.260  -1.023   0.954  0.00  0.00    -0.002 A 
ATOM      8  C6  OXE d   1       1.595  -0.043   1.682  0.00  0.00     0.003 A 
ENDROOT
TORSDOF 0
ENDMDL
