MODEL 1
REMARK minimizedAffinity -2.27087379
REMARK minimizedRMSD -1
REMARK  0 active torsions:
REMARK  status: ('A' for Active; 'I' for Inactive)
ROOT
ATOM      1  C2' OXE d   1      -2.391   0.077   0.070  0.00  0.00     0.078 C 
ATOM      2  C1' OXE d   1      -1.016   1.002   2.336  0.00  0.00     0.078 C 
ATOM      3  C1  OXE d   1      -0.203   0.399   1.217  0.00  0.00    -0.078 A 
ATOM      4  C2  OXE d   1      -0.889  -0.093   0.132  0.00  0.00    -0.078 A 
ATOM      5  C3  OXE d   1      -0.185  -0.610  -0.951  0.00  0.00     0.003 A 
ATOM      6  C4  OXE d   1       1.204  -0.773  -0.882  0.00  0.00    -0.002 A 
ATOM      7  C5  OXE d   1       1.918  -0.315   0.231  0.00  0.00    -0.002 A 
ATOM      8  C6  OXE d   1       1.235   0.311   1.268  0.00  0.00     0.003 A 
ENDROOT
TORSDOF 0
ENDMDL
