MODEL 1
REMARK minimizedAffinity -2.34001064
REMARK minimizedRMSD -1
REMARK  0 active torsions:
REMARK  status: ('A' for Active; 'I' for Inactive)
ROOT
ATOM      1  C2' OXE d   1      -2.684  -0.155   1.862  0.00  0.00     0.078 C 
ATOM      2  C1' OXE d   1      -1.389  -0.872  -0.523  0.00  0.00     0.078 C 
ATOM      3  C1  OXE d   1      -0.731   0.168   0.350  0.00  0.00    -0.078 A 
ATOM      4  C2  OXE d   1      -1.395   0.547   1.491  0.00  0.00    -0.078 A 
ATOM      5  C3  OXE d   1      -0.807   1.462   2.360  0.00  0.00     0.003 A 
ATOM      6  C4  OXE d   1       0.381   2.113   2.005  0.00  0.00    -0.002 A 
ATOM      7  C5  OXE d   1       1.053   1.771   0.827  0.00  0.00    -0.002 A 
ATOM      8  C6  OXE d   1       0.534   0.772   0.011  0.00  0.00     0.003 A 
ENDROOT
TORSDOF 0
ENDMDL
