MODEL 1
REMARK minimizedAffinity -4.72172832
REMARK minimizedRMSD -1
REMARK  0 active torsions:
REMARK  status: ('A' for Active; 'I' for Inactive)
ROOT
ATOM      1  C2' OXE d   1      -2.071  -0.471   2.273  0.00  0.00     0.078 C 
ATOM      2  C1' OXE d   1      -0.586   1.905   2.445  0.00  0.00     0.078 C 
ATOM      3  C1  OXE d   1      -0.515   1.124   1.157  0.00  0.00    -0.078 A 
ATOM      4  C2  OXE d   1      -1.208  -0.062   1.099  0.00  0.00    -0.078 A 
ATOM      5  C3  OXE d   1      -1.220  -0.795  -0.085  0.00  0.00     0.003 A 
ATOM      6  C4  OXE d   1      -0.412  -0.415  -1.163  0.00  0.00    -0.002 A 
ATOM      7  C5  OXE d   1       0.333   0.769  -1.109  0.00  0.00    -0.002 A 
ATOM      8  C6  OXE d   1       0.259   1.569   0.025  0.00  0.00     0.003 A 
ENDROOT
TORSDOF 0
ENDMDL
