MODEL 1
REMARK minimizedAffinity 4.19991493
REMARK minimizedRMSD -1
REMARK  0 active torsions:
REMARK  status: ('A' for Active; 'I' for Inactive)
ROOT
ATOM      1  C2' OXE d   1      -0.182  -0.423  -1.343  0.00  0.00     0.078 C 
ATOM      2  C1' OXE d   1       1.547  -0.501   0.867  0.00  0.00     0.078 C 
ATOM      3  C1  OXE d   1       0.090  -0.205   1.123  0.00  0.00    -0.078 A 
ATOM      4  C2  OXE d   1      -0.740  -0.122   0.031  0.00  0.00    -0.078 A 
ATOM      5  C3  OXE d   1      -2.103   0.094   0.216  0.00  0.00     0.003 A 
ATOM      6  C4  OXE d   1      -2.608   0.381   1.490  0.00  0.00    -0.002 A 
ATOM      7  C5  OXE d   1      -1.773   0.341   2.611  0.00  0.00    -0.002 A 
ATOM      8  C6  OXE d   1      -0.432   0.009   2.450  0.00  0.00     0.003 A 
ENDROOT
TORSDOF 0
ENDMDL
