MODEL 1
REMARK minimizedAffinity -6.46524668
REMARK minimizedRMSD -1
REMARK  0 active torsions:
REMARK  status: ('A' for Active; 'I' for Inactive)
ROOT
ATOM      1  C2' OXE d   1       0.188  -0.570  -0.570  0.00  0.00     0.078 C 
ATOM      2  C1' OXE d   1       2.241  -1.199   1.238  0.00  0.00     0.078 C 
ATOM      3  C1  OXE d   1       1.121  -0.315   1.726  0.00  0.00    -0.078 A 
ATOM      4  C2  OXE d   1       0.145   0.026   0.821  0.00  0.00    -0.078 A 
ATOM      5  C3  OXE d   1      -0.940   0.795   1.234  0.00  0.00     0.003 A 
ATOM      6  C4  OXE d   1      -0.967   1.350   2.519  0.00  0.00    -0.002 A 
ATOM      7  C5  OXE d   1       0.038   1.048   3.444  0.00  0.00    -0.002 A 
ATOM      8  C6  OXE d   1       1.064   0.184   3.077  0.00  0.00     0.003 A 
ENDROOT
TORSDOF 0
ENDMDL
