MODEL 1
REMARK minimizedAffinity 5.59294319
REMARK minimizedRMSD -1
REMARK  0 active torsions:
REMARK  status: ('A' for Active; 'I' for Inactive)
ROOT
ATOM      1  C2' OXE d   1       2.926   1.138  -2.248  0.00  0.00     0.078 C 
ATOM      2  C1' OXE d   1       1.443  -0.194  -4.224  0.00  0.00     0.078 C 
ATOM      3  C1  OXE d   1       2.866  -0.638  -3.993  0.00  0.00    -0.078 A 
ATOM      4  C2  OXE d   1       3.599   0.050  -3.057  0.00  0.00    -0.078 A 
ATOM      5  C3  OXE d   1       4.899  -0.353  -2.765  0.00  0.00     0.003 A 
ATOM      6  C4  OXE d   1       5.517  -1.354  -3.525  0.00  0.00    -0.002 A 
ATOM      7  C5  OXE d   1       4.801  -2.041  -4.511  0.00  0.00    -0.002 A 
ATOM      8  C6  OXE d   1       3.465  -1.725  -4.728  0.00  0.00     0.003 A 
ENDROOT
TORSDOF 0
ENDMDL
