MODEL 1
REMARK minimizedAffinity 6.1531477
REMARK minimizedRMSD -1
REMARK  0 active torsions:
REMARK  status: ('A' for Active; 'I' for Inactive)
ROOT
ATOM      1  C2' OXE d   1       1.861   2.211  -2.936  0.00  0.00     0.078 C 
ATOM      2  C1' OXE d   1       0.738   0.110  -4.421  0.00  0.00     0.078 C 
ATOM      3  C1  OXE d   1       2.207   0.030  -4.089  0.00  0.00    -0.078 A 
ATOM      4  C2  OXE d   1       2.758   1.084  -3.402  0.00  0.00    -0.078 A 
ATOM      5  C3  OXE d   1       4.097   1.035  -3.022  0.00  0.00     0.003 A 
ATOM      6  C4  OXE d   1       4.922  -0.005  -3.466  0.00  0.00    -0.002 A 
ATOM      7  C5  OXE d   1       4.389  -1.070  -4.200  0.00  0.00    -0.002 A 
ATOM      8  C6  OXE d   1       3.027  -1.089  -4.483  0.00  0.00     0.003 A 
ENDROOT
TORSDOF 0
ENDMDL
