MODEL 1
REMARK minimizedAffinity 1.13929439
REMARK minimizedRMSD -1
REMARK  0 active torsions:
REMARK  status: ('A' for Active; 'I' for Inactive)
ROOT
ATOM      1  C2' OXE d   1       1.530   0.425   1.583  0.00  0.00     0.078 C 
ATOM      2  C1' OXE d   1      -0.865   1.080   2.892  0.00  0.00     0.078 C 
ATOM      3  C1  OXE d   1      -0.959   0.490   1.507  0.00  0.00    -0.078 A 
ATOM      4  C2  OXE d   1       0.219   0.216   0.856  0.00  0.00    -0.078 A 
ATOM      5  C3  OXE d   1       0.189  -0.380  -0.402  0.00  0.00     0.003 A 
ATOM      6  C4  OXE d   1      -1.027  -0.560  -1.072  0.00  0.00    -0.002 A 
ATOM      7  C5  OXE d   1      -2.237  -0.251  -0.442  0.00  0.00    -0.002 A 
ATOM      8  C6  OXE d   1      -2.223   0.234   0.861  0.00  0.00     0.003 A 
ENDROOT
TORSDOF 0
ENDMDL
