MODEL 1
REMARK minimizedAffinity -4.08418179
REMARK minimizedRMSD -1
REMARK  0 active torsions:
REMARK  status: ('A' for Active; 'I' for Inactive)
ROOT
ATOM      1  C2' OXE d   1      -2.498  -0.455  -0.409  0.00  0.00     0.078 C 
ATOM      2  C1' OXE d   1       0.163  -0.606  -1.289  0.00  0.00     0.078 C 
ATOM      3  C1  OXE d   1      -0.096  -0.001   0.068  0.00  0.00    -0.078 A 
ATOM      4  C2  OXE d   1      -1.405   0.111   0.471  0.00  0.00    -0.078 A 
ATOM      5  C3  OXE d   1      -1.696   0.611   1.737  0.00  0.00     0.003 A 
ATOM      6  C4  OXE d   1      -0.680   1.142   2.540  0.00  0.00    -0.002 A 
ATOM      7  C5  OXE d   1       0.656   1.074   2.132  0.00  0.00    -0.002 A 
ATOM      8  C6  OXE d   1       0.969   0.468   0.920  0.00  0.00     0.003 A 
ENDROOT
TORSDOF 0
ENDMDL
