MODEL 1
REMARK minimizedAffinity -3.75541711
REMARK minimizedRMSD -1
REMARK  0 active torsions:
REMARK  status: ('A' for Active; 'I' for Inactive)
ROOT
ATOM      1  C2' OXE d   1       2.199  -0.310   1.888  0.00  0.00     0.078 C 
ATOM      2  C1' OXE d   1       0.681  -0.261  -0.473  0.00  0.00     0.078 C 
ATOM      3  C1  OXE d   1      -0.026   0.044   0.824  0.00  0.00    -0.078 A 
ATOM      4  C2  OXE d   1       0.715  -0.028   1.979  0.00  0.00    -0.078 A 
ATOM      5  C3  OXE d   1       0.125   0.297   3.197  0.00  0.00     0.003 A 
ATOM      6  C4  OXE d   1      -1.251   0.547   3.274  0.00  0.00    -0.002 A 
ATOM      7  C5  OXE d   1      -2.031   0.587   2.114  0.00  0.00    -0.002 A 
ATOM      8  C6  OXE d   1      -1.427   0.380   0.879  0.00  0.00     0.003 A 
ENDROOT
TORSDOF 0
ENDMDL
