MODEL 1
REMARK minimizedAffinity -5.07822132
REMARK minimizedRMSD -1
REMARK  0 active torsions:
REMARK  status: ('A' for Active; 'I' for Inactive)
ROOT
ATOM      1  C2' OXE d   1      -1.858   0.874   0.351  0.00  0.00     0.078 C 
ATOM      2  C1' OXE d   1       0.380  -0.343  -0.829  0.00  0.00     0.078 C 
ATOM      3  C1  OXE d   1       0.445  -0.029   0.645  0.00  0.00    -0.078 A 
ATOM      4  C2  OXE d   1      -0.636   0.608   1.204  0.00  0.00    -0.078 A 
ATOM      5  C3  OXE d   1      -0.650   0.871   2.571  0.00  0.00     0.003 A 
ATOM      6  C4  OXE d   1       0.488   0.631   3.351  0.00  0.00    -0.002 A 
ATOM      7  C5  OXE d   1       1.615   0.019   2.793  0.00  0.00    -0.002 A 
ATOM      8  C6  OXE d   1       1.593  -0.356   1.454  0.00  0.00     0.003 A 
ENDROOT
TORSDOF 0
ENDMDL
