MODEL 1
REMARK minimizedAffinity -5.00432491
REMARK minimizedRMSD -1
REMARK  0 active torsions:
REMARK  status: ('A' for Active; 'I' for Inactive)
ROOT
ATOM      1  C2' OXE d   1      -2.157   0.636  -0.001  0.00  0.00     0.078 C 
ATOM      2  C1' OXE d   1       0.471  -0.104  -0.655  0.00  0.00     0.078 C 
ATOM      3  C1  OXE d   1       0.166   0.203   0.790  0.00  0.00    -0.078 A 
ATOM      4  C2  OXE d   1      -1.111   0.609   1.093  0.00  0.00    -0.078 A 
ATOM      5  C3  OXE d   1      -1.460   0.852   2.419  0.00  0.00     0.003 A 
ATOM      6  C4  OXE d   1      -0.485   0.835   3.423  0.00  0.00    -0.002 A 
ATOM      7  C5  OXE d   1       0.831   0.462   3.129  0.00  0.00    -0.002 A 
ATOM      8  C6  OXE d   1       1.162   0.102   1.827  0.00  0.00     0.003 A 
ENDROOT
TORSDOF 0
ENDMDL
