MODEL 1
REMARK minimizedAffinity -4.17643738
REMARK minimizedRMSD -1
REMARK  0 active torsions:
REMARK  status: ('A' for Active; 'I' for Inactive)
ROOT
ATOM      1  C2' OXE d   1      -1.797  -0.022   0.043  0.00  0.00     0.078 C 
ATOM      2  C1' OXE d   1       0.926  -0.569  -0.366  0.00  0.00     0.078 C 
ATOM      3  C1  OXE d   1       0.513  -0.018   0.976  0.00  0.00    -0.078 A 
ATOM      4  C2  OXE d   1      -0.814   0.291   1.151  0.00  0.00    -0.078 A 
ATOM      5  C3  OXE d   1      -1.258   0.751   2.387  0.00  0.00     0.003 A 
ATOM      6  C4  OXE d   1      -0.342   1.047   3.404  0.00  0.00    -0.002 A 
ATOM      7  C5  OXE d   1       1.020   0.777   3.232  0.00  0.00    -0.002 A 
ATOM      8  C6  OXE d   1       1.457   0.206   2.042  0.00  0.00     0.003 A 
ENDROOT
TORSDOF 0
ENDMDL
