MODEL 1
REMARK minimizedAffinity -6.79791117
REMARK minimizedRMSD -1
REMARK  0 active torsions:
REMARK  status: ('A' for Active; 'I' for Inactive)
ROOT
ATOM      1  C2' OXE d   1       0.391  -0.003  -0.752  0.00  0.00     0.078 C 
ATOM      2  C1' OXE d   1      -1.997   0.849   0.452  0.00  0.00     0.078 C 
ATOM      3  C1  OXE d   1      -0.823   0.552   1.351  0.00  0.00    -0.078 A 
ATOM      4  C2  OXE d   1       0.327   0.091   0.757  0.00  0.00    -0.078 A 
ATOM      5  C3  OXE d   1       1.457  -0.145   1.534  0.00  0.00     0.003 A 
ATOM      6  C4  OXE d   1       1.387  -0.066   2.930  0.00  0.00    -0.002 A 
ATOM      7  C5  OXE d   1       0.213   0.364   3.558  0.00  0.00    -0.002 A 
ATOM      8  C6  OXE d   1      -0.886   0.717   2.782  0.00  0.00     0.003 A 
ENDROOT
TORSDOF 0
ENDMDL
