MODEL 1
REMARK minimizedAffinity -5.17774868
REMARK minimizedRMSD -1
REMARK  0 active torsions:
REMARK  status: ('A' for Active; 'I' for Inactive)
ROOT
ATOM      1  C2' OXE d   1      -0.074  -0.423  -0.665  0.00  0.00     0.078 C 
ATOM      2  C1' OXE d   1      -1.827   0.845   1.123  0.00  0.00     0.078 C 
ATOM      3  C1  OXE d   1      -0.475   0.424   1.643  0.00  0.00    -0.078 A 
ATOM      4  C2  OXE d   1       0.358  -0.238   0.773  0.00  0.00    -0.078 A 
ATOM      5  C3  OXE d   1       1.637  -0.599   1.186  0.00  0.00     0.003 A 
ATOM      6  C4  OXE d   1       2.025  -0.433   2.521  0.00  0.00    -0.002 A 
ATOM      7  C5  OXE d   1       1.177   0.203   3.433  0.00  0.00    -0.002 A 
ATOM      8  C6  OXE d   1      -0.058   0.675   3.000  0.00  0.00     0.003 A 
ENDROOT
TORSDOF 0
ENDMDL
