MODEL 1
REMARK minimizedAffinity -5.44236374
REMARK minimizedRMSD -1
REMARK  0 active torsions:
REMARK  status: ('A' for Active; 'I' for Inactive)
ROOT
ATOM      1  C2' OXE d   1      -1.917  -1.080  -0.171  0.00  0.00     0.078 C 
ATOM      2  C1' OXE d   1       0.798  -0.566  -0.667  0.00  0.00     0.078 C 
ATOM      3  C1  OXE d   1       0.158   0.115   0.516  0.00  0.00    -0.078 A 
ATOM      4  C2  OXE d   1      -1.183  -0.105   0.724  0.00  0.00    -0.078 A 
ATOM      5  C3  OXE d   1      -1.810   0.455   1.833  0.00  0.00     0.003 A 
ATOM      6  C4  OXE d   1      -1.126   1.364   2.650  0.00  0.00    -0.002 A 
ATOM      7  C5  OXE d   1       0.229   1.633   2.433  0.00  0.00    -0.002 A 
ATOM      8  C6  OXE d   1       0.895   0.986   1.398  0.00  0.00     0.003 A 
ENDROOT
TORSDOF 0
ENDMDL
