MODEL 1
REMARK minimizedAffinity 1.7587477
REMARK minimizedRMSD -1
REMARK  0 active torsions:
REMARK  status: ('A' for Active; 'I' for Inactive)
ROOT
ATOM      1  C1  DEN d   1       0.045  -0.314  -2.008  0.00  0.00     0.130 A 
ATOM      2  C2  DEN d   1       1.504  -0.248  -2.049  0.00  0.00    -0.031 A 
ATOM      3  C3  DEN d   1       1.994  -0.120  -0.662  0.00  0.00     0.027 A 
ATOM      4  C4  DEN d   1       0.645  -0.023   1.534  0.00  0.00     0.027 A 
ATOM      5  C5  DEN d   1      -0.623  -0.031   2.074  0.00  0.00    -0.003 A 
ATOM      6  C6  DEN d   1      -1.748  -0.100   1.296  0.00  0.00     0.001 A 
ATOM      7  C7  DEN d   1      -1.626  -0.208  -0.065  0.00  0.00     0.017 A 
ATOM      8  C8  DEN d   1      -0.353  -0.193  -0.617  0.00  0.00    -0.094 A 
ATOM      9  C9  DEN d   1       0.773  -0.135   0.187  0.00  0.00    -0.072 A 
ENDROOT
TORSDOF 0
ENDMDL
