MODEL 1
REMARK minimizedAffinity -0.833646059
REMARK minimizedRMSD -1
REMARK  0 active torsions:
REMARK  status: ('A' for Active; 'I' for Inactive)
ROOT
ATOM      1  C1  DEN d   1       0.451  -0.779   0.729  0.00  0.00     0.130 A 
ATOM      2  C2  DEN d   1      -0.730  -0.022   1.138  0.00  0.00    -0.031 A 
ATOM      3  C3  DEN d   1      -1.482  -0.840   2.110  0.00  0.00     0.027 A 
ATOM      4  C4  DEN d   1      -0.934  -3.190   3.022  0.00  0.00     0.027 A 
ATOM      5  C5  DEN d   1      -0.043  -4.238   2.960  0.00  0.00    -0.003 A 
ATOM      6  C6  DEN d   1       1.048  -4.221   2.132  0.00  0.00     0.001 A 
ATOM      7  C7  DEN d   1       1.301  -3.115   1.365  0.00  0.00     0.017 A 
ATOM      8  C8  DEN d   1       0.403  -2.057   1.416  0.00  0.00    -0.094 A 
ATOM      9  C9  DEN d   1      -0.688  -2.088   2.269  0.00  0.00    -0.072 A 
ENDROOT
TORSDOF 0
ENDMDL
