MODEL 1
REMARK minimizedAffinity -2.3529253
REMARK minimizedRMSD -1
REMARK  0 active torsions:
REMARK  status: ('A' for Active; 'I' for Inactive)
ROOT
ATOM      1  C1  DEN d   1      -0.003  -0.463   0.802  0.00  0.00     0.130 A 
ATOM      2  C2  DEN d   1      -1.300   0.067   1.215  0.00  0.00    -0.031 A 
ATOM      3  C3  DEN d   1      -1.926  -0.916   2.122  0.00  0.00     0.027 A 
ATOM      4  C4  DEN d   1      -1.017  -3.191   2.927  0.00  0.00     0.027 A 
ATOM      5  C5  DEN d   1       0.036  -4.075   2.837  0.00  0.00    -0.003 A 
ATOM      6  C6  DEN d   1       1.125  -3.834   2.042  0.00  0.00     0.001 A 
ATOM      7  C7  DEN d   1       1.207  -2.660   1.340  0.00  0.00     0.017 A 
ATOM      8  C8  DEN d   1       0.146  -1.768   1.421  0.00  0.00    -0.094 A 
ATOM      9  C9  DEN d   1      -0.940  -2.024   2.239  0.00  0.00    -0.072 A 
ENDROOT
TORSDOF 0
ENDMDL
