MODEL 1
REMARK minimizedAffinity -1.66598856
REMARK minimizedRMSD -1
REMARK  0 active torsions:
REMARK  status: ('A' for Active; 'I' for Inactive)
ROOT
ATOM      1  C1  DEN d   1       0.149  -0.807   0.164  0.00  0.00     0.130 A 
ATOM      2  C2  DEN d   1      -1.005   0.047   0.438  0.00  0.00    -0.031 A 
ATOM      3  C3  DEN d   1      -1.552  -0.334   1.755  0.00  0.00     0.027 A 
ATOM      4  C4  DEN d   1      -0.727  -2.148   3.392  0.00  0.00     0.027 A 
ATOM      5  C5  DEN d   1       0.210  -3.137   3.592  0.00  0.00    -0.003 A 
ATOM      6  C6  DEN d   1       1.164  -3.439   2.657  0.00  0.00     0.001 A 
ATOM      7  C7  DEN d   1       1.230  -2.714   1.496  0.00  0.00     0.017 A 
ATOM      8  C8  DEN d   1       0.284  -1.720   1.284  0.00  0.00    -0.094 A 
ATOM      9  C9  DEN d   1      -0.665  -1.422   2.248  0.00  0.00    -0.072 A 
ENDROOT
TORSDOF 0
ENDMDL
