MODEL 1
REMARK minimizedAffinity -0.26776275
REMARK minimizedRMSD -1
REMARK  0 active torsions:
REMARK  status: ('A' for Active; 'I' for Inactive)
ROOT
ATOM      1  C1  DEN d   1       1.501  -2.885   0.418  0.00  0.00     0.130 A 
ATOM      2  C2  DEN d   1       1.667  -3.735   1.594  0.00  0.00    -0.031 A 
ATOM      3  C3  DEN d   1       0.775  -3.225   2.655  0.00  0.00     0.027 A 
ATOM      4  C4  DEN d   1      -0.842  -1.217   2.589  0.00  0.00     0.027 A 
ATOM      5  C5  DEN d   1      -1.320  -0.185   1.812  0.00  0.00    -0.003 A 
ATOM      6  C6  DEN d   1      -0.870   0.037   0.537  0.00  0.00     0.001 A 
ATOM      7  C7  DEN d   1       0.054  -0.811  -0.014  0.00  0.00     0.017 A 
ATOM      8  C8  DEN d   1       0.546  -1.848   0.766  0.00  0.00    -0.094 A 
ATOM      9  C9  DEN d   1       0.070  -2.064   2.048  0.00  0.00    -0.072 A 
ENDROOT
TORSDOF 0
ENDMDL
