MODEL 1
REMARK minimizedAffinity -0.777783513
REMARK minimizedRMSD -1
REMARK  0 active torsions:
REMARK  status: ('A' for Active; 'I' for Inactive)
ROOT
ATOM      1  C1  DEN d   1      -2.010   1.492  -2.583  0.00  0.00     0.130 A 
ATOM      2  C2  DEN d   1      -1.048   2.580  -2.735  0.00  0.00    -0.031 A 
ATOM      3  C3  DEN d   1       0.003   2.406  -1.712  0.00  0.00     0.027 A 
ATOM      4  C4  DEN d   1       0.234   0.566   0.080  0.00  0.00     0.027 A 
ATOM      5  C5  DEN d   1      -0.345  -0.567   0.607  0.00  0.00    -0.003 A 
ATOM      6  C6  DEN d   1      -1.528  -1.070   0.133  0.00  0.00     0.001 A 
ATOM      7  C7  DEN d   1      -2.147  -0.464  -0.928  0.00  0.00     0.017 A 
ATOM      8  C8  DEN d   1      -1.573   0.683  -1.460  0.00  0.00    -0.094 A 
ATOM      9  C9  DEN d   1      -0.370   1.169  -0.975  0.00  0.00    -0.072 A 
ENDROOT
TORSDOF 0
ENDMDL
