MODEL 1
REMARK minimizedAffinity 2.5709753
REMARK minimizedRMSD -1
REMARK  0 active torsions:
REMARK  status: ('A' for Active; 'I' for Inactive)
ROOT
ATOM      1  C1  DEN d   1       0.535  -0.619  -0.746  0.00  0.00     0.130 A 
ATOM      2  C2  DEN d   1      -0.574   0.216  -0.293  0.00  0.00    -0.031 A 
ATOM      3  C3  DEN d   1      -0.939  -0.211   1.072  0.00  0.00     0.027 A 
ATOM      4  C4  DEN d   1       0.103  -2.072   2.524  0.00  0.00     0.027 A 
ATOM      5  C5  DEN d   1       1.061  -3.060   2.564  0.00  0.00    -0.003 A 
ATOM      6  C6  DEN d   1       1.883  -3.324   1.500  0.00  0.00     0.001 A 
ATOM      7  C7  DEN d   1       1.791  -2.561   0.366  0.00  0.00     0.017 A 
ATOM      8  C8  DEN d   1       0.822  -1.568   0.315  0.00  0.00    -0.094 A 
ATOM      9  C9  DEN d   1       0.009  -1.308   1.406  0.00  0.00    -0.072 A 
ENDROOT
TORSDOF 0
ENDMDL
