MODEL 1
REMARK minimizedAffinity -4.37120247
REMARK minimizedRMSD -1
REMARK  0 active torsions:
REMARK  status: ('A' for Active; 'I' for Inactive)
ROOT
ATOM      1  C4' PXY d   1       2.663  -5.222   1.735  0.00  0.00     0.077 C 
ATOM      2  C1' PXY d   1       0.225  -0.150   0.414  0.00  0.00     0.077 C 
ATOM      3  C1  PXY d   1       0.869  -1.481   0.748  0.00  0.00    -0.082 A 
ATOM      4  C2  PXY d   1       0.401  -2.199   1.756  0.00  0.00     0.003 A 
ATOM      5  C3  PXY d   1       0.991  -3.390   2.092  0.00  0.00     0.003 A 
ATOM      6  C4  PXY d   1       2.038  -3.877   1.355  0.00  0.00    -0.082 A 
ATOM      7  C5  PXY d   1       2.514  -3.155   0.319  0.00  0.00     0.003 A 
ATOM      8  C6  PXY d   1       1.927  -1.929   0.019  0.00  0.00     0.003 A 
ENDROOT
TORSDOF 0
ENDMDL
