MODEL 1
REMARK minimizedAffinity 4.74954414
REMARK minimizedRMSD -1
REMARK  0 active torsions:
REMARK  status: ('A' for Active; 'I' for Inactive)
ROOT
ATOM      1  C4' PXY d   1       2.368  -4.563   0.114  0.00  0.00     0.077 C 
ATOM      2  C1' PXY d   1      -0.767   0.130   1.365  0.00  0.00     0.077 C 
ATOM      3  C1  PXY d   1       0.059  -1.096   1.025  0.00  0.00    -0.082 A 
ATOM      4  C2  PXY d   1      -0.223  -2.254   1.599  0.00  0.00     0.003 A 
ATOM      5  C3  PXY d   1       0.533  -3.365   1.328  0.00  0.00     0.003 A 
ATOM      6  C4  PXY d   1       1.555  -3.302   0.419  0.00  0.00    -0.082 A 
ATOM      7  C5  PXY d   1       1.842  -2.127  -0.179  0.00  0.00     0.003 A 
ATOM      8  C6  PXY d   1       1.089  -1.001   0.141  0.00  0.00     0.003 A 
ENDROOT
TORSDOF 0
ENDMDL
