MODEL 1
REMARK minimizedAffinity 0.0917473137
REMARK minimizedRMSD -1
REMARK  0 active torsions:
REMARK  status: ('A' for Active; 'I' for Inactive)
ROOT
ATOM      1  C4' PXY d   1      -0.948   0.131   0.738  0.00  0.00     0.077 C 
ATOM      2  C1' PXY d   1       2.472  -4.526   0.933  0.00  0.00     0.077 C 
ATOM      3  C1  PXY d   1       1.584  -3.298   0.874  0.00  0.00    -0.082 A 
ATOM      4  C2  PXY d   1       0.691  -3.091   1.829  0.00  0.00     0.003 A 
ATOM      5  C3  PXY d   1      -0.142  -2.003   1.775  0.00  0.00     0.003 A 
ATOM      6  C4  PXY d   1      -0.024  -1.090   0.761  0.00  0.00    -0.082 A 
ATOM      7  C5  PXY d   1       0.892  -1.289  -0.210  0.00  0.00     0.003 A 
ATOM      8  C6  PXY d   1       1.700  -2.421  -0.159  0.00  0.00     0.003 A 
ENDROOT
TORSDOF 0
ENDMDL
