MODEL 1
REMARK minimizedAffinity 2.09487319
REMARK minimizedRMSD -1
REMARK  0 active torsions:
REMARK  status: ('A' for Active; 'I' for Inactive)
ROOT
ATOM      1  C4' PXY d   1      -5.998   2.143   5.997  0.00  0.00     0.077 C 
ATOM      2  C1' PXY d   1      -1.719   5.007   3.370  0.00  0.00     0.077 C 
ATOM      3  C1  PXY d   1      -2.841   4.248   4.049  0.00  0.00    -0.082 A 
ATOM      4  C2  PXY d   1      -3.592   4.859   4.951  0.00  0.00     0.003 A 
ATOM      5  C3  PXY d   1      -4.592   4.178   5.598  0.00  0.00     0.003 A 
ATOM      6  C4  PXY d   1      -4.859   2.873   5.280  0.00  0.00    -0.082 A 
ATOM      7  C5  PXY d   1      -4.104   2.246   4.353  0.00  0.00     0.003 A 
ATOM      8  C6  PXY d   1      -3.068   2.943   3.737  0.00  0.00     0.003 A 
ENDROOT
TORSDOF 0
ENDMDL
