MODEL 1
REMARK minimizedAffinity 2.86735344
REMARK minimizedRMSD -1
REMARK  0 active torsions:
REMARK  status: ('A' for Active; 'I' for Inactive)
ROOT
ATOM      1  C4' PXY d   1      -0.770  -0.559   1.725  0.00  0.00     0.077 C 
ATOM      2  C1' PXY d   1       2.751  -4.791  -0.038  0.00  0.00     0.077 C 
ATOM      3  C1  PXY d   1       1.818  -3.689   0.423  0.00  0.00    -0.082 A 
ATOM      4  C2  PXY d   1       2.204  -2.427   0.337  0.00  0.00     0.003 A 
ATOM      5  C3  PXY d   1       1.384  -1.419   0.778  0.00  0.00     0.003 A 
ATOM      6  C4  PXY d   1       0.136  -1.704   1.263  0.00  0.00    -0.082 A 
ATOM      7  C5  PXY d   1      -0.269  -2.989   1.344  0.00  0.00     0.003 A 
ATOM      8  C6  PXY d   1       0.593  -4.000   0.929  0.00  0.00     0.003 A 
ENDROOT
TORSDOF 0
ENDMDL
