MODEL 1
REMARK minimizedAffinity 8.42632294
REMARK minimizedRMSD -1
REMARK  0 active torsions:
REMARK  status: ('A' for Active; 'I' for Inactive)
ROOT
ATOM      1  C4' PXY d   1       2.712  -3.379   0.230  0.00  0.00     0.077 C 
ATOM      2  C1' PXY d   1      -1.358   0.188   2.262  0.00  0.00     0.077 C 
ATOM      3  C1  PXY d   1      -0.298  -0.757   1.731  0.00  0.00    -0.082 A 
ATOM      4  C2  PXY d   1       0.974  -0.393   1.751  0.00  0.00     0.003 A 
ATOM      5  C3  PXY d   1       1.941  -1.222   1.246  0.00  0.00     0.003 A 
ATOM      6  C4  PXY d   1       1.610  -2.460   0.764  0.00  0.00    -0.082 A 
ATOM      7  C5  PXY d   1       0.316  -2.844   0.750  0.00  0.00     0.003 A 
ATOM      8  C6  PXY d   1      -0.656  -1.970   1.229  0.00  0.00     0.003 A 
ENDROOT
TORSDOF 0
ENDMDL
