MODEL 1
REMARK minimizedAffinity 3.31209397
REMARK minimizedRMSD -1
REMARK  0 active torsions:
REMARK  status: ('A' for Active; 'I' for Inactive)
ROOT
ATOM      1  C4' PXY d   1      -0.428  -0.349   1.566  0.00  0.00     0.077 C 
ATOM      2  C1' PXY d   1       3.464  -4.322  -0.012  0.00  0.00     0.077 C 
ATOM      3  C1  PXY d   1       2.452  -3.270   0.400  0.00  0.00    -0.082 A 
ATOM      4  C2  PXY d   1       1.451  -3.603   1.198  0.00  0.00     0.003 A 
ATOM      5  C3  PXY d   1       0.509  -2.673   1.554  0.00  0.00     0.003 A 
ATOM      6  C4  PXY d   1       0.622  -1.375   1.132  0.00  0.00    -0.082 A 
ATOM      7  C5  PXY d   1       1.647  -1.025   0.326  0.00  0.00     0.003 A 
ATOM      8  C6  PXY d   1       2.570  -1.994  -0.058  0.00  0.00     0.003 A 
ENDROOT
TORSDOF 0
ENDMDL
