MODEL 1
REMARK minimizedAffinity 5.93399286
REMARK minimizedRMSD -1
REMARK  0 active torsions:
REMARK  status: ('A' for Active; 'I' for Inactive)
ROOT
ATOM      1  C4' PXY d   1       2.791   0.380   0.127  0.00  0.00     0.077 C 
ATOM      2  C1' PXY d   1      -1.435  -2.994   2.169  0.00  0.00     0.077 C 
ATOM      3  C1  PXY d   1      -0.318  -2.119   1.636  0.00  0.00    -0.082 A 
ATOM      4  C2  PXY d   1      -0.461  -0.804   1.636  0.00  0.00     0.003 A 
ATOM      5  C3  PXY d   1       0.526   0.002   1.128  0.00  0.00     0.003 A 
ATOM      6  C4  PXY d   1       1.693  -0.543   0.664  0.00  0.00    -0.082 A 
ATOM      7  C5  PXY d   1       1.851  -1.883   0.670  0.00  0.00     0.003 A 
ATOM      8  C6  PXY d   1       0.821  -2.685   1.152  0.00  0.00     0.003 A 
ENDROOT
TORSDOF 0
ENDMDL
