MODEL 1
REMARK minimizedAffinity 4.96621227
REMARK minimizedRMSD -1
REMARK  0 active torsions:
REMARK  status: ('A' for Active; 'I' for Inactive)
ROOT
ATOM      1  C4' PXY d   1      -3.774   5.557   6.000  0.00  0.00     0.077 C 
ATOM      2  C1' PXY d   1      -6.000   0.609   4.008  0.00  0.00     0.077 C 
ATOM      3  C1  PXY d   1      -5.404   1.903   4.526  0.00  0.00    -0.082 A 
ATOM      4  C2  PXY d   1      -5.999   2.545   5.518  0.00  0.00     0.003 A 
ATOM      5  C3  PXY d   1      -5.491   3.734   5.977  0.00  0.00     0.003 A 
ATOM      6  C4  PXY d   1      -4.334   4.242   5.451  0.00  0.00    -0.082 A 
ATOM      7  C5  PXY d   1      -3.716   3.587   4.445  0.00  0.00     0.003 A 
ATOM      8  C6  PXY d   1      -4.270   2.404   3.966  0.00  0.00     0.003 A 
ENDROOT
TORSDOF 0
ENDMDL
