MODEL 1
REMARK minimizedAffinity -2.12353063
REMARK minimizedRMSD -1
REMARK  3 active torsions:
REMARK  status: ('A' for Active; 'I' for Inactive)
REMARK    1  A    between atoms: C3'_2  and  C2'_3 
REMARK    2  A    between atoms: C2'_3  and  C1'_4 
REMARK    3  A    between atoms: C1'_4  and  C1_5 
ROOT
ATOM      1  C1  N4B d   1       0.362   0.101  -0.325  0.00  0.00    -0.075 A 
ATOM      2  C2  N4B d   1       1.322  -0.723  -0.953  0.00  0.00     0.002 A 
ATOM      3  C3  N4B d   1       2.308  -1.320  -0.207  0.00  0.00     0.002 A 
ATOM      4  C4  N4B d   1       2.365  -1.095   1.160  0.00  0.00    -0.004 A 
ATOM      5  C5  N4B d   1       1.418  -0.319   1.763  0.00  0.00     0.002 A 
ATOM      6  C6  N4B d   1       0.420   0.284   1.026  0.00  0.00     0.002 A 
ENDROOT
BRANCH   1   7
ATOM      7  C1' N4B d   1      -0.683   0.844  -1.111  0.00  0.00     0.057 C 
BRANCH   7   8
ATOM      8  C2' N4B d   1      -0.007   1.933  -1.938  0.00  0.00     0.009 C 
BRANCH   8   9
ATOM      9  C3' N4B d   1      -0.876   3.173  -2.065  0.00  0.00     0.004 C 
ATOM     10  C4' N4B d   1      -0.438   4.078  -3.177  0.00  0.00     0.003 C 
ENDBRANCH   8   9
ENDBRANCH   7   8
ENDBRANCH   1   7
TORSDOF 3
ENDMDL
