MODEL 1
REMARK minimizedAffinity -3.35249758
REMARK minimizedRMSD -1
REMARK  3 active torsions:
REMARK  status: ('A' for Active; 'I' for Inactive)
REMARK    1  A    between atoms: C3'_2  and  C2'_3 
REMARK    2  A    between atoms: C2'_3  and  C1'_4 
REMARK    3  A    between atoms: C1'_4  and  C1_5 
ROOT
ATOM      1  C1  N4B d   1       0.339  -0.200  -0.730  0.00  0.00    -0.075 A 
ATOM      2  C2  N4B d   1      -0.827  -0.378   0.046  0.00  0.00     0.002 A 
ATOM      3  C3  N4B d   1      -0.724  -0.620   1.394  0.00  0.00     0.002 A 
ATOM      4  C4  N4B d   1       0.529  -0.708   1.982  0.00  0.00    -0.004 A 
ATOM      5  C5  N4B d   1       1.650  -0.510   1.230  0.00  0.00     0.002 A 
ATOM      6  C6  N4B d   1       1.561  -0.262  -0.125  0.00  0.00     0.002 A 
ENDROOT
BRANCH   1   7
ATOM      7  C1' N4B d   1       0.280  -0.019  -2.222  0.00  0.00     0.057 C 
BRANCH   7   8
ATOM      8  C2' N4B d   1       1.036   1.251  -2.602  0.00  0.00     0.009 C 
BRANCH   8   9
ATOM      9  C3' N4B d   1       0.095   2.374  -3.004  0.00  0.00     0.004 C 
ATOM     10  C4' N4B d   1      -1.349   1.979  -2.919  0.00  0.00     0.003 C 
ENDBRANCH   8   9
ENDBRANCH   7   8
ENDBRANCH   1   7
TORSDOF 3
ENDMDL
