MODEL 1
REMARK minimizedAffinity -5.72313833
REMARK minimizedRMSD -1
REMARK  3 active torsions:
REMARK  status: ('A' for Active; 'I' for Inactive)
REMARK    1  A    between atoms: C3'_2  and  C2'_3 
REMARK    2  A    between atoms: C2'_3  and  C1'_4 
REMARK    3  A    between atoms: C1'_4  and  C1_5 
ROOT
ATOM      1  C1  N4B d   1       0.358  -0.702   0.768  0.00  0.00    -0.075 A 
ATOM      2  C2  N4B d   1       0.433  -1.060   2.132  0.00  0.00     0.002 A 
ATOM      3  C3  N4B d   1       1.436  -1.890   2.570  0.00  0.00     0.002 A 
ATOM      4  C4  N4B d   1       2.360  -2.387   1.663  0.00  0.00    -0.004 A 
ATOM      5  C5  N4B d   1       2.296  -2.016   0.352  0.00  0.00     0.002 A 
ATOM      6  C6  N4B d   1       1.296  -1.180  -0.101  0.00  0.00     0.002 A 
ENDROOT
BRANCH   1   7
ATOM      7  C1' N4B d   1      -0.770   0.133   0.227  0.00  0.00     0.057 C 
BRANCH   7   8
ATOM      8  C2' N4B d   1      -0.425   0.583  -1.190  0.00  0.00     0.009 C 
BRANCH   8   9
ATOM      9  C3' N4B d   1      -1.503   1.476  -1.780  0.00  0.00     0.004 C 
ATOM     10  C4' N4B d   1      -0.952   2.748  -2.353  0.00  0.00     0.003 C 
ENDBRANCH   8   9
ENDBRANCH   7   8
ENDBRANCH   1   7
TORSDOF 3
ENDMDL
