MODEL 1
REMARK minimizedAffinity -2.42209005
REMARK minimizedRMSD -1
REMARK  3 active torsions:
REMARK  status: ('A' for Active; 'I' for Inactive)
REMARK    1  A    between atoms: C3'_2  and  C2'_3 
REMARK    2  A    between atoms: C2'_3  and  C1'_4 
REMARK    3  A    between atoms: C1'_4  and  C1_5 
ROOT
ATOM      1  C1  N4B d   1       0.599  -0.606   0.898  0.00  0.00    -0.075 A 
ATOM      2  C2  N4B d   1       1.173  -0.156  -0.311  0.00  0.00     0.002 A 
ATOM      3  C3  N4B d   1       0.369   0.327  -1.315  0.00  0.00     0.002 A 
ATOM      4  C4  N4B d   1      -1.007   0.351  -1.140  0.00  0.00    -0.004 A 
ATOM      5  C5  N4B d   1      -1.551  -0.062   0.041  0.00  0.00     0.002 A 
ATOM      6  C6  N4B d   1      -0.755  -0.545   1.060  0.00  0.00     0.002 A 
ENDROOT
BRANCH   1   7
ATOM      7  C1' N4B d   1       1.430  -1.221   1.991  0.00  0.00     0.057 C 
BRANCH   7   8
ATOM      8  C2' N4B d   1       0.516  -1.640   3.139  0.00  0.00     0.009 C 
BRANCH   8   9
ATOM      9  C3' N4B d   1       0.048  -3.078   2.998  0.00  0.00     0.004 C 
ATOM     10  C4' N4B d   1      -1.387  -3.263   3.389  0.00  0.00     0.003 C 
ENDBRANCH   8   9
ENDBRANCH   7   8
ENDBRANCH   1   7
TORSDOF 3
ENDMDL
