MODEL 1
REMARK minimizedAffinity -4.18080854
REMARK minimizedRMSD -1
REMARK  3 active torsions:
REMARK  status: ('A' for Active; 'I' for Inactive)
REMARK    1  A    between atoms: C3'_2  and  C2'_3 
REMARK    2  A    between atoms: C2'_3  and  C1'_4 
REMARK    3  A    between atoms: C1'_4  and  C1_5 
ROOT
ATOM      1  C1  N4B d   1      -0.098   0.108   0.143  0.00  0.00    -0.075 A 
ATOM      2  C2  N4B d   1       0.766  -0.331   1.171  0.00  0.00     0.002 A 
ATOM      3  C3  N4B d   1       0.245  -0.768   2.364  0.00  0.00     0.002 A 
ATOM      4  C4  N4B d   1      -1.128  -0.757   2.559  0.00  0.00    -0.004 A 
ATOM      5  C5  N4B d   1      -1.956  -0.355   1.552  0.00  0.00     0.002 A 
ATOM      6  C6  N4B d   1      -1.447   0.083   0.346  0.00  0.00     0.002 A 
ENDROOT
BRANCH   1   7
ATOM      7  C1' N4B d   1       0.428   0.675  -1.147  0.00  0.00     0.057 C 
BRANCH   7   8
ATOM      8  C2' N4B d   1      -0.691   0.682  -2.184  0.00  0.00     0.009 C 
BRANCH   8   9
ATOM      9  C3' N4B d   1      -0.697   1.960  -3.005  0.00  0.00     0.004 C 
ATOM     10  C4' N4B d   1      -0.072   3.117  -2.284  0.00  0.00     0.003 C 
ENDBRANCH   8   9
ENDBRANCH   7   8
ENDBRANCH   1   7
TORSDOF 3
ENDMDL
