MODEL 1
REMARK minimizedAffinity 1.10528767
REMARK minimizedRMSD -1
REMARK  3 active torsions:
REMARK  status: ('A' for Active; 'I' for Inactive)
REMARK    1  A    between atoms: C3'_2  and  C2'_3 
REMARK    2  A    between atoms: C2'_3  and  C1'_4 
REMARK    3  A    between atoms: C1'_4  and  C1_5 
ROOT
ATOM      1  C1  N4B d   1       1.838  -0.989   2.354  0.00  0.00    -0.075 A 
ATOM      2  C2  N4B d   1       2.102   0.186   3.093  0.00  0.00     0.002 A 
ATOM      3  C3  N4B d   1       1.084   0.817   3.765  0.00  0.00     0.002 A 
ATOM      4  C4  N4B d   1      -0.203   0.306   3.697  0.00  0.00    -0.004 A 
ATOM      5  C5  N4B d   1      -0.445  -0.843   3.003  0.00  0.00     0.002 A 
ATOM      6  C6  N4B d   1       0.569  -1.491   2.326  0.00  0.00     0.002 A 
ENDROOT
BRANCH   1   7
ATOM      7  C1' N4B d   1       2.902  -1.666   1.534  0.00  0.00     0.057 C 
BRANCH   7   8
ATOM      8  C2' N4B d   1       2.919  -1.056   0.135  0.00  0.00     0.009 C 
BRANCH   8   9
ATOM      9  C3' N4B d   1       1.937  -1.743  -0.797  0.00  0.00     0.004 C 
ATOM     10  C4' N4B d   1       0.813  -0.845  -1.221  0.00  0.00     0.003 C 
ENDBRANCH   8   9
ENDBRANCH   7   8
ENDBRANCH   1   7
TORSDOF 3
ENDMDL
