MODEL 1
REMARK minimizedAffinity 11.0727262
REMARK minimizedRMSD -1
REMARK  1 active torsions:
REMARK  status: ('A' for Active; 'I' for Inactive)
REMARK    1  A    between atoms: N_2  and  C1_3 
ROOT
ATOM      1  C1  UNL d   1       3.182   1.328  -1.489  0.00  0.00     0.143 A 
ATOM      2  C2  UNL d   1       3.344   0.142  -0.765  0.00  0.00    -0.057 A 
ATOM      3  C3  UNL d   1       2.719  -0.044   0.474  0.00  0.00     0.033 A 
ATOM      4  C4  UNL d   1       1.942   0.969   1.027  0.00  0.00    -0.042 A 
ATOM      5  C5  UNL d   1       1.787   2.166   0.337  0.00  0.00     0.033 A 
ATOM      6  C6  UNL d   1       2.408   2.343  -0.903  0.00  0.00    -0.057 A 
ENDROOT
BRANCH   1   7
ATOM      7  N   UNL d   1       3.856   1.611  -2.679  0.00  0.00    -0.732 N 
ATOM      8  C   UNL d   1       3.853   0.662  -3.772  0.00  0.00     0.284 C 
ATOM      9  H3  UNL d   1       3.741   2.579  -2.970  0.00  0.00     0.395 HD
ENDBRANCH   1   7
TORSDOF 1
ENDMDL
