MODEL 1
REMARK minimizedAffinity 8.40416241
REMARK minimizedRMSD -1
REMARK  1 active torsions:
REMARK  status: ('A' for Active; 'I' for Inactive)
REMARK    1  A    between atoms: N_2  and  C1_3 
ROOT
ATOM      1  C1  UNL d   1      -1.511  -4.074  -3.964  0.00  0.00     0.143 A 
ATOM      2  C2  UNL d   1      -1.655  -3.120  -4.977  0.00  0.00    -0.057 A 
ATOM      3  C3  UNL d   1      -0.701  -2.991  -5.994  0.00  0.00     0.033 A 
ATOM      4  C4  UNL d   1       0.432  -3.799  -6.000  0.00  0.00    -0.042 A 
ATOM      5  C5  UNL d   1       0.608  -4.737  -4.989  0.00  0.00     0.033 A 
ATOM      6  C6  UNL d   1      -0.351  -4.865  -3.980  0.00  0.00    -0.057 A 
ENDROOT
BRANCH   1   7
ATOM      7  N   UNL d   1      -2.374  -4.184  -2.871  0.00  0.00    -0.732 N 
ATOM      8  C   UNL d   1      -3.057  -3.019  -2.351  0.00  0.00     0.284 C 
ATOM      9  H3  UNL d   1      -2.952  -5.020  -2.915  0.00  0.00     0.395 HD
ENDBRANCH   1   7
TORSDOF 1
ENDMDL
