MODEL 1
REMARK minimizedAffinity 0.0629655421
REMARK minimizedRMSD -1
REMARK  1 active torsions:
REMARK  status: ('A' for Active; 'I' for Inactive)
REMARK    1  A    between atoms: N_2  and  C1_3 
ROOT
ATOM      1  C1  UNL d   1       4.349   0.712   0.841  0.00  0.00     0.143 A 
ATOM      2  C2  UNL d   1       3.335   1.668   0.718  0.00  0.00    -0.057 A 
ATOM      3  C3  UNL d   1       3.569   2.898   0.091  0.00  0.00     0.033 A 
ATOM      4  C4  UNL d   1       4.834   3.206  -0.399  0.00  0.00    -0.042 A 
ATOM      5  C5  UNL d   1       5.863   2.282  -0.265  0.00  0.00     0.033 A 
ATOM      6  C6  UNL d   1       5.622   1.052   0.356  0.00  0.00    -0.057 A 
ENDROOT
BRANCH   1   7
ATOM      7  N   UNL d   1       4.205  -0.489   1.540  0.00  0.00    -0.732 N 
ATOM      8  C   UNL d   1       5.165  -0.871   2.554  0.00  0.00     0.284 C 
ATOM      9  H3  UNL d   1       3.237  -0.679   1.791  0.00  0.00     0.395 HD
ENDBRANCH   1   7
TORSDOF 1
ENDMDL
