MODEL 1
REMARK minimizedAffinity 4.73833609
REMARK minimizedRMSD -1
REMARK  1 active torsions:
REMARK  status: ('A' for Active; 'I' for Inactive)
REMARK    1  A    between atoms: N_2  and  C1_3 
ROOT
ATOM      1  C1  UNL d   1      -1.980  -2.482  -0.215  0.00  0.00     0.143 A 
ATOM      2  C2  UNL d   1      -1.794  -2.296  -1.589  0.00  0.00    -0.057 A 
ATOM      3  C3  UNL d   1      -2.820  -2.561  -2.503  0.00  0.00     0.033 A 
ATOM      4  C4  UNL d   1      -4.046  -3.047  -2.061  0.00  0.00    -0.042 A 
ATOM      5  C5  UNL d   1      -4.245  -3.264  -0.702  0.00  0.00     0.033 A 
ATOM      6  C6  UNL d   1      -3.219  -2.991   0.207  0.00  0.00    -0.057 A 
ENDROOT
BRANCH   1   7
ATOM      7  N   UNL d   1      -0.967  -2.331   0.736  0.00  0.00    -0.732 N 
ATOM      8  C   UNL d   1      -0.766  -3.328   1.764  0.00  0.00     0.284 C 
ATOM      9  H3  UNL d   1      -0.106  -1.971   0.331  0.00  0.00     0.395 HD
ENDBRANCH   1   7
TORSDOF 1
ENDMDL
