MODEL 1
REMARK minimizedAffinity 5.84082699
REMARK minimizedRMSD -1
REMARK  1 active torsions:
REMARK  status: ('A' for Active; 'I' for Inactive)
REMARK    1  A    between atoms: N_2  and  C1_3 
ROOT
ATOM      1  C1  UNL d   1      -3.667  -3.528  -2.127  0.00  0.00     0.143 A 
ATOM      2  C2  UNL d   1      -4.967  -3.397  -2.626  0.00  0.00    -0.057 A 
ATOM      3  C3  UNL d   1      -5.841  -4.490  -2.671  0.00  0.00     0.033 A 
ATOM      4  C4  UNL d   1      -5.419  -5.744  -2.243  0.00  0.00    -0.042 A 
ATOM      5  C5  UNL d   1      -4.122  -5.903  -1.766  0.00  0.00     0.033 A 
ATOM      6  C6  UNL d   1      -3.256  -4.807  -1.717  0.00  0.00    -0.057 A 
ENDROOT
BRANCH   1   7
ATOM      7  N   UNL d   1      -2.718  -2.502  -2.147  0.00  0.00    -0.732 N 
ATOM      8  C   UNL d   1      -1.900  -2.232  -0.985  0.00  0.00     0.284 C 
ATOM      9  H3  UNL d   1      -2.215  -2.456  -3.030  0.00  0.00     0.395 HD
ENDBRANCH   1   7
TORSDOF 1
ENDMDL
