MODEL 1
REMARK minimizedAffinity 15.2199697
REMARK minimizedRMSD -1
REMARK  1 active torsions:
REMARK  status: ('A' for Active; 'I' for Inactive)
REMARK    1  A    between atoms: N_2  and  C1_3 
ROOT
ATOM      1  C1  UNL d   1       3.601  -0.749  -5.597  0.00  0.00     0.143 A 
ATOM      2  C2  UNL d   1       4.869  -0.298  -5.977  0.00  0.00    -0.057 A 
ATOM      3  C3  UNL d   1       5.972  -1.161  -5.995  0.00  0.00     0.033 A 
ATOM      4  C4  UNL d   1       5.830  -2.488  -5.604  0.00  0.00    -0.042 A 
ATOM      5  C5  UNL d   1       4.584  -2.952  -5.198  0.00  0.00     0.033 A 
ATOM      6  C6  UNL d   1       3.485  -2.087  -5.189  0.00  0.00    -0.057 A 
ENDROOT
BRANCH   1   7
ATOM      7  N   UNL d   1       2.487   0.083  -5.464  0.00  0.00    -0.732 N 
ATOM      8  C   UNL d   1       2.503   1.428  -5.999  0.00  0.00     0.284 C 
ATOM      9  H3  UNL d   1       1.611  -0.413  -5.614  0.00  0.00     0.395 HD
ENDBRANCH   1   7
TORSDOF 1
ENDMDL
