MODEL 1
REMARK minimizedAffinity 2.30513787
REMARK minimizedRMSD -1
REMARK  1 active torsions:
REMARK  status: ('A' for Active; 'I' for Inactive)
REMARK    1  A    between atoms: N_2  and  C1_3 
ROOT
ATOM      1  C1  UNL d   1       3.018   3.786  -4.014  0.00  0.00     0.143 A 
ATOM      2  C2  UNL d   1       3.933   4.776  -4.388  0.00  0.00    -0.057 A 
ATOM      3  C3  UNL d   1       3.537   5.880  -5.152  0.00  0.00     0.033 A 
ATOM      4  C4  UNL d   1       2.219   6.000  -5.581  0.00  0.00    -0.042 A 
ATOM      5  C5  UNL d   1       1.298   5.015  -5.242  0.00  0.00     0.033 A 
ATOM      6  C6  UNL d   1       1.698   3.918  -4.474  0.00  0.00    -0.057 A 
ENDROOT
BRANCH   1   7
ATOM      7  N   UNL d   1       3.371   2.615  -3.339  0.00  0.00    -0.732 N 
ATOM      8  C   UNL d   1       4.526   1.847  -3.751  0.00  0.00     0.284 C 
ATOM      9  H3  UNL d   1       3.266   2.701  -2.331  0.00  0.00     0.395 HD
ENDBRANCH   1   7
TORSDOF 1
ENDMDL
