MODEL 1
REMARK minimizedAffinity 4.98227501
REMARK minimizedRMSD -1
REMARK  1 active torsions:
REMARK  status: ('A' for Active; 'I' for Inactive)
REMARK    1  A    between atoms: N_2  and  C1_3 
ROOT
ATOM      1  C1  UNL d   1       4.535   4.393   2.586  0.00  0.00     0.143 A 
ATOM      2  C2  UNL d   1       5.545   3.734   3.296  0.00  0.00    -0.057 A 
ATOM      3  C3  UNL d   1       5.951   4.178   4.560  0.00  0.00     0.033 A 
ATOM      4  C4  UNL d   1       5.372   5.309   5.126  0.00  0.00    -0.042 A 
ATOM      5  C5  UNL d   1       4.385   5.995   4.427  0.00  0.00     0.033 A 
ATOM      6  C6  UNL d   1       3.979   5.543   3.168  0.00  0.00    -0.057 A 
ENDROOT
BRANCH   1   7
ATOM      7  N   UNL d   1       4.156   4.059   1.283  0.00  0.00    -0.732 N 
ATOM      8  C   UNL d   1       3.580   2.764   0.992  0.00  0.00     0.284 C 
ATOM      9  H3  UNL d   1       3.705   4.833   0.799  0.00  0.00     0.395 HD
ENDBRANCH   1   7
TORSDOF 1
ENDMDL
