MODEL 1
REMARK minimizedAffinity 12.18855
REMARK minimizedRMSD -1
REMARK  1 active torsions:
REMARK  status: ('A' for Active; 'I' for Inactive)
REMARK    1  A    between atoms: N_2  and  C1_3 
ROOT
ATOM      1  C1  UNL d   1      -4.448   3.682   3.930  0.00  0.00     0.143 A 
ATOM      2  C2  UNL d   1      -4.227   4.184   5.217  0.00  0.00    -0.057 A 
ATOM      3  C3  UNL d   1      -4.898   5.323   5.677  0.00  0.00     0.033 A 
ATOM      4  C4  UNL d   1      -5.784   6.000   4.845  0.00  0.00    -0.042 A 
ATOM      5  C5  UNL d   1      -6.000   5.534   3.553  0.00  0.00     0.033 A 
ATOM      6  C6  UNL d   1      -5.332   4.392   3.102  0.00  0.00    -0.057 A 
ENDROOT
BRANCH   1   7
ATOM      7  N   UNL d   1      -3.738   2.612   3.380  0.00  0.00    -0.732 N 
ATOM      8  C   UNL d   1      -4.124   1.247   3.666  0.00  0.00     0.284 C 
ATOM      9  H3  UNL d   1      -3.479   2.776   2.410  0.00  0.00     0.395 HD
ENDBRANCH   1   7
TORSDOF 1
ENDMDL
