MODEL 1
REMARK minimizedAffinity 5.32430458
REMARK minimizedRMSD -1
REMARK  1 active torsions:
REMARK  status: ('A' for Active; 'I' for Inactive)
REMARK    1  A    between atoms: N_2  and  C1_3 
ROOT
ATOM      1  C1  UNL d   1      -5.045  -4.805  -0.111  0.00  0.00     0.143 A 
ATOM      2  C2  UNL d   1      -3.651  -4.900  -0.170  0.00  0.00    -0.057 A 
ATOM      3  C3  UNL d   1      -2.881  -3.908  -0.789  0.00  0.00     0.033 A 
ATOM      4  C4  UNL d   1      -3.496  -2.814  -1.390  0.00  0.00    -0.042 A 
ATOM      5  C5  UNL d   1      -4.883  -2.712  -1.366  0.00  0.00     0.033 A 
ATOM      6  C6  UNL d   1      -5.646  -3.702  -0.739  0.00  0.00    -0.057 A 
ENDROOT
BRANCH   1   7
ATOM      7  N   UNL d   1      -5.872  -5.806   0.404  0.00  0.00    -0.732 N 
ATOM      8  C   UNL d   1      -5.995  -5.998   1.833  0.00  0.00     0.284 C 
ATOM      9  H3  UNL d   1      -6.751  -5.882  -0.103  0.00  0.00     0.395 HD
ENDBRANCH   1   7
TORSDOF 1
ENDMDL
