MODEL 1
REMARK minimizedAffinity -0.276125759
REMARK minimizedRMSD -1
REMARK  1 active torsions:
REMARK  status: ('A' for Active; 'I' for Inactive)
REMARK    1  A    between atoms: N_2  and  C1_3 
ROOT
ATOM      1  C1  UNL d   1      -3.882  -2.762  -3.870  0.00  0.00     0.143 A 
ATOM      2  C2  UNL d   1      -4.899  -2.064  -3.211  0.00  0.00    -0.057 A 
ATOM      3  C3  UNL d   1      -5.020  -2.102  -1.816  0.00  0.00     0.033 A 
ATOM      4  C4  UNL d   1      -4.140  -2.865  -1.057  0.00  0.00    -0.042 A 
ATOM      5  C5  UNL d   1      -3.136  -3.587  -1.693  0.00  0.00     0.033 A 
ATOM      6  C6  UNL d   1      -3.017  -3.540  -3.085  0.00  0.00    -0.057 A 
ENDROOT
BRANCH   1   7
ATOM      7  N   UNL d   1      -3.769  -2.843  -5.260  0.00  0.00    -0.732 N 
ATOM      8  C   UNL d   1      -4.471  -3.872  -5.998  0.00  0.00     0.284 C 
ATOM      9  H3  UNL d   1      -3.785  -1.929  -5.706  0.00  0.00     0.395 HD
ENDBRANCH   1   7
TORSDOF 1
ENDMDL
