MODEL 1
REMARK minimizedAffinity 1.43881559
REMARK minimizedRMSD -1
REMARK  1 active torsions:
REMARK  status: ('A' for Active; 'I' for Inactive)
REMARK    1  A    between atoms: N_2  and  C1_3 
ROOT
ATOM      1  C1  UNL d   1      -1.141   0.590   2.394  0.00  0.00     0.143 A 
ATOM      2  C2  UNL d   1      -0.005  -0.224   2.460  0.00  0.00    -0.057 A 
ATOM      3  C3  UNL d   1       1.282   0.317   2.363  0.00  0.00     0.033 A 
ATOM      4  C4  UNL d   1       1.456   1.684   2.167  0.00  0.00    -0.042 A 
ATOM      5  C5  UNL d   1       0.341   2.508   2.073  0.00  0.00     0.033 A 
ATOM      6  C6  UNL d   1      -0.942   1.963   2.178  0.00  0.00    -0.057 A 
ENDROOT
BRANCH   1   7
ATOM      7  N   UNL d   1      -2.449   0.101   2.385  0.00  0.00    -0.732 N 
ATOM      8  C   UNL d   1      -3.504   0.804   3.083  0.00  0.00     0.284 C 
ATOM      9  H3  UNL d   1      -2.723  -0.261   1.474  0.00  0.00     0.395 HD
ENDBRANCH   1   7
TORSDOF 1
ENDMDL
