MODEL 1
REMARK minimizedAffinity -1.03339767
REMARK minimizedRMSD -1
REMARK  0 active torsions:
REMARK  status: ('A' for Active; 'I' for Inactive)
ROOT
ATOM      1  N1  IND d   1       1.415   1.635  -0.629  0.00  0.00    -0.196 N 
ATOM      2  C2  IND d   1       2.751   1.437  -0.417  0.00  0.00     0.054 A 
ATOM      3  C3  IND d   1       2.997   1.265   0.902  0.00  0.00    -0.031 A 
ATOM      4  C4  IND d   1       1.346   1.168   2.875  0.00  0.00     0.051 A 
ATOM      5  C5  IND d   1       0.025   1.331   3.182  0.00  0.00    -0.031 A 
ATOM      6  C6  IND d   1      -0.920   1.606   2.215  0.00  0.00     0.015 A 
ATOM      7  C7  IND d   1      -0.579   1.718   0.897  0.00  0.00    -0.016 A 
ATOM      8  C8  IND d   1       0.763   1.560   0.582  0.00  0.00    -0.047 A 
ATOM      9  C9  IND d   1       1.733   1.323   1.564  0.00  0.00    -0.096 A 
ATOM     10  HN1 IND d   1       1.045   1.781  -1.391  0.00  0.00     0.298 HD
ENDROOT
TORSDOF 0
ENDMDL
