MODEL 1
REMARK minimizedAffinity -2.26538444
REMARK minimizedRMSD -1
REMARK  0 active torsions:
REMARK  status: ('A' for Active; 'I' for Inactive)
ROOT
ATOM      1  N1  IND d   1       2.885   2.048  -0.426  0.00  0.00    -0.196 N 
ATOM      2  C2  IND d   1       4.212   1.759  -0.582  0.00  0.00     0.054 A 
ATOM      3  C3  IND d   1       4.401   0.420  -0.610  0.00  0.00    -0.031 A 
ATOM      4  C4  IND d   1       2.665  -1.479  -0.517  0.00  0.00     0.051 A 
ATOM      5  C5  IND d   1       1.330  -1.710  -0.339  0.00  0.00    -0.031 A 
ATOM      6  C6  IND d   1       0.426  -0.680  -0.181  0.00  0.00     0.015 A 
ATOM      7  C7  IND d   1       0.824   0.627  -0.206  0.00  0.00    -0.016 A 
ATOM      8  C8  IND d   1       2.180   0.865  -0.379  0.00  0.00    -0.047 A 
ATOM      9  C9  IND d   1       3.108  -0.178  -0.498  0.00  0.00    -0.096 A 
ATOM     10  HN1 IND d   1       2.547   2.837  -0.367  0.00  0.00     0.298 HD
ENDROOT
TORSDOF 0
ENDMDL
