MODEL 1
REMARK minimizedAffinity 0.291722238
REMARK minimizedRMSD -1
REMARK  0 active torsions:
REMARK  status: ('A' for Active; 'I' for Inactive)
ROOT
ATOM      1  N1  IND d   1       2.374   1.576  -0.545  0.00  0.00    -0.196 N 
ATOM      2  C2  IND d   1       3.702   1.568  -0.868  0.00  0.00     0.054 A 
ATOM      3  C3  IND d   1       4.096   0.321  -1.209  0.00  0.00    -0.031 A 
ATOM      4  C4  IND d   1       2.706  -1.837  -1.405  0.00  0.00     0.051 A 
ATOM      5  C5  IND d   1       1.454  -2.336  -1.177  0.00  0.00    -0.031 A 
ATOM      6  C6  IND d   1       0.423  -1.541  -0.720  0.00  0.00     0.015 A 
ATOM      7  C7  IND d   1       0.604  -0.207  -0.484  0.00  0.00    -0.016 A 
ATOM      8  C8  IND d   1       1.876   0.302  -0.708  0.00  0.00    -0.047 A 
ATOM      9  C9  IND d   1       2.936  -0.510  -1.131  0.00  0.00    -0.096 A 
ATOM     10  HN1 IND d   1       1.925   2.261  -0.284  0.00  0.00     0.298 HD
ENDROOT
TORSDOF 0
ENDMDL
