MODEL 1
REMARK minimizedAffinity 2.26253963
REMARK minimizedRMSD -1
REMARK  0 active torsions:
REMARK  status: ('A' for Active; 'I' for Inactive)
ROOT
ATOM      1  N1  IND d   1       3.161   2.539  -0.533  0.00  0.00    -0.196 N 
ATOM      2  C2  IND d   1       4.489   2.271  -0.715  0.00  0.00     0.054 A 
ATOM      3  C3  IND d   1       4.692   0.937  -0.799  0.00  0.00    -0.031 A 
ATOM      4  C4  IND d   1       2.978  -0.984  -0.767  0.00  0.00     0.051 A 
ATOM      5  C5  IND d   1       1.647  -1.237  -0.586  0.00  0.00    -0.031 A 
ATOM      6  C6  IND d   1       0.734  -0.224  -0.376  0.00  0.00     0.015 A 
ATOM      7  C7  IND d   1       1.118   1.087  -0.351  0.00  0.00    -0.016 A 
ATOM      8  C8  IND d   1       2.469   1.347  -0.528  0.00  0.00    -0.047 A 
ATOM      9  C9  IND d   1       3.407   0.321  -0.699  0.00  0.00    -0.096 A 
ATOM     10  HN1 IND d   1       2.815   3.321  -0.438  0.00  0.00     0.298 HD
ENDROOT
TORSDOF 0
ENDMDL
