MODEL 1
REMARK minimizedAffinity 1.22389662
REMARK minimizedRMSD -1
REMARK  0 active torsions:
REMARK  status: ('A' for Active; 'I' for Inactive)
ROOT
ATOM      1  N1  IND d   1       3.810   2.954  -0.449  0.00  0.00    -0.196 N 
ATOM      2  C2  IND d   1       5.024   2.749  -1.042  0.00  0.00     0.054 A 
ATOM      3  C3  IND d   1       5.146   1.460  -1.430  0.00  0.00    -0.031 A 
ATOM      4  C4  IND d   1       3.439  -0.461  -1.282  0.00  0.00     0.051 A 
ATOM      5  C5  IND d   1       2.203  -0.768  -0.787  0.00  0.00    -0.031 A 
ATOM      6  C6  IND d   1       1.422   0.170  -0.142  0.00  0.00     0.015 A 
ATOM      7  C7  IND d   1       1.846   1.459   0.021  0.00  0.00    -0.016 A 
ATOM      8  C8  IND d   1       3.104   1.772  -0.475  0.00  0.00    -0.047 A 
ATOM      9  C9  IND d   1       3.918   0.813  -1.092  0.00  0.00    -0.096 A 
ATOM     10  HN1 IND d   1       3.534   3.697  -0.115  0.00  0.00     0.298 HD
ENDROOT
TORSDOF 0
ENDMDL
