MODEL 1
REMARK minimizedAffinity 3.34002137
REMARK minimizedRMSD -1
REMARK  0 active torsions:
REMARK  status: ('A' for Active; 'I' for Inactive)
ROOT
ATOM      1  N1  IND d   1       3.179   2.686  -0.250  0.00  0.00    -0.196 N 
ATOM      2  C2  IND d   1       4.409   2.500  -0.817  0.00  0.00     0.054 A 
ATOM      3  C3  IND d   1       4.554   1.216  -1.216  0.00  0.00    -0.031 A 
ATOM      4  C4  IND d   1       2.863  -0.723  -1.129  0.00  0.00     0.051 A 
ATOM      5  C5  IND d   1       1.619  -1.048  -0.666  0.00  0.00    -0.031 A 
ATOM      6  C6  IND d   1       0.814  -0.125  -0.031  0.00  0.00     0.015 A 
ATOM      7  C7  IND d   1       1.220   1.166   0.156  0.00  0.00    -0.016 A 
ATOM      8  C8  IND d   1       2.486   1.497  -0.306  0.00  0.00    -0.047 A 
ATOM      9  C9  IND d   1       3.324   0.554  -0.914  0.00  0.00    -0.096 A 
ATOM     10  HN1 IND d   1       2.888   3.423   0.085  0.00  0.00     0.298 HD
ENDROOT
TORSDOF 0
ENDMDL
