MODEL 1
REMARK minimizedAffinity 4.59866953
REMARK minimizedRMSD -1
REMARK  0 active torsions:
REMARK  status: ('A' for Active; 'I' for Inactive)
ROOT
ATOM      1  N1  IND d   1       1.835  -1.594  -3.610  0.00  0.00    -0.196 N 
ATOM      2  C2  IND d   1       3.008  -2.256  -3.375  0.00  0.00     0.054 A 
ATOM      3  C3  IND d   1       3.055  -2.690  -2.096  0.00  0.00    -0.031 A 
ATOM      4  C4  IND d   1       1.278  -2.513  -0.242  0.00  0.00     0.051 A 
ATOM      5  C5  IND d   1       0.056  -1.963   0.031  0.00  0.00    -0.031 A 
ATOM      6  C6  IND d   1      -0.650  -1.250  -0.917  0.00  0.00     0.015 A 
ATOM      7  C7  IND d   1      -0.164  -1.069  -2.181  0.00  0.00    -0.016 A 
ATOM      8  C8  IND d   1       1.079  -1.620  -2.459  0.00  0.00    -0.047 A 
ATOM      9  C9  IND d   1       1.819  -2.308  -1.489  0.00  0.00    -0.096 A 
ATOM     10  HN1 IND d   1       1.608  -1.224  -4.352  0.00  0.00     0.298 HD
ENDROOT
TORSDOF 0
ENDMDL
