MODEL 1
REMARK minimizedAffinity -1.01657629
REMARK minimizedRMSD -1
REMARK  0 active torsions:
REMARK  status: ('A' for Active; 'I' for Inactive)
ROOT
ATOM      1  N1  IND d   1       2.587   1.978  -0.482  0.00  0.00    -0.196 N 
ATOM      2  C2  IND d   1       3.907   1.711  -0.719  0.00  0.00     0.054 A 
ATOM      3  C3  IND d   1       4.111   0.377  -0.793  0.00  0.00    -0.031 A 
ATOM      4  C4  IND d   1       2.407  -1.549  -0.657  0.00  0.00     0.051 A 
ATOM      5  C5  IND d   1       1.087  -1.803  -0.413  0.00  0.00    -0.031 A 
ATOM      6  C6  IND d   1       0.180  -0.790  -0.177  0.00  0.00     0.015 A 
ATOM      7  C7  IND d   1       0.560   0.522  -0.188  0.00  0.00    -0.016 A 
ATOM      8  C8  IND d   1       1.901   0.784  -0.429  0.00  0.00    -0.047 A 
ATOM      9  C9  IND d   1       2.834  -0.242  -0.627  0.00  0.00    -0.096 A 
ATOM     10  HN1 IND d   1       2.243   2.760  -0.382  0.00  0.00     0.298 HD
ENDROOT
TORSDOF 0
ENDMDL
