MODEL 1
REMARK minimizedAffinity 3.36690784
REMARK minimizedRMSD -1
REMARK  0 active torsions:
REMARK  status: ('A' for Active; 'I' for Inactive)
ROOT
ATOM      1  N1  IND d   1       0.005   1.849  -0.726  0.00  0.00    -0.196 N 
ATOM      2  C2  IND d   1       0.639   2.026   0.472  0.00  0.00     0.054 A 
ATOM      3  C3  IND d   1       0.939   0.830   1.026  0.00  0.00    -0.031 A 
ATOM      4  C4  IND d   1       0.573  -1.542   0.096  0.00  0.00     0.051 A 
ATOM      5  C5  IND d   1      -0.002  -2.214  -0.946  0.00  0.00    -0.031 A 
ATOM      6  C6  IND d   1      -0.614  -1.552  -1.991  0.00  0.00     0.015 A 
ATOM      7  C7  IND d   1      -0.664  -0.188  -2.038  0.00  0.00    -0.016 A 
ATOM      8  C8  IND d   1      -0.088   0.497  -0.978  0.00  0.00    -0.047 A 
ATOM      9  C9  IND d   1       0.497  -0.170   0.106  0.00  0.00    -0.096 A 
ATOM     10  HN1 IND d   1      -0.288   2.476  -1.237  0.00  0.00     0.298 HD
ENDROOT
TORSDOF 0
ENDMDL
