MODEL 1
REMARK minimizedAffinity -2.11221886
REMARK minimizedRMSD -1
REMARK  0 active torsions:
REMARK  status: ('A' for Active; 'I' for Inactive)
ROOT
ATOM      1  C   UNL d   1       2.459  -1.293  -0.309  0.00  0.00     0.023 A 
ATOM      2  C1  UNL d   1       1.336  -2.114  -0.209  0.00  0.00     0.003 A 
ATOM      3  C2  UNL d   1       0.061  -1.550  -0.140  0.00  0.00     0.048 A 
ATOM      4  C3  UNL d   1      -0.084  -0.163  -0.172  0.00  0.00     0.023 A 
ATOM      5  C4  UNL d   1       1.037   0.663  -0.274  0.00  0.00     0.048 A 
ATOM      6  C5  UNL d   1       2.310   0.094  -0.341  0.00  0.00     0.003 A 
ATOM      7  I   UNL d   1      -1.981   0.680  -0.070  0.00  0.00    -0.146 I 
ENDROOT
TORSDOF 0
ENDMDL
