MODEL 1
REMARK minimizedAffinity -3.97496414
REMARK minimizedRMSD -1
REMARK  0 active torsions:
REMARK  status: ('A' for Active; 'I' for Inactive)
ROOT
ATOM      1  C   UNL d   1       3.230  -0.971  -0.044  0.00  0.00     0.023 A 
ATOM      2  C1  UNL d   1       3.188   0.418   0.076  0.00  0.00     0.003 A 
ATOM      3  C2  UNL d   1       1.961   1.084   0.068  0.00  0.00     0.048 A 
ATOM      4  C3  UNL d   1       0.780   0.355  -0.061  0.00  0.00     0.023 A 
ATOM      5  C4  UNL d   1       0.817  -1.035  -0.181  0.00  0.00     0.048 A 
ATOM      6  C5  UNL d   1       2.046  -1.697  -0.173  0.00  0.00     0.003 A 
ATOM      7  I   UNL d   1      -1.048   1.344  -0.074  0.00  0.00    -0.146 I 
ENDROOT
TORSDOF 0
ENDMDL
