MODEL 1
REMARK minimizedAffinity -1.17298007
REMARK minimizedRMSD -1
REMARK  0 active torsions:
REMARK  status: ('A' for Active; 'I' for Inactive)
ROOT
ATOM      1  C   UNL d   1      -4.062   1.371   1.106  0.00  0.00     0.023 A 
ATOM      2  C1  UNL d   1      -3.911   0.958  -0.218  0.00  0.00     0.003 A 
ATOM      3  C2  UNL d   1      -2.696   0.421  -0.649  0.00  0.00     0.048 A 
ATOM      4  C3  UNL d   1      -1.637   0.298   0.250  0.00  0.00     0.023 A 
ATOM      5  C4  UNL d   1      -1.784   0.709   1.576  0.00  0.00     0.048 A 
ATOM      6  C5  UNL d   1      -3.000   1.246   2.002  0.00  0.00     0.003 A 
ATOM      7  I   UNL d   1       0.172  -0.502  -0.389  0.00  0.00    -0.146 I 
ENDROOT
TORSDOF 0
ENDMDL
