MODEL 1
REMARK minimizedAffinity -5.05852175
REMARK minimizedRMSD -1
REMARK  0 active torsions:
REMARK  status: ('A' for Active; 'I' for Inactive)
ROOT
ATOM      1  C   UNL d   1       3.663  -0.496   0.346  0.00  0.00     0.023 A 
ATOM      2  C1  UNL d   1       2.734  -1.445  -0.083  0.00  0.00     0.003 A 
ATOM      3  C2  UNL d   1       1.386  -1.102  -0.198  0.00  0.00     0.048 A 
ATOM      4  C3  UNL d   1       0.972   0.192   0.117  0.00  0.00     0.023 A 
ATOM      5  C4  UNL d   1       1.898   1.145   0.546  0.00  0.00     0.048 A 
ATOM      6  C5  UNL d   1       3.245   0.797   0.660  0.00  0.00     0.003 A 
ATOM      7  I   UNL d   1      -1.035   0.706  -0.053  0.00  0.00    -0.146 I 
ENDROOT
TORSDOF 0
ENDMDL
