MODEL 1
REMARK minimizedAffinity 0.12062069
REMARK minimizedRMSD -1
REMARK  0 active torsions:
REMARK  status: ('A' for Active; 'I' for Inactive)
ROOT
ATOM      1  C   UNL d   1      -0.320  -1.956  -0.753  0.00  0.00     0.023 A 
ATOM      2  C1  UNL d   1       1.027  -2.298  -0.630  0.00  0.00     0.003 A 
ATOM      3  C2  UNL d   1       1.978  -1.311  -0.363  0.00  0.00     0.048 A 
ATOM      4  C3  UNL d   1       1.575   0.017  -0.219  0.00  0.00     0.023 A 
ATOM      5  C4  UNL d   1       0.228   0.363  -0.341  0.00  0.00     0.048 A 
ATOM      6  C5  UNL d   1      -0.719  -0.627  -0.609  0.00  0.00     0.003 A 
ATOM      7  I   UNL d   1       2.988   1.488   0.179  0.00  0.00    -0.146 I 
ENDROOT
TORSDOF 0
ENDMDL
