MODEL 1
REMARK minimizedAffinity -3.89383483
REMARK minimizedRMSD -1
REMARK  0 active torsions:
REMARK  status: ('A' for Active; 'I' for Inactive)
ROOT
ATOM      1  C   UNL d   1       2.346   1.253  -0.061  0.00  0.00     0.023 A 
ATOM      2  C1  UNL d   1       3.072   0.062  -0.044  0.00  0.00     0.003 A 
ATOM      3  C2  UNL d   1       2.414  -1.160  -0.196  0.00  0.00     0.048 A 
ATOM      4  C3  UNL d   1       1.031  -1.184  -0.367  0.00  0.00     0.023 A 
ATOM      5  C4  UNL d   1       0.300   0.005  -0.387  0.00  0.00     0.048 A 
ATOM      6  C5  UNL d   1       0.962   1.225  -0.232  0.00  0.00     0.003 A 
ATOM      7  I   UNL d   1       0.049  -3.002  -0.595  0.00  0.00    -0.146 I 
ENDROOT
TORSDOF 0
ENDMDL
