MODEL 1
REMARK minimizedAffinity -1.31175041
REMARK minimizedRMSD -1
REMARK  0 active torsions:
REMARK  status: ('A' for Active; 'I' for Inactive)
ROOT
ATOM      1  C   UNL d   1       2.328  -1.110   0.114  0.00  0.00     0.023 A 
ATOM      2  C1  UNL d   1       2.245   0.283   0.126  0.00  0.00     0.003 A 
ATOM      3  C2  UNL d   1       0.999   0.911   0.075  0.00  0.00     0.048 A 
ATOM      4  C3  UNL d   1      -0.161   0.140   0.013  0.00  0.00     0.023 A 
ATOM      5  C4  UNL d   1      -0.084  -1.254   0.003  0.00  0.00     0.048 A 
ATOM      6  C5  UNL d   1       1.164  -1.877   0.053  0.00  0.00     0.003 A 
ATOM      7  I   UNL d   1      -2.017   1.072  -0.063  0.00  0.00    -0.146 I 
ENDROOT
TORSDOF 0
ENDMDL
