MODEL 1
REMARK minimizedAffinity 1.14228928
REMARK minimizedRMSD -1
REMARK  0 active torsions:
REMARK  status: ('A' for Active; 'I' for Inactive)
ROOT
ATOM      1  C   UNL d   1       0.835   2.885   0.074  0.00  0.00     0.023 A 
ATOM      2  C1  UNL d   1       0.470   2.452  -1.200  0.00  0.00     0.003 A 
ATOM      3  C2  UNL d   1       0.185   1.103  -1.426  0.00  0.00     0.048 A 
ATOM      4  C3  UNL d   1       0.265   0.194  -0.372  0.00  0.00     0.023 A 
ATOM      5  C4  UNL d   1       0.629   0.623   0.905  0.00  0.00     0.048 A 
ATOM      6  C5  UNL d   1       0.915   1.972   1.126  0.00  0.00     0.003 A 
ATOM      7  I   UNL d   1      -0.160  -1.813  -0.705  0.00  0.00    -0.146 I 
ENDROOT
TORSDOF 0
ENDMDL
