MODEL 1
REMARK minimizedAffinity -1.15752411
REMARK minimizedRMSD -1
REMARK  0 active torsions:
REMARK  status: ('A' for Active; 'I' for Inactive)
ROOT
ATOM      1  C   UNL d   1       2.732   1.884   2.350  0.00  0.00    -0.002 A 
ATOM      2  C1  UNL d   1       2.399   1.392   1.096  0.00  0.00     0.010 A 
ATOM      3  C2  UNL d   1       2.669   2.137  -0.054  0.00  0.00     0.041 A 
ATOM      4  C3  UNL d   1       3.288   3.395   0.079  0.00  0.00    -0.075 A 
ATOM      5  S   UNL d   1       3.716   4.482  -1.190  0.00  0.00     0.015 SA
ATOM      6  C4  UNL d   1       4.353   5.625  -0.097  0.00  0.00     0.022 A 
ATOM      7  C5  UNL d   1       4.249   5.204   1.208  0.00  0.00     0.026 A 
ATOM      8  C6  UNL d   1       3.634   3.912   1.331  0.00  0.00    -0.082 A 
ATOM      9  C7  UNL d   1       3.346   3.133   2.477  0.00  0.00     0.045 A 
ENDROOT
TORSDOF 0
ENDMDL
