MODEL 1
REMARK minimizedAffinity -1.9636749
REMARK minimizedRMSD -1
REMARK  0 active torsions:
REMARK  status: ('A' for Active; 'I' for Inactive)
ROOT
ATOM      1  C   UNL d   1       3.381   3.396   1.248  0.00  0.00    -0.002 A 
ATOM      2  C1  UNL d   1       2.706   2.822   2.316  0.00  0.00     0.010 A 
ATOM      3  C2  UNL d   1       2.023   1.615   2.159  0.00  0.00     0.041 A 
ATOM      4  C3  UNL d   1       2.030   0.987   0.898  0.00  0.00    -0.075 A 
ATOM      5  S   UNL d   1       1.263  -0.497   0.471  0.00  0.00     0.015 SA
ATOM      6  C4  UNL d   1       1.814  -0.405  -1.139  0.00  0.00     0.022 A 
ATOM      7  C5  UNL d   1       2.566   0.723  -1.363  0.00  0.00     0.026 A 
ATOM      8  C6  UNL d   1       2.703   1.544  -0.193  0.00  0.00    -0.082 A 
ATOM      9  C7  UNL d   1       3.386   2.769  -0.001  0.00  0.00     0.045 A 
ENDROOT
TORSDOF 0
ENDMDL
