MODEL 1
REMARK minimizedAffinity 1.44100904
REMARK minimizedRMSD -1
REMARK  0 active torsions:
REMARK  status: ('A' for Active; 'I' for Inactive)
ROOT
ATOM      1  C   UNL d   1       1.664  -0.086   0.105  0.00  0.00    -0.002 A 
ATOM      2  C1  UNL d   1       0.757   0.509  -0.760  0.00  0.00     0.010 A 
ATOM      3  C2  UNL d   1      -0.616   0.324  -0.586  0.00  0.00     0.041 A 
ATOM      4  C3  UNL d   1      -1.066  -0.474   0.484  0.00  0.00    -0.075 A 
ATOM      5  S   UNL d   1      -2.701  -0.840   0.893  0.00  0.00     0.015 SA
ATOM      6  C4  UNL d   1      -2.233  -1.793   2.226  0.00  0.00     0.022 A 
ATOM      7  C5  UNL d   1      -0.866  -1.843   2.370  0.00  0.00     0.026 A 
ATOM      8  C6  UNL d   1      -0.171  -1.083   1.369  0.00  0.00    -0.082 A 
ATOM      9  C7  UNL d   1       1.214  -0.878   1.165  0.00  0.00     0.045 A 
ENDROOT
TORSDOF 0
ENDMDL
