MODEL 1
REMARK minimizedAffinity -4.3177824
REMARK minimizedRMSD -1
REMARK  0 active torsions:
REMARK  status: ('A' for Active; 'I' for Inactive)
ROOT
ATOM      1  C   UNL d   1      -0.718   0.283   1.048  0.00  0.00    -0.002 A 
ATOM      2  C1  UNL d   1       0.288  -0.617   1.367  0.00  0.00     0.010 A 
ATOM      3  C2  UNL d   1       1.620  -0.202   1.428  0.00  0.00     0.041 A 
ATOM      4  C3  UNL d   1       1.926   1.147   1.161  0.00  0.00    -0.075 A 
ATOM      5  S   UNL d   1       3.485   1.882   1.176  0.00  0.00     0.015 SA
ATOM      6  C4  UNL d   1       2.852   3.409   0.760  0.00  0.00     0.022 A 
ATOM      7  C5  UNL d   1       1.486   3.377   0.609  0.00  0.00     0.026 A 
ATOM      8  C6  UNL d   1       0.929   2.073   0.838  0.00  0.00    -0.082 A 
ATOM      9  C7  UNL d   1      -0.411   1.620   0.784  0.00  0.00     0.045 A 
ENDROOT
TORSDOF 0
ENDMDL
