MODEL 1
REMARK minimizedAffinity 0.017867554
REMARK minimizedRMSD -1
REMARK  0 active torsions:
REMARK  status: ('A' for Active; 'I' for Inactive)
ROOT
ATOM      1  C   UNL d   1       2.667   3.754   1.611  0.00  0.00    -0.002 A 
ATOM      2  C1  UNL d   1       3.367   3.597   0.423  0.00  0.00     0.010 A 
ATOM      3  C2  UNL d   1       3.019   2.591  -0.479  0.00  0.00     0.041 A 
ATOM      4  C3  UNL d   1       1.943   1.736  -0.166  0.00  0.00    -0.075 A 
ATOM      5  S   UNL d   1       1.337   0.434  -1.120  0.00  0.00     0.015 SA
ATOM      6  C4  UNL d   1       0.134   0.055   0.027  0.00  0.00     0.022 A 
ATOM      7  C5  UNL d   1       0.180   0.892   1.117  0.00  0.00     0.026 A 
ATOM      8  C6  UNL d   1       1.222   1.875   1.024  0.00  0.00    -0.082 A 
ATOM      9  C7  UNL d   1       1.600   2.904   1.919  0.00  0.00     0.045 A 
ENDROOT
TORSDOF 0
ENDMDL
