MODEL 1
REMARK minimizedAffinity 0.230711728
REMARK minimizedRMSD -1
REMARK  0 active torsions:
REMARK  status: ('A' for Active; 'I' for Inactive)
ROOT
ATOM      1  C   UNL d   1       2.940   3.229   3.275  0.00  0.00    -0.002 A 
ATOM      2  C1  UNL d   1       2.754   1.905   2.904  0.00  0.00     0.010 A 
ATOM      3  C2  UNL d   1       3.072   1.478   1.613  0.00  0.00     0.041 A 
ATOM      4  C3  UNL d   1       3.586   2.414   0.693  0.00  0.00    -0.075 A 
ATOM      5  S   UNL d   1       4.047   2.118  -0.942  0.00  0.00     0.015 SA
ATOM      6  C4  UNL d   1       4.502   3.743  -1.185  0.00  0.00     0.022 A 
ATOM      7  C5  UNL d   1       4.314   4.505  -0.057  0.00  0.00     0.026 A 
ATOM      8  C6  UNL d   1       3.784   3.752   1.044  0.00  0.00    -0.082 A 
ATOM      9  C7  UNL d   1       3.451   4.154   2.361  0.00  0.00     0.045 A 
ENDROOT
TORSDOF 0
ENDMDL
