MODEL 1
REMARK minimizedAffinity -3.87374449
REMARK minimizedRMSD -1
REMARK  0 active torsions:
REMARK  status: ('A' for Active; 'I' for Inactive)
ROOT
ATOM      1  C   UNL d   1      -3.764  -1.468  -0.380  0.00  0.00    -0.002 A 
ATOM      2  C1  UNL d   1      -3.241  -0.405  -1.102  0.00  0.00     0.010 A 
ATOM      3  C2  UNL d   1      -1.930   0.024  -0.883  0.00  0.00     0.041 A 
ATOM      4  C3  UNL d   1      -1.147  -0.641   0.080  0.00  0.00    -0.075 A 
ATOM      5  S   UNL d   1       0.484  -0.290   0.516  0.00  0.00     0.015 SA
ATOM      6  C4  UNL d   1       0.524  -1.544   1.670  0.00  0.00     0.022 A 
ATOM      7  C5  UNL d   1      -0.669  -2.223   1.735  0.00  0.00     0.026 A 
ATOM      8  C6  UNL d   1      -1.652  -1.715   0.819  0.00  0.00    -0.082 A 
ATOM      9  C7  UNL d   1      -2.984  -2.125   0.575  0.00  0.00     0.045 A 
ENDROOT
TORSDOF 0
ENDMDL
