MODEL 1
REMARK minimizedAffinity -1.80184376
REMARK minimizedRMSD -1
REMARK  0 active torsions:
REMARK  status: ('A' for Active; 'I' for Inactive)
ROOT
ATOM      1  C   UNL d   1      -3.358  -1.206   0.050  0.00  0.00    -0.002 A 
ATOM      2  C1  UNL d   1      -2.752  -1.187   1.298  0.00  0.00     0.010 A 
ATOM      3  C2  UNL d   1      -1.438  -0.739   1.443  0.00  0.00     0.041 A 
ATOM      4  C3  UNL d   1      -0.737  -0.304   0.301  0.00  0.00    -0.075 A 
ATOM      5  S   UNL d   1       0.881   0.288   0.238  0.00  0.00     0.015 SA
ATOM      6  C4  UNL d   1       0.806   0.531  -1.447  0.00  0.00     0.022 A 
ATOM      7  C5  UNL d   1      -0.417   0.175  -1.966  0.00  0.00     0.026 A 
ATOM      8  C6  UNL d   1      -1.326  -0.312  -0.966  0.00  0.00    -0.082 A 
ATOM      9  C7  UNL d   1      -2.660  -0.773  -1.080  0.00  0.00     0.045 A 
ENDROOT
TORSDOF 0
ENDMDL
