MODEL 1
REMARK minimizedAffinity 6.1879878
REMARK minimizedRMSD -1
REMARK  0 active torsions:
REMARK  status: ('A' for Active; 'I' for Inactive)
ROOT
ATOM      1  C   UNL d   1      -2.085  -1.063  -1.607  0.00  0.00     0.023 A 
ATOM      2  C1  UNL d   1      -0.721  -0.781  -1.538  0.00  0.00     0.003 A 
ATOM      3  C2  UNL d   1      -0.289   0.504  -1.203  0.00  0.00     0.048 A 
ATOM      4  C3  UNL d   1      -1.227   1.502  -0.938  0.00  0.00     0.023 A 
ATOM      5  C4  UNL d   1      -2.593   1.223  -1.005  0.00  0.00     0.048 A 
ATOM      6  C5  UNL d   1      -3.020  -0.063  -1.341  0.00  0.00     0.003 A 
ATOM      7  I   UNL d   1      -0.586   3.415  -0.439  0.00  0.00    -0.146 I 
ENDROOT
TORSDOF 0
ENDMDL
