MODEL 1
REMARK minimizedAffinity 5.60157061
REMARK minimizedRMSD -1
REMARK  0 active torsions:
REMARK  status: ('A' for Active; 'I' for Inactive)
ROOT
ATOM      1  C   UNL d   1       0.835   2.225   3.315  0.00  0.00     0.023 A 
ATOM      2  C1  UNL d   1       1.758   2.945   2.556  0.00  0.00     0.003 A 
ATOM      3  C2  UNL d   1       1.357   3.565   1.370  0.00  0.00     0.048 A 
ATOM      4  C3  UNL d   1       0.032   3.462   0.950  0.00  0.00     0.023 A 
ATOM      5  C4  UNL d   1      -0.895   2.743   1.707  0.00  0.00     0.048 A 
ATOM      6  C5  UNL d   1      -0.490   2.124   2.891  0.00  0.00     0.003 A 
ATOM      7  I   UNL d   1      -0.567   4.383  -0.814  0.00  0.00    -0.146 I 
ENDROOT
TORSDOF 0
ENDMDL
