MODEL 1
REMARK minimizedAffinity 8.32460403
REMARK minimizedRMSD -1
REMARK  0 active torsions:
REMARK  status: ('A' for Active; 'I' for Inactive)
ROOT
ATOM      1  C   UNL d   1      -0.464   3.833  -1.195  0.00  0.00     0.023 A 
ATOM      2  C1  UNL d   1      -0.868   2.500  -1.121  0.00  0.00     0.003 A 
ATOM      3  C2  UNL d   1      -0.696   1.782   0.064  0.00  0.00     0.048 A 
ATOM      4  C3  UNL d   1      -0.121   2.404   1.172  0.00  0.00     0.023 A 
ATOM      5  C4  UNL d   1       0.284   3.738   1.103  0.00  0.00     0.048 A 
ATOM      6  C5  UNL d   1       0.111   4.451  -0.084  0.00  0.00     0.003 A 
ATOM      7  I   UNL d   1       0.136   1.337   2.937  0.00  0.00    -0.146 I 
ENDROOT
TORSDOF 0
ENDMDL
