MODEL 1
REMARK minimizedAffinity 1.58506083
REMARK minimizedRMSD -1
REMARK  0 active torsions:
REMARK  status: ('A' for Active; 'I' for Inactive)
ROOT
ATOM      1  C   UNL d   1       0.293   4.017  -0.475  0.00  0.00     0.023 A 
ATOM      2  C1  UNL d   1       1.414   4.020   0.355  0.00  0.00     0.003 A 
ATOM      3  C2  UNL d   1       1.411   3.276   1.537  0.00  0.00     0.048 A 
ATOM      4  C3  UNL d   1       0.284   2.532   1.883  0.00  0.00     0.023 A 
ATOM      5  C4  UNL d   1      -0.840   2.526   1.055  0.00  0.00     0.048 A 
ATOM      6  C5  UNL d   1      -0.833   3.271  -0.125  0.00  0.00     0.003 A 
ATOM      7  I   UNL d   1       0.278   1.425   3.641  0.00  0.00    -0.146 I 
ENDROOT
TORSDOF 0
ENDMDL
