MODEL 1
REMARK minimizedAffinity 5.34648895
REMARK minimizedRMSD -1
REMARK  0 active torsions:
REMARK  status: ('A' for Active; 'I' for Inactive)
ROOT
ATOM      1  C   UNL d   1       0.680   1.198   3.780  0.00  0.00     0.023 A 
ATOM      2  C1  UNL d   1      -0.564   0.950   3.201  0.00  0.00     0.003 A 
ATOM      3  C2  UNL d   1      -0.910   1.562   1.995  0.00  0.00     0.048 A 
ATOM      4  C3  UNL d   1      -0.005   2.422   1.372  0.00  0.00     0.023 A 
ATOM      5  C4  UNL d   1       1.242   2.673   1.947  0.00  0.00     0.048 A 
ATOM      6  C5  UNL d   1       1.582   2.059   3.154  0.00  0.00     0.003 A 
ATOM      7  I   UNL d   1      -0.517   3.335  -0.424  0.00  0.00    -0.146 I 
ENDROOT
TORSDOF 0
ENDMDL
