MODEL 1
REMARK minimizedAffinity 3.85766459
REMARK minimizedRMSD -1
REMARK  0 active torsions:
REMARK  status: ('A' for Active; 'I' for Inactive)
ROOT
ATOM      1  C   UNL d   1      -1.597  -1.235  -1.405  0.00  0.00     0.023 A 
ATOM      2  C1  UNL d   1      -2.612  -0.337  -1.079  0.00  0.00     0.003 A 
ATOM      3  C2  UNL d   1      -2.302   0.991  -0.779  0.00  0.00     0.048 A 
ATOM      4  C3  UNL d   1      -0.974   1.415  -0.810  0.00  0.00     0.023 A 
ATOM      5  C4  UNL d   1       0.046   0.520  -1.137  0.00  0.00     0.048 A 
ATOM      6  C5  UNL d   1      -0.269  -0.807  -1.434  0.00  0.00     0.003 A 
ATOM      7  I   UNL d   1      -0.510   3.391  -0.365  0.00  0.00    -0.146 I 
ENDROOT
TORSDOF 0
ENDMDL
