MODEL 1
REMARK minimizedAffinity 12.4348764
REMARK minimizedRMSD -1
REMARK  0 active torsions:
REMARK  status: ('A' for Active; 'I' for Inactive)
ROOT
ATOM      1  C   UNL d   1      -1.238  -1.369  -1.966  0.00  0.00     0.023 A 
ATOM      2  C1  UNL d   1      -2.268  -0.674  -1.332  0.00  0.00     0.003 A 
ATOM      3  C2  UNL d   1      -2.031   0.594  -0.799  0.00  0.00     0.048 A 
ATOM      4  C3  UNL d   1      -0.762   1.162  -0.904  0.00  0.00     0.023 A 
ATOM      5  C4  UNL d   1       0.271   0.471  -1.539  0.00  0.00     0.048 A 
ATOM      6  C5  UNL d   1       0.030  -0.798  -2.070  0.00  0.00     0.003 A 
ATOM      7  I   UNL d   1      -0.406   3.050  -0.111  0.00  0.00    -0.146 I 
ENDROOT
TORSDOF 0
ENDMDL
