MODEL 1
REMARK minimizedAffinity 12.8065767
REMARK minimizedRMSD -1
REMARK  0 active torsions:
REMARK  status: ('A' for Active; 'I' for Inactive)
ROOT
ATOM      1  C   UNL d   1       5.962  -3.100  -1.526  0.00  0.00     0.023 A 
ATOM      2  C1  UNL d   1       5.274  -1.912  -1.280  0.00  0.00     0.003 A 
ATOM      3  C2  UNL d   1       4.179  -1.904  -0.413  0.00  0.00     0.048 A 
ATOM      4  C3  UNL d   1       3.778  -3.088   0.205  0.00  0.00     0.023 A 
ATOM      5  C4  UNL d   1       4.464  -4.279  -0.038  0.00  0.00     0.048 A 
ATOM      6  C5  UNL d   1       5.558  -4.282  -0.905  0.00  0.00     0.003 A 
ATOM      7  I   UNL d   1       2.149  -3.080   1.495  0.00  0.00    -0.146 I 
ENDROOT
TORSDOF 0
ENDMDL
