MODEL 1
REMARK minimizedAffinity 6.47553635
REMARK minimizedRMSD -1
REMARK  0 active torsions:
REMARK  status: ('A' for Active; 'I' for Inactive)
ROOT
ATOM      1  C   UNL d   1      -4.015  -1.403   4.443  0.00  0.00     0.023 A 
ATOM      2  C1  UNL d   1      -3.218  -2.531   4.245  0.00  0.00     0.003 A 
ATOM      3  C2  UNL d   1      -3.658  -3.783   4.681  0.00  0.00     0.048 A 
ATOM      4  C3  UNL d   1      -4.896  -3.900   5.312  0.00  0.00     0.023 A 
ATOM      5  C4  UNL d   1      -5.696  -2.774   5.512  0.00  0.00     0.048 A 
ATOM      6  C5  UNL d   1      -5.252  -1.524   5.076  0.00  0.00     0.003 A 
ATOM      7  I   UNL d   1      -5.553  -5.762   5.961  0.00  0.00    -0.146 I 
ENDROOT
TORSDOF 0
ENDMDL
