MODEL 1
REMARK minimizedAffinity 6.85588503
REMARK minimizedRMSD -1
REMARK  0 active torsions:
REMARK  status: ('A' for Active; 'I' for Inactive)
ROOT
ATOM      1  C   UNL d   1       1.351  -5.990  -5.001  0.00  0.00     0.023 A 
ATOM      2  C1  UNL d   1       0.466  -5.581  -5.999  0.00  0.00     0.003 A 
ATOM      3  C2  UNL d   1      -0.260  -4.398  -5.849  0.00  0.00     0.048 A 
ATOM      4  C3  UNL d   1      -0.096  -3.627  -4.699  0.00  0.00     0.023 A 
ATOM      5  C4  UNL d   1       0.788  -4.032  -3.697  0.00  0.00     0.048 A 
ATOM      6  C5  UNL d   1       1.511  -5.216  -3.851  0.00  0.00     0.003 A 
ATOM      7  I   UNL d   1      -1.176  -1.866  -4.473  0.00  0.00    -0.146 I 
ENDROOT
TORSDOF 0
ENDMDL
