MODEL 1
REMARK minimizedAffinity 11.3912239
REMARK minimizedRMSD -1
REMARK  0 active torsions:
REMARK  status: ('A' for Active; 'I' for Inactive)
ROOT
ATOM      1  O1  BZF d   1       2.851  -3.163  -3.781  0.00  0.00    -0.204 OA
ATOM      2  C2  BZF d   1       2.264  -3.773  -2.689  0.00  0.00     0.174 A 
ATOM      3  C3  BZF d   1       2.445  -3.036  -1.575  0.00  0.00    -0.012 A 
ATOM      4  C3A BZF d   1       3.111  -1.848  -2.013  0.00  0.00    -0.107 A 
ATOM      5  C4  BZF d   1       3.547  -0.725  -1.370  0.00  0.00     0.055 A 
ATOM      6  C5  BZF d   1       4.227   0.218  -2.075  0.00  0.00    -0.016 A 
ATOM      7  C6  BZF d   1       4.492   0.067  -3.420  0.00  0.00     0.022 A 
ATOM      8  C7  BZF d   1       4.075  -1.027  -4.102  0.00  0.00     0.029 A 
ATOM      9  C7A BZF d   1       3.360  -1.966  -3.400  0.00  0.00     0.058 A 
ENDROOT
TORSDOF 0
ENDMDL
