MODEL 1
REMARK minimizedAffinity 12.8014326
REMARK minimizedRMSD -1
REMARK  0 active torsions:
REMARK  status: ('A' for Active; 'I' for Inactive)
ROOT
ATOM      1  O1  BZF d   1       3.450   5.475  -1.031  0.00  0.00    -0.204 OA
ATOM      2  C2  BZF d   1       2.168   5.091  -1.374  0.00  0.00     0.174 A 
ATOM      3  C3  BZF d   1       2.050   4.959  -2.711  0.00  0.00    -0.012 A 
ATOM      4  C3A BZF d   1       3.364   5.191  -3.229  0.00  0.00    -0.107 A 
ATOM      5  C4  BZF d   1       3.891   5.185  -4.489  0.00  0.00     0.055 A 
ATOM      6  C5  BZF d   1       5.195   5.524  -4.661  0.00  0.00    -0.016 A 
ATOM      7  C6  BZF d   1       5.999   5.880  -3.598  0.00  0.00     0.022 A 
ATOM      8  C7  BZF d   1       5.523   5.896  -2.329  0.00  0.00     0.029 A 
ATOM      9  C7A BZF d   1       4.213   5.521  -2.149  0.00  0.00     0.058 A 
ENDROOT
TORSDOF 0
ENDMDL
