MODEL 1
REMARK minimizedAffinity 2.49196625
REMARK minimizedRMSD -1
REMARK  0 active torsions:
REMARK  status: ('A' for Active; 'I' for Inactive)
ROOT
ATOM      1  O1  BZF d   1      -4.408  -5.222  -3.812  0.00  0.00    -0.204 OA
ATOM      2  C2  BZF d   1      -5.148  -4.298  -4.523  0.00  0.00     0.174 A 
ATOM      3  C3  BZF d   1      -5.921  -3.566  -3.696  0.00  0.00    -0.012 A 
ATOM      4  C3A BZF d   1      -5.577  -4.000  -2.377  0.00  0.00    -0.107 A 
ATOM      5  C4  BZF d   1      -5.994  -3.635  -1.129  0.00  0.00     0.055 A 
ATOM      6  C5  BZF d   1      -5.515  -4.306  -0.049  0.00  0.00    -0.016 A 
ATOM      7  C6  BZF d   1      -4.622  -5.349  -0.180  0.00  0.00     0.022 A 
ATOM      8  C7  BZF d   1      -4.175  -5.745  -1.397  0.00  0.00     0.029 A 
ATOM      9  C7A BZF d   1      -4.633  -5.047  -2.488  0.00  0.00     0.058 A 
ENDROOT
TORSDOF 0
ENDMDL
