MODEL 1
REMARK minimizedAffinity 11.275301
REMARK minimizedRMSD -1
REMARK  0 active torsions:
REMARK  status: ('A' for Active; 'I' for Inactive)
ROOT
ATOM      1  O1  BZF d   1       3.814   0.904  -4.288  0.00  0.00    -0.204 OA
ATOM      2  C2  BZF d   1       4.297   1.803  -5.219  0.00  0.00     0.174 A 
ATOM      3  C3  BZF d   1       5.233   1.226  -6.000  0.00  0.00    -0.012 A 
ATOM      4  C3A BZF d   1       5.276  -0.143  -5.587  0.00  0.00    -0.107 A 
ATOM      5  C4  BZF d   1       6.000  -1.226  -5.998  0.00  0.00     0.055 A 
ATOM      6  C5  BZF d   1       5.857  -2.405  -5.338  0.00  0.00    -0.016 A 
ATOM      7  C6  BZF d   1       5.006  -2.536  -4.261  0.00  0.00     0.022 A 
ATOM      8  C7  BZF d   1       4.263  -1.491  -3.819  0.00  0.00     0.029 A 
ATOM      9  C7A BZF d   1       4.381  -0.307  -4.505  0.00  0.00     0.058 A 
ENDROOT
TORSDOF 0
ENDMDL
