MODEL 1
REMARK minimizedAffinity 2.52285528
REMARK minimizedRMSD -1
REMARK  0 active torsions:
REMARK  status: ('A' for Active; 'I' for Inactive)
ROOT
ATOM      1  O1  BZF d   1       3.440   0.311   1.549  0.00  0.00    -0.204 OA
ATOM      2  C2  BZF d   1       2.322  -0.499   1.514  0.00  0.00     0.174 A 
ATOM      3  C3  BZF d   1       1.344   0.068   0.779  0.00  0.00    -0.012 A 
ATOM      4  C3A BZF d   1       1.918   1.267   0.249  0.00  0.00    -0.107 A 
ATOM      5  C4  BZF d   1       1.445   2.252  -0.570  0.00  0.00     0.055 A 
ATOM      6  C5  BZF d   1       2.235   3.325  -0.837  0.00  0.00    -0.016 A 
ATOM      7  C6  BZF d   1       3.499   3.448  -0.299  0.00  0.00     0.022 A 
ATOM      8  C7  BZF d   1       4.013   2.494   0.516  0.00  0.00     0.029 A 
ATOM      9  C7A BZF d   1       3.230   1.393   0.761  0.00  0.00     0.058 A 
ENDROOT
TORSDOF 0
ENDMDL
