MODEL 1
REMARK minimizedAffinity 1.6370641
REMARK minimizedRMSD -1
REMARK  0 active torsions:
REMARK  status: ('A' for Active; 'I' for Inactive)
ROOT
ATOM      1  O1  BZF d   1       0.353  -1.991   2.183  0.00  0.00    -0.204 OA
ATOM      2  C2  BZF d   1       1.465  -2.645   2.676  0.00  0.00     0.174 A 
ATOM      3  C3  BZF d   1       2.588  -1.947   2.411  0.00  0.00    -0.012 A 
ATOM      4  C3A BZF d   1       2.140  -0.738   1.788  0.00  0.00    -0.107 A 
ATOM      5  C4  BZF d   1       2.786   0.365   1.309  0.00  0.00     0.055 A 
ATOM      6  C5  BZF d   1       2.064   1.338   0.694  0.00  0.00    -0.016 A 
ATOM      7  C6  BZF d   1       0.697   1.238   0.537  0.00  0.00     0.022 A 
ATOM      8  C7  BZF d   1       0.011   0.165   1.001  0.00  0.00     0.029 A 
ATOM      9  C7A BZF d   1       0.735  -0.805   1.652  0.00  0.00     0.058 A 
ENDROOT
TORSDOF 0
ENDMDL
