MODEL 1
REMARK minimizedAffinity 4.61810303
REMARK minimizedRMSD -1
REMARK  0 active torsions:
REMARK  status: ('A' for Active; 'I' for Inactive)
ROOT
ATOM      1  O1  BZF d   1       2.694  -3.228   2.482  0.00  0.00    -0.204 OA
ATOM      2  C2  BZF d   1       2.908  -2.853   1.170  0.00  0.00     0.174 A 
ATOM      3  C3  BZF d   1       2.543  -1.570   0.973  0.00  0.00    -0.012 A 
ATOM      4  C3A BZF d   1       2.159  -1.086   2.263  0.00  0.00    -0.107 A 
ATOM      5  C4  BZF d   1       1.716   0.123   2.718  0.00  0.00     0.055 A 
ATOM      6  C5  BZF d   1       1.357   0.246   4.023  0.00  0.00    -0.016 A 
ATOM      7  C6  BZF d   1       1.423  -0.818   4.898  0.00  0.00     0.022 A 
ATOM      8  C7  BZF d   1       1.862  -2.035   4.494  0.00  0.00     0.029 A 
ATOM      9  C7A BZF d   1       2.256  -2.154   3.184  0.00  0.00     0.058 A 
ENDROOT
TORSDOF 0
ENDMDL
