MODEL 1
REMARK minimizedAffinity 0.00024625432
REMARK minimizedRMSD -1
REMARK  0 active torsions:
REMARK  status: ('A' for Active; 'I' for Inactive)
ROOT
ATOM      1  O1  BZF d   1       1.294   1.276   2.489  0.00  0.00    -0.204 OA
ATOM      2  C2  BZF d   1       1.018   1.895   3.693  0.00  0.00     0.174 A 
ATOM      3  C3  BZF d   1       1.070   1.010   4.709  0.00  0.00    -0.012 A 
ATOM      4  C3A BZF d   1       1.489  -0.222   4.114  0.00  0.00    -0.107 A 
ATOM      5  C4  BZF d   1       1.738  -1.468   4.614  0.00  0.00     0.055 A 
ATOM      6  C5  BZF d   1       2.061  -2.471   3.755  0.00  0.00    -0.016 A 
ATOM      7  C6  BZF d   1       2.138  -2.264   2.393  0.00  0.00     0.022 A 
ATOM      8  C7  BZF d   1       1.905  -1.044   1.852  0.00  0.00     0.029 A 
ATOM      9  C7A BZF d   1       1.611  -0.021   2.720  0.00  0.00     0.058 A 
ENDROOT
TORSDOF 0
ENDMDL
