MODEL 1
REMARK minimizedAffinity 5.02242804
REMARK minimizedRMSD -1
REMARK  0 active torsions:
REMARK  status: ('A' for Active; 'I' for Inactive)
ROOT
ATOM      1  O1  BZF d   1      -3.923  -4.708  -3.226  0.00  0.00    -0.204 OA
ATOM      2  C2  BZF d   1      -4.221  -5.999  -3.620  0.00  0.00     0.174 A 
ATOM      3  C3  BZF d   1      -5.068  -5.996  -4.669  0.00  0.00    -0.012 A 
ATOM      4  C3A BZF d   1      -5.242  -4.617  -5.008  0.00  0.00    -0.107 A 
ATOM      5  C4  BZF d   1      -5.958  -3.971  -5.976  0.00  0.00     0.055 A 
ATOM      6  C5  BZF d   1      -5.974  -2.612  -5.989  0.00  0.00    -0.016 A 
ATOM      7  C6  BZF d   1      -5.291  -1.869  -5.049  0.00  0.00     0.022 A 
ATOM      8  C7  BZF d   1      -4.563  -2.464  -4.073  0.00  0.00     0.029 A 
ATOM      9  C7A BZF d   1      -4.519  -3.837  -4.076  0.00  0.00     0.058 A 
ENDROOT
TORSDOF 0
ENDMDL
