MODEL 1
REMARK minimizedAffinity -5.64590883
REMARK minimizedRMSD -1
REMARK  0 active torsions:
REMARK  status: ('A' for Active; 'I' for Inactive)
ROOT
ATOM      1  O1  BZF d   1      -5.675  -3.172  -4.989  0.00  0.00    -0.204 OA
ATOM      2  C2  BZF d   1      -5.807  -4.119  -5.986  0.00  0.00     0.174 A 
ATOM      3  C3  BZF d   1      -5.431  -5.336  -5.543  0.00  0.00    -0.012 A 
ATOM      4  C3A BZF d   1      -5.126  -5.154  -4.157  0.00  0.00    -0.107 A 
ATOM      5  C4  BZF d   1      -4.711  -6.000  -3.168  0.00  0.00     0.055 A 
ATOM      6  C5  BZF d   1      -4.433  -5.492  -1.939  0.00  0.00    -0.016 A 
ATOM      7  C6  BZF d   1      -4.554  -4.146  -1.665  0.00  0.00     0.022 A 
ATOM      8  C7  BZF d   1      -4.968  -3.269  -2.612  0.00  0.00     0.029 A 
ATOM      9  C7A BZF d   1      -5.281  -3.784  -3.846  0.00  0.00     0.058 A 
ENDROOT
TORSDOF 0
ENDMDL
