MODEL 1
REMARK minimizedAffinity 0.805944204
REMARK minimizedRMSD -1
REMARK  0 active torsions:
REMARK  status: ('A' for Active; 'I' for Inactive)
ROOT
ATOM      1  O1  BZF d   1      -5.307  -3.421  -2.416  0.00  0.00    -0.204 OA
ATOM      2  C2  BZF d   1      -5.641  -4.415  -1.516  0.00  0.00     0.174 A 
ATOM      3  C3  BZF d   1      -6.000  -5.543  -2.161  0.00  0.00    -0.012 A 
ATOM      4  C3A BZF d   1      -5.794  -5.265  -3.550  0.00  0.00    -0.107 A 
ATOM      5  C4  BZF d   1      -5.958  -5.999  -4.689  0.00  0.00     0.055 A 
ATOM      6  C5  BZF d   1      -5.739  -5.409  -5.893  0.00  0.00    -0.016 A 
ATOM      7  C6  BZF d   1      -5.360  -4.086  -5.995  0.00  0.00     0.022 A 
ATOM      8  C7  BZF d   1      -5.180  -3.318  -4.892  0.00  0.00     0.029 A 
ATOM      9  C7A BZF d   1      -5.369  -3.922  -3.673  0.00  0.00     0.058 A 
ENDROOT
TORSDOF 0
ENDMDL
