MODEL 1
REMARK minimizedAffinity -1.6224153
REMARK minimizedRMSD -1
REMARK  0 active torsions:
REMARK  status: ('A' for Active; 'I' for Inactive)
ROOT
ATOM      1  O1  BZF d   1       0.611   3.982   0.678  0.00  0.00    -0.204 OA
ATOM      2  C2  BZF d   1       1.629   4.702   0.084  0.00  0.00     0.174 A 
ATOM      3  C3  BZF d   1       2.806   4.057   0.207  0.00  0.00    -0.012 A 
ATOM      4  C3A BZF d   1       2.490   2.814   0.842  0.00  0.00    -0.107 A 
ATOM      5  C4  BZF d   1       3.237   1.735   1.219  0.00  0.00     0.055 A 
ATOM      6  C5  BZF d   1       2.635   0.714   1.883  0.00  0.00    -0.016 A 
ATOM      7  C6  BZF d   1       1.290   0.741   2.190  0.00  0.00     0.022 A 
ATOM      8  C7  BZF d   1       0.507   1.787   1.832  0.00  0.00     0.029 A 
ATOM      9  C7A BZF d   1       1.106   2.806   1.132  0.00  0.00     0.058 A 
ENDROOT
TORSDOF 0
ENDMDL
