MODEL 1
REMARK minimizedAffinity -3.45605183
REMARK minimizedRMSD -1
REMARK  0 active torsions:
REMARK  status: ('A' for Active; 'I' for Inactive)
ROOT
ATOM      1  C4' PXY d   1       1.779   3.616  -0.226  0.00  0.00     0.077 C 
ATOM      2  C1' PXY d   1       1.643  -1.841   1.677  0.00  0.00     0.077 C 
ATOM      3  C1  PXY d   1       1.667  -0.412   1.172  0.00  0.00    -0.082 A 
ATOM      4  C2  PXY d   1       2.820   0.231   1.084  0.00  0.00     0.003 A 
ATOM      5  C3  PXY d   1       2.857   1.534   0.659  0.00  0.00     0.003 A 
ATOM      6  C4  PXY d   1       1.708   2.169   0.270  0.00  0.00    -0.082 A 
ATOM      7  C5  PXY d   1       0.529   1.516   0.347  0.00  0.00     0.003 A 
ATOM      8  C6  PXY d   1       0.508   0.207   0.820  0.00  0.00     0.003 A 
ENDROOT
TORSDOF 0
ENDMDL
