MODEL 1
REMARK minimizedAffinity 1.10166466
REMARK minimizedRMSD -1
REMARK  0 active torsions:
REMARK  status: ('A' for Active; 'I' for Inactive)
ROOT
ATOM      1  C4' PXY d   1      -3.073  -1.165  -3.242  0.00  0.00     0.077 C 
ATOM      2  C1' PXY d   1       0.529  -2.956   0.909  0.00  0.00     0.077 C 
ATOM      3  C1  PXY d   1      -0.406  -2.481  -0.186  0.00  0.00    -0.082 A 
ATOM      4  C2  PXY d   1      -1.695  -2.332   0.073  0.00  0.00     0.003 A 
ATOM      5  C3  PXY d   1      -2.559  -1.934  -0.914  0.00  0.00     0.003 A 
ATOM      6  C4  PXY d   1      -2.091  -1.634  -2.165  0.00  0.00    -0.082 A 
ATOM      7  C5  PXY d   1      -0.776  -1.772  -2.434  0.00  0.00     0.003 A 
ATOM      8  C6  PXY d   1       0.079  -2.217  -1.430  0.00  0.00     0.003 A 
ENDROOT
TORSDOF 0
ENDMDL
