MODEL 1
REMARK minimizedAffinity 4.01554012
REMARK minimizedRMSD -1
REMARK  0 active torsions:
REMARK  status: ('A' for Active; 'I' for Inactive)
ROOT
ATOM      1  C4' PXY d   1       0.227  -2.824   0.746  0.00  0.00     0.077 C 
ATOM      2  C1' PXY d   1      -3.087  -0.590  -3.431  0.00  0.00     0.077 C 
ATOM      3  C1  PXY d   1      -2.208  -1.177  -2.344  0.00  0.00    -0.082 A 
ATOM      4  C2  PXY d   1      -2.766  -1.757  -1.294  0.00  0.00     0.003 A 
ATOM      5  C3  PXY d   1      -1.987  -2.265  -0.286  0.00  0.00     0.003 A 
ATOM      6  C4  PXY d   1      -0.622  -2.226  -0.380  0.00  0.00    -0.082 A 
ATOM      7  C5  PXY d   1      -0.045  -1.646  -1.454  0.00  0.00     0.003 A 
ATOM      8  C6  PXY d   1      -0.854  -1.100  -2.446  0.00  0.00     0.003 A 
ENDROOT
TORSDOF 0
ENDMDL
