MODEL 1
REMARK minimizedAffinity 0.172052428
REMARK minimizedRMSD -1
REMARK  0 active torsions:
REMARK  status: ('A' for Active; 'I' for Inactive)
ROOT
ATOM      1  C4' PXY d   1       1.943  -1.683   3.555  0.00  0.00     0.077 C 
ATOM      2  C1' PXY d   1       1.706   2.242  -0.682  0.00  0.00     0.077 C 
ATOM      3  C1  PXY d   1       1.755   1.211   0.428  0.00  0.00    -0.082 A 
ATOM      4  C2  PXY d   1       2.761   1.222   1.287  0.00  0.00     0.003 A 
ATOM      5  C3  PXY d   1       2.838   0.278   2.278  0.00  0.00     0.003 A 
ATOM      6  C4  PXY d   1       1.847  -0.656   2.424  0.00  0.00    -0.082 A 
ATOM      7  C5  PXY d   1       0.812  -0.667   1.558  0.00  0.00     0.003 A 
ATOM      8  C6  PXY d   1       0.774   0.275   0.534  0.00  0.00     0.003 A 
ENDROOT
TORSDOF 0
ENDMDL
