MODEL 1
REMARK minimizedAffinity 2.52596354
REMARK minimizedRMSD -1
REMARK  0 active torsions:
REMARK  status: ('A' for Active; 'I' for Inactive)
ROOT
ATOM      1  C4' PXY d   1      -2.746  -1.926  -1.200  0.00  0.00     0.077 C 
ATOM      2  C1' PXY d   1       2.891  -1.470  -2.394  0.00  0.00     0.077 C 
ATOM      3  C1  PXY d   1       1.416  -1.591  -2.068  0.00  0.00    -0.082 A 
ATOM      4  C2  PXY d   1       0.566  -1.961  -3.012  0.00  0.00     0.003 A 
ATOM      5  C3  PXY d   1      -0.776  -2.045  -2.743  0.00  0.00     0.003 A 
ATOM      6  C4  PXY d   1      -1.246  -1.799  -1.481  0.00  0.00    -0.082 A 
ATOM      7  C5  PXY d   1      -0.384  -1.432  -0.510  0.00  0.00     0.003 A 
ATOM      8  C6  PXY d   1       0.969  -1.313  -0.814  0.00  0.00     0.003 A 
ENDROOT
TORSDOF 0
ENDMDL
