MODEL 1
REMARK minimizedAffinity 1.33101249
REMARK minimizedRMSD -1
REMARK  0 active torsions:
REMARK  status: ('A' for Active; 'I' for Inactive)
ROOT
ATOM      1  C4' PXY d   1       5.999   5.903  -5.922  0.00  0.00     0.077 C 
ATOM      2  C1' PXY d   1       2.889   5.957  -1.049  0.00  0.00     0.077 C 
ATOM      3  C1  PXY d   1       3.715   5.949  -2.321  0.00  0.00    -0.082 A 
ATOM      4  C2  PXY d   1       3.107   5.884  -3.494  0.00  0.00     0.003 A 
ATOM      5  C3  PXY d   1       3.839   5.843  -4.653  0.00  0.00     0.003 A 
ATOM      6  C4  PXY d   1       5.205   5.923  -4.612  0.00  0.00    -0.082 A 
ATOM      7  C5  PXY d   1       5.832   6.000  -3.419  0.00  0.00     0.003 A 
ATOM      8  C6  PXY d   1       5.073   5.998  -2.253  0.00  0.00     0.003 A 
ENDROOT
TORSDOF 0
ENDMDL
