MODEL 1
REMARK minimizedAffinity 8.48973751
REMARK minimizedRMSD -1
REMARK  0 active torsions:
REMARK  status: ('A' for Active; 'I' for Inactive)
ROOT
ATOM      1  C4' PXY d   1       1.964   3.396  -1.259  0.00  0.00     0.077 C 
ATOM      2  C1' PXY d   1       2.174  -0.570   2.942  0.00  0.00     0.077 C 
ATOM      3  C1  PXY d   1       2.108   0.465   1.836  0.00  0.00    -0.082 A 
ATOM      4  C2  PXY d   1       3.221   1.040   1.410  0.00  0.00     0.003 A 
ATOM      5  C3  PXY d   1       3.176   2.001   0.433  0.00  0.00     0.003 A 
ATOM      6  C4  PXY d   1       1.985   2.339  -0.151  0.00  0.00    -0.082 A 
ATOM      7  C5  PXY d   1       0.846   1.750   0.270  0.00  0.00     0.003 A 
ATOM      8  C6  PXY d   1       0.908   0.806   1.292  0.00  0.00     0.003 A 
ENDROOT
TORSDOF 0
ENDMDL
