MODEL 1
REMARK minimizedAffinity 2.55029106
REMARK minimizedRMSD -1
REMARK  0 active torsions:
REMARK  status: ('A' for Active; 'I' for Inactive)
ROOT
ATOM      1  C4' PXY d   1       2.237   1.946   0.698  0.00  0.00     0.077 C 
ATOM      2  C1' PXY d   1       0.716  -3.213   2.816  0.00  0.00     0.077 C 
ATOM      3  C1  PXY d   1       1.121  -1.858   2.271  0.00  0.00    -0.082 A 
ATOM      4  C2  PXY d   1       0.397  -1.291   1.320  0.00  0.00     0.003 A 
ATOM      5  C3  PXY d   1       0.767  -0.081   0.794  0.00  0.00     0.003 A 
ATOM      6  C4  PXY d   1       1.860   0.582   1.284  0.00  0.00    -0.082 A 
ATOM      7  C5  PXY d   1       2.598   0.016   2.262  0.00  0.00     0.003 A 
ATOM      8  C6  PXY d   1       2.229  -1.232   2.754  0.00  0.00     0.003 A 
ENDROOT
TORSDOF 0
ENDMDL
