MODEL 1
REMARK minimizedAffinity -0.00374813331
REMARK minimizedRMSD -1
REMARK  0 active torsions:
REMARK  status: ('A' for Active; 'I' for Inactive)
ROOT
ATOM      1  C4' PXY d   1       2.487   3.436  -0.706  0.00  0.00     0.077 C 
ATOM      2  C1' PXY d   1       0.812  -1.192   2.327  0.00  0.00     0.077 C 
ATOM      3  C1  PXY d   1       1.260   0.025   1.541  0.00  0.00    -0.082 A 
ATOM      4  C2  PXY d   1       0.445   0.563   0.648  0.00  0.00     0.003 A 
ATOM      5  C3  PXY d   1       0.846   1.644  -0.094  0.00  0.00     0.003 A 
ATOM      6  C4  PXY d   1       2.073   2.213   0.117  0.00  0.00    -0.082 A 
ATOM      7  C5  PXY d   1       2.906   1.676   1.034  0.00  0.00     0.003 A 
ATOM      8  C6  PXY d   1       2.496   0.553   1.748  0.00  0.00     0.003 A 
ENDROOT
TORSDOF 0
ENDMDL
