MODEL 1
REMARK minimizedAffinity 0.426175833
REMARK minimizedRMSD -1
REMARK  0 active torsions:
REMARK  status: ('A' for Active; 'I' for Inactive)
ROOT
ATOM      1  C4' PXY d   1      -0.126  -2.763   0.913  0.00  0.00     0.077 C 
ATOM      2  C1' PXY d   1       2.499   1.750   3.394  0.00  0.00     0.077 C 
ATOM      3  C1  PXY d   1       1.819   0.558   2.749  0.00  0.00    -0.082 A 
ATOM      4  C2  PXY d   1       1.116   0.727   1.640  0.00  0.00     0.003 A 
ATOM      5  C3  PXY d   1       0.469  -0.334   1.062  0.00  0.00     0.003 A 
ATOM      6  C4  PXY d   1       0.585  -1.590   1.593  0.00  0.00    -0.082 A 
ATOM      7  C5  PXY d   1       1.309  -1.773   2.718  0.00  0.00     0.003 A 
ATOM      8  C6  PXY d   1       1.925  -0.675   3.313  0.00  0.00     0.003 A 
ENDROOT
TORSDOF 0
ENDMDL
