MODEL 1
REMARK minimizedAffinity 1.37698436
REMARK minimizedRMSD -1
REMARK  0 active torsions:
REMARK  status: ('A' for Active; 'I' for Inactive)
ROOT
ATOM      1  C4' PXY d   1       1.758   0.758   0.941  0.00  0.00     0.077 C 
ATOM      2  C1' PXY d   1       0.885  -3.898   4.253  0.00  0.00     0.077 C 
ATOM      3  C1  PXY d   1       1.110  -2.684   3.374  0.00  0.00    -0.082 A 
ATOM      4  C2  PXY d   1       2.010  -1.779   3.725  0.00  0.00     0.003 A 
ATOM      5  C3  PXY d   1       2.203  -0.659   2.959  0.00  0.00     0.003 A 
ATOM      6  C4  PXY d   1       1.505  -0.489   1.793  0.00  0.00    -0.082 A 
ATOM      7  C5  PXY d   1       0.593  -1.412   1.422  0.00  0.00     0.003 A 
ATOM      8  C6  PXY d   1       0.382  -2.522   2.236  0.00  0.00     0.003 A 
ENDROOT
TORSDOF 0
ENDMDL
