MODEL 1
REMARK minimizedAffinity -3.31716537
REMARK minimizedRMSD -1
REMARK  1 active torsions:
REMARK  status: ('A' for Active; 'I' for Inactive)
REMARK    1  A    between atoms: C1_2  and  C2_3 
ROOT
ATOM      1  C2  UNL d   1       0.691  -0.218  -3.699  0.00  0.00    -0.077 A 
ATOM      2  C3  UNL d   1      -0.658  -0.595  -3.755  0.00  0.00     0.002 A 
ATOM      3  C4  UNL d   1      -1.655   0.281  -3.323  0.00  0.00     0.002 A 
ATOM      4  C5  UNL d   1      -1.315   1.541  -2.835  0.00  0.00    -0.004 A 
ATOM      5  C6  UNL d   1       0.024   1.924  -2.772  0.00  0.00     0.002 A 
ATOM      6  C7  UNL d   1       1.023   1.050  -3.203  0.00  0.00     0.002 A 
ENDROOT
BRANCH   1   7
ATOM      7  C1  UNL d   1       1.764  -1.142  -4.210  0.00  0.00     0.055 C 
ATOM      8  C   UNL d   1       3.115  -0.822  -3.586  0.00  0.00     0.019 C 
ENDBRANCH   1   7
TORSDOF 1
ENDMDL
