MODEL 1
REMARK minimizedAffinity 1.49467194
REMARK minimizedRMSD -1
REMARK  1 active torsions:
REMARK  status: ('A' for Active; 'I' for Inactive)
REMARK    1  A    between atoms: C1_2  and  C2_3 
ROOT
ATOM      1  C2  UNL d   1      -2.305   0.570  -0.570  0.00  0.00    -0.077 A 
ATOM      2  C3  UNL d   1      -2.935  -0.654  -0.833  0.00  0.00     0.002 A 
ATOM      3  C4  UNL d   1      -4.084  -1.022  -0.130  0.00  0.00     0.002 A 
ATOM      4  C5  UNL d   1      -4.615  -0.170   0.836  0.00  0.00    -0.004 A 
ATOM      5  C6  UNL d   1      -3.994   1.049   1.106  0.00  0.00     0.002 A 
ATOM      6  C7  UNL d   1      -2.845   1.418   0.405  0.00  0.00     0.002 A 
ENDROOT
BRANCH   1   7
ATOM      7  C1  UNL d   1      -1.094   0.991  -1.362  0.00  0.00     0.055 C 
ATOM      8  C   UNL d   1      -1.273   0.698  -2.844  0.00  0.00     0.019 C 
ENDBRANCH   1   7
TORSDOF 1
ENDMDL
