MODEL 1
REMARK minimizedAffinity 2.07635522
REMARK minimizedRMSD -1
REMARK  1 active torsions:
REMARK  status: ('A' for Active; 'I' for Inactive)
REMARK    1  A    between atoms: C1_2  and  C2_3 
ROOT
ATOM      1  C2  UNL d   1      -1.809   1.129  -2.098  0.00  0.00    -0.077 A 
ATOM      2  C3  UNL d   1      -2.559  -0.016  -1.793  0.00  0.00     0.002 A 
ATOM      3  C4  UNL d   1      -2.452  -0.616  -0.536  0.00  0.00     0.002 A 
ATOM      4  C5  UNL d   1      -1.601  -0.075   0.425  0.00  0.00    -0.004 A 
ATOM      5  C6  UNL d   1      -0.850   1.062   0.130  0.00  0.00     0.002 A 
ATOM      6  C7  UNL d   1      -0.954   1.662  -1.125  0.00  0.00     0.002 A 
ENDROOT
BRANCH   1   7
ATOM      7  C1  UNL d   1      -1.960   1.805  -3.436  0.00  0.00     0.055 C 
ATOM      8  C   UNL d   1      -2.987   1.092  -4.304  0.00  0.00     0.019 C 
ENDBRANCH   1   7
TORSDOF 1
ENDMDL
