MODEL 1
REMARK minimizedAffinity 4.37148619
REMARK minimizedRMSD -1
REMARK  1 active torsions:
REMARK  status: ('A' for Active; 'I' for Inactive)
REMARK    1  A    between atoms: C1_2  and  C2_3 
ROOT
ATOM      1  C2  UNL d   1       2.552   2.590  -4.429  0.00  0.00    -0.077 A 
ATOM      2  C3  UNL d   1       2.499   3.451  -5.534  0.00  0.00     0.002 A 
ATOM      3  C4  UNL d   1       1.518   4.442  -5.611  0.00  0.00     0.002 A 
ATOM      4  C5  UNL d   1       0.586   4.584  -4.584  0.00  0.00    -0.004 A 
ATOM      5  C6  UNL d   1       0.629   3.731  -3.482  0.00  0.00     0.002 A 
ATOM      6  C7  UNL d   1       1.608   2.739  -3.404  0.00  0.00     0.002 A 
ENDROOT
BRANCH   1   7
ATOM      7  C1  UNL d   1       3.638   1.553  -4.321  0.00  0.00     0.055 C 
ATOM      8  C   UNL d   1       3.378   0.596  -3.167  0.00  0.00     0.019 C 
ENDBRANCH   1   7
TORSDOF 1
ENDMDL
