MODEL 1
REMARK minimizedAffinity 6.95443678
REMARK minimizedRMSD -1
REMARK  1 active torsions:
REMARK  status: ('A' for Active; 'I' for Inactive)
REMARK    1  A    between atoms: C1_2  and  C2_3 
ROOT
ATOM      1  C2  UNL d   1       2.665   0.367  -1.695  0.00  0.00    -0.077 A 
ATOM      2  C3  UNL d   1       3.781   0.616  -2.505  0.00  0.00     0.002 A 
ATOM      3  C4  UNL d   1       3.997  -0.136  -3.662  0.00  0.00     0.002 A 
ATOM      4  C5  UNL d   1       3.099  -1.139  -4.020  0.00  0.00    -0.004 A 
ATOM      5  C6  UNL d   1       1.986  -1.396  -3.219  0.00  0.00     0.002 A 
ATOM      6  C7  UNL d   1       1.770  -0.646  -2.063  0.00  0.00     0.002 A 
ENDROOT
BRANCH   1   7
ATOM      7  C1  UNL d   1       2.404   1.210  -0.474  0.00  0.00     0.055 C 
ATOM      8  C   UNL d   1       3.521   1.064   0.548  0.00  0.00     0.019 C 
ENDBRANCH   1   7
TORSDOF 1
ENDMDL
