MODEL 1
REMARK minimizedAffinity 4.96238613
REMARK minimizedRMSD -1
REMARK  1 active torsions:
REMARK  status: ('A' for Active; 'I' for Inactive)
REMARK    1  A    between atoms: C1_2  and  C2_3 
ROOT
ATOM      1  C2  UNL d   1       2.656   1.880  -2.779  0.00  0.00    -0.077 A 
ATOM      2  C3  UNL d   1       3.609   1.666  -3.785  0.00  0.00     0.002 A 
ATOM      3  C4  UNL d   1       3.598   2.443  -4.945  0.00  0.00     0.002 A 
ATOM      4  C5  UNL d   1       2.641   3.442  -5.108  0.00  0.00    -0.004 A 
ATOM      5  C6  UNL d   1       1.688   3.662  -4.114  0.00  0.00     0.002 A 
ATOM      6  C7  UNL d   1       1.696   2.885  -2.954  0.00  0.00     0.002 A 
ENDROOT
BRANCH   1   7
ATOM      7  C1  UNL d   1       2.696   1.076  -1.506  0.00  0.00     0.055 C 
ATOM      8  C   UNL d   1       2.893   1.972  -0.292  0.00  0.00     0.019 C 
ENDBRANCH   1   7
TORSDOF 1
ENDMDL
