MODEL 1
REMARK minimizedAffinity -2.26175117
REMARK minimizedRMSD -1
REMARK  1 active torsions:
REMARK  status: ('A' for Active; 'I' for Inactive)
REMARK    1  A    between atoms: C1_2  and  C2_3 
ROOT
ATOM      1  C2  UNL d   1       1.913  -0.818   1.782  0.00  0.00    -0.077 A 
ATOM      2  C3  UNL d   1       1.581   0.289   0.988  0.00  0.00     0.002 A 
ATOM      3  C4  UNL d   1       2.544   1.254   0.685  0.00  0.00     0.002 A 
ATOM      4  C5  UNL d   1       3.845   1.118   1.166  0.00  0.00    -0.004 A 
ATOM      5  C6  UNL d   1       4.183   0.021   1.958  0.00  0.00     0.002 A 
ATOM      6  C7  UNL d   1       3.222  -0.943   2.263  0.00  0.00     0.002 A 
ENDROOT
BRANCH   1   7
ATOM      7  C1  UNL d   1       0.888  -1.885   2.070  0.00  0.00     0.055 C 
ATOM      8  C   UNL d   1       1.206  -3.173   1.324  0.00  0.00     0.019 C 
ENDBRANCH   1   7
TORSDOF 1
ENDMDL
