MODEL 1
REMARK minimizedAffinity 7.77264404
REMARK minimizedRMSD -1
REMARK  1 active torsions:
REMARK  status: ('A' for Active; 'I' for Inactive)
REMARK    1  A    between atoms: C1_2  and  C2_3 
ROOT
ATOM      1  C2  UNL d   1      -0.535  -5.811   1.292  0.00  0.00    -0.077 A 
ATOM      2  C3  UNL d   1      -0.477  -5.998   2.680  0.00  0.00     0.002 A 
ATOM      3  C4  UNL d   1       0.752  -5.995   3.342  0.00  0.00     0.002 A 
ATOM      4  C5  UNL d   1       1.931  -5.800   2.626  0.00  0.00    -0.004 A 
ATOM      5  C6  UNL d   1       1.884  -5.615   1.245  0.00  0.00     0.002 A 
ATOM      6  C7  UNL d   1       0.657  -5.619   0.581  0.00  0.00     0.002 A 
ENDROOT
BRANCH   1   7
ATOM      7  C1  UNL d   1      -1.863  -5.765   0.582  0.00  0.00     0.055 C 
ATOM      8  C   UNL d   1      -2.278  -4.333   0.276  0.00  0.00     0.019 C 
ENDBRANCH   1   7
TORSDOF 1
ENDMDL
