MODEL 1
REMARK minimizedAffinity 10.0080128
REMARK minimizedRMSD -1
REMARK  1 active torsions:
REMARK  status: ('A' for Active; 'I' for Inactive)
REMARK    1  A    between atoms: C1_2  and  C2_3 
ROOT
ATOM      1  C2  UNL d   1       0.431  -5.378   1.689  0.00  0.00    -0.077 A 
ATOM      2  C3  UNL d   1       0.640  -4.152   2.336  0.00  0.00     0.002 A 
ATOM      3  C4  UNL d   1       1.903  -3.557   2.332  0.00  0.00     0.002 A 
ATOM      4  C5  UNL d   1       2.966  -4.179   1.680  0.00  0.00    -0.004 A 
ATOM      5  C6  UNL d   1       2.769  -5.399   1.035  0.00  0.00     0.002 A 
ATOM      6  C7  UNL d   1       1.507  -5.996   1.039  0.00  0.00     0.002 A 
ENDROOT
BRANCH   1   7
ATOM      7  C1  UNL d   1      -0.941  -5.997   1.650  0.00  0.00     0.055 C 
ATOM      8  C   UNL d   1      -1.883  -5.200   0.759  0.00  0.00     0.019 C 
ENDBRANCH   1   7
TORSDOF 1
ENDMDL
