MODEL 1
REMARK minimizedAffinity 4.30776119
REMARK minimizedRMSD -1
REMARK  1 active torsions:
REMARK  status: ('A' for Active; 'I' for Inactive)
REMARK    1  A    between atoms: C1_2  and  C2_3 
ROOT
ATOM      1  C2  UNL d   1       2.449   1.033  -2.242  0.00  0.00    -0.077 A 
ATOM      2  C3  UNL d   1       2.057  -0.288  -2.500  0.00  0.00     0.002 A 
ATOM      3  C4  UNL d   1       2.594  -0.986  -3.583  0.00  0.00     0.002 A 
ATOM      4  C5  UNL d   1       3.529  -0.373  -4.415  0.00  0.00    -0.004 A 
ATOM      5  C6  UNL d   1       3.924   0.941  -4.168  0.00  0.00     0.002 A 
ATOM      6  C7  UNL d   1       3.387   1.641  -3.086  0.00  0.00     0.002 A 
ENDROOT
BRANCH   1   7
ATOM      7  C1  UNL d   1       1.908   1.770  -1.045  0.00  0.00     0.055 C 
ATOM      8  C   UNL d   1       2.823   1.614   0.161  0.00  0.00     0.019 C 
ENDBRANCH   1   7
TORSDOF 1
ENDMDL
