MODEL 1
REMARK minimizedAffinity 9.82469749
REMARK minimizedRMSD -1
REMARK  1 active torsions:
REMARK  status: ('A' for Active; 'I' for Inactive)
REMARK    1  A    between atoms: C1_2  and  C2_3 
ROOT
ATOM      1  C2  UNL d   1       3.821   1.765   0.752  0.00  0.00    -0.077 A 
ATOM      2  C3  UNL d   1       5.188   1.629   0.472  0.00  0.00     0.002 A 
ATOM      3  C4  UNL d   1       5.999   0.832   1.283  0.00  0.00     0.002 A 
ATOM      4  C5  UNL d   1       5.451   0.163   2.375  0.00  0.00    -0.004 A 
ATOM      5  C6  UNL d   1       4.093   0.293   2.663  0.00  0.00     0.002 A 
ATOM      6  C7  UNL d   1       3.281   1.089   1.854  0.00  0.00     0.002 A 
ENDROOT
BRANCH   1   7
ATOM      7  C1  UNL d   1       2.934   2.584  -0.150  0.00  0.00     0.055 C 
ATOM      8  C   UNL d   1       3.264   4.066  -0.052  0.00  0.00     0.019 C 
ENDBRANCH   1   7
TORSDOF 1
ENDMDL
