MODEL 1
REMARK minimizedAffinity 9.28094387
REMARK minimizedRMSD -1
REMARK  1 active torsions:
REMARK  status: ('A' for Active; 'I' for Inactive)
REMARK    1  A    between atoms: C1_2  and  C2_3 
ROOT
ATOM      1  C2  UNL d   1      -5.618   2.837   5.332  0.00  0.00    -0.077 A 
ATOM      2  C3  UNL d   1      -6.000   1.665   5.999  0.00  0.00     0.002 A 
ATOM      3  C4  UNL d   1      -5.749   0.415   5.431  0.00  0.00     0.002 A 
ATOM      4  C5  UNL d   1      -5.111   0.325   4.195  0.00  0.00    -0.004 A 
ATOM      5  C6  UNL d   1      -4.729   1.485   3.522  0.00  0.00     0.002 A 
ATOM      6  C7  UNL d   1      -4.981   2.735   4.088  0.00  0.00     0.002 A 
ENDROOT
BRANCH   1   7
ATOM      7  C1  UNL d   1      -5.843   4.185   5.966  0.00  0.00     0.055 C 
ATOM      8  C   UNL d   1      -4.577   5.028   5.939  0.00  0.00     0.019 C 
ENDBRANCH   1   7
TORSDOF 1
ENDMDL
