MODEL 1
REMARK minimizedAffinity -1.04311454
REMARK minimizedRMSD -1
REMARK  0 active torsions:
REMARK  status: ('A' for Active; 'I' for Inactive)
ROOT
ATOM      1  N1  IND d   1       1.715  -1.333   2.711  0.00  0.00    -0.196 N 
ATOM      2  C2  IND d   1       1.563  -1.628   4.037  0.00  0.00     0.054 A 
ATOM      3  C3  IND d   1       0.288  -1.405   4.425  0.00  0.00    -0.031 A 
ATOM      4  C4  IND d   1      -1.740  -0.654   3.028  0.00  0.00     0.051 A 
ATOM      5  C5  IND d   1      -2.088  -0.229   1.777  0.00  0.00    -0.031 A 
ATOM      6  C6  IND d   1      -1.168  -0.152   0.751  0.00  0.00     0.015 A 
ATOM      7  C7  IND d   1       0.137  -0.508   0.937  0.00  0.00    -0.016 A 
ATOM      8  C8  IND d   1       0.496  -0.934   2.208  0.00  0.00    -0.047 A 
ATOM      9  C9  IND d   1      -0.424  -0.974   3.264  0.00  0.00    -0.096 A 
ATOM     10  HN1 IND d   1       2.448  -1.388   2.265  0.00  0.00     0.298 HD
ENDROOT
TORSDOF 0
ENDMDL
