MODEL 1
REMARK minimizedAffinity -0.276047587
REMARK minimizedRMSD -1
REMARK  0 active torsions:
REMARK  status: ('A' for Active; 'I' for Inactive)
ROOT
ATOM      1  N1  IND d   1      -1.130  -0.150   1.187  0.00  0.00    -0.196 N 
ATOM      2  C2  IND d   1      -2.380  -0.171   1.740  0.00  0.00     0.054 A 
ATOM      3  C3  IND d   1      -2.327  -0.645   3.005  0.00  0.00    -0.031 A 
ATOM      4  C4  IND d   1      -0.283  -1.347   4.403  0.00  0.00     0.051 A 
ATOM      5  C5  IND d   1       1.068  -1.536   4.317  0.00  0.00    -0.031 A 
ATOM      6  C6  IND d   1       1.770  -1.264   3.160  0.00  0.00     0.015 A 
ATOM      7  C7  IND d   1       1.146  -0.780   2.045  0.00  0.00    -0.016 A 
ATOM      8  C8  IND d   1      -0.227  -0.594   2.127  0.00  0.00    -0.047 A 
ATOM      9  C9  IND d   1      -0.951  -0.909   3.285  0.00  0.00    -0.096 A 
ATOM     10  HN1 IND d   1      -0.940   0.100   0.386  0.00  0.00     0.298 HD
ENDROOT
TORSDOF 0
ENDMDL
