MODEL 1
REMARK minimizedAffinity -0.443226069
REMARK minimizedRMSD -1
REMARK  0 active torsions:
REMARK  status: ('A' for Active; 'I' for Inactive)
ROOT
ATOM      1  N1  IND d   1       1.337  -0.958   2.470  0.00  0.00    -0.196 N 
ATOM      2  C2  IND d   1       1.373  -1.318   3.788  0.00  0.00     0.054 A 
ATOM      3  C3  IND d   1       0.140  -1.228   4.334  0.00  0.00    -0.031 A 
ATOM      4  C4  IND d   1      -2.099  -0.608   3.225  0.00  0.00     0.051 A 
ATOM      5  C5  IND d   1      -2.631  -0.166   2.046  0.00  0.00    -0.031 A 
ATOM      6  C6  IND d   1      -1.852   0.036   0.925  0.00  0.00     0.015 A 
ATOM      7  C7  IND d   1      -0.508  -0.208   0.938  0.00  0.00    -0.016 A 
ATOM      8  C8  IND d   1       0.037  -0.650   2.135  0.00  0.00    -0.047 A 
ATOM      9  C9  IND d   1      -0.741  -0.817   3.288  0.00  0.00    -0.096 A 
ATOM     10  HN1 IND d   1       2.013  -0.928   1.940  0.00  0.00     0.298 HD
ENDROOT
TORSDOF 0
ENDMDL
