MODEL 1
REMARK minimizedAffinity -2.28342819
REMARK minimizedRMSD -1
REMARK  0 active torsions:
REMARK  status: ('A' for Active; 'I' for Inactive)
ROOT
ATOM      1  N1  IND d   1       2.233  -1.440   2.986  0.00  0.00    -0.196 N 
ATOM      2  C2  IND d   1       1.948  -1.532   4.320  0.00  0.00     0.054 A 
ATOM      3  C3  IND d   1       0.745  -0.977   4.583  0.00  0.00    -0.031 A 
ATOM      4  C4  IND d   1      -0.973   0.051   2.964  0.00  0.00     0.051 A 
ATOM      5  C5  IND d   1      -1.146   0.393   1.652  0.00  0.00    -0.031 A 
ATOM      6  C6  IND d   1      -0.183   0.133   0.698  0.00  0.00     0.015 A 
ATOM      7  C7  IND d   1       0.989  -0.490   1.020  0.00  0.00    -0.016 A 
ATOM      8  C8  IND d   1       1.171  -0.833   2.352  0.00  0.00    -0.047 A 
ATOM      9  C9  IND d   1       0.216  -0.534   3.332  0.00  0.00    -0.096 A 
ATOM     10  HN1 IND d   1       2.954  -1.715   2.606  0.00  0.00     0.298 HD
ENDROOT
TORSDOF 0
ENDMDL
