MODEL 1
REMARK minimizedAffinity 0.621275902
REMARK minimizedRMSD -1
REMARK  0 active torsions:
REMARK  status: ('A' for Active; 'I' for Inactive)
ROOT
ATOM      1  N1  IND d   1       1.929  -1.275   2.757  0.00  0.00    -0.196 N 
ATOM      2  C2  IND d   1       1.745  -1.192   4.109  0.00  0.00     0.054 A 
ATOM      3  C3  IND d   1       0.520  -0.693   4.387  0.00  0.00    -0.031 A 
ATOM      4  C4  IND d   1      -1.384  -0.042   2.781  0.00  0.00     0.051 A 
ATOM      5  C5  IND d   1      -1.674   0.092   1.452  0.00  0.00    -0.031 A 
ATOM      6  C6  IND d   1      -0.760  -0.233   0.470  0.00  0.00     0.015 A 
ATOM      7  C7  IND d   1       0.480  -0.716   0.782  0.00  0.00    -0.016 A 
ATOM      8  C8  IND d   1       0.780  -0.846   2.131  0.00  0.00    -0.047 A 
ATOM      9  C9  IND d   1      -0.128  -0.478   3.132  0.00  0.00    -0.096 A 
ATOM     10  HN1 IND d   1       2.643  -1.549   2.364  0.00  0.00     0.298 HD
ENDROOT
TORSDOF 0
ENDMDL
