MODEL 1
REMARK minimizedAffinity 1.53524232
REMARK minimizedRMSD -1
REMARK  0 active torsions:
REMARK  status: ('A' for Active; 'I' for Inactive)
ROOT
ATOM      1  N1  IND d   1       1.240  -1.326   2.942  0.00  0.00    -0.196 N 
ATOM      2  C2  IND d   1       0.729  -1.472   4.201  0.00  0.00     0.054 A 
ATOM      3  C3  IND d   1      -0.576  -1.120   4.223  0.00  0.00    -0.031 A 
ATOM      4  C4  IND d   1      -2.101  -0.372   2.289  0.00  0.00     0.051 A 
ATOM      5  C5  IND d   1      -2.078  -0.053   0.960  0.00  0.00    -0.031 A 
ATOM      6  C6  IND d   1      -0.924  -0.146   0.208  0.00  0.00     0.015 A 
ATOM      7  C7  IND d   1       0.251  -0.575   0.757  0.00  0.00    -0.016 A 
ATOM      8  C8  IND d   1       0.233  -0.893   2.107  0.00  0.00    -0.047 A 
ATOM      9  C9  IND d   1      -0.925  -0.760   2.885  0.00  0.00    -0.096 A 
ATOM     10  HN1 IND d   1       2.054  -1.478   2.709  0.00  0.00     0.298 HD
ENDROOT
TORSDOF 0
ENDMDL
