MODEL 1
REMARK minimizedAffinity 9.06630802
REMARK minimizedRMSD -1
REMARK  0 active torsions:
REMARK  status: ('A' for Active; 'I' for Inactive)
ROOT
ATOM      1  N1  IND d   1       3.039  -1.430   3.753  0.00  0.00    -0.196 N 
ATOM      2  C2  IND d   1       2.689  -1.848   5.007  0.00  0.00     0.054 A 
ATOM      3  C3  IND d   1       1.354  -1.732   5.186  0.00  0.00    -0.031 A 
ATOM      4  C4  IND d   1      -0.460  -0.978   3.522  0.00  0.00     0.051 A 
ATOM      5  C5  IND d   1      -0.623  -0.466   2.266  0.00  0.00    -0.031 A 
ATOM      6  C6  IND d   1       0.448  -0.248   1.423  0.00  0.00     0.015 A 
ATOM      7  C7  IND d   1       1.726  -0.545   1.803  0.00  0.00    -0.016 A 
ATOM      8  C8  IND d   1       1.896  -1.058   3.081  0.00  0.00    -0.047 A 
ATOM      9  C9  IND d   1       0.818  -1.242   3.956  0.00  0.00    -0.096 A 
ATOM     10  HN1 IND d   1       3.839  -1.405   3.438  0.00  0.00     0.298 HD
ENDROOT
TORSDOF 0
ENDMDL
