MODEL 1
REMARK minimizedAffinity -1.28764212
REMARK minimizedRMSD -1
REMARK  0 active torsions:
REMARK  status: ('A' for Active; 'I' for Inactive)
ROOT
ATOM      1  N1  IND d   1       1.535  -1.395   3.055  0.00  0.00    -0.196 N 
ATOM      2  C2  IND d   1       1.046  -1.462   4.330  0.00  0.00     0.054 A 
ATOM      3  C3  IND d   1      -0.247  -1.069   4.359  0.00  0.00    -0.031 A 
ATOM      4  C4  IND d   1      -1.789  -0.373   2.418  0.00  0.00     0.051 A 
ATOM      5  C5  IND d   1      -1.783  -0.122   1.075  0.00  0.00    -0.031 A 
ATOM      6  C6  IND d   1      -0.649  -0.289   0.306  0.00  0.00     0.015 A 
ATOM      7  C7  IND d   1       0.524  -0.726   0.854  0.00  0.00    -0.016 A 
ATOM      8  C8  IND d   1       0.524  -0.974   2.219  0.00  0.00    -0.047 A 
ATOM      9  C9  IND d   1      -0.612  -0.766   3.011  0.00  0.00    -0.096 A 
ATOM     10  HN1 IND d   1       2.339  -1.584   2.815  0.00  0.00     0.298 HD
ENDROOT
TORSDOF 0
ENDMDL
