MODEL 1
REMARK minimizedAffinity 1.63367414
REMARK minimizedRMSD -1
REMARK  0 active torsions:
REMARK  status: ('A' for Active; 'I' for Inactive)
ROOT
ATOM      1  N1  IND d   1      -1.186  -2.706   4.966  0.00  0.00    -0.196 N 
ATOM      2  C2  IND d   1       0.131  -2.348   5.049  0.00  0.00     0.054 A 
ATOM      3  C3  IND d   1       0.375  -1.270   4.270  0.00  0.00    -0.031 A 
ATOM      4  C4  IND d   1      -1.258   0.128   2.854  0.00  0.00     0.051 A 
ATOM      5  C5  IND d   1      -2.558   0.168   2.434  0.00  0.00    -0.031 A 
ATOM      6  C6  IND d   1      -3.486  -0.765   2.848  0.00  0.00     0.015 A 
ATOM      7  C7  IND d   1      -3.150  -1.771   3.709  0.00  0.00    -0.016 A 
ATOM      8  C8  IND d   1      -1.830  -1.819   4.131  0.00  0.00    -0.047 A 
ATOM      9  C9  IND d   1      -0.873  -0.900   3.682  0.00  0.00    -0.096 A 
ATOM     10  HN1 IND d   1      -1.550  -3.373   5.367  0.00  0.00     0.298 HD
ENDROOT
TORSDOF 0
ENDMDL
