MODEL 1
REMARK minimizedAffinity -1.8662616
REMARK minimizedRMSD -1
REMARK  0 active torsions:
REMARK  status: ('A' for Active; 'I' for Inactive)
ROOT
ATOM      1  N1  IND d   1       1.193  -2.208   4.365  0.00  0.00    -0.196 N 
ATOM      2  C2  IND d   1       1.711  -1.272   3.515  0.00  0.00     0.054 A 
ATOM      3  C3  IND d   1       0.717  -0.563   2.934  0.00  0.00    -0.031 A 
ATOM      4  C4  IND d   1      -1.826  -0.701   3.310  0.00  0.00     0.051 A 
ATOM      5  C5  IND d   1      -2.780  -1.427   3.966  0.00  0.00    -0.031 A 
ATOM      6  C6  IND d   1      -2.452  -2.470   4.808  0.00  0.00     0.015 A 
ATOM      7  C7  IND d   1      -1.151  -2.820   5.035  0.00  0.00    -0.016 A 
ATOM      8  C8  IND d   1      -0.180  -2.089   4.365  0.00  0.00    -0.047 A 
ATOM      9  C9  IND d   1      -0.509  -1.057   3.476  0.00  0.00    -0.096 A 
ATOM     10  HN1 IND d   1       1.647  -2.776   4.824  0.00  0.00     0.298 HD
ENDROOT
TORSDOF 0
ENDMDL
