MODEL 1
REMARK minimizedAffinity 4.57580042
REMARK minimizedRMSD -1
REMARK  1 active torsions:
REMARK  status: ('A' for Active; 'I' for Inactive)
REMARK    1  A    between atoms: C3_4  and  O_7 
ROOT
ATOM      1  C   UNL d   1       1.361  -5.997  -4.371  0.00  0.00    -0.033 A 
ATOM      2  C1  UNL d   1       2.276  -5.793  -3.337  0.00  0.00     0.039 A 
ATOM      3  C2  UNL d   1       3.593  -5.433  -3.629  0.00  0.00    -0.080 A 
ATOM      4  C3  UNL d   1       3.981  -5.280  -4.957  0.00  0.00     0.150 A 
ATOM      5  C4  UNL d   1       3.074  -5.479  -5.992  0.00  0.00    -0.007 A 
ATOM      6  C5  UNL d   1       1.759  -5.839  -5.699  0.00  0.00     0.039 A 
ENDROOT
BRANCH   4   7
ATOM      7  O   UNL d   1       5.257  -4.935  -5.291  0.00  0.00    -0.526 OA
ATOM      8  H5  UNL d   1       5.779  -4.859  -4.475  0.00  0.00     0.418 HD
ENDBRANCH   4   7
TORSDOF 1
ENDMDL
