MODEL 1
REMARK minimizedAffinity -1.94183552
REMARK minimizedRMSD -1
REMARK  1 active torsions:
REMARK  status: ('A' for Active; 'I' for Inactive)
REMARK    1  A    between atoms: C3_4  and  O_7 
ROOT
ATOM      1  C   UNL d   1       1.642  -5.999  -4.805  0.00  0.00    -0.033 A 
ATOM      2  C1  UNL d   1       2.312  -5.997  -3.581  0.00  0.00     0.039 A 
ATOM      3  C2  UNL d   1       3.708  -5.995  -3.546  0.00  0.00    -0.080 A 
ATOM      4  C3  UNL d   1       4.420  -5.996  -4.742  0.00  0.00     0.150 A 
ATOM      5  C4  UNL d   1       3.759  -5.994  -5.966  0.00  0.00    -0.007 A 
ATOM      6  C5  UNL d   1       2.366  -5.997  -5.998  0.00  0.00     0.039 A 
ENDROOT
BRANCH   4   7
ATOM      7  O   UNL d   1       5.784  -5.999  -4.759  0.00  0.00    -0.526 OA
ATOM      8  H5  UNL d   1       6.103  -6.029  -3.842  0.00  0.00     0.418 HD
ENDBRANCH   4   7
TORSDOF 1
ENDMDL
