MODEL 1
REMARK minimizedAffinity -2.10235786
REMARK minimizedRMSD -1
REMARK  1 active torsions:
REMARK  status: ('A' for Active; 'I' for Inactive)
REMARK    1  A    between atoms: C3_4  and  O_7 
ROOT
ATOM      1  C   UNL d   1       4.457   1.768  -5.753  0.00  0.00    -0.033 A 
ATOM      2  C1  UNL d   1       3.378   1.643  -4.875  0.00  0.00     0.039 A 
ATOM      3  C2  UNL d   1       3.126   0.423  -4.245  0.00  0.00    -0.080 A 
ATOM      4  C3  UNL d   1       3.959  -0.663  -4.500  0.00  0.00     0.150 A 
ATOM      5  C4  UNL d   1       5.037  -0.545  -5.371  0.00  0.00    -0.007 A 
ATOM      6  C5  UNL d   1       5.287   0.674  -6.000  0.00  0.00     0.039 A 
ENDROOT
BRANCH   4   7
ATOM      7  O   UNL d   1       3.750  -1.875  -3.912  0.00  0.00    -0.526 OA
ATOM      8  H5  UNL d   1       2.953  -1.815  -3.359  0.00  0.00     0.418 HD
ENDBRANCH   4   7
TORSDOF 1
ENDMDL
