MODEL 1
REMARK minimizedAffinity -1.15390801
REMARK minimizedRMSD -1
REMARK  1 active torsions:
REMARK  status: ('A' for Active; 'I' for Inactive)
REMARK    1  A    between atoms: C3_4  and  O_7 
ROOT
ATOM      1  C   UNL d   1       2.938  -6.000  -2.821  0.00  0.00    -0.033 A 
ATOM      2  C1  UNL d   1       3.131  -5.432  -1.560  0.00  0.00     0.039 A 
ATOM      3  C2  UNL d   1       3.655  -4.143  -1.445  0.00  0.00    -0.080 A 
ATOM      4  C3  UNL d   1       3.981  -3.433  -2.597  0.00  0.00     0.150 A 
ATOM      5  C4  UNL d   1       3.788  -3.991  -3.857  0.00  0.00    -0.007 A 
ATOM      6  C5  UNL d   1       3.265  -5.278  -3.969  0.00  0.00     0.039 A 
ENDROOT
BRANCH   4   7
ATOM      7  O   UNL d   1       4.500  -2.174  -2.536  0.00  0.00    -0.526 OA
ATOM      8  H5  UNL d   1       4.605  -1.930  -1.601  0.00  0.00     0.418 HD
ENDBRANCH   4   7
TORSDOF 1
ENDMDL
