MODEL 1
REMARK minimizedAffinity -2.01749563
REMARK minimizedRMSD -1
REMARK  1 active torsions:
REMARK  status: ('A' for Active; 'I' for Inactive)
REMARK    1  A    between atoms: C3_4  and  O_7 
ROOT
ATOM      1  C   UNL d   1       5.341  -5.993  -4.007  0.00  0.00    -0.033 A 
ATOM      2  C1  UNL d   1       4.813  -5.574  -2.784  0.00  0.00     0.039 A 
ATOM      3  C2  UNL d   1       4.879  -4.228  -2.417  0.00  0.00    -0.080 A 
ATOM      4  C3  UNL d   1       5.475  -3.313  -3.281  0.00  0.00     0.150 A 
ATOM      5  C4  UNL d   1       6.000  -3.723  -4.502  0.00  0.00    -0.007 A 
ATOM      6  C5  UNL d   1       5.934  -5.067  -4.866  0.00  0.00     0.039 A 
ENDROOT
BRANCH   4   7
ATOM      7  O   UNL d   1       5.567  -1.990  -2.964  0.00  0.00    -0.526 OA
ATOM      8  H5  UNL d   1       5.189  -1.859  -2.079  0.00  0.00     0.418 HD
ENDBRANCH   4   7
TORSDOF 1
ENDMDL
