MODEL 1
REMARK minimizedAffinity 6.11797857
REMARK minimizedRMSD -1
REMARK  1 active torsions:
REMARK  status: ('A' for Active; 'I' for Inactive)
REMARK    1  A    between atoms: C3_4  and  O_7 
ROOT
ATOM      1  C   UNL d   1      -5.988   1.537   0.552  0.00  0.00    -0.033 A 
ATOM      2  C1  UNL d   1      -5.989   2.547   1.517  0.00  0.00     0.039 A 
ATOM      3  C2  UNL d   1      -5.992   3.887   1.127  0.00  0.00    -0.080 A 
ATOM      4  C3  UNL d   1      -5.995   4.204  -0.229  0.00  0.00     0.150 A 
ATOM      5  C4  UNL d   1      -5.998   3.204  -1.195  0.00  0.00    -0.007 A 
ATOM      6  C5  UNL d   1      -5.994   1.865  -0.804  0.00  0.00     0.039 A 
ENDROOT
BRANCH   4   7
ATOM      7  O   UNL d   1      -5.993   5.498  -0.658  0.00  0.00    -0.526 OA
ATOM      8  H5  UNL d   1      -5.961   6.080   0.120  0.00  0.00     0.418 HD
ENDBRANCH   4   7
TORSDOF 1
ENDMDL
