MODEL 1
REMARK minimizedAffinity 1.20362151
REMARK minimizedRMSD -1
REMARK  1 active torsions:
REMARK  status: ('A' for Active; 'I' for Inactive)
REMARK    1  A    between atoms: C3_4  and  O_7 
ROOT
ATOM      1  C   UNL d   1      -2.328  -1.470  -2.257  0.00  0.00    -0.033 A 
ATOM      2  C1  UNL d   1      -1.661  -2.142  -1.231  0.00  0.00     0.039 A 
ATOM      3  C2  UNL d   1      -2.026  -3.448  -0.897  0.00  0.00    -0.080 A 
ATOM      4  C3  UNL d   1      -3.057  -4.069  -1.597  0.00  0.00     0.150 A 
ATOM      5  C4  UNL d   1      -3.723  -3.407  -2.622  0.00  0.00    -0.007 A 
ATOM      6  C5  UNL d   1      -3.358  -2.102  -2.954  0.00  0.00     0.039 A 
ENDROOT
BRANCH   4   7
ATOM      7  O   UNL d   1      -3.451  -5.341  -1.304  0.00  0.00    -0.526 OA
ATOM      8  H5  UNL d   1      -2.922  -5.663  -0.555  0.00  0.00     0.418 HD
ENDBRANCH   4   7
TORSDOF 1
ENDMDL
