MODEL 1
REMARK minimizedAffinity 0.73958832
REMARK minimizedRMSD -1
REMARK  1 active torsions:
REMARK  status: ('A' for Active; 'I' for Inactive)
REMARK    1  A    between atoms: C3_4  and  O_7 
ROOT
ATOM      1  C   UNL d   1       1.795  -4.437   4.264  0.00  0.00    -0.033 A 
ATOM      2  C1  UNL d   1       1.018  -3.397   4.776  0.00  0.00     0.039 A 
ATOM      3  C2  UNL d   1       1.037  -2.142   4.165  0.00  0.00    -0.080 A 
ATOM      4  C3  UNL d   1       1.836  -1.941   3.042  0.00  0.00     0.150 A 
ATOM      5  C4  UNL d   1       2.610  -2.974   2.524  0.00  0.00    -0.007 A 
ATOM      6  C5  UNL d   1       2.590  -4.226   3.137  0.00  0.00     0.039 A 
ENDROOT
BRANCH   4   7
ATOM      7  O   UNL d   1       1.891  -0.732   2.414  0.00  0.00    -0.526 OA
ATOM      8  H5  UNL d   1       1.327  -0.107   2.899  0.00  0.00     0.418 HD
ENDBRANCH   4   7
TORSDOF 1
ENDMDL
