MODEL 1
REMARK minimizedAffinity -0.934294879
REMARK minimizedRMSD -1
REMARK  1 active torsions:
REMARK  status: ('A' for Active; 'I' for Inactive)
REMARK    1  A    between atoms: C3_4  and  O_7 
ROOT
ATOM      1  C   UNL d   1       2.545  -4.121   2.994  0.00  0.00    -0.033 A 
ATOM      2  C1  UNL d   1       1.677  -4.250   4.080  0.00  0.00     0.039 A 
ATOM      3  C2  UNL d   1       1.174  -3.111   4.713  0.00  0.00    -0.080 A 
ATOM      4  C3  UNL d   1       1.545  -1.852   4.249  0.00  0.00     0.150 A 
ATOM      5  C4  UNL d   1       2.406  -1.716   3.165  0.00  0.00    -0.007 A 
ATOM      6  C5  UNL d   1       2.908  -2.855   2.536  0.00  0.00     0.039 A 
ENDROOT
BRANCH   4   7
ATOM      7  O   UNL d   1       1.084  -0.712   4.837  0.00  0.00    -0.526 OA
ATOM      8  H5  UNL d   1       0.522  -0.960   5.591  0.00  0.00     0.418 HD
ENDBRANCH   4   7
TORSDOF 1
ENDMDL
