MODEL 1
REMARK minimizedAffinity 0.811259031
REMARK minimizedRMSD -1
REMARK  1 active torsions:
REMARK  status: ('A' for Active; 'I' for Inactive)
REMARK    1  A    between atoms: C1_2  and  C2_3 
ROOT
ATOM      1  C2  UNL d   1      -5.338   2.999  -3.893  0.00  0.00    -0.077 A 
ATOM      2  C3  UNL d   1      -5.995   4.209  -4.157  0.00  0.00     0.002 A 
ATOM      3  C4  UNL d   1      -5.363   5.427  -3.901  0.00  0.00     0.002 A 
ATOM      4  C5  UNL d   1      -4.069   5.447  -3.384  0.00  0.00    -0.004 A 
ATOM      5  C6  UNL d   1      -3.408   4.249  -3.116  0.00  0.00     0.002 A 
ATOM      6  C7  UNL d   1      -4.039   3.031  -3.370  0.00  0.00     0.002 A 
ENDROOT
BRANCH   1   7
ATOM      7  C1  UNL d   1      -6.000   1.684  -4.214  0.00  0.00     0.055 C 
ATOM      8  C   UNL d   1      -5.943   1.386  -5.705  0.00  0.00     0.019 C 
ENDBRANCH   1   7
TORSDOF 1
ENDMDL
