MODEL 1
REMARK minimizedAffinity 8.78909206
REMARK minimizedRMSD -1
REMARK  1 active torsions:
REMARK  status: ('A' for Active; 'I' for Inactive)
REMARK    1  A    between atoms: C1_2  and  C2_3 
ROOT
ATOM      1  C2  UNL d   1      -2.152   4.837  -0.147  0.00  0.00    -0.077 A 
ATOM      2  C3  UNL d   1      -1.645   3.722   0.534  0.00  0.00     0.002 A 
ATOM      3  C4  UNL d   1      -0.558   3.013   0.019  0.00  0.00     0.002 A 
ATOM      4  C5  UNL d   1       0.034   3.414  -1.177  0.00  0.00    -0.004 A 
ATOM      5  C6  UNL d   1      -0.464   4.521  -1.863  0.00  0.00     0.002 A 
ATOM      6  C7  UNL d   1      -1.552   5.230  -1.351  0.00  0.00     0.002 A 
ENDROOT
BRANCH   1   7
ATOM      7  C1  UNL d   1      -3.293   5.632   0.432  0.00  0.00     0.055 C 
ATOM      8  C   UNL d   1      -3.032   5.997   1.886  0.00  0.00     0.019 C 
ENDBRANCH   1   7
TORSDOF 1
ENDMDL
