MODEL 1
REMARK minimizedAffinity 2.32672811
REMARK minimizedRMSD -1
REMARK  1 active torsions:
REMARK  status: ('A' for Active; 'I' for Inactive)
REMARK    1  A    between atoms: C1_2  and  C2_3 
ROOT
ATOM      1  C2  UNL d   1      -0.748   3.760   0.026  0.00  0.00    -0.077 A 
ATOM      2  C3  UNL d   1      -1.950   4.199  -0.547  0.00  0.00     0.002 A 
ATOM      3  C4  UNL d   1      -1.945   4.870  -1.771  0.00  0.00     0.002 A 
ATOM      4  C5  UNL d   1      -0.743   5.104  -2.435  0.00  0.00    -0.004 A 
ATOM      5  C6  UNL d   1       0.458   4.673  -1.873  0.00  0.00     0.002 A 
ATOM      6  C7  UNL d   1       0.456   4.003  -0.649  0.00  0.00     0.002 A 
ENDROOT
BRANCH   1   7
ATOM      7  C1  UNL d   1      -0.755   2.992   1.322  0.00  0.00     0.055 C 
ATOM      8  C   UNL d   1       0.552   2.241   1.528  0.00  0.00     0.019 C 
ENDBRANCH   1   7
TORSDOF 1
ENDMDL
