MODEL 1
REMARK minimizedAffinity 2.79491186
REMARK minimizedRMSD -1
REMARK  1 active torsions:
REMARK  status: ('A' for Active; 'I' for Inactive)
REMARK    1  A    between atoms: C1_2  and  C2_3 
ROOT
ATOM      1  C2  UNL d   1       0.214   4.589  -1.560  0.00  0.00    -0.077 A 
ATOM      2  C3  UNL d   1       1.111   5.261  -2.403  0.00  0.00     0.002 A 
ATOM      3  C4  UNL d   1       0.645   5.960  -3.518  0.00  0.00     0.002 A 
ATOM      4  C5  UNL d   1      -0.719   5.998  -3.798  0.00  0.00    -0.004 A 
ATOM      5  C6  UNL d   1      -1.619   5.332  -2.967  0.00  0.00     0.002 A 
ATOM      6  C7  UNL d   1      -1.155   4.631  -1.853  0.00  0.00     0.002 A 
ENDROOT
BRANCH   1   7
ATOM      7  C1  UNL d   1       0.710   3.876  -0.330  0.00  0.00     0.055 C 
ATOM      8  C   UNL d   1      -0.422   3.612   0.652  0.00  0.00     0.019 C 
ENDBRANCH   1   7
TORSDOF 1
ENDMDL
