MODEL 1
REMARK minimizedAffinity 0.689703405
REMARK minimizedRMSD -1
REMARK  1 active torsions:
REMARK  status: ('A' for Active; 'I' for Inactive)
REMARK    1  A    between atoms: C1_2  and  C2_3 
ROOT
ATOM      1  C2  UNL d   1      -4.844  -0.842   3.814  0.00  0.00    -0.077 A 
ATOM      2  C3  UNL d   1      -3.672  -1.533   4.154  0.00  0.00     0.002 A 
ATOM      3  C4  UNL d   1      -3.658  -2.406   5.243  0.00  0.00     0.002 A 
ATOM      4  C5  UNL d   1      -4.813  -2.601   5.997  0.00  0.00    -0.004 A 
ATOM      5  C6  UNL d   1      -5.983  -1.917   5.669  0.00  0.00     0.002 A 
ATOM      6  C7  UNL d   1      -5.999  -1.042   4.581  0.00  0.00     0.002 A 
ENDROOT
BRANCH   1   7
ATOM      7  C1  UNL d   1      -4.875   0.063   2.611  0.00  0.00     0.055 C 
ATOM      8  C   UNL d   1      -5.974   1.108   2.732  0.00  0.00     0.019 C 
ENDBRANCH   1   7
TORSDOF 1
ENDMDL
