MODEL 1
REMARK minimizedAffinity 1.55660641
REMARK minimizedRMSD -1
REMARK  1 active torsions:
REMARK  status: ('A' for Active; 'I' for Inactive)
REMARK    1  A    between atoms: C1_2  and  C2_3 
ROOT
ATOM      1  C2  UNL d   1      -1.203   4.355  -1.285  0.00  0.00    -0.077 A 
ATOM      2  C3  UNL d   1       0.077   4.812  -1.629  0.00  0.00     0.002 A 
ATOM      3  C4  UNL d   1       1.194   4.400  -0.899  0.00  0.00     0.002 A 
ATOM      4  C5  UNL d   1       1.043   3.526   0.175  0.00  0.00    -0.004 A 
ATOM      5  C6  UNL d   1      -0.226   3.067   0.526  0.00  0.00     0.002 A 
ATOM      6  C7  UNL d   1      -1.344   3.479  -0.201  0.00  0.00     0.002 A 
ENDROOT
BRANCH   1   7
ATOM      7  C1  UNL d   1      -2.402   4.759  -2.102  0.00  0.00     0.055 C 
ATOM      8  C   UNL d   1      -3.251   3.552  -2.474  0.00  0.00     0.019 C 
ENDBRANCH   1   7
TORSDOF 1
ENDMDL
