MODEL 1
REMARK minimizedAffinity 6.08136225
REMARK minimizedRMSD -1
REMARK  1 active torsions:
REMARK  status: ('A' for Active; 'I' for Inactive)
REMARK    1  A    between atoms: C1_2  and  C2_3 
ROOT
ATOM      1  C2  UNL d   1       4.268  -4.883  -1.742  0.00  0.00    -0.077 A 
ATOM      2  C3  UNL d   1       5.338  -5.166  -0.881  0.00  0.00     0.002 A 
ATOM      3  C4  UNL d   1       5.999  -4.133  -0.213  0.00  0.00     0.002 A 
ATOM      4  C5  UNL d   1       5.593  -2.812  -0.394  0.00  0.00    -0.004 A 
ATOM      5  C6  UNL d   1       4.531  -2.521  -1.249  0.00  0.00     0.002 A 
ATOM      6  C7  UNL d   1       3.871  -3.552  -1.919  0.00  0.00     0.002 A 
ENDROOT
BRANCH   1   7
ATOM      7  C1  UNL d   1       3.523  -6.000  -2.426  0.00  0.00     0.055 C 
ATOM      8  C   UNL d   1       2.050  -5.996  -2.046  0.00  0.00     0.019 C 
ENDBRANCH   1   7
TORSDOF 1
ENDMDL
