MODEL 1
REMARK minimizedAffinity 2.90243316
REMARK minimizedRMSD -1
REMARK  1 active torsions:
REMARK  status: ('A' for Active; 'I' for Inactive)
REMARK    1  A    between atoms: N_2  and  C1_3 
ROOT
ATOM      1  C1  UNL d   1       2.868   1.070  -3.794  0.00  0.00     0.143 A 
ATOM      2  C2  UNL d   1       1.600   1.304  -4.336  0.00  0.00    -0.057 A 
ATOM      3  C3  UNL d   1       0.444   0.804  -3.723  0.00  0.00     0.033 A 
ATOM      4  C4  UNL d   1       0.540   0.033  -2.569  0.00  0.00    -0.042 A 
ATOM      5  C5  UNL d   1       1.792  -0.234  -2.027  0.00  0.00     0.033 A 
ATOM      6  C6  UNL d   1       2.941   0.274  -2.640  0.00  0.00    -0.057 A 
ENDROOT
BRANCH   1   7
ATOM      7  N   UNL d   1       4.061   1.456  -4.410  0.00  0.00    -0.732 N 
ATOM      8  C   UNL d   1       5.281   0.712  -4.187  0.00  0.00     0.284 C 
ATOM      9  H3  UNL d   1       3.922   1.748  -5.376  0.00  0.00     0.395 HD
ENDBRANCH   1   7
TORSDOF 1
ENDMDL
