MODEL 1
REMARK minimizedAffinity 12.7732067
REMARK minimizedRMSD -1
REMARK  1 active torsions:
REMARK  status: ('A' for Active; 'I' for Inactive)
REMARK    1  A    between atoms: N_2  and  C1_3 
ROOT
ATOM      1  C1  UNL d   1      -3.121   2.467   3.598  0.00  0.00     0.143 A 
ATOM      2  C2  UNL d   1      -2.270   1.875   2.659  0.00  0.00    -0.057 A 
ATOM      3  C3  UNL d   1      -2.481   0.564   2.213  0.00  0.00     0.033 A 
ATOM      4  C4  UNL d   1      -3.533  -0.189   2.723  0.00  0.00    -0.042 A 
ATOM      5  C5  UNL d   1      -4.377   0.371   3.676  0.00  0.00     0.033 A 
ATOM      6  C6  UNL d   1      -4.165   1.682   4.112  0.00  0.00    -0.057 A 
ENDROOT
BRANCH   1   7
ATOM      7  N   UNL d   1      -2.906   3.731   4.154  0.00  0.00    -0.732 N 
ATOM      8  C   UNL d   1      -3.811   4.261   5.151  0.00  0.00     0.284 C 
ATOM      9  H3  UNL d   1      -1.923   3.908   4.349  0.00  0.00     0.395 HD
ENDBRANCH   1   7
TORSDOF 1
ENDMDL
