MODEL 1
REMARK minimizedAffinity 8.44329071
REMARK minimizedRMSD -1
REMARK  1 active torsions:
REMARK  status: ('A' for Active; 'I' for Inactive)
REMARK    1  A    between atoms: N_2  and  C1_3 
ROOT
ATOM      1  C1  UNL d   1      -0.120   0.736  -1.841  0.00  0.00     0.143 A 
ATOM      2  C2  UNL d   1       0.299   0.404  -3.134  0.00  0.00    -0.057 A 
ATOM      3  C3  UNL d   1       1.652   0.443  -3.491  0.00  0.00     0.033 A 
ATOM      4  C4  UNL d   1       2.610   0.845  -2.566  0.00  0.00    -0.042 A 
ATOM      5  C5  UNL d   1       2.214   1.204  -1.283  0.00  0.00     0.033 A 
ATOM      6  C6  UNL d   1       0.862   1.156  -0.930  0.00  0.00    -0.057 A 
ENDROOT
BRANCH   1   7
ATOM      7  N   UNL d   1      -1.460   0.812  -1.453  0.00  0.00    -0.732 N 
ATOM      8  C   UNL d   1      -1.946   0.043  -0.328  0.00  0.00     0.284 C 
ATOM      9  H3  UNL d   1      -1.824   1.761  -1.497  0.00  0.00     0.395 HD
ENDBRANCH   1   7
TORSDOF 1
ENDMDL
