MODEL 1
REMARK minimizedAffinity 10.7276554
REMARK minimizedRMSD -1
REMARK  1 active torsions:
REMARK  status: ('A' for Active; 'I' for Inactive)
REMARK    1  A    between atoms: N_2  and  C1_3 
ROOT
ATOM      1  C1  UNL d   1      -4.063   4.706   4.500  0.00  0.00     0.143 A 
ATOM      2  C2  UNL d   1      -3.436   3.705   3.749  0.00  0.00    -0.057 A 
ATOM      3  C3  UNL d   1      -4.065   3.130   2.638  0.00  0.00     0.033 A 
ATOM      4  C4  UNL d   1      -5.348   3.526   2.275  0.00  0.00    -0.042 A 
ATOM      5  C5  UNL d   1      -6.000   4.501   3.022  0.00  0.00     0.033 A 
ATOM      6  C6  UNL d   1      -5.364   5.076   4.126  0.00  0.00    -0.057 A 
ENDROOT
BRANCH   1   7
ATOM      7  N   UNL d   1      -3.530   5.247   5.673  0.00  0.00    -0.732 N 
ATOM      8  C   UNL d   1      -2.249   5.919   5.659  0.00  0.00     0.284 C 
ATOM      9  H3  UNL d   1      -4.236   5.708   6.243  0.00  0.00     0.395 HD
ENDBRANCH   1   7
TORSDOF 1
ENDMDL
