MODEL 1
REMARK minimizedAffinity 9.63756084
REMARK minimizedRMSD -1
REMARK  1 active torsions:
REMARK  status: ('A' for Active; 'I' for Inactive)
REMARK    1  A    between atoms: N_2  and  C1_3 
ROOT
ATOM      1  C1  UNL d   1      -2.947   2.826   3.774  0.00  0.00     0.143 A 
ATOM      2  C2  UNL d   1      -2.114   1.708   3.658  0.00  0.00    -0.057 A 
ATOM      3  C3  UNL d   1      -2.559   0.531   3.045  0.00  0.00     0.033 A 
ATOM      4  C4  UNL d   1      -3.859   0.441   2.560  0.00  0.00    -0.042 A 
ATOM      5  C5  UNL d   1      -4.713   1.531   2.686  0.00  0.00     0.033 A 
ATOM      6  C6  UNL d   1      -4.261   2.706   3.294  0.00  0.00    -0.057 A 
ENDROOT
BRANCH   1   7
ATOM      7  N   UNL d   1      -2.596   3.990   4.461  0.00  0.00    -0.732 N 
ATOM      8  C   UNL d   1      -3.577   4.706   5.248  0.00  0.00     0.284 C 
ATOM      9  H3  UNL d   1      -1.681   3.921   4.900  0.00  0.00     0.395 HD
ENDBRANCH   1   7
TORSDOF 1
ENDMDL
