MODEL 1
REMARK minimizedAffinity 5.0481267
REMARK minimizedRMSD -1
REMARK  1 active torsions:
REMARK  status: ('A' for Active; 'I' for Inactive)
REMARK    1  A    between atoms: N_2  and  C1_3 
ROOT
ATOM      1  C1  UNL d   1       1.455   0.926  -3.677  0.00  0.00     0.143 A 
ATOM      2  C2  UNL d   1       0.573   1.048  -2.599  0.00  0.00    -0.057 A 
ATOM      3  C3  UNL d   1       0.980   0.761  -1.291  0.00  0.00     0.033 A 
ATOM      4  C4  UNL d   1       2.275   0.316  -1.041  0.00  0.00    -0.042 A 
ATOM      5  C5  UNL d   1       3.162   0.163  -2.100  0.00  0.00     0.033 A 
ATOM      6  C6  UNL d   1       2.751   0.458  -3.404  0.00  0.00    -0.057 A 
ENDROOT
BRANCH   1   7
ATOM      7  N   UNL d   1       1.082   1.102  -5.012  0.00  0.00    -0.732 N 
ATOM      8  C   UNL d   1       2.053   1.522  -6.000  0.00  0.00     0.284 C 
ATOM      9  H3  UNL d   1       0.446   0.376  -5.336  0.00  0.00     0.395 HD
ENDBRANCH   1   7
TORSDOF 1
ENDMDL
