MODEL 1
REMARK minimizedAffinity 1.56654561
REMARK minimizedRMSD -1
REMARK  1 active torsions:
REMARK  status: ('A' for Active; 'I' for Inactive)
REMARK    1  A    between atoms: N_2  and  C1_3 
ROOT
ATOM      1  C1  UNL d   1       1.600   1.460  -1.681  0.00  0.00     0.143 A 
ATOM      2  C2  UNL d   1       2.263   2.548  -2.259  0.00  0.00    -0.057 A 
ATOM      3  C3  UNL d   1       2.489   2.611  -3.639  0.00  0.00     0.033 A 
ATOM      4  C4  UNL d   1       2.080   1.569  -4.465  0.00  0.00    -0.042 A 
ATOM      5  C5  UNL d   1       1.442   0.466  -3.909  0.00  0.00     0.033 A 
ATOM      6  C6  UNL d   1       1.213   0.412  -2.531  0.00  0.00    -0.057 A 
ENDROOT
BRANCH   1   7
ATOM      7  N   UNL d   1       1.433   1.293  -0.304  0.00  0.00    -0.732 N 
ATOM      8  C   UNL d   1       2.300   1.976   0.632  0.00  0.00     0.284 C 
ATOM      9  H3  UNL d   1       0.453   1.281  -0.030  0.00  0.00     0.395 HD
ENDBRANCH   1   7
TORSDOF 1
ENDMDL
