MODEL 1
REMARK minimizedAffinity 8.93301773
REMARK minimizedRMSD -1
REMARK  1 active torsions:
REMARK  status: ('A' for Active; 'I' for Inactive)
REMARK    1  A    between atoms: N_2  and  C1_3 
ROOT
ATOM      1  C1  UNL d   1       1.065   0.757  -3.591  0.00  0.00     0.143 A 
ATOM      2  C2  UNL d   1       0.766  -0.456  -2.960  0.00  0.00    -0.057 A 
ATOM      3  C3  UNL d   1       1.416  -0.840  -1.781  0.00  0.00     0.033 A 
ATOM      4  C4  UNL d   1       2.400  -0.029  -1.225  0.00  0.00    -0.042 A 
ATOM      5  C5  UNL d   1       2.730   1.169  -1.849  0.00  0.00     0.033 A 
ATOM      6  C6  UNL d   1       2.073   1.551  -3.022  0.00  0.00    -0.057 A 
ENDROOT
BRANCH   1   7
ATOM      7  N   UNL d   1       0.524   1.149  -4.818  0.00  0.00    -0.732 N 
ATOM      8  C   UNL d   1       1.356   1.221  -6.000  0.00  0.00     0.284 C 
ATOM      9  H3  UNL d   1      -0.397   0.750  -4.982  0.00  0.00     0.395 HD
ENDBRANCH   1   7
TORSDOF 1
ENDMDL
