MODEL 1
REMARK minimizedAffinity 10.2270517
REMARK minimizedRMSD -1
REMARK  1 active torsions:
REMARK  status: ('A' for Active; 'I' for Inactive)
REMARK    1  A    between atoms: N_2  and  C1_3 
ROOT
ATOM      1  C1  UNL d   1       2.249  -3.685  -1.015  0.00  0.00     0.143 A 
ATOM      2  C2  UNL d   1       1.230  -3.557  -1.965  0.00  0.00    -0.057 A 
ATOM      3  C3  UNL d   1       1.082  -2.385  -2.717  0.00  0.00     0.033 A 
ATOM      4  C4  UNL d   1       1.936  -1.306  -2.510  0.00  0.00    -0.042 A 
ATOM      5  C5  UNL d   1       2.941  -1.403  -1.554  0.00  0.00     0.033 A 
ATOM      6  C6  UNL d   1       3.088  -2.578  -0.811  0.00  0.00    -0.057 A 
ENDROOT
BRANCH   1   7
ATOM      7  N   UNL d   1       2.388  -4.787  -0.167  0.00  0.00    -0.732 N 
ATOM      8  C   UNL d   1       1.330  -5.146   0.754  0.00  0.00     0.284 C 
ATOM      9  H3  UNL d   1       2.823  -5.581  -0.630  0.00  0.00     0.395 HD
ENDBRANCH   1   7
TORSDOF 1
ENDMDL
