MODEL 1
REMARK minimizedAffinity 12.7688141
REMARK minimizedRMSD -1
REMARK  1 active torsions:
REMARK  status: ('A' for Active; 'I' for Inactive)
REMARK    1  A    between atoms: N_2  and  C1_3 
ROOT
ATOM      1  C1  UNL d   1       3.576   0.960  -2.803  0.00  0.00     0.143 A 
ATOM      2  C2  UNL d   1       2.482   1.233  -3.631  0.00  0.00    -0.057 A 
ATOM      3  C3  UNL d   1       1.211   0.715  -3.351  0.00  0.00     0.033 A 
ATOM      4  C4  UNL d   1       1.019  -0.113  -2.250  0.00  0.00    -0.042 A 
ATOM      5  C5  UNL d   1       2.097  -0.419  -1.428  0.00  0.00     0.033 A 
ATOM      6  C6  UNL d   1       3.362   0.107  -1.709  0.00  0.00    -0.057 A 
ENDROOT
BRANCH   1   7
ATOM      7  N   UNL d   1       4.883   1.364  -3.083  0.00  0.00    -0.732 N 
ATOM      8  C   UNL d   1       6.000   0.482  -2.823  0.00  0.00     0.284 C 
ATOM      9  H3  UNL d   1       4.952   1.875  -3.961  0.00  0.00     0.395 HD
ENDBRANCH   1   7
TORSDOF 1
ENDMDL
