MODEL 1
REMARK minimizedAffinity 6.29502439
REMARK minimizedRMSD -1
REMARK  1 active torsions:
REMARK  status: ('A' for Active; 'I' for Inactive)
REMARK    1  A    between atoms: N_2  and  C1_3 
ROOT
ATOM      1  C1  UNL d   1       2.041  -2.102  -1.890  0.00  0.00     0.143 A 
ATOM      2  C2  UNL d   1       2.919  -1.925  -0.816  0.00  0.00    -0.057 A 
ATOM      3  C3  UNL d   1       3.698  -0.767  -0.699  0.00  0.00     0.033 A 
ATOM      4  C4  UNL d   1       3.633   0.224  -1.673  0.00  0.00    -0.042 A 
ATOM      5  C5  UNL d   1       2.785   0.057  -2.762  0.00  0.00     0.033 A 
ATOM      6  C6  UNL d   1       2.005  -1.098  -2.870  0.00  0.00    -0.057 A 
ENDROOT
BRANCH   1   7
ATOM      7  N   UNL d   1       1.314  -3.274  -2.114  0.00  0.00    -0.732 N 
ATOM      8  C   UNL d   1       1.217  -3.838  -3.443  0.00  0.00     0.284 C 
ATOM      9  H3  UNL d   1       1.452  -3.964  -1.379  0.00  0.00     0.395 HD
ENDBRANCH   1   7
TORSDOF 1
ENDMDL
