MODEL 1
REMARK minimizedAffinity 7.0035162
REMARK minimizedRMSD -1
REMARK  1 active torsions:
REMARK  status: ('A' for Active; 'I' for Inactive)
REMARK    1  A    between atoms: N_2  and  C1_3 
ROOT
ATOM      1  C1  UNL d   1       0.201   1.430  -4.546  0.00  0.00     0.143 A 
ATOM      2  C2  UNL d   1       0.754   0.168  -4.302  0.00  0.00    -0.057 A 
ATOM      3  C3  UNL d   1       1.062  -0.249  -3.001  0.00  0.00     0.033 A 
ATOM      4  C4  UNL d   1       0.849   0.602  -1.922  0.00  0.00    -0.042 A 
ATOM      5  C5  UNL d   1       0.323   1.869  -2.144  0.00  0.00     0.033 A 
ATOM      6  C6  UNL d   1       0.011   2.278  -3.444  0.00  0.00    -0.057 A 
ENDROOT
BRANCH   1   7
ATOM      7  N   UNL d   1      -0.036   1.941  -5.825  0.00  0.00    -0.732 N 
ATOM      8  C   UNL d   1      -0.557   3.279  -5.999  0.00  0.00     0.284 C 
ATOM      9  H3  UNL d   1       0.698   1.691  -6.485  0.00  0.00     0.395 HD
ENDBRANCH   1   7
TORSDOF 1
ENDMDL
