MODEL 1
REMARK minimizedAffinity -5.54902697
REMARK minimizedRMSD -1
REMARK  1 active torsions:
REMARK  status: ('A' for Active; 'I' for Inactive)
REMARK    1  A    between atoms: N_2  and  C1_3 
ROOT
ATOM      1  C1  UNL d   1      -3.327   0.500   2.731  0.00  0.00     0.143 A 
ATOM      2  C2  UNL d   1      -3.366  -0.575   1.836  0.00  0.00    -0.057 A 
ATOM      3  C3  UNL d   1      -3.247  -0.374   0.455  0.00  0.00     0.033 A 
ATOM      4  C4  UNL d   1      -3.114   0.911  -0.058  0.00  0.00    -0.042 A 
ATOM      5  C5  UNL d   1      -3.098   1.997   0.811  0.00  0.00     0.033 A 
ATOM      6  C6  UNL d   1      -3.211   1.790   2.189  0.00  0.00    -0.057 A 
ENDROOT
BRANCH   1   7
ATOM      7  N   UNL d   1      -3.540   0.375   4.106  0.00  0.00    -0.732 N 
ATOM      8  C   UNL d   1      -3.712   1.549   4.935  0.00  0.00     0.284 C 
ATOM      9  H3  UNL d   1      -4.170  -0.391   4.334  0.00  0.00     0.395 HD
ENDBRANCH   1   7
TORSDOF 1
ENDMDL
