MODEL 1
REMARK minimizedAffinity -4.32338572
REMARK minimizedRMSD -1
REMARK  0 active torsions:
REMARK  status: ('A' for Active; 'I' for Inactive)
ROOT
ATOM      1  C   UNL d   1      -0.398  -0.353  -0.164  0.00  0.00     0.172 C 
ATOM      2  N   UNL d   1       0.381  -0.503   1.043  0.00  0.00    -0.070 N 
ATOM      3  C1  UNL d   1       1.604  -1.114   1.132  0.00  0.00    -0.004 A 
ATOM      4  C2  UNL d   1       2.012  -1.050   2.447  0.00  0.00    -0.047 A 
ATOM      5  C3  UNL d   1       1.000  -0.379   3.173  0.00  0.00    -0.047 A 
ATOM      6  C4  UNL d   1       0.002  -0.052   2.279  0.00  0.00    -0.004 A 
ENDROOT
TORSDOF 0
ENDMDL
