MODEL 1
REMARK minimizedAffinity -3.848629
REMARK minimizedRMSD -1
REMARK  0 active torsions:
REMARK  status: ('A' for Active; 'I' for Inactive)
ROOT
ATOM      1  C   UNL d   1      -0.565   0.035  -1.142  0.00  0.00     0.172 C 
ATOM      2  N   UNL d   1      -0.060  -0.176   0.195  0.00  0.00    -0.070 N 
ATOM      3  C1  UNL d   1      -0.774  -0.013   1.352  0.00  0.00    -0.004 A 
ATOM      4  C2  UNL d   1       0.061  -0.311   2.407  0.00  0.00    -0.047 A 
ATOM      5  C3  UNL d   1       1.320  -0.664   1.866  0.00  0.00    -0.047 A 
ATOM      6  C4  UNL d   1       1.217  -0.572   0.494  0.00  0.00    -0.004 A 
ENDROOT
TORSDOF 0
ENDMDL
