MODEL 1
REMARK minimizedAffinity -2.5033586
REMARK minimizedRMSD -1
REMARK  0 active torsions:
REMARK  status: ('A' for Active; 'I' for Inactive)
ROOT
ATOM      1  C   UNL d   1       1.541   0.225   2.691  0.00  0.00     0.172 C 
ATOM      2  N   UNL d   1       0.768  -0.039   1.501  0.00  0.00    -0.070 N 
ATOM      3  C1  UNL d   1       1.277  -0.238   0.245  0.00  0.00    -0.004 A 
ATOM      4  C2  UNL d   1       0.219  -0.459  -0.610  0.00  0.00    -0.047 A 
ATOM      5  C3  UNL d   1      -0.967  -0.390   0.158  0.00  0.00    -0.047 A 
ATOM      6  C4  UNL d   1      -0.599  -0.129   1.461  0.00  0.00    -0.004 A 
ENDROOT
TORSDOF 0
ENDMDL
