MODEL 1
REMARK minimizedAffinity -3.017272
REMARK minimizedRMSD -1
REMARK  0 active torsions:
REMARK  status: ('A' for Active; 'I' for Inactive)
ROOT
ATOM      1  C   UNL d   1      -0.138   0.330  -1.034  0.00  0.00     0.172 C 
ATOM      2  N   UNL d   1       0.190   0.038   0.342  0.00  0.00    -0.070 N 
ATOM      3  C1  UNL d   1      -0.701  -0.330   1.315  0.00  0.00    -0.004 A 
ATOM      4  C2  UNL d   1       0.004  -0.517   2.484  0.00  0.00    -0.047 A 
ATOM      5  C3  UNL d   1       1.366  -0.250   2.205  0.00  0.00    -0.047 A 
ATOM      6  C4  UNL d   1       1.452   0.092   0.872  0.00  0.00    -0.004 A 
ENDROOT
TORSDOF 0
ENDMDL
