MODEL 1
REMARK minimizedAffinity -2.72723484
REMARK minimizedRMSD -1
REMARK  0 active torsions:
REMARK  status: ('A' for Active; 'I' for Inactive)
ROOT
ATOM      1  C   UNL d   1      -0.261   0.803  -0.752  0.00  0.00     0.172 C 
ATOM      2  N   UNL d   1      -0.019   0.089   0.479  0.00  0.00    -0.070 N 
ATOM      3  C1  UNL d   1       1.161   0.074   1.175  0.00  0.00    -0.004 A 
ATOM      4  C2  UNL d   1       0.984  -0.718   2.289  0.00  0.00    -0.047 A 
ATOM      5  C3  UNL d   1      -0.347  -1.197   2.261  0.00  0.00    -0.047 A 
ATOM      6  C4  UNL d   1      -0.945  -0.682   1.130  0.00  0.00    -0.004 A 
ENDROOT
TORSDOF 0
ENDMDL
