MODEL 1
REMARK minimizedAffinity -4.17049551
REMARK minimizedRMSD -1
REMARK  0 active torsions:
REMARK  status: ('A' for Active; 'I' for Inactive)
ROOT
ATOM      1  C   UNL d   1      -0.456  -0.002  -1.101  0.00  0.00     0.172 C 
ATOM      2  N   UNL d   1       0.025  -0.256   0.237  0.00  0.00    -0.070 N 
ATOM      3  C1  UNL d   1       1.303  -0.616   0.571  0.00  0.00    -0.004 A 
ATOM      4  C2  UNL d   1       1.355  -0.763   1.940  0.00  0.00    -0.047 A 
ATOM      5  C3  UNL d   1       0.063  -0.483   2.446  0.00  0.00    -0.047 A 
ATOM      6  C4  UNL d   1      -0.741  -0.172   1.370  0.00  0.00    -0.004 A 
ENDROOT
TORSDOF 0
ENDMDL
