MODEL 1
REMARK minimizedAffinity -2.75806665
REMARK minimizedRMSD -1
REMARK  0 active torsions:
REMARK  status: ('A' for Active; 'I' for Inactive)
ROOT
ATOM      1  C   UNL d   1       0.750  -1.049   2.689  0.00  0.00     0.172 C 
ATOM      2  N   UNL d   1       0.444  -0.653   1.335  0.00  0.00    -0.070 N 
ATOM      3  C1  UNL d   1      -0.735  -0.098   0.913  0.00  0.00    -0.004 A 
ATOM      4  C2  UNL d   1      -0.630   0.136  -0.442  0.00  0.00    -0.047 A 
ATOM      5  C3  UNL d   1       0.656  -0.294  -0.847  0.00  0.00    -0.047 A 
ATOM      6  C4  UNL d   1       1.300  -0.777   0.272  0.00  0.00    -0.004 A 
ENDROOT
TORSDOF 0
ENDMDL
