MODEL 1
REMARK minimizedAffinity -2.85779858
REMARK minimizedRMSD -1
REMARK  0 active torsions:
REMARK  status: ('A' for Active; 'I' for Inactive)
ROOT
ATOM      1  C   UNL d   1      -1.198  -0.644   1.116  0.00  0.00     0.172 C 
ATOM      2  N   UNL d   1       0.244  -0.690   1.174  0.00  0.00    -0.070 N 
ATOM      3  C1  UNL d   1       1.092  -0.499   0.115  0.00  0.00    -0.004 A 
ATOM      4  C2  UNL d   1       2.383  -0.622   0.582  0.00  0.00    -0.047 A 
ATOM      5  C3  UNL d   1       2.309  -0.898   1.968  0.00  0.00    -0.047 A 
ATOM      6  C4  UNL d   1       0.973  -0.934   2.308  0.00  0.00    -0.004 A 
ENDROOT
TORSDOF 0
ENDMDL
