MODEL 1
REMARK minimizedAffinity -3.80054641
REMARK minimizedRMSD -1
REMARK  0 active torsions:
REMARK  status: ('A' for Active; 'I' for Inactive)
ROOT
ATOM      1  C   UNL d   1      -0.045   0.030  -1.275  0.00  0.00     0.172 C 
ATOM      2  N   UNL d   1       0.221  -0.523   0.033  0.00  0.00    -0.070 N 
ATOM      3  C1  UNL d   1       1.279  -1.328   0.359  0.00  0.00    -0.004 A 
ATOM      4  C2  UNL d   1       1.175  -1.640   1.697  0.00  0.00    -0.047 A 
ATOM      5  C3  UNL d   1       0.014  -1.001   2.192  0.00  0.00    -0.047 A 
ATOM      6  C4  UNL d   1      -0.558  -0.316   1.141  0.00  0.00    -0.004 A 
ENDROOT
TORSDOF 0
ENDMDL
