MODEL 1
REMARK minimizedAffinity -6.73530769
REMARK minimizedRMSD -1
REMARK  0 active torsions:
REMARK  status: ('A' for Active; 'I' for Inactive)
ROOT
ATOM      1  O1  BZF d   1       0.673  -0.707   0.031  0.00  0.00    -0.204 OA
ATOM      2  C2  BZF d   1      -0.444  -0.500  -0.754  0.00  0.00     0.174 A 
ATOM      3  C3  BZF d   1      -1.425   0.094  -0.043  0.00  0.00    -0.012 A 
ATOM      4  C3A BZF d   1      -0.853   0.353   1.243  0.00  0.00    -0.107 A 
ATOM      5  C4  BZF d   1      -1.329   0.940   2.381  0.00  0.00     0.055 A 
ATOM      6  C5  BZF d   1      -0.541   0.970   3.487  0.00  0.00    -0.016 A 
ATOM      7  C6  BZF d   1       0.724   0.420   3.493  0.00  0.00     0.022 A 
ATOM      8  C7  BZF d   1       1.241  -0.168   2.387  0.00  0.00     0.029 A 
ATOM      9  C7A BZF d   1       0.460  -0.171   1.257  0.00  0.00     0.058 A 
ENDROOT
TORSDOF 0
ENDMDL
