MODEL 1
REMARK minimizedAffinity -4.17708111
REMARK minimizedRMSD -1
REMARK  0 active torsions:
REMARK  status: ('A' for Active; 'I' for Inactive)
ROOT
ATOM      1  O1  BZF d   1       1.294   0.661  -0.109  0.00  0.00    -0.204 OA
ATOM      2  C2  BZF d   1       0.863   0.053  -1.272  0.00  0.00     0.174 A 
ATOM      3  C3  BZF d   1      -0.410  -0.375  -1.145  0.00  0.00    -0.012 A 
ATOM      4  C3A BZF d   1      -0.829   0.071   0.149  0.00  0.00    -0.107 A 
ATOM      5  C4  BZF d   1      -1.999  -0.033   0.844  0.00  0.00     0.055 A 
ATOM      6  C5  BZF d   1      -2.058   0.446   2.114  0.00  0.00    -0.016 A 
ATOM      7  C6  BZF d   1      -0.966   1.031   2.721  0.00  0.00     0.022 A 
ATOM      8  C7  BZF d   1       0.215   1.162   2.069  0.00  0.00     0.029 A 
ATOM      9  C7A BZF d   1       0.268   0.708   0.774  0.00  0.00     0.058 A 
ENDROOT
TORSDOF 0
ENDMDL
