MODEL 1
REMARK minimizedAffinity -2.50516415
REMARK minimizedRMSD -1
REMARK  0 active torsions:
REMARK  status: ('A' for Active; 'I' for Inactive)
ROOT
ATOM      1  O1  BZF d   1      -1.649   0.604   2.558  0.00  0.00    -0.204 OA
ATOM      2  C2  BZF d   1      -0.873   1.331   3.440  0.00  0.00     0.174 A 
ATOM      3  C3  BZF d   1       0.399   1.419   2.999  0.00  0.00    -0.012 A 
ATOM      4  C3A BZF d   1       0.397   0.780   1.718  0.00  0.00    -0.107 A 
ATOM      5  C4  BZF d   1       1.362   0.561   0.777  0.00  0.00     0.055 A 
ATOM      6  C5  BZF d   1       1.051  -0.158  -0.333  0.00  0.00    -0.016 A 
ATOM      7  C6  BZF d   1      -0.211  -0.678  -0.531  0.00  0.00     0.022 A 
ATOM      8  C7  BZF d   1      -1.203  -0.483   0.372  0.00  0.00     0.029 A 
ATOM      9  C7A BZF d   1      -0.901   0.272   1.479  0.00  0.00     0.058 A 
ENDROOT
TORSDOF 0
ENDMDL
