MODEL 1
REMARK minimizedAffinity -5.5071764
REMARK minimizedRMSD -1
REMARK  0 active torsions:
REMARK  status: ('A' for Active; 'I' for Inactive)
ROOT
ATOM      1  O1  BZF d   1       0.515   0.778   2.719  0.00  0.00    -0.204 OA
ATOM      2  C2  BZF d   1      -0.766   1.260   2.907  0.00  0.00     0.174 A 
ATOM      3  C3  BZF d   1      -1.592   0.814   1.939  0.00  0.00    -0.012 A 
ATOM      4  C3A BZF d   1      -0.797  -0.072   1.145  0.00  0.00    -0.107 A 
ATOM      5  C4  BZF d   1      -1.058  -0.837   0.045  0.00  0.00     0.055 A 
ATOM      6  C5  BZF d   1      -0.044  -1.532  -0.533  0.00  0.00    -0.016 A 
ATOM      7  C6  BZF d   1       1.244  -1.481  -0.041  0.00  0.00     0.022 A 
ATOM      8  C7  BZF d   1       1.552  -0.739   1.051  0.00  0.00     0.029 A 
ATOM      9  C7A BZF d   1       0.522  -0.062   1.657  0.00  0.00     0.058 A 
ENDROOT
TORSDOF 0
ENDMDL
