MODEL 1
REMARK minimizedAffinity -4.56183338
REMARK minimizedRMSD -1
REMARK  0 active torsions:
REMARK  status: ('A' for Active; 'I' for Inactive)
ROOT
ATOM      1  O1  BZF d   1      -1.436  -1.701   0.473  0.00  0.00    -0.204 OA
ATOM      2  C2  BZF d   1      -0.636  -1.888  -0.637  0.00  0.00     0.174 A 
ATOM      3  C3  BZF d   1       0.156  -0.816  -0.843  0.00  0.00    -0.012 A 
ATOM      4  C3A BZF d   1      -0.103   0.060   0.258  0.00  0.00    -0.107 A 
ATOM      5  C4  BZF d   1       0.390   1.280   0.623  0.00  0.00     0.055 A 
ATOM      6  C5  BZF d   1      -0.126   1.901   1.717  0.00  0.00    -0.016 A 
ATOM      7  C6  BZF d   1      -1.138   1.334   2.463  0.00  0.00     0.022 A 
ATOM      8  C7  BZF d   1      -1.656   0.123   2.143  0.00  0.00     0.029 A 
ATOM      9  C7A BZF d   1      -1.114  -0.522   1.058  0.00  0.00     0.058 A 
ENDROOT
TORSDOF 0
ENDMDL
