MODEL 1
REMARK minimizedAffinity -2.25832105
REMARK minimizedRMSD -1
REMARK  0 active torsions:
REMARK  status: ('A' for Active; 'I' for Inactive)
ROOT
ATOM      1  O1  BZF d   1       1.029   0.690  -0.910  0.00  0.00    -0.204 OA
ATOM      2  C2  BZF d   1       0.585  -0.444  -1.564  0.00  0.00     0.174 A 
ATOM      3  C3  BZF d   1      -0.362  -1.074  -0.840  0.00  0.00    -0.012 A 
ATOM      4  C3A BZF d   1      -0.586  -0.236   0.297  0.00  0.00    -0.107 A 
ATOM      5  C4  BZF d   1      -1.423  -0.317   1.373  0.00  0.00     0.055 A 
ATOM      6  C5  BZF d   1      -1.344   0.630   2.345  0.00  0.00    -0.016 A 
ATOM      7  C6  BZF d   1      -0.437   1.667   2.276  0.00  0.00     0.022 A 
ATOM      8  C7  BZF d   1       0.411   1.793   1.225  0.00  0.00     0.029 A 
ATOM      9  C7A BZF d   1       0.310   0.856   0.226  0.00  0.00     0.058 A 
ENDROOT
TORSDOF 0
ENDMDL
