MODEL 1
REMARK minimizedAffinity -0.392780066
REMARK minimizedRMSD -1
REMARK  0 active torsions:
REMARK  status: ('A' for Active; 'I' for Inactive)
ROOT
ATOM      1  O1  BZF d   1      -2.527   0.493   1.426  0.00  0.00    -0.204 OA
ATOM      2  C2  BZF d   1      -2.450  -0.257   0.268  0.00  0.00     0.174 A 
ATOM      3  C3  BZF d   1      -1.179  -0.317  -0.179  0.00  0.00    -0.012 A 
ATOM      4  C3A BZF d   1      -0.400   0.366   0.809  0.00  0.00    -0.107 A 
ATOM      5  C4  BZF d   1       0.934   0.627   0.937  0.00  0.00     0.055 A 
ATOM      6  C5  BZF d   1       1.362   1.382   1.983  0.00  0.00    -0.016 A 
ATOM      7  C6  BZF d   1       0.484   1.895   2.914  0.00  0.00     0.022 A 
ATOM      8  C7  BZF d   1      -0.848   1.659   2.832  0.00  0.00     0.029 A 
ATOM      9  C7A BZF d   1      -1.280   0.869   1.795  0.00  0.00     0.058 A 
ENDROOT
TORSDOF 0
ENDMDL
