MODEL 1
REMARK minimizedAffinity -5.55810928
REMARK minimizedRMSD -1
REMARK  0 active torsions:
REMARK  status: ('A' for Active; 'I' for Inactive)
ROOT
ATOM      1  O1  BZF d   1       0.710  -0.587  -0.606  0.00  0.00    -0.204 OA
ATOM      2  C2  BZF d   1      -0.320  -1.314  -1.171  0.00  0.00     0.174 A 
ATOM      3  C3  BZF d   1      -1.424  -1.262  -0.398  0.00  0.00    -0.012 A 
ATOM      4  C3A BZF d   1      -1.090  -0.375   0.674  0.00  0.00    -0.107 A 
ATOM      5  C4  BZF d   1      -1.780   0.090   1.757  0.00  0.00     0.055 A 
ATOM      6  C5  BZF d   1      -1.142   0.886   2.654  0.00  0.00    -0.016 A 
ATOM      7  C6  BZF d   1       0.185   1.232   2.504  0.00  0.00     0.022 A 
ATOM      8  C7  BZF d   1       0.909   0.799   1.444  0.00  0.00     0.029 A 
ATOM      9  C7A BZF d   1       0.258   0.021   0.517  0.00  0.00     0.058 A 
ENDROOT
TORSDOF 0
ENDMDL
