MODEL 1
REMARK minimizedAffinity -4.76678467
REMARK minimizedRMSD -1
REMARK  0 active torsions:
REMARK  status: ('A' for Active; 'I' for Inactive)
ROOT
ATOM      1  O1  BZF d   1      -0.966   1.329   2.763  0.00  0.00    -0.204 OA
ATOM      2  C2  BZF d   1       0.317   1.375   3.274  0.00  0.00     0.174 A 
ATOM      3  C3  BZF d   1       1.168   0.680   2.493  0.00  0.00    -0.012 A 
ATOM      4  C3A BZF d   1       0.386   0.246   1.376  0.00  0.00    -0.107 A 
ATOM      5  C4  BZF d   1       0.672  -0.474   0.252  0.00  0.00     0.055 A 
ATOM      6  C5  BZF d   1      -0.334  -0.790  -0.605  0.00  0.00    -0.016 A 
ATOM      7  C6  BZF d   1      -1.638  -0.406  -0.366  0.00  0.00     0.022 A 
ATOM      8  C7  BZF d   1      -1.970   0.313   0.733  0.00  0.00     0.029 A 
ATOM      9  C7A BZF d   1      -0.950   0.662   1.584  0.00  0.00     0.058 A 
ENDROOT
TORSDOF 0
ENDMDL
