MODEL 1
REMARK minimizedAffinity -2.29189062
REMARK minimizedRMSD -1
REMARK  0 active torsions:
REMARK  status: ('A' for Active; 'I' for Inactive)
ROOT
ATOM      1  C   UNL d   1       0.351  -1.403  -2.138  0.00  0.00     0.172 C 
ATOM      2  N   UNL d   1       0.068  -1.119  -0.750  0.00  0.00    -0.070 N 
ATOM      3  C1  UNL d   1      -0.727  -1.870   0.073  0.00  0.00    -0.004 A 
ATOM      4  C2  UNL d   1      -0.741  -1.267   1.312  0.00  0.00    -0.047 A 
ATOM      5  C3  UNL d   1       0.074  -0.113   1.230  0.00  0.00    -0.047 A 
ATOM      6  C4  UNL d   1       0.563  -0.045  -0.058  0.00  0.00    -0.004 A 
ENDROOT
TORSDOF 0
ENDMDL
