MODEL 1
REMARK minimizedAffinity -3.51748538
REMARK minimizedRMSD -1
REMARK  0 active torsions:
REMARK  status: ('A' for Active; 'I' for Inactive)
ROOT
ATOM      1  C   UNL d   1       1.947   3.061  -0.101  0.00  0.00     0.172 C 
ATOM      2  N   UNL d   1       1.111   1.928   0.219  0.00  0.00    -0.070 N 
ATOM      3  C1  UNL d   1      -0.072   1.611  -0.395  0.00  0.00    -0.004 A 
ATOM      4  C2  UNL d   1      -0.559   0.465   0.195  0.00  0.00    -0.047 A 
ATOM      5  C3  UNL d   1       0.362   0.080   1.198  0.00  0.00    -0.047 A 
ATOM      6  C4  UNL d   1       1.386   1.004   1.192  0.00  0.00    -0.004 A 
ENDROOT
TORSDOF 0
ENDMDL
