MODEL 1
REMARK minimizedAffinity -3.555161
REMARK minimizedRMSD -1
REMARK  0 active torsions:
REMARK  status: ('A' for Active; 'I' for Inactive)
ROOT
ATOM      1  C   UNL d   1       0.081   0.712  -0.482  0.00  0.00     0.172 C 
ATOM      2  N   UNL d   1      -0.059  -0.577   0.154  0.00  0.00    -0.070 N 
ATOM      3  C1  UNL d   1      -0.965  -0.891   1.131  0.00  0.00    -0.004 A 
ATOM      4  C2  UNL d   1      -0.778  -2.214   1.471  0.00  0.00    -0.047 A 
ATOM      5  C3  UNL d   1       0.277  -2.712   0.670  0.00  0.00    -0.047 A 
ATOM      6  C4  UNL d   1       0.704  -1.678  -0.136  0.00  0.00    -0.004 A 
ENDROOT
TORSDOF 0
ENDMDL
