MODEL 1
REMARK minimizedAffinity -2.27880979
REMARK minimizedRMSD -1
REMARK  0 active torsions:
REMARK  status: ('A' for Active; 'I' for Inactive)
ROOT
ATOM      1  C   UNL d   1      -0.731  -2.278   0.777  0.00  0.00     0.172 C 
ATOM      2  N   UNL d   1      -0.443  -0.891   0.495  0.00  0.00    -0.070 N 
ATOM      3  C1  UNL d   1      -0.939   0.184   1.183  0.00  0.00    -0.004 A 
ATOM      4  C2  UNL d   1      -0.428   1.326   0.607  0.00  0.00    -0.047 A 
ATOM      5  C3  UNL d   1       0.404   0.924  -0.466  0.00  0.00    -0.047 A 
ATOM      6  C4  UNL d   1       0.376  -0.454  -0.512  0.00  0.00    -0.004 A 
ENDROOT
TORSDOF 0
ENDMDL
