MODEL 1
REMARK minimizedAffinity -3.53270578
REMARK minimizedRMSD -1
REMARK  0 active torsions:
REMARK  status: ('A' for Active; 'I' for Inactive)
ROOT
ATOM      1  C   UNL d   1      -1.879   0.002   1.482  0.00  0.00     0.172 C 
ATOM      2  N   UNL d   1      -0.806  -0.819   0.970  0.00  0.00    -0.070 N 
ATOM      3  C1  UNL d   1      -0.761  -2.187   1.005  0.00  0.00    -0.004 A 
ATOM      4  C2  UNL d   1       0.420  -2.585   0.419  0.00  0.00    -0.047 A 
ATOM      5  C3  UNL d   1       1.110  -1.416   0.019  0.00  0.00    -0.047 A 
ATOM      6  C4  UNL d   1       0.328  -0.337   0.372  0.00  0.00    -0.004 A 
ENDROOT
TORSDOF 0
ENDMDL
