MODEL 1
REMARK minimizedAffinity -3.04878759
REMARK minimizedRMSD -1
REMARK  0 active torsions:
REMARK  status: ('A' for Active; 'I' for Inactive)
ROOT
ATOM      1  C   UNL d   1       1.158   0.351   0.886  0.00  0.00     0.172 C 
ATOM      2  N   UNL d   1       0.464  -0.915   0.829  0.00  0.00    -0.070 N 
ATOM      3  C1  UNL d   1       1.057  -2.149   0.799  0.00  0.00    -0.004 A 
ATOM      4  C2  UNL d   1       0.056  -3.096   0.747  0.00  0.00    -0.047 A 
ATOM      5  C3  UNL d   1      -1.180  -2.406   0.746  0.00  0.00    -0.047 A 
ATOM      6  C4  UNL d   1      -0.898  -1.058   0.797  0.00  0.00    -0.004 A 
ENDROOT
TORSDOF 0
ENDMDL
