MODEL 1
REMARK minimizedAffinity -3.18276787
REMARK minimizedRMSD -1
REMARK  0 active torsions:
REMARK  status: ('A' for Active; 'I' for Inactive)
ROOT
ATOM      1  C   UNL d   1       0.430   1.007   0.032  0.00  0.00     0.172 C 
ATOM      2  N   UNL d   1      -0.029  -0.294   0.456  0.00  0.00    -0.070 N 
ATOM      3  C1  UNL d   1      -0.510  -0.605   1.700  0.00  0.00    -0.004 A 
ATOM      4  C2  UNL d   1      -0.842  -1.943   1.702  0.00  0.00    -0.047 A 
ATOM      5  C3  UNL d   1      -0.549  -2.454   0.416  0.00  0.00    -0.047 A 
ATOM      6  C4  UNL d   1      -0.047  -1.412  -0.336  0.00  0.00    -0.004 A 
ENDROOT
TORSDOF 0
ENDMDL
