MODEL 1
REMARK minimizedAffinity -1.50657141
REMARK minimizedRMSD -1
REMARK  0 active torsions:
REMARK  status: ('A' for Active; 'I' for Inactive)
ROOT
ATOM      1  C   UNL d   1       0.011  -0.117   1.973  0.00  0.00     0.172 C 
ATOM      2  N   UNL d   1       0.079  -0.096   0.531  0.00  0.00    -0.070 N 
ATOM      3  C1  UNL d   1      -0.278   0.955  -0.270  0.00  0.00    -0.004 A 
ATOM      4  C2  UNL d   1      -0.066   0.580  -1.579  0.00  0.00    -0.047 A 
ATOM      5  C3  UNL d   1       0.436  -0.743  -1.564  0.00  0.00    -0.047 A 
ATOM      6  C4  UNL d   1       0.516  -1.137  -0.245  0.00  0.00    -0.004 A 
ENDROOT
TORSDOF 0
ENDMDL
