MODEL 1
REMARK minimizedAffinity -2.54708767
REMARK minimizedRMSD -1
REMARK  0 active torsions:
REMARK  status: ('A' for Active; 'I' for Inactive)
ROOT
ATOM      1  C   UNL d   1       0.280   0.209   0.001  0.00  0.00     0.172 C 
ATOM      2  N   UNL d   1      -0.241  -1.133   0.110  0.00  0.00    -0.070 N 
ATOM      3  C1  UNL d   1       0.000  -2.157  -0.766  0.00  0.00    -0.004 A 
ATOM      4  C2  UNL d   1      -0.674  -3.269  -0.312  0.00  0.00    -0.047 A 
ATOM      5  C3  UNL d   1      -1.345  -2.901   0.879  0.00  0.00    -0.047 A 
ATOM      6  C4  UNL d   1      -1.060  -1.573   1.117  0.00  0.00    -0.004 A 
ENDROOT
TORSDOF 0
ENDMDL
