MODEL 1
REMARK minimizedAffinity -3.42760158
REMARK minimizedRMSD -1
REMARK  0 active torsions:
REMARK  status: ('A' for Active; 'I' for Inactive)
ROOT
ATOM      1  C   UNL d   1       0.076  -0.036   0.628  0.00  0.00     0.172 C 
ATOM      2  N   UNL d   1      -0.048  -1.200  -0.217  0.00  0.00    -0.070 N 
ATOM      3  C1  UNL d   1       0.124  -1.223  -1.575  0.00  0.00    -0.004 A 
ATOM      4  C2  UNL d   1      -0.079  -2.516  -2.005  0.00  0.00    -0.047 A 
ATOM      5  C3  UNL d   1      -0.384  -3.298  -0.865  0.00  0.00    -0.047 A 
ATOM      6  C4  UNL d   1      -0.358  -2.458   0.228  0.00  0.00    -0.004 A 
ENDROOT
TORSDOF 0
ENDMDL
