MODEL 1
REMARK minimizedAffinity -3.5908916
REMARK minimizedRMSD -1
REMARK  0 active torsions:
REMARK  status: ('A' for Active; 'I' for Inactive)
ROOT
ATOM      1  C   UNL d   1      -0.191   0.017  -0.092  0.00  0.00     0.172 C 
ATOM      2  N   UNL d   1      -0.143  -1.191  -0.883  0.00  0.00    -0.070 N 
ATOM      3  C1  UNL d   1      -0.007  -1.248  -2.244  0.00  0.00    -0.004 A 
ATOM      4  C2  UNL d   1      -0.005  -2.576  -2.612  0.00  0.00    -0.047 A 
ATOM      5  C3  UNL d   1      -0.145  -3.343  -1.431  0.00  0.00    -0.047 A 
ATOM      6  C4  UNL d   1      -0.229  -2.460  -0.375  0.00  0.00    -0.004 A 
ENDROOT
TORSDOF 0
ENDMDL
