MODEL 1
REMARK minimizedAffinity -3.52174878
REMARK minimizedRMSD -1
REMARK  0 active torsions:
REMARK  status: ('A' for Active; 'I' for Inactive)
ROOT
ATOM      1  C   UNL d   1       0.385  -2.987  -0.462  0.00  0.00     0.172 C 
ATOM      2  N   UNL d   1       0.100  -1.709   0.146  0.00  0.00    -0.070 N 
ATOM      3  C1  UNL d   1       0.931  -0.620   0.141  0.00  0.00    -0.004 A 
ATOM      4  C2  UNL d   1       0.298   0.397   0.822  0.00  0.00    -0.047 A 
ATOM      5  C3  UNL d   1      -0.957  -0.097   1.251  0.00  0.00    -0.047 A 
ATOM      6  C4  UNL d   1      -1.053  -1.403   0.819  0.00  0.00    -0.004 A 
ENDROOT
TORSDOF 0
ENDMDL
