MODEL 1
REMARK minimizedAffinity 0.292174965
REMARK minimizedRMSD -1
REMARK  0 active torsions:
REMARK  status: ('A' for Active; 'I' for Inactive)
ROOT
ATOM      1  C   UNL d   1      -0.990  -2.673   1.043  0.00  0.00     0.172 C 
ATOM      2  N   UNL d   1      -0.482  -1.343   0.797  0.00  0.00    -0.070 N 
ATOM      3  C1  UNL d   1       0.431  -0.682   1.573  0.00  0.00    -0.004 A 
ATOM      4  C2  UNL d   1       0.653   0.554   1.004  0.00  0.00    -0.047 A 
ATOM      5  C3  UNL d   1      -0.157   0.638  -0.154  0.00  0.00    -0.047 A 
ATOM      6  C4  UNL d   1      -0.849  -0.550  -0.258  0.00  0.00    -0.004 A 
ENDROOT
TORSDOF 0
ENDMDL
