MODEL 1
REMARK minimizedAffinity -3.30109859
REMARK minimizedRMSD -1
REMARK  0 active torsions:
REMARK  status: ('A' for Active; 'I' for Inactive)
ROOT
ATOM      1  C   UNL d   1       1.152   0.215   0.320  0.00  0.00     0.172 C 
ATOM      2  N   UNL d   1       0.327  -0.962   0.457  0.00  0.00    -0.070 N 
ATOM      3  C1  UNL d   1      -0.974  -0.979   0.884  0.00  0.00    -0.004 A 
ATOM      4  C2  UNL d   1      -1.404  -2.289   0.874  0.00  0.00    -0.047 A 
ATOM      5  C3  UNL d   1      -0.324  -3.086   0.427  0.00  0.00    -0.047 A 
ATOM      6  C4  UNL d   1       0.735  -2.239   0.176  0.00  0.00    -0.004 A 
ENDROOT
TORSDOF 0
ENDMDL
