MODEL 1
REMARK minimizedAffinity -3.0784204
REMARK minimizedRMSD -1
REMARK  1 active torsions:
REMARK  status: ('A' for Active; 'I' for Inactive)
REMARK    1  A    between atoms: N_2  and  C1_3 
ROOT
ATOM      1  C1  UNL d   1       2.375   4.220  -5.312  0.00  0.00     0.143 A 
ATOM      2  C2  UNL d   1       3.084   3.040  -5.063  0.00  0.00    -0.057 A 
ATOM      3  C3  UNL d   1       4.470   2.972  -5.251  0.00  0.00     0.033 A 
ATOM      4  C4  UNL d   1       5.169   4.079  -5.721  0.00  0.00    -0.042 A 
ATOM      5  C5  UNL d   1       4.481   5.255  -5.999  0.00  0.00     0.033 A 
ATOM      6  C6  UNL d   1       3.098   5.318  -5.803  0.00  0.00    -0.057 A 
ENDROOT
BRANCH   1   7
ATOM      7  N   UNL d   1       0.983   4.321  -5.238  0.00  0.00    -0.732 N 
ATOM      8  C   UNL d   1       0.277   5.333  -5.995  0.00  0.00     0.284 C 
ATOM      9  H3  UNL d   1       0.527   3.412  -5.233  0.00  0.00     0.395 HD
ENDBRANCH   1   7
TORSDOF 1
ENDMDL
