MODEL 1
REMARK minimizedAffinity -1.52247822
REMARK minimizedRMSD -1
REMARK  1 active torsions:
REMARK  status: ('A' for Active; 'I' for Inactive)
REMARK    1  A    between atoms: N_2  and  C1_3 
ROOT
ATOM      1  C1  UNL d   1       3.168   0.934   1.983  0.00  0.00     0.143 A 
ATOM      2  C2  UNL d   1       3.617   2.209   1.623  0.00  0.00    -0.057 A 
ATOM      3  C3  UNL d   1       4.983   2.514   1.585  0.00  0.00     0.033 A 
ATOM      4  C4  UNL d   1       5.926   1.553   1.936  0.00  0.00    -0.042 A 
ATOM      5  C5  UNL d   1       5.501   0.287   2.322  0.00  0.00     0.033 A 
ATOM      6  C6  UNL d   1       4.136  -0.014   2.351  0.00  0.00    -0.057 A 
ENDROOT
BRANCH   1   7
ATOM      7  N   UNL d   1       1.820   0.598   2.135  0.00  0.00    -0.732 N 
ATOM      8  C   UNL d   1       1.102   0.957   3.339  0.00  0.00     0.284 C 
ATOM      9  H3  UNL d   1       1.288   0.731   1.278  0.00  0.00     0.395 HD
ENDBRANCH   1   7
TORSDOF 1
ENDMDL
