MODEL 1
REMARK minimizedAffinity -2.34817886
REMARK minimizedRMSD -1
REMARK  1 active torsions:
REMARK  status: ('A' for Active; 'I' for Inactive)
REMARK    1  A    between atoms: N_2  and  C1_3 
ROOT
ATOM      1  C1  UNL d   1       2.336   4.379  -5.643  0.00  0.00     0.143 A 
ATOM      2  C2  UNL d   1       3.414   5.251  -5.832  0.00  0.00    -0.057 A 
ATOM      3  C3  UNL d   1       4.717   4.768  -5.999  0.00  0.00     0.033 A 
ATOM      4  C4  UNL d   1       4.971   3.401  -5.951  0.00  0.00    -0.042 A 
ATOM      5  C5  UNL d   1       3.918   2.517  -5.740  0.00  0.00     0.033 A 
ATOM      6  C6  UNL d   1       2.618   3.006  -5.580  0.00  0.00    -0.057 A 
ENDROOT
BRANCH   1   7
ATOM      7  N   UNL d   1       1.032   4.802  -5.373  0.00  0.00    -0.732 N 
ATOM      8  C   UNL d   1       0.499   5.993  -5.998  0.00  0.00     0.284 C 
ATOM      9  H3  UNL d   1       0.374   4.027  -5.326  0.00  0.00     0.395 HD
ENDBRANCH   1   7
TORSDOF 1
ENDMDL
