MODEL 1
REMARK minimizedAffinity -1.81586266
REMARK minimizedRMSD -1
REMARK  1 active torsions:
REMARK  status: ('A' for Active; 'I' for Inactive)
REMARK    1  A    between atoms: N_2  and  C1_3 
ROOT
ATOM      1  C1  UNL d   1       2.480   4.281  -5.766  0.00  0.00     0.143 A 
ATOM      2  C2  UNL d   1       3.524   5.205  -5.872  0.00  0.00    -0.057 A 
ATOM      3  C3  UNL d   1       4.854   4.786  -5.999  0.00  0.00     0.033 A 
ATOM      4  C4  UNL d   1       5.166   3.430  -5.993  0.00  0.00    -0.042 A 
ATOM      5  C5  UNL d   1       4.146   2.494  -5.863  0.00  0.00     0.033 A 
ATOM      6  C6  UNL d   1       2.820   2.919  -5.744  0.00  0.00    -0.057 A 
ENDROOT
BRANCH   1   7
ATOM      7  N   UNL d   1       1.148   4.635  -5.539  0.00  0.00    -0.732 N 
ATOM      8  C   UNL d   1       0.635   5.909  -5.997  0.00  0.00     0.284 C 
ATOM      9  H3  UNL d   1       0.509   3.856  -5.678  0.00  0.00     0.395 HD
ENDBRANCH   1   7
TORSDOF 1
ENDMDL
