MODEL 1
REMARK minimizedAffinity -3.5166564
REMARK minimizedRMSD -1
REMARK  1 active torsions:
REMARK  status: ('A' for Active; 'I' for Inactive)
REMARK    1  A    between atoms: N_2  and  C1_3 
ROOT
ATOM      1  C1  UNL d   1       2.525   3.454  -5.459  0.00  0.00     0.143 A 
ATOM      2  C2  UNL d   1       3.280   4.503  -5.995  0.00  0.00    -0.057 A 
ATOM      3  C3  UNL d   1       4.679   4.463  -5.999  0.00  0.00     0.033 A 
ATOM      4  C4  UNL d   1       5.351   3.382  -5.438  0.00  0.00    -0.042 A 
ATOM      5  C5  UNL d   1       4.622   2.339  -4.877  0.00  0.00     0.033 A 
ATOM      6  C6  UNL d   1       3.224   2.382  -4.882  0.00  0.00    -0.057 A 
ENDROOT
BRANCH   1   7
ATOM      7  N   UNL d   1       1.133   3.480  -5.337  0.00  0.00    -0.732 N 
ATOM      8  C   UNL d   1       0.354   4.504  -6.000  0.00  0.00     0.284 C 
ATOM      9  H3  UNL d   1       0.722   2.551  -5.382  0.00  0.00     0.395 HD
ENDBRANCH   1   7
TORSDOF 1
ENDMDL
