MODEL 1
REMARK minimizedAffinity -1.66607893
REMARK minimizedRMSD -1
REMARK  1 active torsions:
REMARK  status: ('A' for Active; 'I' for Inactive)
REMARK    1  A    between atoms: N_2  and  C1_3 
ROOT
ATOM      1  C1  UNL d   1       3.475   3.899  -5.859  0.00  0.00     0.143 A 
ATOM      2  C2  UNL d   1       4.660   3.160  -5.946  0.00  0.00    -0.057 A 
ATOM      3  C3  UNL d   1       5.909   3.792  -5.987  0.00  0.00     0.033 A 
ATOM      4  C4  UNL d   1       5.993   5.181  -5.972  0.00  0.00    -0.042 A 
ATOM      5  C5  UNL d   1       4.827   5.936  -5.912  0.00  0.00     0.033 A 
ATOM      6  C6  UNL d   1       3.584   5.298  -5.864  0.00  0.00    -0.057 A 
ENDROOT
BRANCH   1   7
ATOM      7  N   UNL d   1       2.200   3.332  -5.914  0.00  0.00    -0.732 N 
ATOM      8  C   UNL d   1       1.021   4.171  -5.953  0.00  0.00     0.284 C 
ATOM      9  H3  UNL d   1       2.158   2.528  -6.535  0.00  0.00     0.395 HD
ENDBRANCH   1   7
TORSDOF 1
ENDMDL
