MODEL 1
REMARK minimizedAffinity 2.86822963
REMARK minimizedRMSD -1
REMARK  1 active torsions:
REMARK  status: ('A' for Active; 'I' for Inactive)
REMARK    1  A    between atoms: N_2  and  C1_3 
ROOT
ATOM      1  C1  UNL d   1       3.332   0.483   1.641  0.00  0.00     0.143 A 
ATOM      2  C2  UNL d   1       4.627   0.050   1.947  0.00  0.00    -0.057 A 
ATOM      3  C3  UNL d   1       4.945  -0.444   3.218  0.00  0.00     0.033 A 
ATOM      4  C4  UNL d   1       3.979  -0.485   4.218  0.00  0.00    -0.042 A 
ATOM      5  C5  UNL d   1       2.692  -0.036   3.943  0.00  0.00     0.033 A 
ATOM      6  C6  UNL d   1       2.378   0.449   2.670  0.00  0.00    -0.057 A 
ENDROOT
BRANCH   1   7
ATOM      7  N   UNL d   1       2.977   1.076   0.427  0.00  0.00    -0.732 N 
ATOM      8  C   UNL d   1       3.035   2.512   0.263  0.00  0.00     0.284 C 
ATOM      9  H3  UNL d   1       3.319   0.552  -0.376  0.00  0.00     0.395 HD
ENDBRANCH   1   7
TORSDOF 1
ENDMDL
