MODEL 1
REMARK minimizedAffinity 2.5394783
REMARK minimizedRMSD -1
REMARK  1 active torsions:
REMARK  status: ('A' for Active; 'I' for Inactive)
REMARK    1  A    between atoms: N_2  and  C1_3 
ROOT
ATOM      1  C1  UNL d   1       2.373   0.692   1.975  0.00  0.00     0.143 A 
ATOM      2  C2  UNL d   1       1.253   0.445   2.777  0.00  0.00    -0.057 A 
ATOM      3  C3  UNL d   1       0.241   1.400   2.924  0.00  0.00     0.033 A 
ATOM      4  C4  UNL d   1       0.344   2.635   2.293  0.00  0.00    -0.042 A 
ATOM      5  C5  UNL d   1       1.460   2.912   1.510  0.00  0.00     0.033 A 
ATOM      6  C6  UNL d   1       2.464   1.951   1.362  0.00  0.00    -0.057 A 
ENDROOT
BRANCH   1   7
ATOM      7  N   UNL d   1       3.460  -0.179   1.867  0.00  0.00    -0.732 N 
ATOM      8  C   UNL d   1       4.805   0.284   2.135  0.00  0.00     0.284 C 
ATOM      9  H3  UNL d   1       3.256  -1.103   2.241  0.00  0.00     0.395 HD
ENDBRANCH   1   7
TORSDOF 1
ENDMDL
