MODEL 1
REMARK minimizedAffinity -0.458475024
REMARK minimizedRMSD -1
REMARK  1 active torsions:
REMARK  status: ('A' for Active; 'I' for Inactive)
REMARK    1  A    between atoms: N_2  and  C1_3 
ROOT
ATOM      1  C1  UNL d   1       2.658   3.231  -5.715  0.00  0.00     0.143 A 
ATOM      2  C2  UNL d   1       3.900   3.809  -5.999  0.00  0.00    -0.057 A 
ATOM      3  C3  UNL d   1       4.132   5.173  -5.784  0.00  0.00     0.033 A 
ATOM      4  C4  UNL d   1       3.113   5.991  -5.307  0.00  0.00    -0.042 A 
ATOM      5  C5  UNL d   1       1.863   5.443  -5.041  0.00  0.00     0.033 A 
ATOM      6  C6  UNL d   1       1.640   4.079  -5.252  0.00  0.00    -0.057 A 
ENDROOT
BRANCH   1   7
ATOM      7  N   UNL d   1       2.336   1.901  -6.000  0.00  0.00    -0.732 N 
ATOM      8  C   UNL d   1       3.356   0.876  -5.984  0.00  0.00     0.284 C 
ATOM      9  H3  UNL d   1       1.454   1.617  -5.579  0.00  0.00     0.395 HD
ENDBRANCH   1   7
TORSDOF 1
ENDMDL
