MODEL 1
REMARK minimizedAffinity 11.7735147
REMARK minimizedRMSD -1
REMARK  1 active torsions:
REMARK  status: ('A' for Active; 'I' for Inactive)
REMARK    1  A    between atoms: N_2  and  C1_3 
ROOT
ATOM      1  C1  UNL d   1      -1.877  -2.345  -3.690  0.00  0.00     0.143 A 
ATOM      2  C2  UNL d   1      -1.062  -3.322  -3.108  0.00  0.00    -0.057 A 
ATOM      3  C3  UNL d   1      -0.706  -3.260  -1.755  0.00  0.00     0.033 A 
ATOM      4  C4  UNL d   1      -1.137  -2.200  -0.965  0.00  0.00    -0.042 A 
ATOM      5  C5  UNL d   1      -1.928  -1.204  -1.528  0.00  0.00     0.033 A 
ATOM      6  C6  UNL d   1      -2.285  -1.275  -2.877  0.00  0.00    -0.057 A 
ENDROOT
BRANCH   1   7
ATOM      7  N   UNL d   1      -2.185  -2.299  -5.052  0.00  0.00    -0.732 N 
ATOM      8  C   UNL d   1      -1.251  -1.730  -5.999  0.00  0.00     0.284 C 
ATOM      9  H3  UNL d   1      -2.641  -3.148  -5.376  0.00  0.00     0.395 HD
ENDBRANCH   1   7
TORSDOF 1
ENDMDL
