MODEL 1
REMARK minimizedAffinity -0.99576205
REMARK minimizedRMSD -1
REMARK  0 active torsions:
REMARK  status: ('A' for Active; 'I' for Inactive)
ROOT
ATOM      1  N1  IND d   1       0.314  -2.155   3.543  0.00  0.00    -0.196 N 
ATOM      2  C2  IND d   1      -0.013  -1.180   2.643  0.00  0.00     0.054 A 
ATOM      3  C3  IND d   1       0.756  -0.085   2.836  0.00  0.00    -0.031 A 
ATOM      4  C4  IND d   1       2.680   0.289   4.504  0.00  0.00     0.051 A 
ATOM      5  C5  IND d   1       3.324  -0.300   5.556  0.00  0.00    -0.031 A 
ATOM      6  C6  IND d   1       2.992  -1.565   5.998  0.00  0.00     0.015 A 
ATOM      7  C7  IND d   1       2.008  -2.295   5.394  0.00  0.00    -0.016 A 
ATOM      8  C8  IND d   1       1.347  -1.696   4.331  0.00  0.00    -0.047 A 
ATOM      9  C9  IND d   1       1.651  -0.397   3.905  0.00  0.00    -0.096 A 
ATOM     10  HN1 IND d   1      -0.063  -2.926   3.608  0.00  0.00     0.298 HD
ENDROOT
TORSDOF 0
ENDMDL
