MODEL 1
REMARK minimizedAffinity -0.446215928
REMARK minimizedRMSD -1
REMARK  0 active torsions:
REMARK  status: ('A' for Active; 'I' for Inactive)
ROOT
ATOM      1  N1  IND d   1       0.084  -0.179  -6.000  0.00  0.00    -0.196 N 
ATOM      2  C2  IND d   1      -0.211   0.745  -5.037  0.00  0.00     0.054 A 
ATOM      3  C3  IND d   1      -0.470   0.133  -3.860  0.00  0.00    -0.031 A 
ATOM      4  C4  IND d   1      -0.367  -2.369  -3.261  0.00  0.00     0.051 A 
ATOM      5  C5  IND d   1      -0.179  -3.603  -3.818  0.00  0.00    -0.031 A 
ATOM      6  C6  IND d   1       0.116  -3.762  -5.156  0.00  0.00     0.015 A 
ATOM      7  C7  IND d   1       0.245  -2.687  -5.990  0.00  0.00    -0.016 A 
ATOM      8  C8  IND d   1       0.047  -1.433  -5.430  0.00  0.00    -0.047 A 
ATOM      9  C9  IND d   1      -0.295  -1.268  -4.081  0.00  0.00    -0.096 A 
ATOM     10  HN1 IND d   1       0.263  -0.007  -6.823  0.00  0.00     0.298 HD
ENDROOT
TORSDOF 0
ENDMDL
