MODEL 1
REMARK minimizedAffinity 4.30125761
REMARK minimizedRMSD -1
REMARK  0 active torsions:
REMARK  status: ('A' for Active; 'I' for Inactive)
ROOT
ATOM      1  N1  IND d   1      -1.527   0.391   3.147  0.00  0.00    -0.196 N 
ATOM      2  C2  IND d   1      -0.760  -0.741   3.155  0.00  0.00     0.054 A 
ATOM      3  C3  IND d   1      -1.010  -1.486   2.055  0.00  0.00    -0.031 A 
ATOM      4  C4  IND d   1      -2.561  -0.990   0.061  0.00  0.00     0.051 A 
ATOM      5  C5  IND d   1      -3.495  -0.095  -0.380  0.00  0.00    -0.031 A 
ATOM      6  C6  IND d   1      -3.825   1.032   0.345  0.00  0.00     0.015 A 
ATOM      7  C7  IND d   1      -3.222   1.313   1.538  0.00  0.00    -0.016 A 
ATOM      8  C8  IND d   1      -2.279   0.403   1.993  0.00  0.00    -0.047 A 
ATOM      9  C9  IND d   1      -1.971  -0.764   1.282  0.00  0.00    -0.096 A 
ATOM     10  HN1 IND d   1      -1.537   0.994   3.760  0.00  0.00     0.298 HD
ENDROOT
TORSDOF 0
ENDMDL
