MODEL 1
REMARK minimizedAffinity 3.31212997
REMARK minimizedRMSD -1
REMARK  0 active torsions:
REMARK  status: ('A' for Active; 'I' for Inactive)
ROOT
ATOM      1  N1  IND d   1      -1.593  -0.114   1.569  0.00  0.00    -0.196 N 
ATOM      2  C2  IND d   1      -2.710  -0.864   1.811  0.00  0.00     0.054 A 
ATOM      3  C3  IND d   1      -2.396  -1.948   2.555  0.00  0.00    -0.031 A 
ATOM      4  C4  IND d   1      -0.133  -2.636   3.571  0.00  0.00     0.051 A 
ATOM      5  C5  IND d   1       1.188  -2.286   3.594  0.00  0.00    -0.031 A 
ATOM      6  C6  IND d   1       1.659  -1.170   2.933  0.00  0.00     0.015 A 
ATOM      7  C7  IND d   1       0.820  -0.353   2.229  0.00  0.00    -0.016 A 
ATOM      8  C8  IND d   1      -0.521  -0.709   2.197  0.00  0.00    -0.047 A 
ATOM      9  C9  IND d   1      -0.997  -1.863   2.831  0.00  0.00    -0.096 A 
ATOM     10  HN1 IND d   1      -1.564   0.608   1.102  0.00  0.00     0.298 HD
ENDROOT
TORSDOF 0
ENDMDL
