MODEL 1
REMARK minimizedAffinity 0.590619862
REMARK minimizedRMSD -1
REMARK  0 active torsions:
REMARK  status: ('A' for Active; 'I' for Inactive)
ROOT
ATOM      1  N1  IND d   1       0.461  -1.904   3.681  0.00  0.00    -0.196 N 
ATOM      2  C2  IND d   1       1.567  -1.207   3.280  0.00  0.00     0.054 A 
ATOM      3  C3  IND d   1       1.239  -0.319   2.315  0.00  0.00    -0.031 A 
ATOM      4  C4  IND d   1      -1.067   0.231   1.313  0.00  0.00     0.051 A 
ATOM      5  C5  IND d   1      -2.374  -0.169   1.335  0.00  0.00    -0.031 A 
ATOM      6  C6  IND d   1      -2.812  -1.186   2.158  0.00  0.00     0.015 A 
ATOM      7  C7  IND d   1      -1.958  -1.837   3.003  0.00  0.00    -0.016 A 
ATOM      8  C8  IND d   1      -0.628  -1.438   2.978  0.00  0.00    -0.047 A 
ATOM      9  C9  IND d   1      -0.170  -0.436   2.114  0.00  0.00    -0.096 A 
ATOM     10  HN1 IND d   1       0.448  -2.528   4.272  0.00  0.00     0.298 HD
ENDROOT
TORSDOF 0
ENDMDL
