MODEL 1
REMARK minimizedAffinity 6.29728031
REMARK minimizedRMSD -1
REMARK  0 active torsions:
REMARK  status: ('A' for Active; 'I' for Inactive)
ROOT
ATOM      1  N1  IND d   1       1.940   0.373  -6.000  0.00  0.00    -0.196 N 
ATOM      2  C2  IND d   1       2.996  -0.151  -5.307  0.00  0.00     0.054 A 
ATOM      3  C3  IND d   1       2.562  -1.057  -4.402  0.00  0.00    -0.031 A 
ATOM      4  C4  IND d   1       0.173  -1.908  -3.957  0.00  0.00     0.051 A 
ATOM      5  C5  IND d   1      -1.129  -1.699  -4.315  0.00  0.00    -0.031 A 
ATOM      6  C6  IND d   1      -1.482  -0.772  -5.274  0.00  0.00     0.015 A 
ATOM      7  C7  IND d   1      -0.540  -0.024  -5.922  0.00  0.00    -0.016 A 
ATOM      8  C8  IND d   1       0.783  -0.229  -5.556  0.00  0.00    -0.047 A 
ATOM      9  C9  IND d   1       1.143  -1.138  -4.553  0.00  0.00    -0.096 A 
ATOM     10  HN1 IND d   1       1.991   0.976  -6.610  0.00  0.00     0.298 HD
ENDROOT
TORSDOF 0
ENDMDL
