MODEL 1
REMARK minimizedAffinity 1.88554358
REMARK minimizedRMSD -1
REMARK  0 active torsions:
REMARK  status: ('A' for Active; 'I' for Inactive)
ROOT
ATOM      1  N1  IND d   1      -1.782   0.574   1.522  0.00  0.00    -0.196 N 
ATOM      2  C2  IND d   1      -2.908  -0.196   1.610  0.00  0.00     0.054 A 
ATOM      3  C3  IND d   1      -2.608  -1.411   2.123  0.00  0.00    -0.031 A 
ATOM      4  C4  IND d   1      -0.355  -2.313   2.980  0.00  0.00     0.051 A 
ATOM      5  C5  IND d   1       0.970  -1.990   3.072  0.00  0.00    -0.031 A 
ATOM      6  C6  IND d   1       1.455  -0.771   2.647  0.00  0.00     0.015 A 
ATOM      7  C7  IND d   1       0.627   0.180   2.121  0.00  0.00    -0.016 A 
ATOM      8  C8  IND d   1      -0.718  -0.147   2.019  0.00  0.00    -0.047 A 
ATOM      9  C9  IND d   1      -1.209  -1.399   2.410  0.00  0.00    -0.096 A 
ATOM     10  HN1 IND d   1      -1.744   1.374   1.209  0.00  0.00     0.298 HD
ENDROOT
TORSDOF 0
ENDMDL
