MODEL 1
REMARK minimizedAffinity 9.6996212
REMARK minimizedRMSD -1
REMARK  0 active torsions:
REMARK  status: ('A' for Active; 'I' for Inactive)
ROOT
ATOM      1  N1  IND d   1       0.383  -2.560   2.647  0.00  0.00    -0.196 N 
ATOM      2  C2  IND d   1       1.618  -2.213   3.118  0.00  0.00     0.054 A 
ATOM      3  C3  IND d   1       1.820  -0.884   2.973  0.00  0.00    -0.031 A 
ATOM      4  C4  IND d   1       0.222   0.926   2.082  0.00  0.00     0.051 A 
ATOM      5  C5  IND d   1      -1.005   1.089   1.501  0.00  0.00    -0.031 A 
ATOM      6  C6  IND d   1      -1.850   0.023   1.271  0.00  0.00     0.015 A 
ATOM      7  C7  IND d   1      -1.503  -1.251   1.624  0.00  0.00    -0.016 A 
ATOM      8  C8  IND d   1      -0.255  -1.421   2.207  0.00  0.00    -0.047 A 
ATOM      9  C9  IND d   1       0.624  -0.348   2.405  0.00  0.00    -0.096 A 
ATOM     10  HN1 IND d   1       0.058  -3.356   2.628  0.00  0.00     0.298 HD
ENDROOT
TORSDOF 0
ENDMDL
