MODEL 1
REMARK minimizedAffinity -0.86125052
REMARK minimizedRMSD -1
REMARK  0 active torsions:
REMARK  status: ('A' for Active; 'I' for Inactive)
ROOT
ATOM      1  N1  IND d   1      -4.315   0.887   1.111  0.00  0.00    -0.196 N 
ATOM      2  C2  IND d   1      -4.749   0.249  -0.017  0.00  0.00     0.054 A 
ATOM      3  C3  IND d   1      -3.821  -0.637  -0.443  0.00  0.00    -0.031 A 
ATOM      4  C4  IND d   1      -1.564  -1.277   0.616  0.00  0.00     0.051 A 
ATOM      5  C5  IND d   1      -0.717  -0.939   1.634  0.00  0.00    -0.031 A 
ATOM      6  C6  IND d   1      -1.034   0.043   2.550  0.00  0.00     0.015 A 
ATOM      7  C7  IND d   1      -2.220   0.719   2.489  0.00  0.00    -0.016 A 
ATOM      8  C8  IND d   1      -3.079   0.383   1.452  0.00  0.00    -0.047 A 
ATOM      9  C9  IND d   1      -2.744  -0.583   0.494  0.00  0.00    -0.096 A 
ATOM     10  HN1 IND d   1      -4.742   1.500   1.537  0.00  0.00     0.298 HD
ENDROOT
TORSDOF 0
ENDMDL
