MODEL 1
REMARK minimizedAffinity -4.47363043
REMARK minimizedRMSD -1
REMARK  0 active torsions:
REMARK  status: ('A' for Active; 'I' for Inactive)
ROOT
ATOM      1  N1  IND d   1      -4.468  -0.082   1.639  0.00  0.00    -0.196 N 
ATOM      2  C2  IND d   1      -5.012  -0.013   0.388  0.00  0.00     0.054 A 
ATOM      3  C3  IND d   1      -4.059  -0.205  -0.551  0.00  0.00    -0.031 A 
ATOM      4  C4  IND d   1      -1.560  -0.750  -0.257  0.00  0.00     0.051 A 
ATOM      5  C5  IND d   1      -0.591  -0.879   0.697  0.00  0.00    -0.031 A 
ATOM      6  C6  IND d   1      -0.871  -0.750   2.042  0.00  0.00     0.015 A 
ATOM      7  C7  IND d   1      -2.138  -0.496   2.485  0.00  0.00    -0.016 A 
ATOM      8  C8  IND d   1      -3.123  -0.357   1.518  0.00  0.00    -0.047 A 
ATOM      9  C9  IND d   1      -2.837  -0.445   0.150  0.00  0.00    -0.096 A 
ATOM     10  HN1 IND d   1      -4.893   0.028   2.379  0.00  0.00     0.298 HD
ENDROOT
TORSDOF 0
ENDMDL
