MODEL 1
REMARK minimizedAffinity -1.4907006
REMARK minimizedRMSD -1
REMARK  0 active torsions:
REMARK  status: ('A' for Active; 'I' for Inactive)
ROOT
ATOM      1  C1  BNZ d   1       1.226  -0.697  -0.175  0.00  0.00     0.000 A 
ATOM      2  C2  BNZ d   1       0.651  -0.265   0.991  0.00  0.00     0.000 A 
ATOM      3  C3  BNZ d   1      -0.672   0.076   1.034  0.00  0.00     0.000 A 
ATOM      4  C4  BNZ d   1      -1.407   0.024  -0.096  0.00  0.00     0.000 A 
ATOM      5  C5  BNZ d   1      -0.839  -0.400  -1.281  0.00  0.00     0.000 A 
ATOM      6  C6  BNZ d   1       0.483  -0.780  -1.311  0.00  0.00     0.000 A 
ENDROOT
TORSDOF 0
ENDMDL
