MODEL 1
REMARK minimizedAffinity -3.79349804
REMARK minimizedRMSD -1
REMARK  0 active torsions:
REMARK  status: ('A' for Active; 'I' for Inactive)
ROOT
ATOM      1  C1  BNZ d   1       1.514  -0.696  -2.439  0.00  0.00     0.000 A 
ATOM      2  C2  BNZ d   1       2.030  -0.280  -3.638  0.00  0.00     0.000 A 
ATOM      3  C3  BNZ d   1       1.381   0.658  -4.391  0.00  0.00     0.000 A 
ATOM      4  C4  BNZ d   1       0.200   1.149  -3.965  0.00  0.00     0.000 A 
ATOM      5  C5  BNZ d   1      -0.338   0.733  -2.764  0.00  0.00     0.000 A 
ATOM      6  C6  BNZ d   1       0.337  -0.183  -1.989  0.00  0.00     0.000 A 
ENDROOT
TORSDOF 0
ENDMDL
