MODEL 1
REMARK minimizedAffinity -2.80405307
REMARK minimizedRMSD -1
REMARK  0 active torsions:
REMARK  status: ('A' for Active; 'I' for Inactive)
ROOT
ATOM      1  C1  BNZ d   1      -0.732   0.405   3.311  0.00  0.00     0.000 A 
ATOM      2  C2  BNZ d   1      -1.515   0.799   2.258  0.00  0.00     0.000 A 
ATOM      3  C3  BNZ d   1      -1.069   0.680   0.971  0.00  0.00     0.000 A 
ATOM      4  C4  BNZ d   1       0.172   0.206   0.741  0.00  0.00     0.000 A 
ATOM      5  C5  BNZ d   1       0.977  -0.187   1.792  0.00  0.00     0.000 A 
ATOM      6  C6  BNZ d   1       0.510  -0.102   3.083  0.00  0.00     0.000 A 
ENDROOT
TORSDOF 0
ENDMDL
