MODEL 1
REMARK minimizedAffinity -4.06523228
REMARK minimizedRMSD -1
REMARK  0 active torsions:
REMARK  status: ('A' for Active; 'I' for Inactive)
ROOT
ATOM      1  C1  BNZ d   1      -1.033  -0.374   0.381  0.00  0.00     0.000 A 
ATOM      2  C2  BNZ d   1      -1.895  -0.023   1.385  0.00  0.00     0.000 A 
ATOM      3  C3  BNZ d   1      -1.460   0.698   2.462  0.00  0.00     0.000 A 
ATOM      4  C4  BNZ d   1      -0.156   1.031   2.553  0.00  0.00     0.000 A 
ATOM      5  C5  BNZ d   1       0.728   0.676   1.554  0.00  0.00     0.000 A 
ATOM      6  C6  BNZ d   1       0.278  -0.016   0.453  0.00  0.00     0.000 A 
ENDROOT
TORSDOF 0
ENDMDL
