MODEL 1
REMARK minimizedAffinity -4.8318305
REMARK minimizedRMSD -1
REMARK  0 active torsions:
REMARK  status: ('A' for Active; 'I' for Inactive)
ROOT
ATOM      1  C1  BNZ d   1      -1.602  -0.059   0.163  0.00  0.00     0.000 A 
ATOM      2  C2  BNZ d   1      -1.354   0.664   1.299  0.00  0.00     0.000 A 
ATOM      3  C3  BNZ d   1      -0.076   0.846   1.748  0.00  0.00     0.000 A 
ATOM      4  C4  BNZ d   1       0.948   0.272   1.084  0.00  0.00     0.000 A 
ATOM      5  C5  BNZ d   1       0.713  -0.468  -0.058  0.00  0.00     0.000 A 
ATOM      6  C6  BNZ d   1      -0.571  -0.616  -0.529  0.00  0.00     0.000 A 
ENDROOT
TORSDOF 0
ENDMDL
