MODEL 1
REMARK minimizedAffinity -2.90704465
REMARK minimizedRMSD -1
REMARK  0 active torsions:
REMARK  status: ('A' for Active; 'I' for Inactive)
ROOT
ATOM      1  C1  BNZ d   1       1.188   0.252   1.494  0.00  0.00     0.000 A 
ATOM      2  C2  BNZ d   1       1.065  -0.289   0.242  0.00  0.00     0.000 A 
ATOM      3  C3  BNZ d   1      -0.144  -0.308  -0.396  0.00  0.00     0.000 A 
ATOM      4  C4  BNZ d   1      -1.234   0.177   0.233  0.00  0.00     0.000 A 
ATOM      5  C5  BNZ d   1      -1.128   0.717   1.499  0.00  0.00     0.000 A 
ATOM      6  C6  BNZ d   1       0.098   0.769   2.123  0.00  0.00     0.000 A 
ENDROOT
TORSDOF 0
ENDMDL
