MODEL 1
REMARK minimizedAffinity -4.49401569
REMARK minimizedRMSD -1
REMARK  0 active torsions:
REMARK  status: ('A' for Active; 'I' for Inactive)
ROOT
ATOM      1  C1  BNZ d   1      -0.562   0.943   3.255  0.00  0.00     0.000 A 
ATOM      2  C2  BNZ d   1      -1.408   0.841   2.182  0.00  0.00     0.000 A 
ATOM      3  C3  BNZ d   1      -0.938   0.471   0.953  0.00  0.00     0.000 A 
ATOM      4  C4  BNZ d   1       0.380   0.242   0.789  0.00  0.00     0.000 A 
ATOM      5  C5  BNZ d   1       1.247   0.350   1.858  0.00  0.00     0.000 A 
ATOM      6  C6  BNZ d   1       0.765   0.685   3.102  0.00  0.00     0.000 A 
ENDROOT
TORSDOF 0
ENDMDL
