MODEL 1
REMARK minimizedAffinity 11.3620605
REMARK minimizedRMSD -1
REMARK  1 active torsions:
REMARK  status: ('A' for Active; 'I' for Inactive)
REMARK    1  A    between atoms: C1_2  and  C2_3 
ROOT
ATOM      1  C2  UNL d   1      -2.086  -3.567   2.236  0.00  0.00    -0.077 A 
ATOM      2  C3  UNL d   1      -1.112  -4.412   1.683  0.00  0.00     0.002 A 
ATOM      3  C4  UNL d   1      -0.672  -4.219   0.372  0.00  0.00     0.002 A 
ATOM      4  C5  UNL d   1      -1.197  -3.182  -0.395  0.00  0.00    -0.004 A 
ATOM      5  C6  UNL d   1      -2.167  -2.338   0.144  0.00  0.00     0.002 A 
ATOM      6  C7  UNL d   1      -2.609  -2.529   1.454  0.00  0.00     0.002 A 
ENDROOT
BRANCH   1   7
ATOM      7  C1  UNL d   1      -2.526  -3.743   3.666  0.00  0.00     0.055 C 
ATOM      8  C   UNL d   1      -2.871  -2.406   4.306  0.00  0.00     0.019 C 
ENDBRANCH   1   7
TORSDOF 1
ENDMDL
