MODEL 1
REMARK minimizedAffinity 11.9932032
REMARK minimizedRMSD -1
REMARK  1 active torsions:
REMARK  status: ('A' for Active; 'I' for Inactive)
REMARK    1  A    between atoms: C1_2  and  C2_3 
ROOT
ATOM      1  C2  UNL d   1      -2.208  -1.408  -1.487  0.00  0.00    -0.077 A 
ATOM      2  C3  UNL d   1      -1.400  -2.506  -1.160  0.00  0.00     0.002 A 
ATOM      3  C4  UNL d   1      -1.402  -3.021   0.138  0.00  0.00     0.002 A 
ATOM      4  C5  UNL d   1      -2.212  -2.449   1.116  0.00  0.00    -0.004 A 
ATOM      5  C6  UNL d   1      -3.018  -1.356   0.800  0.00  0.00     0.002 A 
ATOM      6  C7  UNL d   1      -3.017  -0.838  -0.496  0.00  0.00     0.002 A 
ENDROOT
BRANCH   1   7
ATOM      7  C1  UNL d   1      -2.245  -0.881  -2.898  0.00  0.00     0.055 C 
ATOM      8  C   UNL d   1      -1.841  -1.953  -3.900  0.00  0.00     0.019 C 
ENDBRANCH   1   7
TORSDOF 1
ENDMDL
