MODEL 1
REMARK minimizedAffinity 4.61995316
REMARK minimizedRMSD -1
REMARK  1 active torsions:
REMARK  status: ('A' for Active; 'I' for Inactive)
REMARK    1  A    between atoms: C1_2  and  C2_3 
ROOT
ATOM      1  C2  UNL d   1      -1.813  -3.534   2.435  0.00  0.00    -0.077 A 
ATOM      2  C3  UNL d   1      -0.906  -4.368   1.766  0.00  0.00     0.002 A 
ATOM      3  C4  UNL d   1      -0.548  -4.104   0.442  0.00  0.00     0.002 A 
ATOM      4  C5  UNL d   1      -1.089  -3.005  -0.222  0.00  0.00    -0.004 A 
ATOM      5  C6  UNL d   1      -1.994  -2.171   0.435  0.00  0.00     0.002 A 
ATOM      6  C7  UNL d   1      -2.353  -2.434   1.757  0.00  0.00     0.002 A 
ENDROOT
BRANCH   1   7
ATOM      7  C1  UNL d   1      -2.162  -3.789   3.878  0.00  0.00     0.055 C 
ATOM      8  C   UNL d   1      -1.655  -2.670   4.776  0.00  0.00     0.019 C 
ENDBRANCH   1   7
TORSDOF 1
ENDMDL
