MODEL 1
REMARK minimizedAffinity 4.40369844
REMARK minimizedRMSD -1
REMARK  1 active torsions:
REMARK  status: ('A' for Active; 'I' for Inactive)
REMARK    1  A    between atoms: C1_2  and  C2_3 
ROOT
ATOM      1  C2  UNL d   1      -1.064  -3.076   0.392  0.00  0.00    -0.077 A 
ATOM      2  C3  UNL d   1      -2.014  -2.611   1.312  0.00  0.00     0.002 A 
ATOM      3  C4  UNL d   1      -2.881  -1.572   0.967  0.00  0.00     0.002 A 
ATOM      4  C5  UNL d   1      -2.809  -0.993  -0.299  0.00  0.00    -0.004 A 
ATOM      5  C6  UNL d   1      -1.866  -1.448  -1.220  0.00  0.00     0.002 A 
ATOM      6  C7  UNL d   1      -0.998  -2.485  -0.876  0.00  0.00     0.002 A 
ENDROOT
BRANCH   1   7
ATOM      7  C1  UNL d   1      -0.162  -4.230   0.745  0.00  0.00     0.055 C 
ATOM      8  C   UNL d   1      -0.778  -5.560   0.336  0.00  0.00     0.019 C 
ENDBRANCH   1   7
TORSDOF 1
ENDMDL
