MODEL 1
REMARK minimizedAffinity 8.8635149
REMARK minimizedRMSD -1
REMARK  1 active torsions:
REMARK  status: ('A' for Active; 'I' for Inactive)
REMARK    1  A    between atoms: C1_2  and  C2_3 
ROOT
ATOM      1  C2  UNL d   1      -2.937  -0.417   5.805  0.00  0.00    -0.077 A 
ATOM      2  C3  UNL d   1      -2.650   0.950   5.692  0.00  0.00     0.002 A 
ATOM      3  C4  UNL d   1      -3.679   1.893   5.730  0.00  0.00     0.002 A 
ATOM      4  C5  UNL d   1      -5.001   1.479   5.886  0.00  0.00    -0.004 A 
ATOM      5  C6  UNL d   1      -5.296   0.121   5.997  0.00  0.00     0.002 A 
ATOM      6  C7  UNL d   1      -4.269  -0.823   5.958  0.00  0.00     0.002 A 
ENDROOT
BRANCH   1   7
ATOM      7  C1  UNL d   1      -1.824  -1.433   5.814  0.00  0.00     0.055 C 
ATOM      8  C   UNL d   1      -2.120  -2.586   4.866  0.00  0.00     0.019 C 
ENDBRANCH   1   7
TORSDOF 1
ENDMDL
