MODEL 1
REMARK minimizedAffinity 3.41050792
REMARK minimizedRMSD -1
REMARK  1 active torsions:
REMARK  status: ('A' for Active; 'I' for Inactive)
REMARK    1  A    between atoms: C1_2  and  C2_3 
ROOT
ATOM      1  C2  UNL d   1      -3.556   4.127  -4.855  0.00  0.00    -0.077 A 
ATOM      2  C3  UNL d   1      -3.860   5.366  -4.274  0.00  0.00     0.002 A 
ATOM      3  C4  UNL d   1      -5.072   6.000  -4.556  0.00  0.00     0.002 A 
ATOM      4  C5  UNL d   1      -5.990   5.401  -5.415  0.00  0.00    -0.004 A 
ATOM      5  C6  UNL d   1      -5.696   4.170  -6.000  0.00  0.00     0.002 A 
ATOM      6  C7  UNL d   1      -4.485   3.535  -5.720  0.00  0.00     0.002 A 
ENDROOT
BRANCH   1   7
ATOM      7  C1  UNL d   1      -2.271   3.418  -4.514  0.00  0.00     0.055 C 
ATOM      8  C   UNL d   1      -1.169   3.762  -5.506  0.00  0.00     0.019 C 
ENDBRANCH   1   7
TORSDOF 1
ENDMDL
