MODEL 1
REMARK minimizedAffinity 7.8005538
REMARK minimizedRMSD -1
REMARK  1 active torsions:
REMARK  status: ('A' for Active; 'I' for Inactive)
REMARK    1  A    between atoms: C1_2  and  C2_3 
ROOT
ATOM      1  C2  UNL d   1      -4.522   3.827   5.993  0.00  0.00    -0.077 A 
ATOM      2  C3  UNL d   1      -3.337   3.077   5.986  0.00  0.00     0.002 A 
ATOM      3  C4  UNL d   1      -3.384   1.682   5.981  0.00  0.00     0.002 A 
ATOM      4  C5  UNL d   1      -4.613   1.025   5.979  0.00  0.00    -0.004 A 
ATOM      5  C6  UNL d   1      -5.797   1.761   5.987  0.00  0.00     0.002 A 
ATOM      6  C7  UNL d   1      -5.751   3.156   5.993  0.00  0.00     0.002 A 
ENDROOT
BRANCH   1   7
ATOM      7  C1  UNL d   1      -4.473   5.332   5.948  0.00  0.00     0.055 C 
ATOM      8  C   UNL d   1      -5.872   5.930   5.918  0.00  0.00     0.019 C 
ENDBRANCH   1   7
TORSDOF 1
ENDMDL
