MODEL 1
REMARK minimizedAffinity 7.64557743
REMARK minimizedRMSD -1
REMARK  1 active torsions:
REMARK  status: ('A' for Active; 'I' for Inactive)
REMARK    1  A    between atoms: C1_2  and  C2_3 
ROOT
ATOM      1  C2  UNL d   1      -1.060  -4.037   0.589  0.00  0.00    -0.077 A 
ATOM      2  C3  UNL d   1      -1.786  -3.384   1.595  0.00  0.00     0.002 A 
ATOM      3  C4  UNL d   1      -2.182  -2.056   1.431  0.00  0.00     0.002 A 
ATOM      4  C5  UNL d   1      -1.862  -1.371   0.260  0.00  0.00    -0.004 A 
ATOM      5  C6  UNL d   1      -1.139  -2.011  -0.746  0.00  0.00     0.002 A 
ATOM      6  C7  UNL d   1      -0.741  -3.339  -0.582  0.00  0.00     0.002 A 
ENDROOT
BRANCH   1   7
ATOM      7  C1  UNL d   1      -0.674  -5.485   0.744  0.00  0.00     0.055 C 
ATOM      8  C   UNL d   1      -0.995  -5.997   2.141  0.00  0.00     0.019 C 
ENDBRANCH   1   7
TORSDOF 1
ENDMDL
