MODEL 1
REMARK minimizedAffinity 2.68913722
REMARK minimizedRMSD -1
REMARK  1 active torsions:
REMARK  status: ('A' for Active; 'I' for Inactive)
REMARK    1  A    between atoms: C1_2  and  C2_3 
ROOT
ATOM      1  C2  UNL d   1      -3.564   4.233  -4.700  0.00  0.00    -0.077 A 
ATOM      2  C3  UNL d   1      -4.367   3.378  -5.469  0.00  0.00     0.002 A 
ATOM      3  C4  UNL d   1      -5.576   3.832  -6.000  0.00  0.00     0.002 A 
ATOM      4  C5  UNL d   1      -5.990   5.143  -5.772  0.00  0.00    -0.004 A 
ATOM      5  C6  UNL d   1      -5.200   6.000  -5.007  0.00  0.00     0.002 A 
ATOM      6  C7  UNL d   1      -3.992   5.547  -4.475  0.00  0.00     0.002 A 
ENDROOT
BRANCH   1   7
ATOM      7  C1  UNL d   1      -2.237   3.759  -4.168  0.00  0.00     0.055 C 
ATOM      8  C   UNL d   1      -1.521   2.872  -5.175  0.00  0.00     0.019 C 
ENDBRANCH   1   7
TORSDOF 1
ENDMDL
