MODEL 1
REMARK minimizedAffinity 1.0031693
REMARK minimizedRMSD -1
REMARK  1 active torsions:
REMARK  status: ('A' for Active; 'I' for Inactive)
REMARK    1  A    between atoms: C1_2  and  C2_3 
ROOT
ATOM      1  C2  UNL d   1      -0.892  -0.199  -2.377  0.00  0.00    -0.077 A 
ATOM      2  C3  UNL d   1      -1.809   0.325  -3.299  0.00  0.00     0.002 A 
ATOM      3  C4  UNL d   1      -3.160   0.441  -2.963  0.00  0.00     0.002 A 
ATOM      4  C5  UNL d   1      -3.604   0.038  -1.706  0.00  0.00    -0.004 A 
ATOM      5  C6  UNL d   1      -2.700  -0.487  -0.783  0.00  0.00     0.002 A 
ATOM      6  C7  UNL d   1      -1.350  -0.605  -1.117  0.00  0.00     0.002 A 
ENDROOT
BRANCH   1   7
ATOM      7  C1  UNL d   1       0.573  -0.279  -2.719  0.00  0.00     0.055 C 
ATOM      8  C   UNL d   1       1.339   0.906  -2.150  0.00  0.00     0.019 C 
ENDBRANCH   1   7
TORSDOF 1
ENDMDL
