MODEL 1
REMARK minimizedAffinity 4.95217323
REMARK minimizedRMSD -1
REMARK  1 active torsions:
REMARK  status: ('A' for Active; 'I' for Inactive)
REMARK    1  A    between atoms: C1_2  and  C2_3 
ROOT
ATOM      1  C2  UNL d   1       0.167  -0.661  -2.001  0.00  0.00    -0.077 A 
ATOM      2  C3  UNL d   1      -0.337  -1.110  -0.773  0.00  0.00     0.002 A 
ATOM      3  C4  UNL d   1      -1.714  -1.248  -0.583  0.00  0.00     0.002 A 
ATOM      4  C5  UNL d   1      -2.596  -0.942  -1.617  0.00  0.00    -0.004 A 
ATOM      5  C6  UNL d   1      -2.104  -0.493  -2.842  0.00  0.00     0.002 A 
ATOM      6  C7  UNL d   1      -0.728  -0.354  -3.033  0.00  0.00     0.002 A 
ENDROOT
BRANCH   1   7
ATOM      7  C1  UNL d   1       1.654  -0.559  -2.224  0.00  0.00     0.055 C 
ATOM      8  C   UNL d   1       2.132   0.881  -2.120  0.00  0.00     0.019 C 
ENDBRANCH   1   7
TORSDOF 1
ENDMDL
