MODEL 1
REMARK minimizedAffinity 10.7477264
REMARK minimizedRMSD -1
REMARK  1 active torsions:
REMARK  status: ('A' for Active; 'I' for Inactive)
REMARK    1  A    between atoms: C1_2  and  C2_3 
ROOT
ATOM      1  C2  UNL d   1       3.798   0.749  -1.006  0.00  0.00    -0.077 A 
ATOM      2  C3  UNL d   1       4.525   1.358   0.026  0.00  0.00     0.002 A 
ATOM      3  C4  UNL d   1       5.620   2.174  -0.268  0.00  0.00     0.002 A 
ATOM      4  C5  UNL d   1       5.994   2.391  -1.592  0.00  0.00    -0.004 A 
ATOM      5  C6  UNL d   1       5.278   1.788  -2.626  0.00  0.00     0.002 A 
ATOM      6  C7  UNL d   1       4.185   0.971  -2.334  0.00  0.00     0.002 A 
ENDROOT
BRANCH   1   7
ATOM      7  C1  UNL d   1       2.587  -0.091  -0.694  0.00  0.00     0.055 C 
ATOM      8  C   UNL d   1       1.328   0.760  -0.615  0.00  0.00     0.019 C 
ENDBRANCH   1   7
TORSDOF 1
ENDMDL
