MODEL 1
REMARK minimizedAffinity 3.70878553
REMARK minimizedRMSD -1
REMARK  1 active torsions:
REMARK  status: ('A' for Active; 'I' for Inactive)
REMARK    1  A    between atoms: C1_2  and  C2_3 
ROOT
ATOM      1  C2  UNL d   1       4.117   3.434   5.310  0.00  0.00    -0.077 A 
ATOM      2  C3  UNL d   1       5.046   4.227   6.000  0.00  0.00     0.002 A 
ATOM      3  C4  UNL d   1       5.640   5.325   5.374  0.00  0.00     0.002 A 
ATOM      4  C5  UNL d   1       5.309   5.642   4.058  0.00  0.00    -0.004 A 
ATOM      5  C6  UNL d   1       4.389   4.858   3.363  0.00  0.00     0.002 A 
ATOM      6  C7  UNL d   1       3.795   3.760   3.987  0.00  0.00     0.002 A 
ENDROOT
BRANCH   1   7
ATOM      7  C1  UNL d   1       3.439   2.279   6.000  0.00  0.00     0.055 C 
ATOM      8  C   UNL d   1       2.162   1.876   5.277  0.00  0.00     0.019 C 
ENDBRANCH   1   7
TORSDOF 1
ENDMDL
