MODEL 1
REMARK minimizedAffinity 5.3485961
REMARK minimizedRMSD -1
REMARK  1 active torsions:
REMARK  status: ('A' for Active; 'I' for Inactive)
REMARK    1  A    between atoms: C1_2  and  C2_3 
ROOT
ATOM      1  C2  UNL d   1       2.682   3.244   4.828  0.00  0.00    -0.077 A 
ATOM      2  C3  UNL d   1       3.341   3.675   5.987  0.00  0.00     0.002 A 
ATOM      3  C4  UNL d   1       4.593   4.287   5.902  0.00  0.00     0.002 A 
ATOM      4  C5  UNL d   1       5.195   4.476   4.659  0.00  0.00    -0.004 A 
ATOM      5  C6  UNL d   1       4.548   4.048   3.500  0.00  0.00     0.002 A 
ATOM      6  C7  UNL d   1       3.297   3.436   3.584  0.00  0.00     0.002 A 
ENDROOT
BRANCH   1   7
ATOM      7  C1  UNL d   1       1.310   2.628   4.914  0.00  0.00     0.055 C 
ATOM      8  C   UNL d   1       0.353   3.268   3.918  0.00  0.00     0.019 C 
ENDBRANCH   1   7
TORSDOF 1
ENDMDL
