MODEL 1
REMARK minimizedAffinity 3.18303323
REMARK minimizedRMSD -1
REMARK  1 active torsions:
REMARK  status: ('A' for Active; 'I' for Inactive)
REMARK    1  A    between atoms: C1_2  and  C2_3 
ROOT
ATOM      1  C2  UNL d   1       1.003   2.645   0.664  0.00  0.00    -0.077 A 
ATOM      2  C3  UNL d   1       2.208   2.380   1.330  0.00  0.00     0.002 A 
ATOM      3  C4  UNL d   1       3.115   1.455   0.809  0.00  0.00     0.002 A 
ATOM      4  C5  UNL d   1       2.828   0.791  -0.381  0.00  0.00    -0.004 A 
ATOM      5  C6  UNL d   1       1.631   1.046  -1.050  0.00  0.00     0.002 A 
ATOM      6  C7  UNL d   1       0.724   1.969  -0.530  0.00  0.00     0.002 A 
ENDROOT
BRANCH   1   7
ATOM      7  C1  UNL d   1       0.047   3.679   1.199  0.00  0.00     0.055 C 
ATOM      8  C   UNL d   1      -1.250   3.696   0.404  0.00  0.00     0.019 C 
ENDBRANCH   1   7
TORSDOF 1
ENDMDL
