MODEL 1
REMARK minimizedAffinity -3.4915483
REMARK minimizedRMSD -1
REMARK  0 active torsions:
REMARK  status: ('A' for Active; 'I' for Inactive)
ROOT
ATOM      1  C   UNL d   1      -2.845   0.671  -3.147  0.00  0.00     0.172 C 
ATOM      2  N   UNL d   1      -1.822   1.559  -2.647  0.00  0.00    -0.070 N 
ATOM      3  C1  UNL d   1      -1.158   2.506  -3.380  0.00  0.00    -0.004 A 
ATOM      4  C2  UNL d   1      -0.266   3.140  -2.543  0.00  0.00    -0.047 A 
ATOM      5  C3  UNL d   1      -0.397   2.553  -1.262  0.00  0.00    -0.047 A 
ATOM      6  C4  UNL d   1      -1.367   1.577  -1.354  0.00  0.00    -0.004 A 
ENDROOT
TORSDOF 0
ENDMDL
