MODEL 1
REMARK minimizedAffinity -3.80617642
REMARK minimizedRMSD -1
REMARK  0 active torsions:
REMARK  status: ('A' for Active; 'I' for Inactive)
ROOT
ATOM      1  C   UNL d   1       1.394  -2.341   1.082  0.00  0.00     0.172 C 
ATOM      2  N   UNL d   1       0.729  -1.086   0.819  0.00  0.00    -0.070 N 
ATOM      3  C1  UNL d   1       1.064  -0.197  -0.166  0.00  0.00    -0.004 A 
ATOM      4  C2  UNL d   1       0.193   0.869  -0.087  0.00  0.00    -0.047 A 
ATOM      5  C3  UNL d   1      -0.695   0.611   0.984  0.00  0.00    -0.047 A 
ATOM      6  C4  UNL d   1      -0.341  -0.606   1.527  0.00  0.00    -0.004 A 
ENDROOT
TORSDOF 0
ENDMDL
