MODEL 1
REMARK minimizedAffinity -3.4663763
REMARK minimizedRMSD -1
REMARK  0 active torsions:
REMARK  status: ('A' for Active; 'I' for Inactive)
ROOT
ATOM      1  C   UNL d   1      -2.984   1.125  -3.823  0.00  0.00     0.172 C 
ATOM      2  N   UNL d   1      -2.009   2.080  -3.350  0.00  0.00    -0.070 N 
ATOM      3  C1  UNL d   1      -1.322   2.972  -4.129  0.00  0.00    -0.004 A 
ATOM      4  C2  UNL d   1      -0.493   3.701  -3.305  0.00  0.00    -0.047 A 
ATOM      5  C3  UNL d   1      -0.688   3.231  -1.985  0.00  0.00    -0.047 A 
ATOM      6  C4  UNL d   1      -1.632   2.227  -2.042  0.00  0.00    -0.004 A 
ENDROOT
TORSDOF 0
ENDMDL
