MODEL 1
REMARK minimizedAffinity -2.10293245
REMARK minimizedRMSD -1
REMARK  0 active torsions:
REMARK  status: ('A' for Active; 'I' for Inactive)
ROOT
ATOM      1  C   UNL d   1       2.145  -1.526   0.686  0.00  0.00     0.172 C 
ATOM      2  N   UNL d   1       1.167  -0.556   0.252  0.00  0.00    -0.070 N 
ATOM      3  C1  UNL d   1       1.403   0.489  -0.601  0.00  0.00    -0.004 A 
ATOM      4  C2  UNL d   1       0.220   1.176  -0.763  0.00  0.00    -0.047 A 
ATOM      5  C3  UNL d   1      -0.761   0.523   0.020  0.00  0.00    -0.047 A 
ATOM      6  C4  UNL d   1      -0.147  -0.547   0.637  0.00  0.00    -0.004 A 
ENDROOT
TORSDOF 0
ENDMDL
