MODEL 1
REMARK minimizedAffinity -2.98142648
REMARK minimizedRMSD -1
REMARK  0 active torsions:
REMARK  status: ('A' for Active; 'I' for Inactive)
ROOT
ATOM      1  C   UNL d   1      -0.298   1.764  -1.101  0.00  0.00     0.172 C 
ATOM      2  N   UNL d   1       0.650   0.758  -0.684  0.00  0.00    -0.070 N 
ATOM      3  C1  UNL d   1       2.013   0.897  -0.682  0.00  0.00    -0.004 A 
ATOM      4  C2  UNL d   1       2.557  -0.280  -0.215  0.00  0.00    -0.047 A 
ATOM      5  C3  UNL d   1       1.484  -1.157   0.073  0.00  0.00    -0.047 A 
ATOM      6  C4  UNL d   1       0.316  -0.489  -0.226  0.00  0.00    -0.004 A 
ENDROOT
TORSDOF 0
ENDMDL
