MODEL 1
REMARK minimizedAffinity -2.91353846
REMARK minimizedRMSD -1
REMARK  0 active torsions:
REMARK  status: ('A' for Active; 'I' for Inactive)
ROOT
ATOM      1  C   UNL d   1      -0.351   0.532  -0.494  0.00  0.00     0.172 C 
ATOM      2  N   UNL d   1       0.697  -0.328   0.001  0.00  0.00    -0.070 N 
ATOM      3  C1  UNL d   1       2.006  -0.304  -0.401  0.00  0.00    -0.004 A 
ATOM      4  C2  UNL d   1       2.682  -1.275   0.305  0.00  0.00    -0.047 A 
ATOM      5  C3  UNL d   1       1.747  -1.906   1.160  0.00  0.00    -0.047 A 
ATOM      6  C4  UNL d   1       0.526  -1.300   0.951  0.00  0.00    -0.004 A 
ENDROOT
TORSDOF 0
ENDMDL
