MODEL 1
REMARK minimizedAffinity -1.55950141
REMARK minimizedRMSD -1
REMARK  0 active torsions:
REMARK  status: ('A' for Active; 'I' for Inactive)
ROOT
ATOM      1  C   UNL d   1       1.772  -2.276   1.190  0.00  0.00     0.172 C 
ATOM      2  N   UNL d   1       1.619  -1.096   0.372  0.00  0.00    -0.070 N 
ATOM      3  C1  UNL d   1       0.434  -0.605  -0.108  0.00  0.00    -0.004 A 
ATOM      4  C2  UNL d   1       0.713   0.529  -0.840  0.00  0.00    -0.047 A 
ATOM      5  C3  UNL d   1       2.113   0.726  -0.799  0.00  0.00    -0.047 A 
ATOM      6  C4  UNL d   1       2.650  -0.294  -0.041  0.00  0.00    -0.004 A 
ENDROOT
TORSDOF 0
ENDMDL
