MODEL 1
REMARK minimizedAffinity -2.74162078
REMARK minimizedRMSD -1
REMARK  0 active torsions:
REMARK  status: ('A' for Active; 'I' for Inactive)
ROOT
ATOM      1  C   UNL d   1       1.868  -2.460   1.085  0.00  0.00     0.172 C 
ATOM      2  N   UNL d   1       1.027  -1.450   0.487  0.00  0.00    -0.070 N 
ATOM      3  C1  UNL d   1       1.460  -0.406  -0.286  0.00  0.00    -0.004 A 
ATOM      4  C2  UNL d   1       0.356   0.328  -0.662  0.00  0.00    -0.047 A 
ATOM      5  C3  UNL d   1      -0.780  -0.297  -0.094  0.00  0.00    -0.047 A 
ATOM      6  C4  UNL d   1      -0.336  -1.395   0.611  0.00  0.00    -0.004 A 
ENDROOT
TORSDOF 0
ENDMDL
