MODEL 1
REMARK minimizedAffinity -3.44675612
REMARK minimizedRMSD -1
REMARK  0 active torsions:
REMARK  status: ('A' for Active; 'I' for Inactive)
ROOT
ATOM      1  C   UNL d   1       1.238  -2.561   0.568  0.00  0.00     0.172 C 
ATOM      2  N   UNL d   1       0.657  -1.253   0.376  0.00  0.00    -0.070 N 
ATOM      3  C1  UNL d   1       1.267  -0.191  -0.237  0.00  0.00    -0.004 A 
ATOM      4  C2  UNL d   1       0.386   0.869  -0.219  0.00  0.00    -0.047 A 
ATOM      5  C3  UNL d   1      -0.793   0.429   0.429  0.00  0.00    -0.047 A 
ATOM      6  C4  UNL d   1      -0.598  -0.888   0.787  0.00  0.00    -0.004 A 
ENDROOT
TORSDOF 0
ENDMDL
