MODEL 1
REMARK minimizedAffinity -1.78068578
REMARK minimizedRMSD -1
REMARK  0 active torsions:
REMARK  status: ('A' for Active; 'I' for Inactive)
ROOT
ATOM      1  C   UNL d   1      -2.497   1.859  -3.745  0.00  0.00     0.172 C 
ATOM      2  N   UNL d   1      -1.366   2.755  -3.806  0.00  0.00    -0.070 N 
ATOM      3  C1  UNL d   1      -0.317   2.776  -2.927  0.00  0.00    -0.004 A 
ATOM      4  C2  UNL d   1       0.550   3.769  -3.328  0.00  0.00    -0.047 A 
ATOM      5  C3  UNL d   1       0.002   4.366  -4.489  0.00  0.00    -0.047 A 
ATOM      6  C4  UNL d   1      -1.185   3.719  -4.762  0.00  0.00    -0.004 A 
ENDROOT
TORSDOF 0
ENDMDL
