MODEL 1
REMARK minimizedAffinity -0.528488755
REMARK minimizedRMSD -1
REMARK  0 active torsions:
REMARK  status: ('A' for Active; 'I' for Inactive)
ROOT
ATOM      1  C   UNL d   1       2.775  -0.899   1.129  0.00  0.00     0.172 C 
ATOM      2  N   UNL d   1       1.426  -0.746   0.638  0.00  0.00    -0.070 N 
ATOM      3  C1  UNL d   1       0.513  -1.755   0.484  0.00  0.00    -0.004 A 
ATOM      4  C2  UNL d   1      -0.650  -1.202  -0.006  0.00  0.00    -0.047 A 
ATOM      5  C3  UNL d   1      -0.428   0.188  -0.153  0.00  0.00    -0.047 A 
ATOM      6  C4  UNL d   1       0.865   0.443   0.253  0.00  0.00    -0.004 A 
ENDROOT
TORSDOF 0
ENDMDL
