MODEL 1
REMARK minimizedAffinity -3.65573978
REMARK minimizedRMSD -1
REMARK  0 active torsions:
REMARK  status: ('A' for Active; 'I' for Inactive)
ROOT
ATOM      1  C   UNL d   1      -0.194   0.001  -0.139  0.00  0.00     0.172 C 
ATOM      2  N   UNL d   1       0.812  -0.952   0.267  0.00  0.00    -0.070 N 
ATOM      3  C1  UNL d   1       2.081  -0.646   0.679  0.00  0.00    -0.004 A 
ATOM      4  C2  UNL d   1       2.724  -1.828   0.978  0.00  0.00    -0.047 A 
ATOM      5  C3  UNL d   1       1.810  -2.881   0.736  0.00  0.00    -0.047 A 
ATOM      6  C4  UNL d   1       0.634  -2.310   0.297  0.00  0.00    -0.004 A 
ENDROOT
TORSDOF 0
ENDMDL
