MODEL 1
REMARK minimizedAffinity -2.90218949
REMARK minimizedRMSD -1
REMARK  1 active torsions:
REMARK  status: ('A' for Active; 'I' for Inactive)
REMARK    1  A    between atoms: C1_2  and  C2_3 
ROOT
ATOM      1  C2  UNL d   1      -1.407  -0.746  -0.425  0.00  0.00    -0.077 A 
ATOM      2  C3  UNL d   1      -0.610  -0.057  -1.350  0.00  0.00     0.002 A 
ATOM      3  C4  UNL d   1       0.610   0.496  -0.956  0.00  0.00     0.002 A 
ATOM      4  C5  UNL d   1       1.046   0.361   0.360  0.00  0.00    -0.004 A 
ATOM      5  C6  UNL d   1       0.260  -0.322   1.287  0.00  0.00     0.002 A 
ATOM      6  C7  UNL d   1      -0.961  -0.873   0.897  0.00  0.00     0.002 A 
ENDROOT
BRANCH   1   7
ATOM      7  C1  UNL d   1      -2.700  -1.385  -0.859  0.00  0.00     0.055 C 
ATOM      8  C   UNL d   1      -3.763  -1.276   0.225  0.00  0.00     0.019 C 
ENDBRANCH   1   7
TORSDOF 1
ENDMDL
