MODEL 1
REMARK minimizedAffinity -2.2132287
REMARK minimizedRMSD -1
REMARK  1 active torsions:
REMARK  status: ('A' for Active; 'I' for Inactive)
REMARK    1  A    between atoms: C1_2  and  C2_3 
ROOT
ATOM      1  C2  UNL d   1      -0.672  -0.185  -0.209  0.00  0.00    -0.077 A 
ATOM      2  C3  UNL d   1      -1.860  -0.822   0.177  0.00  0.00     0.002 A 
ATOM      3  C4  UNL d   1      -2.916  -0.956  -0.727  0.00  0.00     0.002 A 
ATOM      4  C5  UNL d   1      -2.792  -0.460  -2.024  0.00  0.00    -0.004 A 
ATOM      5  C6  UNL d   1      -1.615   0.177  -2.416  0.00  0.00     0.002 A 
ATOM      6  C7  UNL d   1      -0.560   0.313  -1.513  0.00  0.00     0.002 A 
ENDROOT
BRANCH   1   7
ATOM      7  C1  UNL d   1       0.485  -0.083   0.750  0.00  0.00     0.055 C 
ATOM      8  C   UNL d   1       1.751   0.378   0.042  0.00  0.00     0.019 C 
ENDBRANCH   1   7
TORSDOF 1
ENDMDL
