MODEL 1
REMARK minimizedAffinity -5.41626692
REMARK minimizedRMSD -1
REMARK  1 active torsions:
REMARK  status: ('A' for Active; 'I' for Inactive)
REMARK    1  A    between atoms: C1_2  and  C2_3 
ROOT
ATOM      1  C2  UNL d   1      -2.047  -1.104  -1.636  0.00  0.00    -0.077 A 
ATOM      2  C3  UNL d   1      -1.048  -0.295  -1.076  0.00  0.00     0.002 A 
ATOM      3  C4  UNL d   1      -0.902  -0.211   0.310  0.00  0.00     0.002 A 
ATOM      4  C5  UNL d   1      -1.748  -0.936   1.147  0.00  0.00    -0.004 A 
ATOM      5  C6  UNL d   1      -2.746  -1.741   0.599  0.00  0.00     0.002 A 
ATOM      6  C7  UNL d   1      -2.894  -1.825  -0.786  0.00  0.00     0.002 A 
ENDROOT
BRANCH   1   7
ATOM      7  C1  UNL d   1      -2.175  -1.234  -3.131  0.00  0.00     0.055 C 
ATOM      8  C   UNL d   1      -2.353  -2.687  -3.547  0.00  0.00     0.019 C 
ENDBRANCH   1   7
TORSDOF 1
ENDMDL
