MODEL 1
REMARK minimizedAffinity -4.06454802
REMARK minimizedRMSD -1
REMARK  1 active torsions:
REMARK  status: ('A' for Active; 'I' for Inactive)
REMARK    1  A    between atoms: C1_2  and  C2_3 
ROOT
ATOM      1  C2  UNL d   1      -1.403  -0.507   0.418  0.00  0.00    -0.077 A 
ATOM      2  C3  UNL d   1      -2.167  -0.913  -0.685  0.00  0.00     0.002 A 
ATOM      3  C4  UNL d   1      -1.909  -0.392  -1.954  0.00  0.00     0.002 A 
ATOM      4  C5  UNL d   1      -0.884   0.534  -2.133  0.00  0.00    -0.004 A 
ATOM      5  C6  UNL d   1      -0.119   0.946  -1.043  0.00  0.00     0.002 A 
ATOM      6  C7  UNL d   1      -0.377   0.427   0.227  0.00  0.00     0.002 A 
ENDROOT
BRANCH   1   7
ATOM      7  C1  UNL d   1      -1.648  -1.104   1.779  0.00  0.00     0.055 C 
ATOM      8  C   UNL d   1      -0.502  -2.014   2.199  0.00  0.00     0.019 C 
ENDBRANCH   1   7
TORSDOF 1
ENDMDL
