MODEL 1
REMARK minimizedAffinity -4.35532999
REMARK minimizedRMSD -1
REMARK  1 active torsions:
REMARK  status: ('A' for Active; 'I' for Inactive)
REMARK    1  A    between atoms: C1_2  and  C2_3 
ROOT
ATOM      1  C2  UNL d   1      -1.476  -0.601  -0.006  0.00  0.00    -0.077 A 
ATOM      2  C3  UNL d   1      -0.540  -1.324   0.747  0.00  0.00     0.002 A 
ATOM      3  C4  UNL d   1      -0.942  -2.426   1.504  0.00  0.00     0.002 A 
ATOM      4  C5  UNL d   1      -2.280  -2.817   1.512  0.00  0.00    -0.004 A 
ATOM      5  C6  UNL d   1      -3.218  -2.103   0.768  0.00  0.00     0.002 A 
ATOM      6  C7  UNL d   1      -2.818  -1.000   0.012  0.00  0.00     0.002 A 
ENDROOT
BRANCH   1   7
ATOM      7  C1  UNL d   1      -1.035   0.558  -0.862  0.00  0.00     0.055 C 
ATOM      8  C   UNL d   1      -1.301   0.290  -2.336  0.00  0.00     0.019 C 
ENDBRANCH   1   7
TORSDOF 1
ENDMDL
