MODEL 1
REMARK minimizedAffinity -2.82955647
REMARK minimizedRMSD -1
REMARK  1 active torsions:
REMARK  status: ('A' for Active; 'I' for Inactive)
REMARK    1  A    between atoms: C1_2  and  C2_3 
ROOT
ATOM      1  C2  UNL d   1      -1.196  -0.670  -0.925  0.00  0.00    -0.077 A 
ATOM      2  C3  UNL d   1      -1.818  -1.165  -2.080  0.00  0.00     0.002 A 
ATOM      3  C4  UNL d   1      -2.599  -2.321  -2.021  0.00  0.00     0.002 A 
ATOM      4  C5  UNL d   1      -2.768  -2.988  -0.809  0.00  0.00    -0.004 A 
ATOM      5  C6  UNL d   1      -2.152  -2.505   0.344  0.00  0.00     0.002 A 
ATOM      6  C7  UNL d   1      -1.371  -1.350   0.287  0.00  0.00     0.002 A 
ENDROOT
BRANCH   1   7
ATOM      7  C1  UNL d   1      -0.394   0.605  -0.976  0.00  0.00     0.055 C 
ATOM      8  C   UNL d   1      -0.409   1.323   0.365  0.00  0.00     0.019 C 
ENDBRANCH   1   7
TORSDOF 1
ENDMDL
