MODEL 1
REMARK minimizedAffinity -5.36870527
REMARK minimizedRMSD -1
REMARK  1 active torsions:
REMARK  status: ('A' for Active; 'I' for Inactive)
REMARK    1  A    between atoms: C1_2  and  C2_3 
ROOT
ATOM      1  C2  UNL d   1      -0.026   1.278   0.073  0.00  0.00    -0.077 A 
ATOM      2  C3  UNL d   1       0.892   0.413   0.685  0.00  0.00     0.002 A 
ATOM      3  C4  UNL d   1       2.119   0.896   1.144  0.00  0.00     0.002 A 
ATOM      4  C5  UNL d   1       2.437   2.245   1.000  0.00  0.00    -0.004 A 
ATOM      5  C6  UNL d   1       1.531   3.112   0.391  0.00  0.00     0.002 A 
ATOM      6  C7  UNL d   1       0.305   2.631  -0.070  0.00  0.00     0.002 A 
ENDROOT
BRANCH   1   7
ATOM      7  C1  UNL d   1      -1.370   0.769  -0.379  0.00  0.00     0.055 C 
ATOM      8  C   UNL d   1      -1.251  -0.050  -1.656  0.00  0.00     0.019 C 
ENDBRANCH   1   7
TORSDOF 1
ENDMDL
