MODEL 1
REMARK minimizedAffinity -5.36129332
REMARK minimizedRMSD -1
REMARK  1 active torsions:
REMARK  status: ('A' for Active; 'I' for Inactive)
REMARK    1  A    between atoms: C1_2  and  C2_3 
ROOT
ATOM      1  C2  UNL d   1      -2.132  -1.194  -0.329  0.00  0.00    -0.077 A 
ATOM      2  C3  UNL d   1      -2.631  -0.670  -1.529  0.00  0.00     0.002 A 
ATOM      3  C4  UNL d   1      -1.920   0.313  -2.221  0.00  0.00     0.002 A 
ATOM      4  C5  UNL d   1      -0.705   0.776  -1.722  0.00  0.00    -0.004 A 
ATOM      5  C6  UNL d   1      -0.201   0.263  -0.528  0.00  0.00     0.002 A 
ATOM      6  C7  UNL d   1      -0.911  -0.719   0.165  0.00  0.00     0.002 A 
ENDROOT
BRANCH   1   7
ATOM      7  C1  UNL d   1      -2.873  -2.290   0.393  0.00  0.00     0.055 C 
ATOM      8  C   UNL d   1      -1.912  -3.244   1.086  0.00  0.00     0.019 C 
ENDBRANCH   1   7
TORSDOF 1
ENDMDL
