MODEL 1
REMARK minimizedAffinity -4.97760916
REMARK minimizedRMSD -1
REMARK  1 active torsions:
REMARK  status: ('A' for Active; 'I' for Inactive)
REMARK    1  A    between atoms: C1_2  and  C2_3 
ROOT
ATOM      1  C2  UNL d   1      -0.761  -0.062  -0.784  0.00  0.00    -0.077 A 
ATOM      2  C3  UNL d   1      -1.034  -0.840   0.350  0.00  0.00     0.002 A 
ATOM      3  C4  UNL d   1      -2.215  -1.581   0.431  0.00  0.00     0.002 A 
ATOM      4  C5  UNL d   1      -3.130  -1.553  -0.620  0.00  0.00    -0.004 A 
ATOM      5  C6  UNL d   1      -2.868  -0.781  -1.751  0.00  0.00     0.002 A 
ATOM      6  C7  UNL d   1      -1.689  -0.039  -1.833  0.00  0.00     0.002 A 
ENDROOT
BRANCH   1   7
ATOM      7  C1  UNL d   1       0.535   0.698  -0.894  0.00  0.00     0.055 C 
ATOM      8  C   UNL d   1       1.432   0.439   0.308  0.00  0.00     0.019 C 
ENDBRANCH   1   7
TORSDOF 1
ENDMDL
