MODEL 1
REMARK minimizedAffinity -4.00397444
REMARK minimizedRMSD -1
REMARK  1 active torsions:
REMARK  status: ('A' for Active; 'I' for Inactive)
REMARK    1  A    between atoms: C1_2  and  C2_3 
ROOT
ATOM      1  C2  UNL d   1      -1.710  -0.374  -1.201  0.00  0.00    -0.077 A 
ATOM      2  C3  UNL d   1      -0.430  -0.083  -0.708  0.00  0.00     0.002 A 
ATOM      3  C4  UNL d   1      -0.231   0.134   0.657  0.00  0.00     0.002 A 
ATOM      4  C5  UNL d   1      -1.306   0.059   1.540  0.00  0.00    -0.004 A 
ATOM      5  C6  UNL d   1      -2.583  -0.228   1.060  0.00  0.00     0.002 A 
ATOM      6  C7  UNL d   1      -2.784  -0.444  -0.304  0.00  0.00     0.002 A 
ENDROOT
BRANCH   1   7
ATOM      7  C1  UNL d   1      -1.918  -0.658  -2.665  0.00  0.00     0.055 C 
ATOM      8  C   UNL d   1      -2.095  -2.148  -2.921  0.00  0.00     0.019 C 
ENDBRANCH   1   7
TORSDOF 1
ENDMDL
