MODEL 1
REMARK minimizedAffinity -5.08093882
REMARK minimizedRMSD -1
REMARK  1 active torsions:
REMARK  status: ('A' for Active; 'I' for Inactive)
REMARK    1  A    between atoms: C1_2  and  C2_3 
ROOT
ATOM      1  C2  UNL d   1       2.469   1.193   0.179  0.00  0.00    -0.077 A 
ATOM      2  C3  UNL d   1       2.905   1.765  -1.024  0.00  0.00     0.002 A 
ATOM      3  C4  UNL d   1       3.696   2.916  -1.012  0.00  0.00     0.002 A 
ATOM      4  C5  UNL d   1       4.060   3.501   0.199  0.00  0.00    -0.004 A 
ATOM      5  C6  UNL d   1       3.629   2.940   1.400  0.00  0.00     0.002 A 
ATOM      6  C7  UNL d   1       2.838   1.791   1.390  0.00  0.00     0.002 A 
ENDROOT
BRANCH   1   7
ATOM      7  C1  UNL d   1       1.658  -0.077   0.170  0.00  0.00     0.055 C 
ATOM      8  C   UNL d   1       0.184   0.210  -0.079  0.00  0.00     0.019 C 
ENDBRANCH   1   7
TORSDOF 1
ENDMDL
