MODEL 1
REMARK minimizedAffinity -5.11454105
REMARK minimizedRMSD -1
REMARK  1 active torsions:
REMARK  status: ('A' for Active; 'I' for Inactive)
REMARK    1  A    between atoms: C1_2  and  C2_3 
ROOT
ATOM      1  C2  UNL d   1       0.001  -0.139  -0.366  0.00  0.00    -0.077 A 
ATOM      2  C3  UNL d   1      -1.141  -0.365   0.414  0.00  0.00     0.002 A 
ATOM      3  C4  UNL d   1      -2.402  -0.431  -0.182  0.00  0.00     0.002 A 
ATOM      4  C5  UNL d   1      -2.532  -0.276  -1.560  0.00  0.00    -0.004 A 
ATOM      5  C6  UNL d   1      -1.401  -0.049  -2.345  0.00  0.00     0.002 A 
ATOM      6  C7  UNL d   1      -0.141   0.019  -1.750  0.00  0.00     0.002 A 
ENDROOT
BRANCH   1   7
ATOM      7  C1  UNL d   1       1.367  -0.116   0.269  0.00  0.00     0.055 C 
ATOM      8  C   UNL d   1       2.028   1.245   0.112  0.00  0.00     0.019 C 
ENDBRANCH   1   7
TORSDOF 1
ENDMDL
