MODEL 1
REMARK minimizedAffinity -2.17553401
REMARK minimizedRMSD -1
REMARK  1 active torsions:
REMARK  status: ('A' for Active; 'I' for Inactive)
REMARK    1  A    between atoms: C1_2  and  C2_3 
ROOT
ATOM      1  C2  UNL d   1      -1.040  -0.818  -2.054  0.00  0.00    -0.077 A 
ATOM      2  C3  UNL d   1      -1.916  -1.224  -1.038  0.00  0.00     0.002 A 
ATOM      3  C4  UNL d   1      -2.813  -2.272  -1.255  0.00  0.00     0.002 A 
ATOM      4  C5  UNL d   1      -2.839  -2.925  -2.485  0.00  0.00    -0.004 A 
ATOM      5  C6  UNL d   1      -1.973  -2.528  -3.503  0.00  0.00     0.002 A 
ATOM      6  C7  UNL d   1      -1.077  -1.480  -3.289  0.00  0.00     0.002 A 
ENDROOT
BRANCH   1   7
ATOM      7  C1  UNL d   1      -0.038   0.279  -1.806  0.00  0.00     0.055 C 
ATOM      8  C   UNL d   1       0.538   0.195  -0.400  0.00  0.00     0.019 C 
ENDBRANCH   1   7
TORSDOF 1
ENDMDL
