MODEL 1
REMARK minimizedAffinity -6.0326128
REMARK minimizedRMSD -1
REMARK  1 active torsions:
REMARK  status: ('A' for Active; 'I' for Inactive)
REMARK    1  A    between atoms: C1_2  and  C2_3 
ROOT
ATOM      1  C2  UNL d   1       0.069  -0.254   0.203  0.00  0.00    -0.077 A 
ATOM      2  C3  UNL d   1      -1.020  -0.188   1.083  0.00  0.00     0.002 A 
ATOM      3  C4  UNL d   1      -2.327  -0.194   0.592  0.00  0.00     0.002 A 
ATOM      4  C5  UNL d   1      -2.556  -0.269  -0.780  0.00  0.00    -0.004 A 
ATOM      5  C6  UNL d   1      -1.479  -0.332  -1.664  0.00  0.00     0.002 A 
ATOM      6  C7  UNL d   1      -0.173  -0.326  -1.175  0.00  0.00     0.002 A 
ENDROOT
BRANCH   1   7
ATOM      7  C1  UNL d   1       1.478  -0.297   0.734  0.00  0.00     0.055 C 
ATOM      8  C   UNL d   1       2.209   1.013   0.475  0.00  0.00     0.019 C 
ENDBRANCH   1   7
TORSDOF 1
ENDMDL
