MODEL 1
REMARK minimizedAffinity 2.62641001
REMARK minimizedRMSD -1
REMARK  2 active torsions:
REMARK  status: ('A' for Active; 'I' for Inactive)
REMARK    1  A    between atoms: C2'_3  and  C1'_4 
REMARK    2  A    between atoms: C1'_4  and  C1_5 
ROOT
ATOM      1  C1  I4B d   1       0.526   0.170  -1.220  0.00  0.00    -0.075 A 
ATOM      2  C2  I4B d   1      -0.434  -0.785  -0.996  0.00  0.00     0.003 A 
ATOM      3  C3  I4B d   1      -1.260  -0.710   0.152  0.00  0.00     0.002 A 
ATOM      4  C4  I4B d   1      -1.059   0.302   1.069  0.00  0.00    -0.004 A 
ATOM      5  C5  I4B d   1      -0.101   1.282   0.828  0.00  0.00     0.002 A 
ATOM      6  C6  I4B d   1       0.688   1.224  -0.329  0.00  0.00     0.003 A 
ENDROOT
BRANCH   1   7
ATOM      7  C1' I4B d   1       1.402   0.042  -2.425  0.00  0.00     0.060 C 
BRANCH   7   8
ATOM      8  C2' I4B d   1       0.793   0.873  -3.536  0.00  0.00    -0.013 C 
ATOM      9  C4' I4B d   1       1.754   1.927  -4.019  0.00  0.00     0.013 C 
ATOM     10  C3' I4B d   1       0.404  -0.055  -4.648  0.00  0.00     0.013 C 
ENDBRANCH   7   8
ENDBRANCH   1   7
TORSDOF 2
ENDMDL
