MODEL 1
REMARK minimizedAffinity 8.35568619
REMARK minimizedRMSD -1
REMARK  2 active torsions:
REMARK  status: ('A' for Active; 'I' for Inactive)
REMARK    1  A    between atoms: C2'_3  and  C1'_4 
REMARK    2  A    between atoms: C1'_4  and  C1_5 
ROOT
ATOM      1  C1  I4B d   1      -0.635   0.419  -1.013  0.00  0.00    -0.075 A 
ATOM      2  C2  I4B d   1       0.603   0.213  -0.457  0.00  0.00     0.003 A 
ATOM      3  C3  I4B d   1       0.718  -0.327   0.847  0.00  0.00     0.002 A 
ATOM      4  C4  I4B d   1      -0.424  -0.598   1.573  0.00  0.00    -0.004 A 
ATOM      5  C5  I4B d   1      -1.678  -0.410   0.999  0.00  0.00     0.002 A 
ATOM      6  C6  I4B d   1      -1.784   0.090  -0.307  0.00  0.00     0.003 A 
ENDROOT
BRANCH   1   7
ATOM      7  C1' I4B d   1      -0.720   1.021  -2.380  0.00  0.00     0.060 C 
BRANCH   7   8
ATOM      8  C2' I4B d   1       0.078   0.147  -3.326  0.00  0.00    -0.013 C 
ATOM      9  C4' I4B d   1      -0.809  -0.475  -4.372  0.00  0.00     0.013 C 
ATOM     10  C3' I4B d   1       1.143   0.995  -3.954  0.00  0.00     0.013 C 
ENDBRANCH   7   8
ENDBRANCH   1   7
TORSDOF 2
ENDMDL
