MODEL 1
REMARK minimizedAffinity -2.87292218
REMARK minimizedRMSD -1
REMARK  2 active torsions:
REMARK  status: ('A' for Active; 'I' for Inactive)
REMARK    1  A    between atoms: C2'_3  and  C1'_4 
REMARK    2  A    between atoms: C1'_4  and  C1_5 
ROOT
ATOM      1  C1  I4B d   1       0.285   1.085   1.716  0.00  0.00    -0.075 A 
ATOM      2  C2  I4B d   1      -0.475   0.713   0.634  0.00  0.00     0.003 A 
ATOM      3  C3  I4B d   1      -0.063  -0.362  -0.190  0.00  0.00     0.002 A 
ATOM      4  C4  I4B d   1       1.132  -1.000   0.072  0.00  0.00    -0.004 A 
ATOM      5  C5  I4B d   1       1.890  -0.637   1.182  0.00  0.00     0.002 A 
ATOM      6  C6  I4B d   1       1.458   0.404   2.016  0.00  0.00     0.003 A 
ENDROOT
BRANCH   1   7
ATOM      7  C1' I4B d   1      -0.163   2.246   2.546  0.00  0.00     0.060 C 
BRANCH   7   8
ATOM      8  C2' I4B d   1      -1.276   1.768   3.455  0.00  0.00    -0.013 C 
ATOM      9  C4' I4B d   1      -1.687   0.359   3.119  0.00  0.00     0.013 C 
ATOM     10  C3' I4B d   1      -0.792   1.868   4.871  0.00  0.00     0.013 C 
ENDBRANCH   7   8
ENDBRANCH   1   7
TORSDOF 2
ENDMDL
