MODEL 1
REMARK minimizedAffinity -3.43665195
REMARK minimizedRMSD -1
REMARK  2 active torsions:
REMARK  status: ('A' for Active; 'I' for Inactive)
REMARK    1  A    between atoms: C2'_3  and  C1'_4 
REMARK    2  A    between atoms: C1'_4  and  C1_5 
ROOT
ATOM      1  C1  I4B d   1       0.603   0.185  -1.159  0.00  0.00    -0.075 A 
ATOM      2  C2  I4B d   1       0.913   1.348  -1.818  0.00  0.00     0.003 A 
ATOM      3  C3  I4B d   1       1.366   1.308  -3.159  0.00  0.00     0.002 A 
ATOM      4  C4  I4B d   1       1.543   0.089  -3.781  0.00  0.00    -0.004 A 
ATOM      5  C5  I4B d   1       1.206  -1.088  -3.118  0.00  0.00     0.002 A 
ATOM      6  C6  I4B d   1       0.722  -1.040  -1.803  0.00  0.00     0.003 A 
ENDROOT
BRANCH   1   7
ATOM      7  C1' I4B d   1       0.158   0.262   0.268  0.00  0.00     0.060 C 
BRANCH   7   8
ATOM      8  C2' I4B d   1      -1.304   0.659   0.280  0.00  0.00    -0.013 C 
ATOM      9  C4' I4B d   1      -2.189  -0.509  -0.069  0.00  0.00     0.013 C 
ATOM     10  C3' I4B d   1      -1.627   1.195   1.643  0.00  0.00     0.013 C 
ENDBRANCH   7   8
ENDBRANCH   1   7
TORSDOF 2
ENDMDL
