MODEL 1
REMARK minimizedAffinity -4.37071037
REMARK minimizedRMSD -1
REMARK  2 active torsions:
REMARK  status: ('A' for Active; 'I' for Inactive)
REMARK    1  A    between atoms: C2'_3  and  C1'_4 
REMARK    2  A    between atoms: C1'_4  and  C1_5 
ROOT
ATOM      1  C1  I4B d   1       0.120  -0.199  -0.107  0.00  0.00    -0.075 A 
ATOM      2  C2  I4B d   1       0.468   0.802   0.765  0.00  0.00     0.003 A 
ATOM      3  C3  I4B d   1      -0.462   1.267   1.726  0.00  0.00     0.002 A 
ATOM      4  C4  I4B d   1      -1.737   0.740   1.747  0.00  0.00    -0.004 A 
ATOM      5  C5  I4B d   1      -2.081  -0.291   0.878  0.00  0.00     0.002 A 
ATOM      6  C6  I4B d   1      -1.143  -0.773  -0.046  0.00  0.00     0.003 A 
ENDROOT
BRANCH   1   7
ATOM      7  C1' I4B d   1       1.116  -0.643  -1.131  0.00  0.00     0.060 C 
BRANCH   7   8
ATOM      8  C2' I4B d   1       0.675  -0.102  -2.476  0.00  0.00    -0.013 C 
ATOM      9  C4' I4B d   1       1.731   0.786  -3.079  0.00  0.00     0.013 C 
ATOM     10  C3' I4B d   1       0.374  -1.269  -3.368  0.00  0.00     0.013 C 
ENDBRANCH   7   8
ENDBRANCH   1   7
TORSDOF 2
ENDMDL
