MODEL 1
REMARK minimizedAffinity -4.17537832
REMARK minimizedRMSD -1
REMARK  2 active torsions:
REMARK  status: ('A' for Active; 'I' for Inactive)
REMARK    1  A    between atoms: C2'_3  and  C1'_4 
REMARK    2  A    between atoms: C1'_4  and  C1_5 
ROOT
ATOM      1  C1  I4B d   1       0.242  -0.076   0.388  0.00  0.00    -0.075 A 
ATOM      2  C2  I4B d   1       1.169  -0.020   1.399  0.00  0.00     0.003 A 
ATOM      3  C3  I4B d   1       0.781   0.381   2.700  0.00  0.00     0.002 A 
ATOM      4  C4  I4B d   1      -0.525   0.763   2.933  0.00  0.00    -0.004 A 
ATOM      5  C5  I4B d   1      -1.468   0.684   1.912  0.00  0.00     0.002 A 
ATOM      6  C6  I4B d   1      -1.085   0.250   0.635  0.00  0.00     0.003 A 
ENDROOT
BRANCH   1   7
ATOM      7  C1' I4B d   1       0.693  -0.472  -0.982  0.00  0.00     0.060 C 
BRANCH   7   8
ATOM      8  C2' I4B d   1       0.851   0.791  -1.805  0.00  0.00    -0.013 C 
ATOM      9  C4' I4B d   1       1.929   1.678  -1.240  0.00  0.00     0.013 C 
ATOM     10  C3' I4B d   1       1.164   0.389  -3.215  0.00  0.00     0.013 C 
ENDBRANCH   7   8
ENDBRANCH   1   7
TORSDOF 2
ENDMDL
