MODEL 1
REMARK minimizedAffinity -3.63781428
REMARK minimizedRMSD -1
REMARK  3 active torsions:
REMARK  status: ('A' for Active; 'I' for Inactive)
REMARK    1  A    between atoms: C3'_2  and  C2'_3 
REMARK    2  A    between atoms: C2'_3  and  C1'_4 
REMARK    3  A    between atoms: C1'_4  and  C1_5 
ROOT
ATOM      1  C1  N4B d   1       0.299  -0.373  -0.871  0.00  0.00    -0.075 A 
ATOM      2  C2  N4B d   1       0.080   0.517  -1.945  0.00  0.00     0.002 A 
ATOM      3  C3  N4B d   1      -0.642   1.668  -1.746  0.00  0.00     0.002 A 
ATOM      4  C4  N4B d   1      -1.168   1.940  -0.492  0.00  0.00    -0.004 A 
ATOM      5  C5  N4B d   1      -0.930   1.088   0.546  0.00  0.00     0.002 A 
ATOM      6  C6  N4B d   1      -0.203  -0.070   0.362  0.00  0.00     0.002 A 
ENDROOT
BRANCH   1   7
ATOM      7  C1' N4B d   1       1.009  -1.686  -1.059  0.00  0.00     0.057 C 
BRANCH   7   8
ATOM      8  C2' N4B d   1       0.189  -2.796  -0.410  0.00  0.00     0.009 C 
BRANCH   8   9
ATOM      9  C3' N4B d   1      -0.004  -3.980  -1.342  0.00  0.00     0.004 C 
ATOM     10  C4' N4B d   1      -1.172  -3.807  -2.266  0.00  0.00     0.003 C 
ENDBRANCH   8   9
ENDBRANCH   7   8
ENDBRANCH   1   7
TORSDOF 3
ENDMDL
