MODEL 1
REMARK minimizedAffinity -6.1008482
REMARK minimizedRMSD -1
REMARK  3 active torsions:
REMARK  status: ('A' for Active; 'I' for Inactive)
REMARK    1  A    between atoms: C3'_2  and  C2'_3 
REMARK    2  A    between atoms: C2'_3  and  C1'_4 
REMARK    3  A    between atoms: C1'_4  and  C1_5 
ROOT
ATOM      1  C1  N4B d   1       0.047  -0.193   0.204  0.00  0.00    -0.075 A 
ATOM      2  C2  N4B d   1       0.724   0.198   1.381  0.00  0.00     0.002 A 
ATOM      3  C3  N4B d   1       0.225   1.217   2.153  0.00  0.00     0.002 A 
ATOM      4  C4  N4B d   1      -0.933   1.871   1.762  0.00  0.00    -0.004 A 
ATOM      5  C5  N4B d   1      -1.595   1.471   0.638  0.00  0.00     0.002 A 
ATOM      6  C6  N4B d   1      -1.107   0.445  -0.147  0.00  0.00     0.002 A 
ENDROOT
BRANCH   1   7
ATOM      7  C1' N4B d   1       0.600  -1.244  -0.718  0.00  0.00     0.057 C 
BRANCH   7   8
ATOM      8  C2' N4B d   1      -0.556  -2.008  -1.358  0.00  0.00     0.009 C 
BRANCH   8   9
ATOM      9  C3' N4B d   1      -0.247  -3.488  -1.505  0.00  0.00     0.004 C 
ATOM     10  C4' N4B d   1       1.190  -3.812  -1.224  0.00  0.00     0.003 C 
ENDBRANCH   8   9
ENDBRANCH   7   8
ENDBRANCH   1   7
TORSDOF 3
ENDMDL
