MODEL 1
REMARK minimizedAffinity -4.69224739
REMARK minimizedRMSD -1
REMARK  3 active torsions:
REMARK  status: ('A' for Active; 'I' for Inactive)
REMARK    1  A    between atoms: C3'_2  and  C2'_3 
REMARK    2  A    between atoms: C2'_3  and  C1'_4 
REMARK    3  A    between atoms: C1'_4  and  C1_5 
ROOT
ATOM      1  C1  N4B d   1       0.048  -0.017   0.396  0.00  0.00    -0.075 A 
ATOM      2  C2  N4B d   1      -0.919   0.847  -0.162  0.00  0.00     0.002 A 
ATOM      3  C3  N4B d   1      -1.377   1.922   0.559  0.00  0.00     0.002 A 
ATOM      4  C4  N4B d   1      -0.900   2.141   1.843  0.00  0.00    -0.004 A 
ATOM      5  C5  N4B d   1       0.053   1.316   2.365  0.00  0.00     0.002 A 
ATOM      6  C6  N4B d   1       0.526   0.234   1.650  0.00  0.00     0.002 A 
ENDROOT
BRANCH   1   7
ATOM      7  C1' N4B d   1       0.516  -1.254  -0.320  0.00  0.00     0.057 C 
BRANCH   7   8
ATOM      8  C2' N4B d   1      -0.660  -1.876  -1.067  0.00  0.00     0.009 C 
BRANCH   8   9
ATOM      9  C3' N4B d   1      -0.352  -3.287  -1.538  0.00  0.00     0.004 C 
ATOM     10  C4' N4B d   1      -1.138  -4.329  -0.799  0.00  0.00     0.003 C 
ENDBRANCH   8   9
ENDBRANCH   7   8
ENDBRANCH   1   7
TORSDOF 3
ENDMDL
