MODEL 1
REMARK minimizedAffinity -2.89823532
REMARK minimizedRMSD -1
REMARK  0 active torsions:
REMARK  status: ('A' for Active; 'I' for Inactive)
ROOT
ATOM      1  C   UNL d   1       2.303  -0.888  -1.063  0.00  0.00     0.023 A 
ATOM      2  C1  UNL d   1       2.045   0.482  -1.018  0.00  0.00     0.003 A 
ATOM      3  C2  UNL d   1       0.849   0.950  -0.470  0.00  0.00     0.048 A 
ATOM      4  C3  UNL d   1      -0.085   0.043   0.030  0.00  0.00     0.023 A 
ATOM      5  C4  UNL d   1       0.170  -1.328  -0.012  0.00  0.00     0.048 A 
ATOM      6  C5  UNL d   1       1.366  -1.792  -0.561  0.00  0.00     0.003 A 
ATOM      7  I   UNL d   1      -1.866   0.738   0.846  0.00  0.00    -0.146 I 
ENDROOT
TORSDOF 0
ENDMDL
