MODEL 1
REMARK minimizedAffinity -2.83000731
REMARK minimizedRMSD -1
REMARK  0 active torsions:
REMARK  status: ('A' for Active; 'I' for Inactive)
ROOT
ATOM      1  C   UNL d   1       1.672   2.318  -1.214  0.00  0.00     0.023 A 
ATOM      2  C1  UNL d   1       2.398   1.249  -0.688  0.00  0.00     0.003 A 
ATOM      3  C2  UNL d   1       1.738   0.092  -0.272  0.00  0.00     0.048 A 
ATOM      4  C3  UNL d   1       0.351   0.008  -0.386  0.00  0.00     0.023 A 
ATOM      5  C4  UNL d   1      -0.380   1.074  -0.913  0.00  0.00     0.048 A 
ATOM      6  C5  UNL d   1       0.284   2.230  -1.327  0.00  0.00     0.003 A 
ATOM      7  I   UNL d   1      -0.634  -1.715   0.232  0.00  0.00    -0.146 I 
ENDROOT
TORSDOF 0
ENDMDL
