MODEL 1
REMARK minimizedAffinity -1.65734529
REMARK minimizedRMSD -1
REMARK  0 active torsions:
REMARK  status: ('A' for Active; 'I' for Inactive)
ROOT
ATOM      1  C   UNL d   1       2.400  -1.438  -0.411  0.00  0.00     0.023 A 
ATOM      2  C1  UNL d   1       1.851  -1.753   0.832  0.00  0.00     0.003 A 
ATOM      3  C2  UNL d   1       0.665  -1.145   1.247  0.00  0.00     0.048 A 
ATOM      4  C3  UNL d   1       0.032  -0.224   0.413  0.00  0.00     0.023 A 
ATOM      5  C4  UNL d   1       0.577   0.094  -0.832  0.00  0.00     0.048 A 
ATOM      6  C5  UNL d   1       1.764  -0.516  -1.242  0.00  0.00     0.003 A 
ATOM      7  I   UNL d   1      -1.735   0.682   1.028  0.00  0.00    -0.146 I 
ENDROOT
TORSDOF 0
ENDMDL
