MODEL 1
REMARK minimizedAffinity -3.81688952
REMARK minimizedRMSD -1
REMARK  0 active torsions:
REMARK  status: ('A' for Active; 'I' for Inactive)
ROOT
ATOM      1  C   UNL d   1       2.746  -0.531  -1.407  0.00  0.00     0.023 A 
ATOM      2  C1  UNL d   1       2.468   0.772  -0.991  0.00  0.00     0.003 A 
ATOM      3  C2  UNL d   1       1.309   1.041  -0.261  0.00  0.00     0.048 A 
ATOM      4  C3  UNL d   1       0.432   0.003   0.051  0.00  0.00     0.023 A 
ATOM      5  C4  UNL d   1       0.706  -1.302  -0.361  0.00  0.00     0.048 A 
ATOM      6  C5  UNL d   1       1.866  -1.566  -1.092  0.00  0.00     0.003 A 
ATOM      7  I   UNL d   1      -1.294   0.401   1.139  0.00  0.00    -0.146 I 
ENDROOT
TORSDOF 0
ENDMDL
