MODEL 1
REMARK minimizedAffinity -4.94251537
REMARK minimizedRMSD -1
REMARK  0 active torsions:
REMARK  status: ('A' for Active; 'I' for Inactive)
ROOT
ATOM      1  C   UNL d   1       2.816   0.047  -2.193  0.00  0.00     0.023 A 
ATOM      2  C1  UNL d   1       2.085   1.230  -2.302  0.00  0.00     0.003 A 
ATOM      3  C2  UNL d   1       0.939   1.418  -1.527  0.00  0.00     0.048 A 
ATOM      4  C3  UNL d   1       0.530   0.419  -0.644  0.00  0.00     0.023 A 
ATOM      5  C4  UNL d   1       1.259  -0.766  -0.531  0.00  0.00     0.048 A 
ATOM      6  C5  UNL d   1       2.404  -0.950  -1.309  0.00  0.00     0.003 A 
ATOM      7  I   UNL d   1      -1.176   0.696   0.510  0.00  0.00    -0.146 I 
ENDROOT
TORSDOF 0
ENDMDL
