MODEL 1
REMARK minimizedAffinity -3.17258215
REMARK minimizedRMSD -1
REMARK  0 active torsions:
REMARK  status: ('A' for Active; 'I' for Inactive)
ROOT
ATOM      1  C   UNL d   1       2.401   0.431  -2.969  0.00  0.00     0.023 A 
ATOM      2  C1  UNL d   1       2.207  -0.671  -2.136  0.00  0.00     0.003 A 
ATOM      3  C2  UNL d   1       1.197  -0.650  -1.172  0.00  0.00     0.048 A 
ATOM      4  C3  UNL d   1       0.384   0.476  -1.047  0.00  0.00     0.023 A 
ATOM      5  C4  UNL d   1       0.573   1.580  -1.879  0.00  0.00     0.048 A 
ATOM      6  C5  UNL d   1       1.585   1.555  -2.841  0.00  0.00     0.003 A 
ATOM      7  I   UNL d   1      -1.120   0.509   0.386  0.00  0.00    -0.146 I 
ENDROOT
TORSDOF 0
ENDMDL
