MODEL 1
REMARK minimizedAffinity -1.68533182
REMARK minimizedRMSD -1
REMARK  0 active torsions:
REMARK  status: ('A' for Active; 'I' for Inactive)
ROOT
ATOM      1  C   UNL d   1       2.363  -0.759  -1.759  0.00  0.00     0.023 A 
ATOM      2  C1  UNL d   1       2.215   0.457  -1.091  0.00  0.00     0.003 A 
ATOM      3  C2  UNL d   1       1.231   0.601  -0.111  0.00  0.00     0.048 A 
ATOM      4  C3  UNL d   1       0.399  -0.475   0.196  0.00  0.00     0.023 A 
ATOM      5  C4  UNL d   1       0.543  -1.693  -0.469  0.00  0.00     0.048 A 
ATOM      6  C5  UNL d   1       1.528  -1.832  -1.449  0.00  0.00     0.003 A 
ATOM      7  I   UNL d   1      -1.067  -0.262   1.655  0.00  0.00    -0.146 I 
ENDROOT
TORSDOF 0
ENDMDL
