MODEL 1
REMARK minimizedAffinity -4.59697104
REMARK minimizedRMSD -1
REMARK  0 active torsions:
REMARK  status: ('A' for Active; 'I' for Inactive)
ROOT
ATOM      1  C   UNL d   1       1.602  -0.463  -1.326  0.00  0.00     0.023 A 
ATOM      2  C1  UNL d   1       0.950  -1.516  -0.685  0.00  0.00     0.003 A 
ATOM      3  C2  UNL d   1      -0.100  -1.256   0.198  0.00  0.00     0.048 A 
ATOM      4  C3  UNL d   1      -0.494   0.060   0.435  0.00  0.00     0.023 A 
ATOM      5  C4  UNL d   1       0.154   1.118  -0.205  0.00  0.00     0.048 A 
ATOM      6  C5  UNL d   1       1.204   0.853  -1.086  0.00  0.00     0.003 A 
ATOM      7  I   UNL d   1      -2.057   0.450   1.748  0.00  0.00    -0.146 I 
ENDROOT
TORSDOF 0
ENDMDL
