MODEL 1
REMARK minimizedAffinity -4.51587343
REMARK minimizedRMSD -1
REMARK  0 active torsions:
REMARK  status: ('A' for Active; 'I' for Inactive)
ROOT
ATOM      1  C   UNL d   1       2.909  -0.665  -1.908  0.00  0.00     0.023 A 
ATOM      2  C1  UNL d   1       2.126   0.449  -2.209  0.00  0.00     0.003 A 
ATOM      3  C2  UNL d   1       1.010   0.752  -1.426  0.00  0.00     0.048 A 
ATOM      4  C3  UNL d   1       0.684  -0.064  -0.343  0.00  0.00     0.023 A 
ATOM      5  C4  UNL d   1       1.465  -1.179  -0.037  0.00  0.00     0.048 A 
ATOM      6  C5  UNL d   1       2.580  -1.478  -0.823  0.00  0.00     0.003 A 
ATOM      7  I   UNL d   1      -0.977   0.385   0.824  0.00  0.00    -0.146 I 
ENDROOT
TORSDOF 0
ENDMDL
