MODEL 1
REMARK minimizedAffinity -3.73634386
REMARK minimizedRMSD -1
REMARK  0 active torsions:
REMARK  status: ('A' for Active; 'I' for Inactive)
ROOT
ATOM      1  C   UNL d   1       2.084  -1.086  -1.365  0.00  0.00     0.023 A 
ATOM      2  C1  UNL d   1       0.947  -1.869  -1.159  0.00  0.00     0.003 A 
ATOM      3  C2  UNL d   1      -0.012  -1.476  -0.224  0.00  0.00     0.048 A 
ATOM      4  C3  UNL d   1       0.170  -0.299   0.501  0.00  0.00     0.023 A 
ATOM      5  C4  UNL d   1       1.305   0.487   0.298  0.00  0.00     0.048 A 
ATOM      6  C5  UNL d   1       2.263   0.090  -0.637  0.00  0.00     0.003 A 
ATOM      7  I   UNL d   1      -1.257   0.287   1.894  0.00  0.00    -0.146 I 
ENDROOT
TORSDOF 0
ENDMDL
