MODEL 1
REMARK minimizedAffinity -1.6915406
REMARK minimizedRMSD -1
REMARK  0 active torsions:
REMARK  status: ('A' for Active; 'I' for Inactive)
ROOT
ATOM      1  C   UNL d   1      -2.511   0.993   3.080  0.00  0.00     0.023 A 
ATOM      2  C1  UNL d   1      -2.570  -0.090   2.203  0.00  0.00     0.003 A 
ATOM      3  C2  UNL d   1      -1.613  -0.228   1.195  0.00  0.00     0.048 A 
ATOM      4  C3  UNL d   1      -0.598   0.720   1.072  0.00  0.00     0.023 A 
ATOM      5  C4  UNL d   1      -0.534   1.805   1.948  0.00  0.00     0.048 A 
ATOM      6  C5  UNL d   1      -1.494   1.939   2.952  0.00  0.00     0.003 A 
ATOM      7  I   UNL d   1       0.828   0.517  -0.426  0.00  0.00    -0.146 I 
ENDROOT
TORSDOF 0
ENDMDL
