MODEL 1
REMARK minimizedAffinity -3.94585562
REMARK minimizedRMSD -1
REMARK  0 active torsions:
REMARK  status: ('A' for Active; 'I' for Inactive)
ROOT
ATOM      1  C   UNL d   1       2.240   1.282  -1.314  0.00  0.00     0.023 A 
ATOM      2  C1  UNL d   1       0.891   1.589  -1.138  0.00  0.00     0.003 A 
ATOM      3  C2  UNL d   1      -0.017   0.582  -0.803  0.00  0.00     0.048 A 
ATOM      4  C3  UNL d   1       0.431  -0.728  -0.645  0.00  0.00     0.023 A 
ATOM      5  C4  UNL d   1       1.780  -1.040  -0.820  0.00  0.00     0.048 A 
ATOM      6  C5  UNL d   1       2.684  -0.030  -1.156  0.00  0.00     0.003 A 
ATOM      7  I   UNL d   1      -0.918  -2.228  -0.146  0.00  0.00    -0.146 I 
ENDROOT
TORSDOF 0
ENDMDL
