MODEL 1
REMARK minimizedAffinity -2.26181698
REMARK minimizedRMSD -1
REMARK  0 active torsions:
REMARK  status: ('A' for Active; 'I' for Inactive)
ROOT
ATOM      1  C   UNL d   1       1.775   0.277  -0.959  0.00  0.00     0.023 A 
ATOM      2  C1  UNL d   1       1.797  -0.492   0.204  0.00  0.00     0.003 A 
ATOM      3  C2  UNL d   1       0.793  -0.341   1.162  0.00  0.00     0.048 A 
ATOM      4  C3  UNL d   1      -0.231   0.581   0.950  0.00  0.00     0.023 A 
ATOM      5  C4  UNL d   1      -0.258   1.353  -0.213  0.00  0.00     0.048 A 
ATOM      6  C5  UNL d   1       0.749   1.199  -1.167  0.00  0.00     0.003 A 
ATOM      7  I   UNL d   1      -1.728   0.808   2.374  0.00  0.00    -0.146 I 
ENDROOT
TORSDOF 0
ENDMDL
