MODEL 1
REMARK minimizedAffinity 9.49829006
REMARK minimizedRMSD -1
REMARK  1 active torsions:
REMARK  status: ('A' for Active; 'I' for Inactive)
REMARK    1  A    between atoms: C1_2  and  C2_3 
ROOT
ATOM      1  C2  UNL d   1       0.973  -3.474   0.579  0.00  0.00    -0.081 A 
ATOM      2  C3  UNL d   1       0.493  -3.119   1.845  0.00  0.00     0.006 A 
ATOM      3  C4  UNL d   1       0.731  -1.843   2.361  0.00  0.00     0.002 A 
ATOM      4  C5  UNL d   1       1.444  -0.898   1.616  0.00  0.00    -0.080 A 
ATOM      5  C6  UNL d   1       1.680   0.485   2.146  0.00  0.00     0.076 C 
ATOM      6  C7  UNL d   1       1.938  -1.257   0.358  0.00  0.00     0.002 A 
ATOM      7  C8  UNL d   1       1.702  -2.534  -0.158  0.00  0.00     0.006 A 
ENDROOT
BRANCH   1   8
ATOM      8  C1  UNL d   1       0.662  -4.827  -0.007  0.00  0.00     0.054 C 
ATOM      9  C   UNL d   1       1.686  -5.866   0.428  0.00  0.00     0.018 C 
ENDBRANCH   1   8
TORSDOF 1
ENDMDL
