MODEL 1
REMARK minimizedAffinity 4.91158819
REMARK minimizedRMSD -1
REMARK  1 active torsions:
REMARK  status: ('A' for Active; 'I' for Inactive)
REMARK    1  A    between atoms: C1_2  and  C2_3 
ROOT
ATOM      1  C2  UNL d   1       4.479  -2.326   4.020  0.00  0.00    -0.081 A 
ATOM      2  C3  UNL d   1       3.420  -2.342   4.936  0.00  0.00     0.006 A 
ATOM      3  C4  UNL d   1       2.097  -2.332   4.489  0.00  0.00     0.002 A 
ATOM      4  C5  UNL d   1       1.810  -2.313   3.120  0.00  0.00    -0.080 A 
ATOM      5  C6  UNL d   1       0.393  -2.333   2.627  0.00  0.00     0.076 C 
ATOM      6  C7  UNL d   1       2.867  -2.279   2.205  0.00  0.00     0.002 A 
ATOM      7  C8  UNL d   1       4.191  -2.289   2.651  0.00  0.00     0.006 A 
ENDROOT
BRANCH   1   8
ATOM      8  C1  UNL d   1       5.907  -2.402   4.497  0.00  0.00     0.054 C 
ATOM      9  C   UNL d   1       5.976  -2.639   5.999  0.00  0.00     0.018 C 
ENDBRANCH   1   8
TORSDOF 1
ENDMDL
