MODEL 1
REMARK minimizedAffinity 1.07199848
REMARK minimizedRMSD -1
REMARK  1 active torsions:
REMARK  status: ('A' for Active; 'I' for Inactive)
REMARK    1  A    between atoms: C1_2  and  C2_3 
ROOT
ATOM      1  C2  UNL d   1       2.146  -4.506   4.300  0.00  0.00    -0.081 A 
ATOM      2  C3  UNL d   1       0.983  -3.727   4.330  0.00  0.00     0.006 A 
ATOM      3  C4  UNL d   1       0.866  -2.598   3.516  0.00  0.00     0.002 A 
ATOM      4  C5  UNL d   1       1.905  -2.234   2.653  0.00  0.00    -0.080 A 
ATOM      5  C6  UNL d   1       1.780  -1.042   1.751  0.00  0.00     0.076 C 
ATOM      6  C7  UNL d   1       3.074  -3.003   2.636  0.00  0.00     0.002 A 
ATOM      7  C8  UNL d   1       3.193  -4.131   3.450  0.00  0.00     0.006 A 
ENDROOT
BRANCH   1   8
ATOM      8  C1  UNL d   1       2.250  -5.760   5.130  0.00  0.00     0.054 C 
ATOM      9  C   UNL d   1       1.016  -5.953   5.999  0.00  0.00     0.018 C 
ENDBRANCH   1   8
TORSDOF 1
ENDMDL
