MODEL 1
REMARK minimizedAffinity -4.7023344
REMARK minimizedRMSD -1
REMARK  1 active torsions:
REMARK  status: ('A' for Active; 'I' for Inactive)
REMARK    1  A    between atoms: C1_2  and  C2_3 
ROOT
ATOM      1  C2  UNL d   1      -0.381   0.758   1.332  0.00  0.00    -0.073 A 
ATOM      2  C3  UNL d   1      -1.240  -0.101   0.638  0.00  0.00    -0.002 A 
ATOM      3  C4  UNL d   1      -0.762  -0.868  -0.425  0.00  0.00     0.004 A 
ATOM      4  C5  UNL d   1       0.580  -0.790  -0.800  0.00  0.00    -0.004 A 
ATOM      5  C6  UNL d   1       1.456   0.054  -0.111  0.00  0.00    -0.075 A 
ATOM      6  C7  UNL d   1       2.901   0.152  -0.503  0.00  0.00     0.076 C 
ATOM      7  C8  UNL d   1       0.968   0.823   0.954  0.00  0.00     0.001 A 
ENDROOT
BRANCH   1   8
ATOM      8  C1  UNL d   1      -0.891   1.583   2.485  0.00  0.00     0.053 C 
ATOM      9  C   UNL d   1      -1.082   0.749   3.742  0.00  0.00     0.018 C 
ENDBRANCH   1   8
TORSDOF 1
ENDMDL
