MODEL 1
REMARK minimizedAffinity -4.5522418
REMARK minimizedRMSD -1
REMARK  1 active torsions:
REMARK  status: ('A' for Active; 'I' for Inactive)
REMARK    1  A    between atoms: C1_2  and  C2_3 
ROOT
ATOM      1  C2  UNL d   1      -1.006   0.159   0.375  0.00  0.00    -0.073 A 
ATOM      2  C3  UNL d   1      -0.541  -1.158   0.290  0.00  0.00    -0.002 A 
ATOM      3  C4  UNL d   1       0.606  -1.454  -0.448  0.00  0.00     0.004 A 
ATOM      4  C5  UNL d   1       1.303  -0.438  -1.101  0.00  0.00    -0.004 A 
ATOM      5  C6  UNL d   1       0.860   0.887  -1.018  0.00  0.00    -0.075 A 
ATOM      6  C7  UNL d   1       1.597   1.991  -1.716  0.00  0.00     0.076 C 
ATOM      7  C8  UNL d   1      -0.294   1.176  -0.278  0.00  0.00     0.001 A 
ENDROOT
BRANCH   1   8
ATOM      8  C1  UNL d   1      -2.240   0.485   1.175  0.00  0.00     0.053 C 
ATOM      9  C   UNL d   1      -1.914   0.780   2.631  0.00  0.00     0.018 C 
ENDBRANCH   1   8
TORSDOF 1
ENDMDL
