MODEL 1
REMARK minimizedAffinity -5.28174591
REMARK minimizedRMSD -1
REMARK  1 active torsions:
REMARK  status: ('A' for Active; 'I' for Inactive)
REMARK    1  A    between atoms: C1_2  and  C2_3 
ROOT
ATOM      1  C2  UNL d   1      -0.370   0.928   0.627  0.00  0.00    -0.073 A 
ATOM      2  C3  UNL d   1      -1.185  -0.132   0.213  0.00  0.00    -0.002 A 
ATOM      3  C4  UNL d   1      -0.648  -1.185  -0.529  0.00  0.00     0.004 A 
ATOM      4  C5  UNL d   1       0.707  -1.192  -0.860  0.00  0.00    -0.004 A 
ATOM      5  C6  UNL d   1       1.539  -0.147  -0.446  0.00  0.00    -0.075 A 
ATOM      6  C7  UNL d   1       2.999  -0.138  -0.795  0.00  0.00     0.076 C 
ATOM      7  C8  UNL d   1       0.992   0.908   0.298  0.00  0.00     0.001 A 
ENDROOT
BRANCH   1   8
ATOM      8  C1  UNL d   1      -0.944   2.064   1.434  0.00  0.00     0.053 C 
ATOM      9  C   UNL d   1      -1.771   1.567   2.610  0.00  0.00     0.018 C 
ENDBRANCH   1   8
TORSDOF 1
ENDMDL
