MODEL 1
REMARK minimizedAffinity -1.99510193
REMARK minimizedRMSD -1
REMARK  1 active torsions:
REMARK  status: ('A' for Active; 'I' for Inactive)
REMARK    1  A    between atoms: C1_2  and  C2_3 
ROOT
ATOM      1  C2  UNL d   1       0.926  -0.754  -1.368  0.00  0.00    -0.073 A 
ATOM      2  C3  UNL d   1      -0.022  -1.318  -0.506  0.00  0.00    -0.002 A 
ATOM      3  C4  UNL d   1      -1.115  -0.567  -0.072  0.00  0.00     0.004 A 
ATOM      4  C5  UNL d   1      -1.276   0.751  -0.501  0.00  0.00    -0.004 A 
ATOM      5  C6  UNL d   1      -0.347   1.328  -1.372  0.00  0.00    -0.075 A 
ATOM      6  C7  UNL d   1      -0.504   2.744  -1.841  0.00  0.00     0.076 C 
ATOM      7  C8  UNL d   1       0.750   0.568  -1.801  0.00  0.00     0.001 A 
ENDROOT
BRANCH   1   8
ATOM      8  C1  UNL d   1       2.105  -1.563  -1.844  0.00  0.00     0.053 C 
ATOM      9  C   UNL d   1       3.428  -0.896  -1.505  0.00  0.00     0.018 C 
ENDBRANCH   1   8
TORSDOF 1
ENDMDL
