MODEL 1
REMARK minimizedAffinity -3.97187734
REMARK minimizedRMSD -1
REMARK  1 active torsions:
REMARK  status: ('A' for Active; 'I' for Inactive)
REMARK    1  A    between atoms: C1_2  and  C2_3 
ROOT
ATOM      1  C2  UNL d   1      -0.104   0.671  -0.558  0.00  0.00    -0.073 A 
ATOM      2  C3  UNL d   1      -0.716  -0.400   0.103  0.00  0.00    -0.002 A 
ATOM      3  C4  UNL d   1      -0.012  -1.582   0.333  0.00  0.00     0.004 A 
ATOM      4  C5  UNL d   1       1.312  -1.704  -0.090  0.00  0.00    -0.004 A 
ATOM      5  C6  UNL d   1       1.944  -0.641  -0.743  0.00  0.00    -0.075 A 
ATOM      6  C7  UNL d   1       3.367  -0.757  -1.206  0.00  0.00     0.076 C 
ATOM      7  C8  UNL d   1       1.230   0.542  -0.972  0.00  0.00     0.001 A 
ENDROOT
BRANCH   1   8
ATOM      8  C1  UNL d   1      -0.859   1.952  -0.802  0.00  0.00     0.053 C 
ATOM      9  C   UNL d   1      -0.233   2.780  -1.914  0.00  0.00     0.018 C 
ENDBRANCH   1   8
TORSDOF 1
ENDMDL
