MODEL 1
REMARK minimizedAffinity -3.76693177
REMARK minimizedRMSD -1
REMARK  1 active torsions:
REMARK  status: ('A' for Active; 'I' for Inactive)
REMARK    1  A    between atoms: C1_2  and  C2_3 
ROOT
ATOM      1  C2  UNL d   1      -0.310  -0.253   0.254  0.00  0.00    -0.073 A 
ATOM      2  C3  UNL d   1      -0.587  -1.607   0.475  0.00  0.00    -0.002 A 
ATOM      3  C4  UNL d   1       0.318  -2.587   0.064  0.00  0.00     0.004 A 
ATOM      4  C5  UNL d   1       1.509  -2.224  -0.563  0.00  0.00    -0.004 A 
ATOM      5  C6  UNL d   1       1.810  -0.876  -0.782  0.00  0.00    -0.075 A 
ATOM      6  C7  UNL d   1       3.086  -0.469  -1.457  0.00  0.00     0.076 C 
ATOM      7  C8  UNL d   1       0.895   0.103  -0.369  0.00  0.00     0.001 A 
ENDROOT
BRANCH   1   8
ATOM      8  C1  UNL d   1      -1.280   0.810   0.702  0.00  0.00     0.053 C 
ATOM      9  C   UNL d   1      -1.670   0.648   2.162  0.00  0.00     0.018 C 
ENDBRANCH   1   8
TORSDOF 1
ENDMDL
