MODEL 1
REMARK minimizedAffinity -5.11527491
REMARK minimizedRMSD -1
REMARK  1 active torsions:
REMARK  status: ('A' for Active; 'I' for Inactive)
REMARK    1  A    between atoms: C1_2  and  C2_3 
ROOT
ATOM      1  C2  UNL d   1      -0.258  -0.132  -0.006  0.00  0.00    -0.073 A 
ATOM      2  C3  UNL d   1      -0.546  -1.495  -0.140  0.00  0.00    -0.002 A 
ATOM      3  C4  UNL d   1       0.426  -2.377  -0.614  0.00  0.00     0.004 A 
ATOM      4  C5  UNL d   1       1.695  -1.907  -0.953  0.00  0.00    -0.004 A 
ATOM      5  C6  UNL d   1       2.005  -0.550  -0.815  0.00  0.00    -0.075 A 
ATOM      6  C7  UNL d   1       3.365  -0.029  -1.177  0.00  0.00     0.076 C 
ATOM      7  C8  UNL d   1       1.023   0.329  -0.340  0.00  0.00     0.001 A 
ENDROOT
BRANCH   1   8
ATOM      8  C1  UNL d   1      -1.302   0.823   0.513  0.00  0.00     0.053 C 
ATOM      9  C   UNL d   1      -1.504   0.688   2.014  0.00  0.00     0.018 C 
ENDBRANCH   1   8
TORSDOF 1
ENDMDL
