MODEL 1
REMARK minimizedAffinity -4.52589941
REMARK minimizedRMSD -1
REMARK  1 active torsions:
REMARK  status: ('A' for Active; 'I' for Inactive)
REMARK    1  A    between atoms: C1_2  and  C2_3 
ROOT
ATOM      1  C2  UNL d   1      -1.120   0.366   0.700  0.00  0.00    -0.073 A 
ATOM      2  C3  UNL d   1      -1.342   1.344  -0.276  0.00  0.00    -0.002 A 
ATOM      3  C4  UNL d   1      -0.501   1.436  -1.386  0.00  0.00     0.004 A 
ATOM      4  C5  UNL d   1       0.565   0.549  -1.534  0.00  0.00    -0.004 A 
ATOM      5  C6  UNL d   1       0.796  -0.442  -0.576  0.00  0.00    -0.075 A 
ATOM      6  C7  UNL d   1       1.940  -1.403  -0.720  0.00  0.00     0.076 C 
ATOM      7  C8  UNL d   1      -0.051  -0.527   0.538  0.00  0.00     0.001 A 
ENDROOT
BRANCH   1   8
ATOM      8  C1  UNL d   1      -2.029   0.259   1.897  0.00  0.00     0.053 C 
ATOM      9  C   UNL d   1      -1.647   1.242   2.993  0.00  0.00     0.018 C 
ENDBRANCH   1   8
TORSDOF 1
ENDMDL
