MODEL 1
REMARK minimizedAffinity -3.96195245
REMARK minimizedRMSD -1
REMARK  3 active torsions:
REMARK  status: ('A' for Active; 'I' for Inactive)
REMARK    1  A    between atoms: C3'_2  and  C2'_3 
REMARK    2  A    between atoms: C2'_3  and  C1'_4 
REMARK    3  A    between atoms: C1'_4  and  C1_5 
ROOT
ATOM      1  C1  N4B d   1      -0.042  -0.073   0.444  0.00  0.00    -0.075 A 
ATOM      2  C2  N4B d   1       1.180   0.528   0.818  0.00  0.00     0.002 A 
ATOM      3  C3  N4B d   1       1.217   1.861   1.148  0.00  0.00     0.002 A 
ATOM      4  C4  N4B d   1       0.054   2.614   1.093  0.00  0.00    -0.004 A 
ATOM      5  C5  N4B d   1      -1.127   2.020   0.756  0.00  0.00     0.002 A 
ATOM      6  C6  N4B d   1      -1.180   0.681   0.426  0.00  0.00     0.002 A 
ENDROOT
BRANCH   1   7
ATOM      7  C1' N4B d   1      -0.117  -1.505  -0.008  0.00  0.00     0.057 C 
BRANCH   7   8
ATOM      8  C2' N4B d   1      -0.750  -1.560  -1.395  0.00  0.00     0.009 C 
BRANCH   8   9
ATOM      9  C3' N4B d   1      -0.924  -2.988  -1.884  0.00  0.00     0.004 C 
ATOM     10  C4' N4B d   1      -0.388  -3.197  -3.269  0.00  0.00     0.003 C 
ENDBRANCH   8   9
ENDBRANCH   7   8
ENDBRANCH   1   7
TORSDOF 3
ENDMDL
