MODEL 1
REMARK minimizedAffinity 4.70628691
REMARK minimizedRMSD -1
REMARK  3 active torsions:
REMARK  status: ('A' for Active; 'I' for Inactive)
REMARK    1  A    between atoms: C3'_2  and  C2'_3 
REMARK    2  A    between atoms: C2'_3  and  C1'_4 
REMARK    3  A    between atoms: C1'_4  and  C1_5 
ROOT
ATOM      1  C1  N4B d   1      -1.220  -0.064   0.670  0.00  0.00    -0.075 A 
ATOM      2  C2  N4B d   1      -0.415   0.471   1.700  0.00  0.00     0.002 A 
ATOM      3  C3  N4B d   1      -0.432   1.821   1.954  0.00  0.00     0.002 A 
ATOM      4  C4  N4B d   1      -1.229   2.654   1.182  0.00  0.00    -0.004 A 
ATOM      5  C5  N4B d   1      -2.023   2.125   0.206  0.00  0.00     0.002 A 
ATOM      6  C6  N4B d   1      -2.019   0.770  -0.057  0.00  0.00     0.002 A 
ENDROOT
BRANCH   1   7
ATOM      7  C1' N4B d   1      -1.170  -1.521   0.299  0.00  0.00     0.057 C 
BRANCH   7   8
ATOM      8  C2' N4B d   1      -1.509  -1.673  -1.180  0.00  0.00     0.009 C 
BRANCH   8   9
ATOM      9  C3' N4B d   1      -1.685  -3.129  -1.577  0.00  0.00     0.004 C 
ATOM     10  C4' N4B d   1      -3.052  -3.656  -1.258  0.00  0.00     0.003 C 
ENDBRANCH   8   9
ENDBRANCH   7   8
ENDBRANCH   1   7
TORSDOF 3
ENDMDL
