MODEL 1
REMARK minimizedAffinity -4.5028758
REMARK minimizedRMSD -1
REMARK  3 active torsions:
REMARK  status: ('A' for Active; 'I' for Inactive)
REMARK    1  A    between atoms: C3'_2  and  C2'_3 
REMARK    2  A    between atoms: C2'_3  and  C1'_4 
REMARK    3  A    between atoms: C1'_4  and  C1_5 
ROOT
ATOM      1  C1  N4B d   1       0.372  -2.192  -0.701  0.00  0.00    -0.075 A 
ATOM      2  C2  N4B d   1       0.149  -1.989  -2.081  0.00  0.00     0.002 A 
ATOM      3  C3  N4B d   1      -0.813  -2.719  -2.736  0.00  0.00     0.002 A 
ATOM      4  C4  N4B d   1      -1.547  -3.667  -2.040  0.00  0.00    -0.004 A 
ATOM      5  C5  N4B d   1      -1.343  -3.839  -0.702  0.00  0.00     0.002 A 
ATOM      6  C6  N4B d   1      -0.383  -3.110  -0.030  0.00  0.00     0.002 A 
ENDROOT
BRANCH   1   7
ATOM      7  C1' N4B d   1       1.470  -1.479   0.039  0.00  0.00     0.057 C 
BRANCH   7   8
ATOM      8  C2' N4B d   1       1.075  -0.018   0.236  0.00  0.00     0.009 C 
BRANCH   8   9
ATOM      9  C3' N4B d   1      -0.272   0.118   0.925  0.00  0.00     0.004 C 
ATOM     10  C4' N4B d   1      -1.226   0.992   0.166  0.00  0.00     0.003 C 
ENDBRANCH   8   9
ENDBRANCH   7   8
ENDBRANCH   1   7
TORSDOF 3
ENDMDL
