MODEL 1
REMARK minimizedAffinity -3.10613179
REMARK minimizedRMSD -1
REMARK  3 active torsions:
REMARK  status: ('A' for Active; 'I' for Inactive)
REMARK    1  A    between atoms: C3'_2  and  C2'_3 
REMARK    2  A    between atoms: C2'_3  and  C1'_4 
REMARK    3  A    between atoms: C1'_4  and  C1_5 
ROOT
ATOM      1  C1  N4B d   1      -0.656   1.096   0.458  0.00  0.00    -0.075 A 
ATOM      2  C2  N4B d   1      -0.466   0.840  -0.918  0.00  0.00     0.002 A 
ATOM      3  C3  N4B d   1      -0.078  -0.409  -1.336  0.00  0.00     0.002 A 
ATOM      4  C4  N4B d   1       0.144  -1.408  -0.401  0.00  0.00    -0.004 A 
ATOM      5  C5  N4B d   1      -0.066  -1.160   0.924  0.00  0.00     0.002 A 
ATOM      6  C6  N4B d   1      -0.461   0.090   1.359  0.00  0.00     0.002 A 
ENDROOT
BRANCH   1   7
ATOM      7  C1' N4B d   1      -0.997   2.468   0.971  0.00  0.00     0.057 C 
BRANCH   7   8
ATOM      8  C2' N4B d   1       0.064   3.458   0.497  0.00  0.00     0.009 C 
BRANCH   8   9
ATOM      9  C3' N4B d   1       1.298   3.435   1.382  0.00  0.00     0.004 C 
ATOM     10  C4' N4B d   1       2.291   2.390   0.968  0.00  0.00     0.003 C 
ENDBRANCH   8   9
ENDBRANCH   7   8
ENDBRANCH   1   7
TORSDOF 3
ENDMDL
