MODEL 1
REMARK minimizedAffinity -3.51563382
REMARK minimizedRMSD -1
REMARK  3 active torsions:
REMARK  status: ('A' for Active; 'I' for Inactive)
REMARK    1  A    between atoms: C3'_2  and  C2'_3 
REMARK    2  A    between atoms: C2'_3  and  C1'_4 
REMARK    3  A    between atoms: C1'_4  and  C1_5 
ROOT
ATOM      1  C1  N4B d   1       0.329  -0.358   0.576  0.00  0.00    -0.075 A 
ATOM      2  C2  N4B d   1      -0.383   0.856   0.700  0.00  0.00     0.002 A 
ATOM      3  C3  N4B d   1       0.297   2.037   0.867  0.00  0.00     0.002 A 
ATOM      4  C4  N4B d   1       1.682   2.028   0.932  0.00  0.00    -0.004 A 
ATOM      5  C5  N4B d   1       2.364   0.855   0.785  0.00  0.00     0.002 A 
ATOM      6  C6  N4B d   1       1.693  -0.339   0.613  0.00  0.00     0.002 A 
ENDROOT
BRANCH   1   7
ATOM      7  C1' N4B d   1      -0.373  -1.684   0.477  0.00  0.00     0.057 C 
BRANCH   7   8
ATOM      8  C2' N4B d   1      -0.264  -2.204  -0.953  0.00  0.00     0.009 C 
BRANCH   8   9
ATOM      9  C3' N4B d   1      -1.018  -3.509  -1.142  0.00  0.00     0.004 C 
ATOM     10  C4' N4B d   1      -1.018  -3.978  -2.567  0.00  0.00     0.003 C 
ENDBRANCH   8   9
ENDBRANCH   7   8
ENDBRANCH   1   7
TORSDOF 3
ENDMDL
