MODEL 1
REMARK minimizedAffinity 0.331765801
REMARK minimizedRMSD -1
REMARK  3 active torsions:
REMARK  status: ('A' for Active; 'I' for Inactive)
REMARK    1  A    between atoms: C3'_2  and  C2'_3 
REMARK    2  A    between atoms: C2'_3  and  C1'_4 
REMARK    3  A    between atoms: C1'_4  and  C1_5 
ROOT
ATOM      1  C1  N4B d   1       0.145  -1.211  -0.315  0.00  0.00    -0.075 A 
ATOM      2  C2  N4B d   1       0.775  -1.441  -1.557  0.00  0.00     0.002 A 
ATOM      3  C3  N4B d   1       2.088  -1.081  -1.739  0.00  0.00     0.002 A 
ATOM      4  C4  N4B d   1       2.782  -0.474  -0.703  0.00  0.00    -0.004 A 
ATOM      5  C5  N4B d   1       2.174  -0.278   0.502  0.00  0.00     0.002 A 
ATOM      6  C6  N4B d   1       0.856  -0.639   0.700  0.00  0.00     0.002 A 
ENDROOT
BRANCH   1   7
ATOM      7  C1' N4B d   1      -1.313  -1.509  -0.096  0.00  0.00     0.057 C 
BRANCH   7   8
ATOM      8  C2' N4B d   1      -1.602  -2.942  -0.532  0.00  0.00     0.009 C 
BRANCH   8   9
ATOM      9  C3' N4B d   1      -2.736  -3.012  -1.539  0.00  0.00     0.004 C 
ATOM     10  C4' N4B d   1      -3.922  -3.774  -1.026  0.00  0.00     0.003 C 
ENDBRANCH   8   9
ENDBRANCH   7   8
ENDBRANCH   1   7
TORSDOF 3
ENDMDL
