MODEL 1
REMARK minimizedAffinity 1.0882448
REMARK minimizedRMSD -1
REMARK  3 active torsions:
REMARK  status: ('A' for Active; 'I' for Inactive)
REMARK    1  A    between atoms: C3'_2  and  C2'_3 
REMARK    2  A    between atoms: C2'_3  and  C1'_4 
REMARK    3  A    between atoms: C1'_4  and  C1_5 
ROOT
ATOM      1  C1  N4B d   1      -0.069  -2.325  -0.801  0.00  0.00    -0.075 A 
ATOM      2  C2  N4B d   1      -1.320  -2.898  -1.122  0.00  0.00     0.002 A 
ATOM      3  C3  N4B d   1      -1.488  -3.554  -2.317  0.00  0.00     0.002 A 
ATOM      4  C4  N4B d   1      -0.431  -3.632  -3.211  0.00  0.00    -0.004 A 
ATOM      5  C5  N4B d   1       0.781  -3.099  -2.883  0.00  0.00     0.002 A 
ATOM      6  C6  N4B d   1       0.966  -2.440  -1.684  0.00  0.00     0.002 A 
ENDROOT
BRANCH   1   7
ATOM      7  C1' N4B d   1       0.139  -1.524   0.455  0.00  0.00     0.057 C 
BRANCH   7   8
ATOM      8  C2' N4B d   1       1.399  -0.678   0.307  0.00  0.00     0.009 C 
BRANCH   8   9
ATOM      9  C3' N4B d   1       1.091   0.809   0.329  0.00  0.00     0.004 C 
ATOM     10  C4' N4B d   1      -0.367   1.097   0.528  0.00  0.00     0.003 C 
ENDBRANCH   8   9
ENDBRANCH   7   8
ENDBRANCH   1   7
TORSDOF 3
ENDMDL
