MODEL 1
REMARK minimizedAffinity -3.20454788
REMARK minimizedRMSD -1
REMARK  0 active torsions:
REMARK  status: ('A' for Active; 'I' for Inactive)
ROOT
ATOM      1  C1  BNZ d   1       2.001  -1.523  -0.897  0.00  0.00     0.000 A 
ATOM      2  C2  BNZ d   1       3.244  -2.091  -0.802  0.00  0.00     0.000 A 
ATOM      3  C3  BNZ d   1       4.321  -1.526  -1.425  0.00  0.00     0.000 A 
ATOM      4  C4  BNZ d   1       4.148  -0.418  -2.175  0.00  0.00     0.000 A 
ATOM      5  C5  BNZ d   1       2.900   0.161  -2.288  0.00  0.00     0.000 A 
ATOM      6  C6  BNZ d   1       1.825  -0.388  -1.627  0.00  0.00     0.000 A 
ENDROOT
TORSDOF 0
ENDMDL
