MODEL 1
REMARK minimizedAffinity 2.11376691
REMARK minimizedRMSD -1
REMARK  0 active torsions:
REMARK  status: ('A' for Active; 'I' for Inactive)
ROOT
ATOM      1  C1  BNZ d   1      -4.770   4.473  -5.999  0.00  0.00     0.000 A 
ATOM      2  C2  BNZ d   1      -4.438   3.144  -6.000  0.00  0.00     0.000 A 
ATOM      3  C3  BNZ d   1      -3.130   2.750  -5.974  0.00  0.00     0.000 A 
ATOM      4  C4  BNZ d   1      -2.156   3.683  -5.989  0.00  0.00     0.000 A 
ATOM      5  C5  BNZ d   1      -2.475   5.026  -5.998  0.00  0.00     0.000 A 
ATOM      6  C6  BNZ d   1      -3.793   5.420  -5.984  0.00  0.00     0.000 A 
ENDROOT
TORSDOF 0
ENDMDL
