MODEL 1
REMARK minimizedAffinity 3.15116525
REMARK minimizedRMSD -1
REMARK  0 active torsions:
REMARK  status: ('A' for Active; 'I' for Inactive)
ROOT
ATOM      1  C1  BNZ d   1       2.012   2.380   0.678  0.00  0.00     0.000 A 
ATOM      2  C2  BNZ d   1       2.431   1.231   0.063  0.00  0.00     0.000 A 
ATOM      3  C3  BNZ d   1       2.434   1.127  -1.300  0.00  0.00     0.000 A 
ATOM      4  C4  BNZ d   1       1.981   2.156  -2.044  0.00  0.00     0.000 A 
ATOM      5  C5  BNZ d   1       1.545   3.318  -1.439  0.00  0.00     0.000 A 
ATOM      6  C6  BNZ d   1       1.580   3.434  -0.068  0.00  0.00     0.000 A 
ENDROOT
TORSDOF 0
ENDMDL
