MODEL 1
REMARK minimizedAffinity 12.918272
REMARK minimizedRMSD -1
REMARK  0 active torsions:
REMARK  status: ('A' for Active; 'I' for Inactive)
ROOT
ATOM      1  C1  BNZ d   1      -4.349   0.070   3.670  0.00  0.00     0.000 A 
ATOM      2  C2  BNZ d   1      -4.029   1.236   3.027  0.00  0.00     0.000 A 
ATOM      3  C3  BNZ d   1      -3.414   2.258   3.694  0.00  0.00     0.000 A 
ATOM      4  C4  BNZ d   1      -3.158   2.130   5.012  0.00  0.00     0.000 A 
ATOM      5  C5  BNZ d   1      -3.483   0.964   5.677  0.00  0.00     0.000 A 
ATOM      6  C6  BNZ d   1      -4.066  -0.078   4.993  0.00  0.00     0.000 A 
ENDROOT
TORSDOF 0
ENDMDL
