MODEL 1
REMARK minimizedAffinity 5.93363857
REMARK minimizedRMSD -1
REMARK  0 active torsions:
REMARK  status: ('A' for Active; 'I' for Inactive)
ROOT
ATOM      1  C1  BNZ d   1      -3.763   1.145   3.438  0.00  0.00     0.000 A 
ATOM      2  C2  BNZ d   1      -4.218  -0.117   3.712  0.00  0.00     0.000 A 
ATOM      3  C3  BNZ d   1      -4.244  -0.588   4.994  0.00  0.00     0.000 A 
ATOM      4  C4  BNZ d   1      -3.778   0.186   5.995  0.00  0.00     0.000 A 
ATOM      5  C5  BNZ d   1      -3.308   1.458   5.734  0.00  0.00     0.000 A 
ATOM      6  C6  BNZ d   1      -3.319   1.944   4.447  0.00  0.00     0.000 A 
ENDROOT
TORSDOF 0
ENDMDL
