MODEL 1
REMARK minimizedAffinity 11.2000465
REMARK minimizedRMSD -1
REMARK  0 active torsions:
REMARK  status: ('A' for Active; 'I' for Inactive)
ROOT
ATOM      1  C1  BNZ d   1      -0.602  -3.858  -1.683  0.00  0.00     0.000 A 
ATOM      2  C2  BNZ d   1      -0.143  -3.078  -0.655  0.00  0.00     0.000 A 
ATOM      3  C3  BNZ d   1       0.676  -2.011  -0.899  0.00  0.00     0.000 A 
ATOM      4  C4  BNZ d   1       1.067  -1.750  -2.163  0.00  0.00     0.000 A 
ATOM      5  C5  BNZ d   1       0.620  -2.533  -3.208  0.00  0.00     0.000 A 
ATOM      6  C6  BNZ d   1      -0.236  -3.582  -2.964  0.00  0.00     0.000 A 
ENDROOT
TORSDOF 0
ENDMDL
