MODEL 1
REMARK minimizedAffinity 13.3155727
REMARK minimizedRMSD -1
REMARK  0 active torsions:
REMARK  status: ('A' for Active; 'I' for Inactive)
ROOT
ATOM      1  C1  BNZ d   1       2.984  -0.336  -0.343  0.00  0.00     0.000 A 
ATOM      2  C2  BNZ d   1       3.365   0.824  -0.964  0.00  0.00     0.000 A 
ATOM      3  C3  BNZ d   1       2.584   1.389  -1.932  0.00  0.00     0.000 A 
ATOM      4  C4  BNZ d   1       1.443   0.774  -2.306  0.00  0.00     0.000 A 
ATOM      5  C5  BNZ d   1       1.050  -0.401  -1.697  0.00  0.00     0.000 A 
ATOM      6  C6  BNZ d   1       1.820  -0.946  -0.695  0.00  0.00     0.000 A 
ENDROOT
TORSDOF 0
ENDMDL
