MODEL 1
REMARK minimizedAffinity 13.608429
REMARK minimizedRMSD -1
REMARK  0 active torsions:
REMARK  status: ('A' for Active; 'I' for Inactive)
ROOT
ATOM      1  C1  BNZ d   1      -2.638   1.426   2.981  0.00  0.00     0.000 A 
ATOM      2  C2  BNZ d   1      -3.419   1.592   4.093  0.00  0.00     0.000 A 
ATOM      3  C3  BNZ d   1      -2.856   1.700   5.334  0.00  0.00     0.000 A 
ATOM      4  C4  BNZ d   1      -1.517   1.602   5.465  0.00  0.00     0.000 A 
ATOM      5  C5  BNZ d   1      -0.717   1.425   4.355  0.00  0.00     0.000 A 
ATOM      6  C6  BNZ d   1      -1.284   1.356   3.103  0.00  0.00     0.000 A 
ENDROOT
TORSDOF 0
ENDMDL
