MODEL 1
REMARK minimizedAffinity 1.98671949
REMARK minimizedRMSD -1
REMARK  0 active torsions:
REMARK  status: ('A' for Active; 'I' for Inactive)
ROOT
ATOM      1  C1  BNZ d   1      -0.299  -1.916  -0.877  0.00  0.00     0.000 A 
ATOM      2  C2  BNZ d   1       0.040  -1.468   0.371  0.00  0.00     0.000 A 
ATOM      3  C3  BNZ d   1      -0.361  -2.142   1.491  0.00  0.00     0.000 A 
ATOM      4  C4  BNZ d   1      -1.134  -3.240   1.362  0.00  0.00     0.000 A 
ATOM      5  C5  BNZ d   1      -1.492  -3.699   0.110  0.00  0.00     0.000 A 
ATOM      6  C6  BNZ d   1      -1.054  -3.040  -1.015  0.00  0.00     0.000 A 
ENDROOT
TORSDOF 0
ENDMDL
