MODEL 1
REMARK minimizedAffinity 6.83584642
REMARK minimizedRMSD -1
REMARK  0 active torsions:
REMARK  status: ('A' for Active; 'I' for Inactive)
ROOT
ATOM      1  C1  BNZ d   1       1.124   4.863  -1.246  0.00  0.00     0.000 A 
ATOM      2  C2  BNZ d   1       0.933   5.999  -0.506  0.00  0.00     0.000 A 
ATOM      3  C3  BNZ d   1       1.141   5.998   0.845  0.00  0.00     0.000 A 
ATOM      4  C4  BNZ d   1       1.500   4.852   1.459  0.00  0.00     0.000 A 
ATOM      5  C5  BNZ d   1       1.688   3.696   0.728  0.00  0.00     0.000 A 
ATOM      6  C6  BNZ d   1       1.516   3.711  -0.637  0.00  0.00     0.000 A 
ENDROOT
TORSDOF 0
ENDMDL
