MODEL 1
REMARK minimizedAffinity 5.75597048
REMARK minimizedRMSD -1
REMARK  0 active torsions:
REMARK  status: ('A' for Active; 'I' for Inactive)
ROOT
ATOM      1  C1  BNZ d   1       0.134   2.383   6.000  0.00  0.00     0.000 A 
ATOM      2  C2  BNZ d   1       1.181   1.501   6.000  0.00  0.00     0.000 A 
ATOM      3  C3  BNZ d   1       1.744   1.083   4.827  0.00  0.00     0.000 A 
ATOM      4  C4  BNZ d   1       1.234   1.515   3.655  0.00  0.00     0.000 A 
ATOM      5  C5  BNZ d   1       0.172   2.398   3.639  0.00  0.00     0.000 A 
ATOM      6  C6  BNZ d   1      -0.367   2.847   4.822  0.00  0.00     0.000 A 
ENDROOT
TORSDOF 0
ENDMDL
