MODEL 1
REMARK minimizedAffinity -3.20482159
REMARK minimizedRMSD -1
REMARK  0 active torsions:
REMARK  status: ('A' for Active; 'I' for Inactive)
ROOT
ATOM      1  C1  BNZ d   1       2.063   0.030  -1.584  0.00  0.00     0.000 A 
ATOM      2  C2  BNZ d   1       1.127  -0.874  -1.156  0.00  0.00     0.000 A 
ATOM      3  C3  BNZ d   1       0.324  -0.596  -0.086  0.00  0.00     0.000 A 
ATOM      4  C4  BNZ d   1       0.484   0.567   0.579  0.00  0.00     0.000 A 
ATOM      5  C5  BNZ d   1       1.430   1.484   0.166  0.00  0.00     0.000 A 
ATOM      6  C6  BNZ d   1       2.210   1.217  -0.936  0.00  0.00     0.000 A 
ENDROOT
TORSDOF 0
ENDMDL
