MODEL 1
REMARK minimizedAffinity -1.93819809
REMARK minimizedRMSD -1
REMARK  0 active torsions:
REMARK  status: ('A' for Active; 'I' for Inactive)
ROOT
ATOM      1  C1  BNZ d   1      -0.060   0.129   1.085  0.00  0.00     0.000 A 
ATOM      2  C2  BNZ d   1      -0.251  -1.185   0.749  0.00  0.00     0.000 A 
ATOM      3  C3  BNZ d   1       0.201  -1.675  -0.444  0.00  0.00     0.000 A 
ATOM      4  C4  BNZ d   1       0.806  -0.843  -1.316  0.00  0.00     0.000 A 
ATOM      5  C5  BNZ d   1       0.998   0.486  -0.996  0.00  0.00     0.000 A 
ATOM      6  C6  BNZ d   1       0.576   0.967   0.222  0.00  0.00     0.000 A 
ENDROOT
TORSDOF 0
ENDMDL
