MODEL 1
REMARK minimizedAffinity -3.70428157
REMARK minimizedRMSD -1
REMARK  0 active torsions:
REMARK  status: ('A' for Active; 'I' for Inactive)
ROOT
ATOM      1  C1  BNZ d   1      -0.810  -1.123  -0.146  0.00  0.00     0.000 A 
ATOM      2  C2  BNZ d   1      -1.987  -1.351  -0.807  0.00  0.00     0.000 A 
ATOM      3  C3  BNZ d   1      -3.103  -1.756  -0.131  0.00  0.00     0.000 A 
ATOM      4  C4  BNZ d   1      -3.032  -1.971   1.199  0.00  0.00     0.000 A 
ATOM      5  C5  BNZ d   1      -1.850  -1.754   1.879  0.00  0.00     0.000 A 
ATOM      6  C6  BNZ d   1      -0.738  -1.310   1.201  0.00  0.00     0.000 A 
ENDROOT
TORSDOF 0
ENDMDL
