MODEL 1
REMARK minimizedAffinity -4.11423016
REMARK minimizedRMSD -1
REMARK  0 active torsions:
REMARK  status: ('A' for Active; 'I' for Inactive)
ROOT
ATOM      1  C1  BNZ d   1       0.628  -1.873  -2.171  0.00  0.00     0.000 A 
ATOM      2  C2  BNZ d   1       0.601  -0.791  -3.010  0.00  0.00     0.000 A 
ATOM      3  C3  BNZ d   1       1.691  -0.467  -3.769  0.00  0.00     0.000 A 
ATOM      4  C4  BNZ d   1       2.817  -1.201  -3.659  0.00  0.00     0.000 A 
ATOM      5  C5  BNZ d   1       2.863  -2.289  -2.811  0.00  0.00     0.000 A 
ATOM      6  C6  BNZ d   1       1.751  -2.635  -2.077  0.00  0.00     0.000 A 
ENDROOT
TORSDOF 0
ENDMDL
