MODEL 1
REMARK minimizedAffinity -5.39514065
REMARK minimizedRMSD -1
REMARK  0 active torsions:
REMARK  status: ('A' for Active; 'I' for Inactive)
ROOT
ATOM      1  C1  BNZ d   1       0.835  -2.060  -1.019  0.00  0.00     0.000 A 
ATOM      2  C2  BNZ d   1       0.121  -0.910  -1.225  0.00  0.00     0.000 A 
ATOM      3  C3  BNZ d   1       0.458  -0.047  -2.231  0.00  0.00     0.000 A 
ATOM      4  C4  BNZ d   1       1.532  -0.315  -3.001  0.00  0.00     0.000 A 
ATOM      5  C5  BNZ d   1       2.268  -1.465  -2.800  0.00  0.00     0.000 A 
ATOM      6  C6  BNZ d   1       1.902  -2.351  -1.812  0.00  0.00     0.000 A 
ENDROOT
TORSDOF 0
ENDMDL
