MODEL 1
REMARK minimizedAffinity -1.4431076
REMARK minimizedRMSD -1
REMARK  1 active torsions:
REMARK  status: ('A' for Active; 'I' for Inactive)
REMARK    1  A    between atoms: C1_2  and  C2_3 
ROOT
ATOM      1  C2  UNL d   1       0.393   1.662  -0.498  0.00  0.00    -0.073 A 
ATOM      2  C3  UNL d   1      -0.023   0.638  -1.357  0.00  0.00    -0.002 A 
ATOM      3  C4  UNL d   1       0.425  -0.669  -1.165  0.00  0.00     0.004 A 
ATOM      4  C5  UNL d   1       1.286  -0.968  -0.109  0.00  0.00    -0.004 A 
ATOM      5  C6  UNL d   1       1.703   0.039   0.767  0.00  0.00    -0.075 A 
ATOM      6  C7  UNL d   1       2.631  -0.266   1.907  0.00  0.00     0.076 C 
ATOM      7  C8  UNL d   1       1.252   1.350   0.566  0.00  0.00     0.001 A 
ENDROOT
BRANCH   1   8
ATOM      8  C1  UNL d   1      -0.093   3.074  -0.698  0.00  0.00     0.053 C 
ATOM      9  C   UNL d   1      -0.121   3.464  -2.167  0.00  0.00     0.018 C 
ENDBRANCH   1   8
TORSDOF 1
ENDMDL
