MODEL 1
REMARK minimizedAffinity -3.90495324
REMARK minimizedRMSD -1
REMARK  1 active torsions:
REMARK  status: ('A' for Active; 'I' for Inactive)
REMARK    1  A    between atoms: C1_2  and  C2_3 
ROOT
ATOM      1  C2  UNL d   1       0.195   2.032  -0.492  0.00  0.00    -0.073 A 
ATOM      2  C3  UNL d   1       1.189   3.012  -0.590  0.00  0.00    -0.002 A 
ATOM      3  C4  UNL d   1       1.056   4.062  -1.500  0.00  0.00     0.004 A 
ATOM      4  C5  UNL d   1      -0.074   4.147  -2.314  0.00  0.00    -0.004 A 
ATOM      5  C6  UNL d   1      -1.084   3.184  -2.221  0.00  0.00    -0.075 A 
ATOM      6  C7  UNL d   1      -2.304   3.260  -3.091  0.00  0.00     0.076 C 
ATOM      7  C8  UNL d   1      -0.941   2.131  -1.307  0.00  0.00     0.001 A 
ENDROOT
BRANCH   1   8
ATOM      8  C1  UNL d   1       0.332   0.900   0.494  0.00  0.00     0.053 C 
ATOM      9  C   UNL d   1       1.367  -0.120   0.049  0.00  0.00     0.018 C 
ENDBRANCH   1   8
TORSDOF 1
ENDMDL
