MODEL 1
REMARK minimizedAffinity 0.7322734
REMARK minimizedRMSD -1
REMARK  1 active torsions:
REMARK  status: ('A' for Active; 'I' for Inactive)
REMARK    1  A    between atoms: C1_2  and  C2_3 
ROOT
ATOM      1  C2  UNL d   1      -0.993   1.519  -1.597  0.00  0.00    -0.073 A 
ATOM      2  C3  UNL d   1       0.165   2.095  -2.133  0.00  0.00    -0.002 A 
ATOM      3  C4  UNL d   1       0.073   3.185  -3.000  0.00  0.00     0.004 A 
ATOM      4  C5  UNL d   1      -1.174   3.713  -3.335  0.00  0.00    -0.004 A 
ATOM      5  C6  UNL d   1      -2.341   3.158  -2.800  0.00  0.00    -0.075 A 
ATOM      6  C7  UNL d   1      -3.690   3.713  -3.152  0.00  0.00     0.076 C 
ATOM      7  C8  UNL d   1      -2.241   2.063  -1.932  0.00  0.00     0.001 A 
ENDROOT
BRANCH   1   8
ATOM      8  C1  UNL d   1      -0.898   0.347  -0.655  0.00  0.00     0.053 C 
ATOM      9  C   UNL d   1       0.319   0.441   0.252  0.00  0.00     0.018 C 
ENDBRANCH   1   8
TORSDOF 1
ENDMDL
