MODEL 1
REMARK minimizedAffinity -0.147981524
REMARK minimizedRMSD -1
REMARK  1 active torsions:
REMARK  status: ('A' for Active; 'I' for Inactive)
REMARK    1  A    between atoms: C1_2  and  C2_3 
ROOT
ATOM      1  C2  UNL d   1      -1.582   3.291  -3.394  0.00  0.00    -0.073 A 
ATOM      2  C3  UNL d   1      -2.845   3.882  -3.275  0.00  0.00    -0.002 A 
ATOM      3  C4  UNL d   1      -3.920   3.152  -2.767  0.00  0.00     0.004 A 
ATOM      4  C5  UNL d   1      -3.742   1.828  -2.365  0.00  0.00    -0.004 A 
ATOM      5  C6  UNL d   1      -2.485   1.224  -2.465  0.00  0.00    -0.075 A 
ATOM      6  C7  UNL d   1      -2.278  -0.201  -2.041  0.00  0.00     0.076 C 
ATOM      7  C8  UNL d   1      -1.411   1.962  -2.980  0.00  0.00     0.001 A 
ENDROOT
BRANCH   1   8
ATOM      8  C1  UNL d   1      -0.417   4.077  -3.937  0.00  0.00     0.053 C 
ATOM      9  C   UNL d   1       0.917   3.440  -3.580  0.00  0.00     0.018 C 
ENDBRANCH   1   8
TORSDOF 1
ENDMDL
