MODEL 1
REMARK minimizedAffinity -1.15390122
REMARK minimizedRMSD -1
REMARK  1 active torsions:
REMARK  status: ('A' for Active; 'I' for Inactive)
REMARK    1  A    between atoms: C1_2  and  C2_3 
ROOT
ATOM      1  C2  UNL d   1      -0.145   1.051  -0.771  0.00  0.00    -0.073 A 
ATOM      2  C3  UNL d   1       0.199   1.792   0.365  0.00  0.00    -0.002 A 
ATOM      3  C4  UNL d   1       0.237   3.186   0.312  0.00  0.00     0.004 A 
ATOM      4  C5  UNL d   1      -0.075   3.852  -0.873  0.00  0.00    -0.004 A 
ATOM      5  C6  UNL d   1      -0.432   3.129  -2.016  0.00  0.00    -0.075 A 
ATOM      6  C7  UNL d   1      -0.768   3.830  -3.299  0.00  0.00     0.076 C 
ATOM      7  C8  UNL d   1      -0.465   1.729  -1.955  0.00  0.00     0.001 A 
ENDROOT
BRANCH   1   8
ATOM      8  C1  UNL d   1      -0.193  -0.454  -0.716  0.00  0.00     0.053 C 
ATOM      9  C   UNL d   1       0.868  -1.026   0.210  0.00  0.00     0.018 C 
ENDBRANCH   1   8
TORSDOF 1
ENDMDL
