MODEL 1
REMARK minimizedAffinity -5.81448221
REMARK minimizedRMSD -1
REMARK  1 active torsions:
REMARK  status: ('A' for Active; 'I' for Inactive)
REMARK    1  A    between atoms: C1_2  and  C2_3 
ROOT
ATOM      1  C2  UNL d   1      -0.751  -0.146  -0.363  0.00  0.00    -0.073 A 
ATOM      2  C3  UNL d   1      -0.842   0.461  -1.621  0.00  0.00    -0.002 A 
ATOM      3  C4  UNL d   1      -1.997   0.316  -2.391  0.00  0.00     0.004 A 
ATOM      4  C5  UNL d   1      -3.072  -0.431  -1.910  0.00  0.00    -0.004 A 
ATOM      5  C6  UNL d   1      -3.004  -1.035  -0.651  0.00  0.00    -0.075 A 
ATOM      6  C7  UNL d   1      -4.152  -1.843  -0.120  0.00  0.00     0.076 C 
ATOM      7  C8  UNL d   1      -1.841  -0.887   0.115  0.00  0.00     0.001 A 
ENDROOT
BRANCH   1   8
ATOM      8  C1  UNL d   1       0.491   0.014   0.475  0.00  0.00     0.053 C 
ATOM      9  C   UNL d   1       0.347   1.126   1.501  0.00  0.00     0.018 C 
ENDBRANCH   1   8
TORSDOF 1
ENDMDL
