MODEL 1
REMARK minimizedAffinity -1.82843232
REMARK minimizedRMSD -1
REMARK  1 active torsions:
REMARK  status: ('A' for Active; 'I' for Inactive)
REMARK    1  A    between atoms: C1_2  and  C2_3 
ROOT
ATOM      1  C2  UNL d   1       0.028  -1.129   2.137  0.00  0.00    -0.073 A 
ATOM      2  C3  UNL d   1       1.420  -0.999   2.203  0.00  0.00    -0.002 A 
ATOM      3  C4  UNL d   1       2.104  -0.253   1.243  0.00  0.00     0.004 A 
ATOM      4  C5  UNL d   1       1.405   0.377   0.214  0.00  0.00    -0.004 A 
ATOM      5  C6  UNL d   1       0.013   0.269   0.138  0.00  0.00    -0.075 A 
ATOM      6  C7  UNL d   1      -0.754   0.939  -0.964  0.00  0.00     0.076 C 
ATOM      7  C8  UNL d   1      -0.667  -0.485   1.104  0.00  0.00     0.001 A 
ENDROOT
BRANCH   1   8
ATOM      8  C1  UNL d   1      -0.716  -1.929   3.175  0.00  0.00     0.053 C 
ATOM      9  C   UNL d   1      -0.400  -3.413   3.085  0.00  0.00     0.018 C 
ENDBRANCH   1   8
TORSDOF 1
ENDMDL
