MODEL 1
REMARK minimizedAffinity -4.13814449
REMARK minimizedRMSD -1
REMARK  0 active torsions:
REMARK  status: ('A' for Active; 'I' for Inactive)
ROOT
ATOM      1  C   UNL d   1       3.368  -0.450  -1.175  0.00  0.00    -0.002 A 
ATOM      2  C1  UNL d   1       2.764  -0.107  -2.376  0.00  0.00     0.010 A 
ATOM      3  C2  UNL d   1       1.446   0.354  -2.402  0.00  0.00     0.041 A 
ATOM      4  C3  UNL d   1       0.740   0.467  -1.188  0.00  0.00    -0.075 A 
ATOM      5  S   UNL d   1      -0.883   1.009  -0.977  0.00  0.00     0.015 SA
ATOM      6  C4  UNL d   1      -0.812   0.799   0.713  0.00  0.00     0.022 A 
ATOM      7  C5  UNL d   1       0.412   0.327   1.123  0.00  0.00     0.026 A 
ATOM      8  C6  UNL d   1       1.327   0.128   0.034  0.00  0.00    -0.082 A 
ATOM      9  C7  UNL d   1       2.664  -0.337   0.027  0.00  0.00     0.045 A 
ENDROOT
TORSDOF 0
ENDMDL
