MODEL 1
REMARK minimizedAffinity -0.358309776
REMARK minimizedRMSD -1
REMARK  0 active torsions:
REMARK  status: ('A' for Active; 'I' for Inactive)
ROOT
ATOM      1  C   UNL d   1       1.655  -1.423  -0.941  0.00  0.00    -0.002 A 
ATOM      2  C1  UNL d   1       0.608  -2.334  -0.910  0.00  0.00     0.010 A 
ATOM      3  C2  UNL d   1      -0.573  -2.035  -0.228  0.00  0.00     0.041 A 
ATOM      4  C3  UNL d   1      -0.686  -0.793   0.427  0.00  0.00    -0.075 A 
ATOM      5  S   UNL d   1      -2.039  -0.210   1.323  0.00  0.00     0.015 SA
ATOM      6  C4  UNL d   1      -1.259   1.262   1.684  0.00  0.00     0.022 A 
ATOM      7  C5  UNL d   1       0.003   1.324   1.142  0.00  0.00     0.026 A 
ATOM      8  C6  UNL d   1       0.354   0.141   0.408  0.00  0.00    -0.082 A 
ATOM      9  C7  UNL d   1       1.539  -0.192  -0.291  0.00  0.00     0.045 A 
ENDROOT
TORSDOF 0
ENDMDL
