MODEL 1
REMARK minimizedAffinity -0.354578167
REMARK minimizedRMSD -1
REMARK  0 active torsions:
REMARK  status: ('A' for Active; 'I' for Inactive)
ROOT
ATOM      1  C   UNL d   1       3.136  -0.881  -0.850  0.00  0.00    -0.002 A 
ATOM      2  C1  UNL d   1       3.140   0.366  -0.241  0.00  0.00     0.010 A 
ATOM      3  C2  UNL d   1       1.948   0.944   0.200  0.00  0.00     0.041 A 
ATOM      4  C3  UNL d   1       0.741   0.240   0.020  0.00  0.00    -0.075 A 
ATOM      5  S   UNL d   1      -0.839   0.751   0.482  0.00  0.00     0.015 SA
ATOM      6  C4  UNL d   1      -1.556  -0.674  -0.117  0.00  0.00     0.022 A 
ATOM      7  C5  UNL d   1      -0.628  -1.530  -0.660  0.00  0.00     0.026 A 
ATOM      8  C6  UNL d   1       0.712  -1.017  -0.590  0.00  0.00    -0.082 A 
ATOM      9  C7  UNL d   1       1.937  -1.576  -1.028  0.00  0.00     0.045 A 
ENDROOT
TORSDOF 0
ENDMDL
