MODEL 1
REMARK minimizedAffinity 0.866649151
REMARK minimizedRMSD -1
REMARK  0 active torsions:
REMARK  status: ('A' for Active; 'I' for Inactive)
ROOT
ATOM      1  C   UNL d   1       2.124  -1.515  -1.852  0.00  0.00    -0.002 A 
ATOM      2  C1  UNL d   1       2.959  -0.531  -1.342  0.00  0.00     0.010 A 
ATOM      3  C2  UNL d   1       2.473   0.415  -0.437  0.00  0.00     0.041 A 
ATOM      4  C3  UNL d   1       1.121   0.352  -0.046  0.00  0.00    -0.075 A 
ATOM      5  S   UNL d   1       0.307   1.403   1.051  0.00  0.00     0.015 SA
ATOM      6  C4  UNL d   1      -1.169   0.569   0.871  0.00  0.00     0.022 A 
ATOM      7  C5  UNL d   1      -1.061  -0.487  -0.002  0.00  0.00     0.026 A 
ATOM      8  C6  UNL d   1       0.261  -0.631  -0.544  0.00  0.00    -0.082 A 
ATOM      9  C7  UNL d   1       0.783  -1.574  -1.462  0.00  0.00     0.045 A 
ENDROOT
TORSDOF 0
ENDMDL
