MODEL 1
REMARK minimizedAffinity -1.73767185
REMARK minimizedRMSD -1
REMARK  0 active torsions:
REMARK  status: ('A' for Active; 'I' for Inactive)
ROOT
ATOM      1  C   UNL d   1       3.033  -0.898  -1.361  0.00  0.00    -0.002 A 
ATOM      2  C1  UNL d   1       3.402  -0.087  -0.297  0.00  0.00     0.010 A 
ATOM      3  C2  UNL d   1       2.431   0.500   0.517  0.00  0.00     0.041 A 
ATOM      4  C3  UNL d   1       1.071   0.254   0.242  0.00  0.00    -0.075 A 
ATOM      5  S   UNL d   1      -0.290   0.866   1.105  0.00  0.00     0.015 SA
ATOM      6  C4  UNL d   1      -1.393   0.064   0.082  0.00  0.00     0.022 A 
ATOM      7  C5  UNL d   1      -0.755  -0.657  -0.899  0.00  0.00     0.026 A 
ATOM      8  C6  UNL d   1       0.676  -0.560  -0.823  0.00  0.00    -0.082 A 
ATOM      9  C7  UNL d   1       1.683  -1.140  -1.630  0.00  0.00     0.045 A 
ENDROOT
TORSDOF 0
ENDMDL
