MODEL 1
REMARK minimizedAffinity 3.96199393
REMARK minimizedRMSD -1
REMARK  0 active torsions:
REMARK  status: ('A' for Active; 'I' for Inactive)
ROOT
ATOM      1  C   UNL d   1      -1.514   0.654   1.294  0.00  0.00    -0.002 A 
ATOM      2  C1  UNL d   1      -1.876  -0.448   0.533  0.00  0.00     0.010 A 
ATOM      3  C2  UNL d   1      -1.008  -0.961  -0.432  0.00  0.00     0.041 A 
ATOM      4  C3  UNL d   1       0.244  -0.342  -0.621  0.00  0.00    -0.075 A 
ATOM      5  S   UNL d   1       1.470  -0.798  -1.745  0.00  0.00     0.015 SA
ATOM      6  C4  UNL d   1       2.503   0.460  -1.241  0.00  0.00     0.022 A 
ATOM      7  C5  UNL d   1       1.943   1.219  -0.241  0.00  0.00     0.026 A 
ATOM      8  C6  UNL d   1       0.631   0.769   0.133  0.00  0.00    -0.082 A 
ATOM      9  C7  UNL d   1      -0.272   1.266   1.104  0.00  0.00     0.045 A 
ENDROOT
TORSDOF 0
ENDMDL
