MODEL 1
REMARK minimizedAffinity -3.3383019
REMARK minimizedRMSD -1
REMARK  0 active torsions:
REMARK  status: ('A' for Active; 'I' for Inactive)
ROOT
ATOM      1  C   UNL d   1       2.657  -0.588  -0.247  0.00  0.00    -0.002 A 
ATOM      2  C1  UNL d   1       1.848  -0.968  -1.308  0.00  0.00     0.010 A 
ATOM      3  C2  UNL d   1       0.472  -0.734  -1.271  0.00  0.00     0.041 A 
ATOM      4  C3  UNL d   1      -0.082  -0.105  -0.139  0.00  0.00    -0.075 A 
ATOM      5  S   UNL d   1      -1.741   0.284   0.127  0.00  0.00     0.015 SA
ATOM      6  C4  UNL d   1      -1.414   0.964   1.655  0.00  0.00     0.022 A 
ATOM      7  C5  UNL d   1      -0.077   0.904   1.971  0.00  0.00     0.026 A 
ATOM      8  C6  UNL d   1       0.712   0.288   0.942  0.00  0.00    -0.082 A 
ATOM      9  C7  UNL d   1       2.104   0.036   0.874  0.00  0.00     0.045 A 
ENDROOT
TORSDOF 0
ENDMDL
