MODEL 1
REMARK minimizedAffinity -3.58434081
REMARK minimizedRMSD -1
REMARK  0 active torsions:
REMARK  status: ('A' for Active; 'I' for Inactive)
ROOT
ATOM      1  C   UNL d   1       2.677   0.525  -2.408  0.00  0.00    -0.002 A 
ATOM      2  C1  UNL d   1       2.435  -0.780  -2.812  0.00  0.00     0.010 A 
ATOM      3  C2  UNL d   1       1.445  -1.544  -2.190  0.00  0.00     0.041 A 
ATOM      4  C3  UNL d   1       0.695  -0.967  -1.146  0.00  0.00    -0.075 A 
ATOM      5  S   UNL d   1      -0.568  -1.712  -0.239  0.00  0.00     0.015 SA
ATOM      6  C4  UNL d   1      -0.816  -0.315   0.705  0.00  0.00     0.022 A 
ATOM      7  C5  UNL d   1       0.036   0.704   0.351  0.00  0.00     0.026 A 
ATOM      8  C6  UNL d   1       0.920   0.346  -0.722  0.00  0.00    -0.082 A 
ATOM      9  C7  UNL d   1       1.931   1.094  -1.372  0.00  0.00     0.045 A 
ENDROOT
TORSDOF 0
ENDMDL
