MODEL 1
REMARK minimizedAffinity -3.21278906
REMARK minimizedRMSD -1
REMARK  0 active torsions:
REMARK  status: ('A' for Active; 'I' for Inactive)
ROOT
ATOM      1  C   UNL d   1       1.524  -2.011  -1.637  0.00  0.00    -0.002 A 
ATOM      2  C1  UNL d   1       2.360  -0.904  -1.645  0.00  0.00     0.010 A 
ATOM      3  C2  UNL d   1       2.115   0.177  -0.797  0.00  0.00     0.041 A 
ATOM      4  C3  UNL d   1       1.006   0.126   0.070  0.00  0.00    -0.075 A 
ATOM      5  S   UNL d   1       0.511   1.332   1.197  0.00  0.00     0.015 SA
ATOM      6  C4  UNL d   1      -0.822   0.405   1.717  0.00  0.00     0.022 A 
ATOM      7  C5  UNL d   1      -0.903  -0.798   1.057  0.00  0.00     0.026 A 
ATOM      8  C6  UNL d   1       0.150  -0.979   0.097  0.00  0.00    -0.082 A 
ATOM      9  C7  UNL d   1       0.425  -2.059  -0.776  0.00  0.00     0.045 A 
ENDROOT
TORSDOF 0
ENDMDL
