MODEL 1
REMARK minimizedAffinity -3.34787154
REMARK minimizedRMSD -1
REMARK  0 active torsions:
REMARK  status: ('A' for Active; 'I' for Inactive)
ROOT
ATOM      1  C   UNL d   1       3.230   1.003  -1.902  0.00  0.00    -0.002 A 
ATOM      2  C1  UNL d   1       2.245   1.962  -1.709  0.00  0.00     0.010 A 
ATOM      3  C2  UNL d   1       0.977   1.596  -1.254  0.00  0.00     0.041 A 
ATOM      4  C3  UNL d   1       0.713   0.238  -0.993  0.00  0.00    -0.075 A 
ATOM      5  S   UNL d   1      -0.767  -0.444  -0.428  0.00  0.00     0.015 SA
ATOM      6  C4  UNL d   1      -0.127  -2.023  -0.429  0.00  0.00     0.022 A 
ATOM      7  C5  UNL d   1       1.182  -2.049  -0.847  0.00  0.00     0.026 A 
ATOM      8  C6  UNL d   1       1.688  -0.746  -1.178  0.00  0.00    -0.082 A 
ATOM      9  C7  UNL d   1       2.964  -0.343  -1.641  0.00  0.00     0.045 A 
ENDROOT
TORSDOF 0
ENDMDL
