MODEL 1
REMARK minimizedAffinity 9.48858452
REMARK minimizedRMSD -1
REMARK  1 active torsions:
REMARK  status: ('A' for Active; 'I' for Inactive)
REMARK    1  A    between atoms: C1_2  and  C2_3 
ROOT
ATOM      1  C2  UNL d   1      -4.002   2.223  -1.198  0.00  0.00    -0.081 A 
ATOM      2  C3  UNL d   1      -5.341   2.619  -1.097  0.00  0.00     0.006 A 
ATOM      3  C4  UNL d   1      -5.815   3.224   0.069  0.00  0.00     0.002 A 
ATOM      4  C5  UNL d   1      -4.956   3.450   1.151  0.00  0.00    -0.080 A 
ATOM      5  C6  UNL d   1      -5.445   4.125   2.398  0.00  0.00     0.076 C 
ATOM      6  C7  UNL d   1      -3.623   3.038   1.057  0.00  0.00     0.002 A 
ATOM      7  C8  UNL d   1      -3.149   2.432  -0.109  0.00  0.00     0.006 A 
ENDROOT
BRANCH   1   8
ATOM      8  C1  UNL d   1      -3.473   1.629  -2.478  0.00  0.00     0.054 C 
ATOM      9  C   UNL d   1      -2.493   0.497  -2.200  0.00  0.00     0.018 C 
ENDBRANCH   1   8
TORSDOF 1
ENDMDL
