MODEL 1
REMARK minimizedAffinity 0.779137969
REMARK minimizedRMSD -1
REMARK  1 active torsions:
REMARK  status: ('A' for Active; 'I' for Inactive)
REMARK    1  A    between atoms: C1_2  and  C2_3 
ROOT
ATOM      1  C2  UNL d   1       3.214  -5.939  -4.271  0.00  0.00    -0.081 A 
ATOM      2  C3  UNL d   1       2.175  -5.990  -3.333  0.00  0.00     0.006 A 
ATOM      3  C4  UNL d   1       2.457  -6.000  -1.965  0.00  0.00     0.002 A 
ATOM      4  C5  UNL d   1       3.780  -5.952  -1.512  0.00  0.00    -0.080 A 
ATOM      5  C6  UNL d   1       4.094  -5.931  -0.046  0.00  0.00     0.076 C 
ATOM      6  C7  UNL d   1       4.818  -5.919  -2.449  0.00  0.00     0.002 A 
ATOM      7  C8  UNL d   1       4.537  -5.910  -3.818  0.00  0.00     0.006 A 
ENDROOT
BRANCH   1   8
ATOM      8  C1  UNL d   1       2.911  -5.863  -5.746  0.00  0.00     0.054 C 
ATOM      9  C   UNL d   1       1.546  -5.240  -5.999  0.00  0.00     0.018 C 
ENDBRANCH   1   8
TORSDOF 1
ENDMDL
