MODEL 1
REMARK minimizedAffinity 7.77959633
REMARK minimizedRMSD -1
REMARK  1 active torsions:
REMARK  status: ('A' for Active; 'I' for Inactive)
REMARK    1  A    between atoms: C1_2  and  C2_3 
ROOT
ATOM      1  C2  UNL d   1       2.259  -4.507   4.699  0.00  0.00    -0.081 A 
ATOM      2  C3  UNL d   1       3.452  -3.777   4.616  0.00  0.00     0.006 A 
ATOM      3  C4  UNL d   1       3.541  -2.660   3.783  0.00  0.00     0.002 A 
ATOM      4  C5  UNL d   1       2.439  -2.249   3.026  0.00  0.00    -0.080 A 
ATOM      5  C6  UNL d   1       2.513  -1.033   2.150  0.00  0.00     0.076 C 
ATOM      6  C7  UNL d   1       1.253  -2.987   3.096  0.00  0.00     0.002 A 
ATOM      7  C8  UNL d   1       1.163  -4.105   3.928  0.00  0.00     0.006 A 
ENDROOT
BRANCH   1   8
ATOM      8  C1  UNL d   1       2.139  -5.674   5.646  0.00  0.00     0.054 C 
ATOM      9  C   UNL d   1       0.685  -5.953   5.998  0.00  0.00     0.018 C 
ENDBRANCH   1   8
TORSDOF 1
ENDMDL
