MODEL 1
REMARK minimizedAffinity 2.8461659
REMARK minimizedRMSD -1
REMARK  1 active torsions:
REMARK  status: ('A' for Active; 'I' for Inactive)
REMARK    1  A    between atoms: C1_2  and  C2_3 
ROOT
ATOM      1  C2  UNL d   1       1.495  -4.224   4.938  0.00  0.00    -0.081 A 
ATOM      2  C3  UNL d   1       2.241  -4.487   3.783  0.00  0.00     0.006 A 
ATOM      3  C4  UNL d   1       2.450  -3.485   2.831  0.00  0.00     0.002 A 
ATOM      4  C5  UNL d   1       1.923  -2.204   3.023  0.00  0.00    -0.080 A 
ATOM      5  C6  UNL d   1       2.165  -1.111   2.024  0.00  0.00     0.076 C 
ATOM      6  C7  UNL d   1       1.163  -1.946   4.169  0.00  0.00     0.002 A 
ATOM      7  C8  UNL d   1       0.954  -2.946   5.120  0.00  0.00     0.006 A 
ENDROOT
BRANCH   1   8
ATOM      8  C1  UNL d   1       1.323  -5.283   5.997  0.00  0.00     0.054 C 
ATOM      9  C   UNL d   1      -0.094  -5.838   5.999  0.00  0.00     0.018 C 
ENDBRANCH   1   8
TORSDOF 1
ENDMDL
