MODEL 1
REMARK minimizedAffinity 0.76188159
REMARK minimizedRMSD -1
REMARK  1 active torsions:
REMARK  status: ('A' for Active; 'I' for Inactive)
REMARK    1  A    between atoms: C1_2  and  C2_3 
ROOT
ATOM      1  C2  UNL d   1       1.494  -4.226   4.904  0.00  0.00    -0.081 A 
ATOM      2  C3  UNL d   1       2.231  -4.493   3.743  0.00  0.00     0.006 A 
ATOM      3  C4  UNL d   1       2.591  -3.456   2.879  0.00  0.00     0.002 A 
ATOM      4  C5  UNL d   1       2.228  -2.135   3.165  0.00  0.00    -0.080 A 
ATOM      5  C6  UNL d   1       2.634  -1.009   2.262  0.00  0.00     0.076 C 
ATOM      6  C7  UNL d   1       1.477  -1.871   4.316  0.00  0.00     0.002 A 
ATOM      7  C8  UNL d   1       1.116  -2.908   5.180  0.00  0.00     0.006 A 
ENDROOT
BRANCH   1   8
ATOM      8  C1  UNL d   1       1.160  -5.334   5.870  0.00  0.00     0.054 C 
ATOM      9  C   UNL d   1      -0.345  -5.520   6.000  0.00  0.00     0.018 C 
ENDBRANCH   1   8
TORSDOF 1
ENDMDL
