MODEL 1
REMARK minimizedAffinity -5.56286812
REMARK minimizedRMSD -1
REMARK  0 active torsions:
REMARK  status: ('A' for Active; 'I' for Inactive)
ROOT
ATOM      1  C   UNL d   1      -1.131   0.340   0.086  0.00  0.00     0.078 C 
ATOM      2  C1  UNL d   1       0.164  -0.415   0.093  0.00  0.00    -0.077 A 
ATOM      3  C2  UNL d   1       1.166  -0.122   1.026  0.00  0.00    -0.001 A 
ATOM      4  C3  UNL d   1       2.371  -0.826   1.014  0.00  0.00     0.003 A 
ATOM      5  C4  UNL d   1       2.586  -1.827   0.070  0.00  0.00    -0.005 A 
ATOM      6  C5  UNL d   1       1.597  -2.125  -0.865  0.00  0.00     0.003 A 
ATOM      7  C6  UNL d   1       0.391  -1.422  -0.855  0.00  0.00    -0.001 A 
ENDROOT
TORSDOF 0
ENDMDL
