MODEL 1
REMARK minimizedAffinity -1.65702033
REMARK minimizedRMSD -1
REMARK  0 active torsions:
REMARK  status: ('A' for Active; 'I' for Inactive)
ROOT
ATOM      1  C   UNL d   1      -1.497   2.196  -0.719  0.00  0.00     0.078 C 
ATOM      2  C1  UNL d   1      -2.597   1.430  -0.046  0.00  0.00    -0.077 A 
ATOM      3  C2  UNL d   1      -2.641   1.306   1.348  0.00  0.00    -0.001 A 
ATOM      4  C3  UNL d   1      -3.665   0.582   1.960  0.00  0.00     0.003 A 
ATOM      5  C4  UNL d   1      -4.652  -0.025   1.186  0.00  0.00    -0.005 A 
ATOM      6  C5  UNL d   1      -4.615   0.090  -0.202  0.00  0.00     0.003 A 
ATOM      7  C6  UNL d   1      -3.592   0.814  -0.816  0.00  0.00    -0.001 A 
ENDROOT
TORSDOF 0
ENDMDL
