MODEL 1
REMARK minimizedAffinity -5.11553097
REMARK minimizedRMSD -1
REMARK  0 active torsions:
REMARK  status: ('A' for Active; 'I' for Inactive)
ROOT
ATOM      1  C   UNL d   1       3.060  -2.336  -2.485  0.00  0.00     0.078 C 
ATOM      2  C1  UNL d   1       2.505  -1.629  -1.284  0.00  0.00    -0.077 A 
ATOM      3  C2  UNL d   1       1.135  -1.359  -1.176  0.00  0.00    -0.001 A 
ATOM      4  C3  UNL d   1       0.634  -0.691  -0.058  0.00  0.00     0.003 A 
ATOM      5  C4  UNL d   1       1.495  -0.287   0.960  0.00  0.00    -0.005 A 
ATOM      6  C5  UNL d   1       2.860  -0.550   0.861  0.00  0.00     0.003 A 
ATOM      7  C6  UNL d   1       3.363  -1.218  -0.257  0.00  0.00    -0.001 A 
ENDROOT
TORSDOF 0
ENDMDL
