MODEL 1
REMARK minimizedAffinity -4.51026249
REMARK minimizedRMSD -1
REMARK  0 active torsions:
REMARK  status: ('A' for Active; 'I' for Inactive)
ROOT
ATOM      1  C   UNL d   1      -2.062   1.012  -0.241  0.00  0.00     0.078 C 
ATOM      2  C1  UNL d   1      -0.954   0.003  -0.300  0.00  0.00    -0.077 A 
ATOM      3  C2  UNL d   1      -1.019  -1.089  -1.173  0.00  0.00    -0.001 A 
ATOM      4  C3  UNL d   1       0.015  -2.026  -1.210  0.00  0.00     0.003 A 
ATOM      5  C4  UNL d   1       1.121  -1.881  -0.375  0.00  0.00    -0.005 A 
ATOM      6  C5  UNL d   1       1.194  -0.798   0.499  0.00  0.00     0.003 A 
ATOM      7  C6  UNL d   1       0.161   0.140   0.537  0.00  0.00    -0.001 A 
ENDROOT
TORSDOF 0
ENDMDL
