MODEL 1
REMARK minimizedAffinity -2.36979914
REMARK minimizedRMSD -1
REMARK  0 active torsions:
REMARK  status: ('A' for Active; 'I' for Inactive)
ROOT
ATOM      1  C   UNL d   1       0.098  -0.050  -0.348  0.00  0.00     0.078 C 
ATOM      2  C1  UNL d   1      -1.357   0.243  -0.135  0.00  0.00    -0.077 A 
ATOM      3  C2  UNL d   1      -2.255   0.259  -1.210  0.00  0.00    -0.001 A 
ATOM      4  C3  UNL d   1      -3.605   0.544  -0.998  0.00  0.00     0.003 A 
ATOM      5  C4  UNL d   1      -4.069   0.814   0.288  0.00  0.00    -0.005 A 
ATOM      6  C5  UNL d   1      -3.183   0.802   1.363  0.00  0.00     0.003 A 
ATOM      7  C6  UNL d   1      -1.833   0.518   1.153  0.00  0.00    -0.001 A 
ENDROOT
TORSDOF 0
ENDMDL
