MODEL 1
REMARK minimizedAffinity -2.96524024
REMARK minimizedRMSD -1
REMARK  0 active torsions:
REMARK  status: ('A' for Active; 'I' for Inactive)
ROOT
ATOM      1  C   UNL d   1      -0.377  -1.676  -1.690  0.00  0.00     0.078 C 
ATOM      2  C1  UNL d   1       0.079  -0.490  -0.894  0.00  0.00    -0.077 A 
ATOM      3  C2  UNL d   1      -0.470   0.780  -1.112  0.00  0.00    -0.001 A 
ATOM      4  C3  UNL d   1      -0.030   1.877  -0.370  0.00  0.00     0.003 A 
ATOM      5  C4  UNL d   1       0.963   1.716   0.594  0.00  0.00    -0.005 A 
ATOM      6  C5  UNL d   1       1.517   0.457   0.817  0.00  0.00     0.003 A 
ATOM      7  C6  UNL d   1       1.077  -0.642   0.076  0.00  0.00    -0.001 A 
ENDROOT
TORSDOF 0
ENDMDL
