MODEL 1
REMARK minimizedAffinity -4.54568529
REMARK minimizedRMSD -1
REMARK  1 active torsions:
REMARK  status: ('A' for Active; 'I' for Inactive)
REMARK    1  A    between atoms: C1_2  and  C2_3 
ROOT
ATOM      1  C2  UNL d   1       0.176  -0.385  -0.952  0.00  0.00    -0.081 A 
ATOM      2  C3  UNL d   1      -1.129  -0.157  -0.498  0.00  0.00     0.006 A 
ATOM      3  C4  UNL d   1      -1.354   0.395   0.765  0.00  0.00     0.002 A 
ATOM      4  C5  UNL d   1      -0.278   0.736   1.592  0.00  0.00    -0.080 A 
ATOM      5  C6  UNL d   1      -0.505   1.357   2.939  0.00  0.00     0.076 C 
ATOM      6  C7  UNL d   1       1.025   0.492   1.147  0.00  0.00     0.002 A 
ATOM      7  C8  UNL d   1       1.251  -0.060  -0.116  0.00  0.00     0.006 A 
ENDROOT
BRANCH   1   8
ATOM      8  C1  UNL d   1       0.423  -0.920  -2.339  0.00  0.00     0.054 C 
ATOM      9  C   UNL d   1       0.818   0.193  -3.299  0.00  0.00     0.018 C 
ENDBRANCH   1   8
TORSDOF 1
ENDMDL
