MODEL 1
REMARK minimizedAffinity -4.91357899
REMARK minimizedRMSD -1
REMARK  1 active torsions:
REMARK  status: ('A' for Active; 'I' for Inactive)
REMARK    1  A    between atoms: C1_2  and  C2_3 
ROOT
ATOM      1  C2  UNL d   1      -0.014  -0.301  -0.755  0.00  0.00    -0.081 A 
ATOM      2  C3  UNL d   1      -1.361  -0.133  -0.410  0.00  0.00     0.006 A 
ATOM      3  C4  UNL d   1      -1.711   0.487   0.792  0.00  0.00     0.002 A 
ATOM      4  C5  UNL d   1      -0.723   0.956   1.664  0.00  0.00    -0.080 A 
ATOM      5  C6  UNL d   1      -1.087   1.650   2.943  0.00  0.00     0.076 C 
ATOM      6  C7  UNL d   1       0.622   0.773   1.327  0.00  0.00     0.002 A 
ATOM      7  C8  UNL d   1       0.974   0.152   0.126  0.00  0.00     0.006 A 
ENDROOT
BRANCH   1   8
ATOM      8  C1  UNL d   1       0.367  -0.911  -2.080  0.00  0.00     0.054 C 
ATOM      9  C   UNL d   1       1.229   0.039  -2.899  0.00  0.00     0.018 C 
ENDBRANCH   1   8
TORSDOF 1
ENDMDL
