MODEL 1
REMARK minimizedAffinity -2.7044096
REMARK minimizedRMSD -1
REMARK  1 active torsions:
REMARK  status: ('A' for Active; 'I' for Inactive)
REMARK    1  A    between atoms: C1_2  and  C2_3 
ROOT
ATOM      1  C2  UNL d   1      -0.180  -0.480  -1.226  0.00  0.00    -0.081 A 
ATOM      2  C3  UNL d   1      -1.555  -0.345  -1.000  0.00  0.00     0.006 A 
ATOM      3  C4  UNL d   1      -2.037  -0.053   0.278  0.00  0.00     0.002 A 
ATOM      4  C5  UNL d   1      -1.153   0.115   1.349  0.00  0.00    -0.080 A 
ATOM      5  C6  UNL d   1      -1.656   0.458   2.720  0.00  0.00     0.076 C 
ATOM      6  C7  UNL d   1       0.220  -0.037   1.127  0.00  0.00     0.002 A 
ATOM      7  C8  UNL d   1       0.702  -0.329  -0.151  0.00  0.00     0.006 A 
ENDROOT
BRANCH   1   8
ATOM      8  C1  UNL d   1       0.347  -0.730  -2.616  0.00  0.00     0.054 C 
ATOM      9  C   UNL d   1       0.919   0.540  -3.228  0.00  0.00     0.018 C 
ENDBRANCH   1   8
TORSDOF 1
ENDMDL
