MODEL 1
REMARK minimizedAffinity -3.88075352
REMARK minimizedRMSD -1
REMARK  1 active torsions:
REMARK  status: ('A' for Active; 'I' for Inactive)
REMARK    1  A    between atoms: C1_2  and  C2_3 
ROOT
ATOM      1  C2  UNL d   1      -0.116  -0.265  -0.803  0.00  0.00    -0.081 A 
ATOM      2  C3  UNL d   1      -1.412   0.007  -0.346  0.00  0.00     0.006 A 
ATOM      3  C4  UNL d   1      -1.615   0.564   0.919  0.00  0.00     0.002 A 
ATOM      4  C5  UNL d   1      -0.527   0.864   1.745  0.00  0.00    -0.080 A 
ATOM      5  C6  UNL d   1      -0.729   1.489   3.093  0.00  0.00     0.076 C 
ATOM      6  C7  UNL d   1       0.767   0.576   1.296  0.00  0.00     0.002 A 
ATOM      7  C8  UNL d   1       0.970   0.019   0.032  0.00  0.00     0.006 A 
ENDROOT
BRANCH   1   8
ATOM      8  C1  UNL d   1       0.109  -0.805  -2.192  0.00  0.00     0.054 C 
ATOM      9  C   UNL d   1       0.459   0.309  -3.168  0.00  0.00     0.018 C 
ENDBRANCH   1   8
TORSDOF 1
ENDMDL
