MODEL 1
REMARK minimizedAffinity 15.3459501
REMARK minimizedRMSD -1
REMARK  2 active torsions:
REMARK  status: ('A' for Active; 'I' for Inactive)
REMARK    1  A    between atoms: C2'_3  and  C1'_4 
REMARK    2  A    between atoms: C1'_4  and  C1_5 
ROOT
ATOM      1  C1  I4B d   1       1.798  -2.046   3.345  0.00  0.00    -0.075 A 
ATOM      2  C2  I4B d   1       0.978  -2.957   2.728  0.00  0.00     0.003 A 
ATOM      3  C3  I4B d   1       0.434  -2.675   1.451  0.00  0.00     0.002 A 
ATOM      4  C4  I4B d   1       0.694  -1.458   0.855  0.00  0.00    -0.004 A 
ATOM      5  C5  I4B d   1       1.545  -0.546   1.472  0.00  0.00     0.002 A 
ATOM      6  C6  I4B d   1       2.111  -0.846   2.720  0.00  0.00     0.003 A 
ENDROOT
BRANCH   1   7
ATOM      7  C1' I4B d   1       2.329  -2.362   4.708  0.00  0.00     0.060 C 
BRANCH   7   8
ATOM      8  C2' I4B d   1       3.314  -3.506   4.572  0.00  0.00    -0.013 C 
ATOM      9  C4' I4B d   1       4.689  -3.002   4.223  0.00  0.00     0.013 C 
ATOM     10  C3' I4B d   1       3.327  -4.262   5.867  0.00  0.00     0.013 C 
ENDBRANCH   7   8
ENDBRANCH   1   7
TORSDOF 2
ENDMDL
