MODEL 1
REMARK minimizedAffinity 4.57669544
REMARK minimizedRMSD -1
REMARK  2 active torsions:
REMARK  status: ('A' for Active; 'I' for Inactive)
REMARK    1  A    between atoms: C2'_3  and  C1'_4 
REMARK    2  A    between atoms: C1'_4  and  C1_5 
ROOT
ATOM      1  C1  I4B d   1       0.921  -1.845   1.845  0.00  0.00    -0.075 A 
ATOM      2  C2  I4B d   1       0.585  -3.045   2.420  0.00  0.00     0.003 A 
ATOM      3  C3  I4B d   1       1.336  -3.550   3.508  0.00  0.00     0.002 A 
ATOM      4  C4  I4B d   1       2.439  -2.851   3.955  0.00  0.00    -0.004 A 
ATOM      5  C5  I4B d   1       2.765  -1.623   3.387  0.00  0.00     0.002 A 
ATOM      6  C6  I4B d   1       1.994  -1.110   2.333  0.00  0.00     0.003 A 
ENDROOT
BRANCH   1   7
ATOM      7  C1' I4B d   1       0.126  -1.357   0.676  0.00  0.00     0.060 C 
BRANCH   7   8
ATOM      8  C2' I4B d   1      -0.605  -2.544   0.081  0.00  0.00    -0.013 C 
ATOM      9  C4' I4B d   1      -1.876  -2.114  -0.603  0.00  0.00     0.013 C 
ATOM     10  C3' I4B d   1       0.324  -3.225  -0.879  0.00  0.00     0.013 C 
ENDBRANCH   7   8
ENDBRANCH   1   7
TORSDOF 2
ENDMDL
