MODEL 1
REMARK minimizedAffinity 2.5526793
REMARK minimizedRMSD -1
REMARK  2 active torsions:
REMARK  status: ('A' for Active; 'I' for Inactive)
REMARK    1  A    between atoms: C2'_3  and  C1'_4 
REMARK    2  A    between atoms: C1'_4  and  C1_5 
ROOT
ATOM      1  C1  I4B d   1       0.760  -3.216  -0.231  0.00  0.00    -0.075 A 
ATOM      2  C2  I4B d   1      -0.015  -3.057  -1.352  0.00  0.00     0.003 A 
ATOM      3  C3  I4B d   1      -1.231  -2.336  -1.282  0.00  0.00     0.002 A 
ATOM      4  C4  I4B d   1      -1.657  -1.838  -0.068  0.00  0.00    -0.004 A 
ATOM      5  C5  I4B d   1      -0.859  -1.981   1.064  0.00  0.00     0.002 A 
ATOM      6  C6  I4B d   1       0.363  -2.664   0.980  0.00  0.00     0.003 A 
ENDROOT
BRANCH   1   7
ATOM      7  C1' I4B d   1       2.023  -4.012  -0.334  0.00  0.00     0.060 C 
BRANCH   7   8
ATOM      8  C2' I4B d   1       1.963  -5.118   0.700  0.00  0.00    -0.013 C 
ATOM      9  C4' I4B d   1       3.189  -5.991   0.636  0.00  0.00     0.013 C 
ATOM     10  C3' I4B d   1       1.821  -4.482   2.051  0.00  0.00     0.013 C 
ENDBRANCH   7   8
ENDBRANCH   1   7
TORSDOF 2
ENDMDL
