MODEL 1
REMARK minimizedAffinity 11.8909254
REMARK minimizedRMSD -1
REMARK  2 active torsions:
REMARK  status: ('A' for Active; 'I' for Inactive)
REMARK    1  A    between atoms: C2'_3  and  C1'_4 
REMARK    2  A    between atoms: C1'_4  and  C1_5 
ROOT
ATOM      1  C1  I4B d   1       3.475  -2.285   3.378  0.00  0.00    -0.075 A 
ATOM      2  C2  I4B d   1       3.705  -3.177   4.396  0.00  0.00     0.003 A 
ATOM      3  C3  I4B d   1       4.992  -3.740   4.573  0.00  0.00     0.002 A 
ATOM      4  C4  I4B d   1       6.000  -3.425   3.684  0.00  0.00    -0.004 A 
ATOM      5  C5  I4B d   1       5.771  -2.504   2.667  0.00  0.00     0.002 A 
ATOM      6  C6  I4B d   1       4.505  -1.920   2.519  0.00  0.00     0.003 A 
ENDROOT
BRANCH   1   7
ATOM      7  C1' I4B d   1       2.096  -1.734   3.199  0.00  0.00     0.060 C 
BRANCH   7   8
ATOM      8  C2' I4B d   1       1.973  -1.236   1.774  0.00  0.00    -0.013 C 
ATOM      9  C4' I4B d   1       0.646  -1.621   1.175  0.00  0.00     0.013 C 
ATOM     10  C3' I4B d   1       2.150   0.253   1.787  0.00  0.00     0.013 C 
ENDBRANCH   7   8
ENDBRANCH   1   7
TORSDOF 2
ENDMDL
