MODEL 1
REMARK minimizedAffinity 2.85835218
REMARK minimizedRMSD -1
REMARK  2 active torsions:
REMARK  status: ('A' for Active; 'I' for Inactive)
REMARK    1  A    between atoms: C2'_3  and  C1'_4 
REMARK    2  A    between atoms: C1'_4  and  C1_5 
ROOT
ATOM      1  C1  I4B d   1       3.330  -2.250   3.617  0.00  0.00    -0.075 A 
ATOM      2  C2  I4B d   1       4.257  -2.006   2.635  0.00  0.00     0.003 A 
ATOM      3  C3  I4B d   1       5.610  -2.378   2.824  0.00  0.00     0.002 A 
ATOM      4  C4  I4B d   1       6.000  -2.940   4.023  0.00  0.00    -0.004 A 
ATOM      5  C5  I4B d   1       5.054  -3.208   5.008  0.00  0.00     0.002 A 
ATOM      6  C6  I4B d   1       3.708  -2.872   4.800  0.00  0.00     0.003 A 
ENDROOT
BRANCH   1   7
ATOM      7  C1' I4B d   1       1.916  -1.815   3.397  0.00  0.00     0.060 C 
BRANCH   7   8
ATOM      8  C2' I4B d   1       1.727  -1.575   1.913  0.00  0.00    -0.013 C 
ATOM      9  C4' I4B d   1       0.418  -2.144   1.431  0.00  0.00     0.013 C 
ATOM     10  C3' I4B d   1       1.796  -0.097   1.671  0.00  0.00     0.013 C 
ENDBRANCH   7   8
ENDBRANCH   1   7
TORSDOF 2
ENDMDL
