MODEL 1
REMARK minimizedAffinity 1.01638103
REMARK minimizedRMSD -1
REMARK  2 active torsions:
REMARK  status: ('A' for Active; 'I' for Inactive)
REMARK    1  A    between atoms: C2'_3  and  C1'_4 
REMARK    2  A    between atoms: C1'_4  and  C1_5 
ROOT
ATOM      1  C1  I4B d   1       1.114  -0.275   1.026  0.00  0.00    -0.075 A 
ATOM      2  C2  I4B d   1       1.898   0.779   0.629  0.00  0.00     0.003 A 
ATOM      3  C3  I4B d   1       2.918   1.269   1.481  0.00  0.00     0.002 A 
ATOM      4  C4  I4B d   1       3.084   0.711   2.732  0.00  0.00    -0.004 A 
ATOM      5  C5  I4B d   1       2.303  -0.373   3.123  0.00  0.00     0.002 A 
ATOM      6  C6  I4B d   1       1.320  -0.877   2.260  0.00  0.00     0.003 A 
ENDROOT
BRANCH   1   7
ATOM      7  C1' I4B d   1       0.024  -0.745   0.115  0.00  0.00     0.060 C 
BRANCH   7   8
ATOM      8  C2' I4B d   1      -0.269  -2.195   0.447  0.00  0.00    -0.013 C 
ATOM      9  C4' I4B d   1      -1.736  -2.502   0.300  0.00  0.00     0.013 C 
ATOM     10  C3' I4B d   1       0.558  -3.054  -0.463  0.00  0.00     0.013 C 
ENDBRANCH   7   8
ENDBRANCH   1   7
TORSDOF 2
ENDMDL
