MODEL 1
REMARK minimizedAffinity 4.01332998
REMARK minimizedRMSD -1
REMARK  2 active torsions:
REMARK  status: ('A' for Active; 'I' for Inactive)
REMARK    1  A    between atoms: C2'_3  and  C1'_4 
REMARK    2  A    between atoms: C1'_4  and  C1_5 
ROOT
ATOM      1  C1  I4B d   1       1.922  -0.207   2.640  0.00  0.00    -0.075 A 
ATOM      2  C2  I4B d   1       0.986  -0.793   1.825  0.00  0.00     0.003 A 
ATOM      3  C3  I4B d   1       0.716  -0.250   0.545  0.00  0.00     0.002 A 
ATOM      4  C4  I4B d   1       1.364   0.900   0.144  0.00  0.00    -0.004 A 
ATOM      5  C5  I4B d   1       2.330   1.479   0.962  0.00  0.00     0.002 A 
ATOM      6  C6  I4B d   1       2.620   0.915   2.213  0.00  0.00     0.003 A 
ENDROOT
BRANCH   1   7
ATOM      7  C1' I4B d   1       2.158  -0.787   3.999  0.00  0.00     0.060 C 
BRANCH   7   8
ATOM      8  C2' I4B d   1       2.720  -2.182   3.819  0.00  0.00    -0.013 C 
ATOM      9  C4' I4B d   1       3.947  -2.389   4.669  0.00  0.00     0.013 C 
ATOM     10  C3' I4B d   1       1.644  -3.164   4.174  0.00  0.00     0.013 C 
ENDBRANCH   7   8
ENDBRANCH   1   7
TORSDOF 2
ENDMDL
