MODEL 1
REMARK minimizedAffinity 1.43770218
REMARK minimizedRMSD -1
REMARK  2 active torsions:
REMARK  status: ('A' for Active; 'I' for Inactive)
REMARK    1  A    between atoms: C2'_3  and  C1'_4 
REMARK    2  A    between atoms: C1'_4  and  C1_5 
ROOT
ATOM      1  C1  I4B d   1       0.853  -0.984   1.173  0.00  0.00    -0.075 A 
ATOM      2  C2  I4B d   1       1.306   0.045   0.386  0.00  0.00     0.003 A 
ATOM      3  C3  I4B d   1       2.367   0.869   0.832  0.00  0.00     0.002 A 
ATOM      4  C4  I4B d   1       2.909   0.661   2.084  0.00  0.00    -0.004 A 
ATOM      5  C5  I4B d   1       2.464  -0.397   2.871  0.00  0.00     0.002 A 
ATOM      6  C6  I4B d   1       1.438  -1.233   2.407  0.00  0.00     0.003 A 
ENDROOT
BRANCH   1   7
ATOM      7  C1' I4B d   1      -0.292  -1.814   0.685  0.00  0.00     0.060 C 
BRANCH   7   8
ATOM      8  C2' I4B d   1       0.249  -2.811  -0.320  0.00  0.00    -0.013 C 
ATOM      9  C4' I4B d   1       0.968  -3.942   0.367  0.00  0.00     0.013 C 
ATOM     10  C3' I4B d   1      -0.903  -3.318  -1.135  0.00  0.00     0.013 C 
ENDBRANCH   7   8
ENDBRANCH   1   7
TORSDOF 2
ENDMDL
