MODEL 1
REMARK minimizedAffinity 0.242890671
REMARK minimizedRMSD -1
REMARK  2 active torsions:
REMARK  status: ('A' for Active; 'I' for Inactive)
REMARK    1  A    between atoms: C2'_3  and  C1'_4 
REMARK    2  A    between atoms: C1'_4  and  C1_5 
ROOT
ATOM      1  C1  I4B d   1       1.312  -0.240   1.396  0.00  0.00    -0.075 A 
ATOM      2  C2  I4B d   1       1.931   0.973   1.564  0.00  0.00     0.003 A 
ATOM      3  C3  I4B d   1       2.603   1.269   2.775  0.00  0.00     0.002 A 
ATOM      4  C4  I4B d   1       2.587   0.349   3.803  0.00  0.00    -0.004 A 
ATOM      5  C5  I4B d   1       1.978  -0.889   3.623  0.00  0.00     0.002 A 
ATOM      6  C6  I4B d   1       1.346  -1.191   2.407  0.00  0.00     0.003 A 
ENDROOT
BRANCH   1   7
ATOM      7  C1' I4B d   1       0.583  -0.506   0.117  0.00  0.00     0.060 C 
BRANCH   7   8
ATOM      8  C2' I4B d   1      -0.178  -1.806   0.275  0.00  0.00    -0.013 C 
ATOM      9  C4' I4B d   1      -1.629  -1.554   0.589  0.00  0.00     0.013 C 
ATOM     10  C3' I4B d   1      -0.027  -2.589  -0.995  0.00  0.00     0.013 C 
ENDBRANCH   7   8
ENDBRANCH   1   7
TORSDOF 2
ENDMDL
