MODEL 1
REMARK minimizedAffinity 2.10498595
REMARK minimizedRMSD -1
REMARK  2 active torsions:
REMARK  status: ('A' for Active; 'I' for Inactive)
REMARK    1  A    between atoms: C2'_3  and  C1'_4 
REMARK    2  A    between atoms: C1'_4  and  C1_5 
ROOT
ATOM      1  C1  I4B d   1      -0.201  -0.827   0.430  0.00  0.00    -0.075 A 
ATOM      2  C2  I4B d   1      -1.298  -0.084   0.071  0.00  0.00     0.003 A 
ATOM      3  C3  I4B d   1      -1.183   1.316  -0.106  0.00  0.00     0.002 A 
ATOM      4  C4  I4B d   1       0.027   1.935   0.133  0.00  0.00    -0.004 A 
ATOM      5  C5  I4B d   1       1.143   1.177   0.475  0.00  0.00     0.002 A 
ATOM      6  C6  I4B d   1       1.032  -0.214   0.613  0.00  0.00     0.003 A 
ENDROOT
BRANCH   1   7
ATOM      7  C1' I4B d   1      -0.365  -2.299   0.641  0.00  0.00     0.060 C 
BRANCH   7   8
ATOM      8  C2' I4B d   1       0.416  -3.015  -0.441  0.00  0.00    -0.013 C 
ATOM      9  C4' I4B d   1       1.192  -4.176   0.124  0.00  0.00     0.013 C 
ATOM     10  C3' I4B d   1      -0.555  -3.471  -1.488  0.00  0.00     0.013 C 
ENDBRANCH   7   8
ENDBRANCH   1   7
TORSDOF 2
ENDMDL
