MODEL 1
REMARK minimizedAffinity -2.43406892
REMARK minimizedRMSD -1
REMARK  2 active torsions:
REMARK  status: ('A' for Active; 'I' for Inactive)
REMARK    1  A    between atoms: C2'_3  and  C1'_4 
REMARK    2  A    between atoms: C1'_4  and  C1_5 
ROOT
ATOM      1  C1  I4B d   1       0.182  -1.643   1.013  0.00  0.00    -0.075 A 
ATOM      2  C2  I4B d   1      -1.135  -1.347   0.763  0.00  0.00     0.003 A 
ATOM      3  C3  I4B d   1      -1.887  -2.145  -0.134  0.00  0.00     0.002 A 
ATOM      4  C4  I4B d   1      -1.273  -3.190  -0.793  0.00  0.00    -0.004 A 
ATOM      5  C5  I4B d   1       0.056  -3.503  -0.521  0.00  0.00     0.002 A 
ATOM      6  C6  I4B d   1       0.785  -2.732   0.397  0.00  0.00     0.003 A 
ENDROOT
BRANCH   1   7
ATOM      7  C1' I4B d   1       0.955  -0.760   1.940  0.00  0.00     0.060 C 
BRANCH   7   8
ATOM      8  C2' I4B d   1       1.546   0.371   1.123  0.00  0.00    -0.013 C 
ATOM      9  C4' I4B d   1       0.515   1.431   0.834  0.00  0.00     0.013 C 
ATOM     10  C3' I4B d   1       2.705   0.938   1.887  0.00  0.00     0.013 C 
ENDBRANCH   7   8
ENDBRANCH   1   7
TORSDOF 2
ENDMDL
