MODEL 1
REMARK minimizedAffinity 6.31852627
REMARK minimizedRMSD -1
REMARK  0 active torsions:
REMARK  status: ('A' for Active; 'I' for Inactive)
ROOT
ATOM      1  C4' PXY d   1       2.504  -2.594   1.983  0.00  0.00     0.077 C 
ATOM      2  C1' PXY d   1      -0.015  -0.584  -2.816  0.00  0.00     0.077 C 
ATOM      3  C1  PXY d   1       0.634  -1.114  -1.553  0.00  0.00    -0.082 A 
ATOM      4  C2  PXY d   1       1.839  -0.689  -1.209  0.00  0.00     0.003 A 
ATOM      5  C3  PXY d   1       2.454  -1.182  -0.087  0.00  0.00     0.003 A 
ATOM      6  C4  PXY d   1       1.806  -2.079   0.721  0.00  0.00    -0.082 A 
ATOM      7  C5  PXY d   1       0.572  -2.509   0.383  0.00  0.00     0.003 A 
ATOM      8  C6  PXY d   1      -0.018  -2.027  -0.783  0.00  0.00     0.003 A 
ENDROOT
TORSDOF 0
ENDMDL
