MODEL 1
REMARK minimizedAffinity -0.186115921
REMARK minimizedRMSD -1
REMARK  0 active torsions:
REMARK  status: ('A' for Active; 'I' for Inactive)
ROOT
ATOM      1  C4' PXY d   1       0.800  -5.271   1.571  0.00  0.00     0.077 C 
ATOM      2  C1' PXY d   1       0.856  -0.074  -0.960  0.00  0.00     0.077 C 
ATOM      3  C1  PXY d   1       0.830  -1.434  -0.291  0.00  0.00    -0.082 A 
ATOM      4  C2  PXY d   1       1.958  -2.109  -0.138  0.00  0.00     0.003 A 
ATOM      5  C3  PXY d   1       1.948  -3.354   0.437  0.00  0.00     0.003 A 
ATOM      6  C4  PXY d   1       0.780  -3.890   0.908  0.00  0.00    -0.082 A 
ATOM      7  C5  PXY d   1      -0.373  -3.203   0.766  0.00  0.00     0.003 A 
ATOM      8  C6  PXY d   1      -0.348  -1.959   0.142  0.00  0.00     0.003 A 
ENDROOT
TORSDOF 0
ENDMDL
