MODEL 1
REMARK minimizedAffinity -3.14854884
REMARK minimizedRMSD -1
REMARK  0 active torsions:
REMARK  status: ('A' for Active; 'I' for Inactive)
ROOT
ATOM      1  C4' PXY d   1       0.115  -4.970   1.713  0.00  0.00     0.077 C 
ATOM      2  C1' PXY d   1       0.816  -0.097  -1.317  0.00  0.00     0.077 C 
ATOM      3  C1  PXY d   1       0.620  -1.372  -0.520  0.00  0.00    -0.082 A 
ATOM      4  C2  PXY d   1       1.670  -1.986   0.001  0.00  0.00     0.003 A 
ATOM      5  C3  PXY d   1       1.514  -3.156   0.698  0.00  0.00     0.003 A 
ATOM      6  C4  PXY d   1       0.265  -3.675   0.909  0.00  0.00    -0.082 A 
ATOM      7  C5  PXY d   1      -0.812  -3.049   0.390  0.00  0.00     0.003 A 
ATOM      8  C6  PXY d   1      -0.629  -1.884  -0.349  0.00  0.00     0.003 A 
ENDROOT
TORSDOF 0
ENDMDL
