MODEL 1
REMARK minimizedAffinity 4.24839973
REMARK minimizedRMSD -1
REMARK  0 active torsions:
REMARK  status: ('A' for Active; 'I' for Inactive)
ROOT
ATOM      1  C4' PXY d   1       0.044  -1.119  -4.648  0.00  0.00     0.077 C 
ATOM      2  C1' PXY d   1       0.750  -1.219   1.088  0.00  0.00     0.077 C 
ATOM      3  C1  PXY d   1       0.576  -1.186  -0.418  0.00  0.00    -0.082 A 
ATOM      4  C2  PXY d   1      -0.632  -1.321  -0.939  0.00  0.00     0.003 A 
ATOM      5  C3  PXY d   1      -0.804  -1.326  -2.300  0.00  0.00     0.003 A 
ATOM      6  C4  PXY d   1       0.266  -1.136  -3.133  0.00  0.00    -0.082 A 
ATOM      7  C5  PXY d   1       1.501  -0.987  -2.608  0.00  0.00     0.003 A 
ATOM      8  C6  PXY d   1       1.659  -1.027  -1.226  0.00  0.00     0.003 A 
ENDROOT
TORSDOF 0
ENDMDL
