MODEL 1
REMARK minimizedAffinity -2.42648268
REMARK minimizedRMSD -1
REMARK  0 active torsions:
REMARK  status: ('A' for Active; 'I' for Inactive)
ROOT
ATOM      1  C4' PXY d   1      -0.331  -4.532   1.342  0.00  0.00     0.077 C 
ATOM      2  C1' PXY d   1       1.198   0.072  -1.802  0.00  0.00     0.077 C 
ATOM      3  C1  PXY d   1       0.785  -1.130  -0.976  0.00  0.00    -0.082 A 
ATOM      4  C2  PXY d   1       1.710  -1.854  -0.367  0.00  0.00     0.003 A 
ATOM      5  C3  PXY d   1       1.357  -2.963   0.358  0.00  0.00     0.003 A 
ATOM      6  C4  PXY d   1       0.039  -3.304   0.505  0.00  0.00    -0.082 A 
ATOM      7  C5  PXY d   1      -0.911  -2.565  -0.104  0.00  0.00     0.003 A 
ATOM      8  C6  PXY d   1      -0.529  -1.466  -0.870  0.00  0.00     0.003 A 
ENDROOT
TORSDOF 0
ENDMDL
