MODEL 1
REMARK minimizedAffinity -0.440661371
REMARK minimizedRMSD -1
REMARK  0 active torsions:
REMARK  status: ('A' for Active; 'I' for Inactive)
ROOT
ATOM      1  C4' PXY d   1      -0.561  -4.504   1.049  0.00  0.00     0.077 C 
ATOM      2  C1' PXY d   1       2.171   0.275  -0.716  0.00  0.00     0.077 C 
ATOM      3  C1  PXY d   1       1.443  -0.972  -0.255  0.00  0.00    -0.082 A 
ATOM      4  C2  PXY d   1       2.075  -1.858   0.498  0.00  0.00     0.003 A 
ATOM      5  C3  PXY d   1       1.442  -3.006   0.897  0.00  0.00     0.003 A 
ATOM      6  C4  PXY d   1       0.131  -3.226   0.568  0.00  0.00    -0.082 A 
ATOM      7  C5  PXY d   1      -0.524  -2.322  -0.191  0.00  0.00     0.003 A 
ATOM      8  C6  PXY d   1       0.149  -1.182  -0.621  0.00  0.00     0.003 A 
ENDROOT
TORSDOF 0
ENDMDL
