MODEL 1
REMARK minimizedAffinity 4.16559982
REMARK minimizedRMSD -1
REMARK  0 active torsions:
REMARK  status: ('A' for Active; 'I' for Inactive)
ROOT
ATOM      1  C4' PXY d   1       0.830  -4.639   1.298  0.00  0.00     0.077 C 
ATOM      2  C1' PXY d   1       2.706   0.240  -1.170  0.00  0.00     0.077 C 
ATOM      3  C1  PXY d   1       2.225  -1.040  -0.516  0.00  0.00    -0.082 A 
ATOM      4  C2  PXY d   1       1.362  -1.815  -1.151  0.00  0.00     0.003 A 
ATOM      5  C3  PXY d   1       0.892  -2.960  -0.561  0.00  0.00     0.003 A 
ATOM      6  C4  PXY d   1       1.350  -3.342   0.671  0.00  0.00    -0.082 A 
ATOM      7  C5  PXY d   1       2.239  -2.562   1.322  0.00  0.00     0.003 A 
ATOM      8  C6  PXY d   1       2.673  -1.383   0.723  0.00  0.00     0.003 A 
ENDROOT
TORSDOF 0
ENDMDL
