MODEL 1
REMARK minimizedAffinity 9.04965782
REMARK minimizedRMSD -1
REMARK  0 active torsions:
REMARK  status: ('A' for Active; 'I' for Inactive)
ROOT
ATOM      1  C4' PXY d   1      -0.758  -0.055   4.669  0.00  0.00     0.077 C 
ATOM      2  C1' PXY d   1      -6.000  -0.149   2.235  0.00  0.00     0.077 C 
ATOM      3  C1  PXY d   1      -4.625  -0.111   2.872  0.00  0.00    -0.082 A 
ATOM      4  C2  PXY d   1      -3.844  -1.177   2.805  0.00  0.00     0.003 A 
ATOM      5  C3  PXY d   1      -2.610  -1.171   3.404  0.00  0.00     0.003 A 
ATOM      6  C4  PXY d   1      -2.150  -0.044   4.032  0.00  0.00    -0.082 A 
ATOM      7  C5  PXY d   1      -2.937   1.050   4.095  0.00  0.00     0.003 A 
ATOM      8  C6  PXY d   1      -4.202   1.010   3.517  0.00  0.00     0.003 A 
ENDROOT
TORSDOF 0
ENDMDL
