MODEL 1
REMARK minimizedAffinity -5.07268715
REMARK minimizedRMSD -1
REMARK  0 active torsions:
REMARK  status: ('A' for Active; 'I' for Inactive)
ROOT
ATOM      1  C4' PXY d   1       0.741  -5.092   1.392  0.00  0.00     0.077 C 
ATOM      2  C1' PXY d   1       0.548   0.124  -1.093  0.00  0.00     0.077 C 
ATOM      3  C1  PXY d   1       0.587  -1.242  -0.436  0.00  0.00    -0.082 A 
ATOM      4  C2  PXY d   1       1.753  -1.813  -0.181  0.00  0.00     0.003 A 
ATOM      5  C3  PXY d   1       1.806  -3.061   0.383  0.00  0.00     0.003 A 
ATOM      6  C4  PXY d   1       0.654  -3.710   0.739  0.00  0.00    -0.082 A 
ATOM      7  C5  PXY d   1      -0.540  -3.130   0.491  0.00  0.00     0.003 A 
ATOM      8  C6  PXY d   1      -0.573  -1.880  -0.120  0.00  0.00     0.003 A 
ENDROOT
TORSDOF 0
ENDMDL
