MODEL 1
REMARK minimizedAffinity 3.68923736
REMARK minimizedRMSD -1
REMARK  0 active torsions:
REMARK  status: ('A' for Active; 'I' for Inactive)
ROOT
ATOM      1  C4' PXY d   1      -0.780  -2.526   0.810  0.00  0.00     0.077 C 
ATOM      2  C1' PXY d   1       4.145  -0.224  -1.154  0.00  0.00     0.077 C 
ATOM      3  C1  PXY d   1       2.858  -0.827  -0.627  0.00  0.00    -0.082 A 
ATOM      4  C2  PXY d   1       2.108  -1.570  -1.425  0.00  0.00     0.003 A 
ATOM      5  C3  PXY d   1       0.926  -2.097  -0.974  0.00  0.00     0.003 A 
ATOM      6  C4  PXY d   1       0.532  -1.905   0.323  0.00  0.00    -0.082 A 
ATOM      7  C5  PXY d   1       1.296  -1.156   1.147  0.00  0.00     0.003 A 
ATOM      8  C6  PXY d   1       2.473  -0.597   0.658  0.00  0.00     0.003 A 
ENDROOT
TORSDOF 0
ENDMDL
