MODEL 1
REMARK minimizedAffinity 3.35579944
REMARK minimizedRMSD -1
REMARK  0 active torsions:
REMARK  status: ('A' for Active; 'I' for Inactive)
ROOT
ATOM      1  C4' PXY d   1       1.975  -3.758   0.941  0.00  0.00     0.077 C 
ATOM      2  C1' PXY d   1      -0.308   0.788  -1.804  0.00  0.00     0.077 C 
ATOM      3  C1  PXY d   1       0.279  -0.407  -1.080  0.00  0.00    -0.082 A 
ATOM      4  C2  PXY d   1       1.559  -0.406  -0.745  0.00  0.00     0.003 A 
ATOM      5  C3  PXY d   1       2.113  -1.492  -0.118  0.00  0.00     0.003 A 
ATOM      6  C4  PXY d   1       1.337  -2.569   0.217  0.00  0.00    -0.082 A 
ATOM      7  C5  PXY d   1       0.028  -2.573  -0.111  0.00  0.00     0.003 A 
ATOM      8  C6  PXY d   1      -0.507  -1.478  -0.784  0.00  0.00     0.003 A 
ENDROOT
TORSDOF 0
ENDMDL
