MODEL 1
REMARK minimizedAffinity 0.424755245
REMARK minimizedRMSD -1
REMARK  0 active torsions:
REMARK  status: ('A' for Active; 'I' for Inactive)
ROOT
ATOM      1  C4' PXY d   1       0.370  -5.853   1.248  0.00  0.00     0.077 C 
ATOM      2  C1' PXY d   1       1.192  -0.256   0.060  0.00  0.00     0.077 C 
ATOM      3  C1  PXY d   1       0.964  -1.722   0.371  0.00  0.00    -0.082 A 
ATOM      4  C2  PXY d   1       1.926  -2.426   0.944  0.00  0.00     0.003 A 
ATOM      5  C3  PXY d   1       1.748  -3.761   1.204  0.00  0.00     0.003 A 
ATOM      6  C4  PXY d   1       0.553  -4.368   0.923  0.00  0.00    -0.082 A 
ATOM      7  C5  PXY d   1      -0.438  -3.653   0.349  0.00  0.00     0.003 A 
ATOM      8  C6  PXY d   1      -0.222  -2.310   0.056  0.00  0.00     0.003 A 
ENDROOT
TORSDOF 0
ENDMDL
