MODEL 1
REMARK minimizedAffinity 2.61220312
REMARK minimizedRMSD -1
REMARK  0 active torsions:
REMARK  status: ('A' for Active; 'I' for Inactive)
ROOT
ATOM      1  C4' PXY d   1       1.890   2.000  -4.938  0.00  0.00     0.077 C 
ATOM      2  C1' PXY d   1       0.345  -0.589  -0.006  0.00  0.00     0.077 C 
ATOM      3  C1  PXY d   1       0.740   0.097  -1.298  0.00  0.00    -0.082 A 
ATOM      4  C2  PXY d   1       1.524  -0.530  -2.160  0.00  0.00     0.003 A 
ATOM      5  C3  PXY d   1       1.916   0.088  -3.319  0.00  0.00     0.003 A 
ATOM      6  C4  PXY d   1       1.458   1.342  -3.624  0.00  0.00    -0.082 A 
ATOM      7  C5  PXY d   1       0.649   1.985  -2.756  0.00  0.00     0.003 A 
ATOM      8  C6  PXY d   1       0.296   1.356  -1.566  0.00  0.00     0.003 A 
ENDROOT
TORSDOF 0
ENDMDL
