MODEL 1
REMARK minimizedAffinity 0.737731874
REMARK minimizedRMSD -1
REMARK  0 active torsions:
REMARK  status: ('A' for Active; 'I' for Inactive)
ROOT
ATOM      1  C4' PXY d   1       1.470   1.090  -4.264  0.00  0.00     0.077 C 
ATOM      2  C1' PXY d   1       0.207  -2.050   0.422  0.00  0.00     0.077 C 
ATOM      3  C1  PXY d   1       0.544  -1.237  -0.812  0.00  0.00    -0.082 A 
ATOM      4  C2  PXY d   1       0.664   0.077  -0.717  0.00  0.00     0.003 A 
ATOM      5  C3  PXY d   1       0.936   0.831  -1.830  0.00  0.00     0.003 A 
ATOM      6  C4  PXY d   1       1.140   0.228  -3.042  0.00  0.00    -0.082 A 
ATOM      7  C5  PXY d   1       1.030  -1.114  -3.145  0.00  0.00     0.003 A 
ATOM      8  C6  PXY d   1       0.712  -1.857  -2.012  0.00  0.00     0.003 A 
ENDROOT
TORSDOF 0
ENDMDL
