MODEL 1
REMARK minimizedAffinity 0.911728799
REMARK minimizedRMSD -1
REMARK  0 active torsions:
REMARK  status: ('A' for Active; 'I' for Inactive)
ROOT
ATOM      1  C4' PXY d   1       3.260   4.839  -4.291  0.00  0.00     0.077 C 
ATOM      2  C1' PXY d   1       6.000   0.045  -5.999  0.00  0.00     0.077 C 
ATOM      3  C1  PXY d   1       5.291   1.304  -5.543  0.00  0.00    -0.082 A 
ATOM      4  C2  PXY d   1       3.984   1.418  -5.715  0.00  0.00     0.003 A 
ATOM      5  C3  PXY d   1       3.332   2.564  -5.337  0.00  0.00     0.003 A 
ATOM      6  C4  PXY d   1       4.016   3.582  -4.728  0.00  0.00    -0.082 A 
ATOM      7  C5  PXY d   1       5.348   3.469  -4.540  0.00  0.00     0.003 A 
ATOM      8  C6  PXY d   1       5.998   2.315  -4.968  0.00  0.00     0.003 A 
ENDROOT
TORSDOF 0
ENDMDL
