MODEL 1
REMARK minimizedAffinity 1.28580666
REMARK minimizedRMSD -1
REMARK  0 active torsions:
REMARK  status: ('A' for Active; 'I' for Inactive)
ROOT
ATOM      1  C4' PXY d   1       1.290   0.770  -4.522  0.00  0.00     0.077 C 
ATOM      2  C1' PXY d   1       0.550  -1.395   0.786  0.00  0.00     0.077 C 
ATOM      3  C1  PXY d   1       0.752  -0.837  -0.609  0.00  0.00    -0.082 A 
ATOM      4  C2  PXY d   1       0.530   0.447  -0.838  0.00  0.00     0.003 A 
ATOM      5  C3  PXY d   1       0.677   0.962  -2.100  0.00  0.00     0.003 A 
ATOM      6  C4  PXY d   1       1.108   0.165  -3.127  0.00  0.00    -0.082 A 
ATOM      7  C5  PXY d   1       1.347  -1.144  -2.899  0.00  0.00     0.003 A 
ATOM      8  C6  PXY d   1       1.152  -1.656  -1.619  0.00  0.00     0.003 A 
ENDROOT
TORSDOF 0
ENDMDL
