MODEL 1
REMARK minimizedAffinity -0.349622399
REMARK minimizedRMSD -1
REMARK  0 active torsions:
REMARK  status: ('A' for Active; 'I' for Inactive)
ROOT
ATOM      1  C4' PXY d   1       0.316   1.922  -1.734  0.00  0.00     0.077 C 
ATOM      2  C1' PXY d   1       1.687  -3.536  -3.052  0.00  0.00     0.077 C 
ATOM      3  C1  PXY d   1       1.322  -2.109  -2.695  0.00  0.00    -0.082 A 
ATOM      4  C2  PXY d   1       1.199  -1.206  -3.655  0.00  0.00     0.003 A 
ATOM      5  C3  PXY d   1       0.901   0.097  -3.347  0.00  0.00     0.003 A 
ATOM      6  C4  PXY d   1       0.674   0.467  -2.048  0.00  0.00    -0.082 A 
ATOM      7  C5  PXY d   1       0.787  -0.451  -1.065  0.00  0.00     0.003 A 
ATOM      8  C6  PXY d   1       1.131  -1.759  -1.395  0.00  0.00     0.003 A 
ENDROOT
TORSDOF 0
ENDMDL
