MODEL 1
REMARK minimizedAffinity 1.03772056
REMARK minimizedRMSD -1
REMARK  0 active torsions:
REMARK  status: ('A' for Active; 'I' for Inactive)
ROOT
ATOM      1  C4' PXY d   1      -4.494   0.261   5.616  0.00  0.00     0.077 C 
ATOM      2  C1' PXY d   1      -4.314   6.000   4.944  0.00  0.00     0.077 C 
ATOM      3  C1  PXY d   1      -4.369   4.496   5.130  0.00  0.00    -0.082 A 
ATOM      4  C2  PXY d   1      -3.376   3.745   4.683  0.00  0.00     0.003 A 
ATOM      5  C3  PXY d   1      -3.425   2.381   4.815  0.00  0.00     0.003 A 
ATOM      6  C4  PXY d   1      -4.476   1.784   5.458  0.00  0.00    -0.082 A 
ATOM      7  C5  PXY d   1      -5.488   2.545   5.927  0.00  0.00     0.003 A 
ATOM      8  C6  PXY d   1      -5.439   3.924   5.746  0.00  0.00     0.003 A 
ENDROOT
TORSDOF 0
ENDMDL
