MODEL 1
REMARK minimizedAffinity 1.42101133
REMARK minimizedRMSD -1
REMARK  0 active torsions:
REMARK  status: ('A' for Active; 'I' for Inactive)
ROOT
ATOM      1  C4' PXY d   1       2.624   4.874  -5.008  0.00  0.00     0.077 C 
ATOM      2  C1' PXY d   1       5.999   0.287  -6.000  0.00  0.00     0.077 C 
ATOM      3  C1  PXY d   1       5.123   1.494  -5.731  0.00  0.00    -0.082 A 
ATOM      4  C2  PXY d   1       3.823   1.424  -5.966  0.00  0.00     0.003 A 
ATOM      5  C3  PXY d   1       3.021   2.517  -5.759  0.00  0.00     0.003 A 
ATOM      6  C4  PXY d   1       3.546   3.676  -5.256  0.00  0.00    -0.082 A 
ATOM      7  C5  PXY d   1       4.870   3.752  -5.003  0.00  0.00     0.003 A 
ATOM      8  C6  PXY d   1       5.674   2.645  -5.259  0.00  0.00     0.003 A 
ENDROOT
TORSDOF 0
ENDMDL
