MODEL 1
REMARK minimizedAffinity 5.48399544
REMARK minimizedRMSD -1
REMARK  0 active torsions:
REMARK  status: ('A' for Active; 'I' for Inactive)
ROOT
ATOM      1  C4' PXY d   1       3.215  -0.014  -5.496  0.00  0.00     0.077 C 
ATOM      2  C1' PXY d   1      -0.217  -0.048  -0.845  0.00  0.00     0.077 C 
ATOM      3  C1  PXY d   1       0.686  -0.051  -2.062  0.00  0.00    -0.082 A 
ATOM      4  C2  PXY d   1       1.127   1.096  -2.553  0.00  0.00     0.003 A 
ATOM      5  C3  PXY d   1       1.919   1.113  -3.672  0.00  0.00     0.003 A 
ATOM      6  C4  PXY d   1       2.308  -0.059  -4.263  0.00  0.00    -0.082 A 
ATOM      7  C5  PXY d   1       1.872  -1.234  -3.762  0.00  0.00     0.003 A 
ATOM      8  C6  PXY d   1       1.035  -1.228  -2.650  0.00  0.00     0.003 A 
ENDROOT
TORSDOF 0
ENDMDL
