MODEL 1
REMARK minimizedAffinity -4.46982002
REMARK minimizedRMSD -1
REMARK  0 active torsions:
REMARK  status: ('A' for Active; 'I' for Inactive)
ROOT
ATOM      1  C2' OXE d   1       1.076   0.967   0.283  0.00  0.00     0.078 C 
ATOM      2  C1' OXE d   1      -1.588   0.228   0.769  0.00  0.00     0.078 C 
ATOM      3  C1  OXE d   1      -1.084   0.150  -0.651  0.00  0.00    -0.078 A 
ATOM      4  C2  OXE d   1       0.207   0.558  -0.886  0.00  0.00    -0.078 A 
ATOM      5  C3  OXE d   1       0.740   0.454  -2.168  0.00  0.00     0.003 A 
ATOM      6  C4  OXE d   1      -0.074   0.084  -3.246  0.00  0.00    -0.002 A 
ATOM      7  C5  OXE d   1      -1.403  -0.298  -3.034  0.00  0.00    -0.002 A 
ATOM      8  C6  OXE d   1      -1.910  -0.311  -1.739  0.00  0.00     0.003 A 
ENDROOT
TORSDOF 0
ENDMDL
