MODEL 1
REMARK minimizedAffinity 0.437580168
REMARK minimizedRMSD -1
REMARK  0 active torsions:
REMARK  status: ('A' for Active; 'I' for Inactive)
ROOT
ATOM      1  C2' OXE d   1       0.712   0.459   0.009  0.00  0.00     0.078 C 
ATOM      2  C1' OXE d   1      -1.544  -0.985   0.850  0.00  0.00     0.078 C 
ATOM      3  C1  OXE d   1      -1.530  -0.463  -0.566  0.00  0.00    -0.078 A 
ATOM      4  C2  OXE d   1      -0.443   0.282  -0.954  0.00  0.00    -0.078 A 
ATOM      5  C3  OXE d   1      -0.354   0.741  -2.265  0.00  0.00     0.003 A 
ATOM      6  C4  OXE d   1      -1.431   0.581  -3.146  0.00  0.00    -0.002 A 
ATOM      7  C5  OXE d   1      -2.565  -0.141  -2.758  0.00  0.00    -0.002 A 
ATOM      8  C6  OXE d   1      -2.612  -0.705  -1.488  0.00  0.00     0.003 A 
ENDROOT
TORSDOF 0
ENDMDL
