MODEL 1
REMARK minimizedAffinity -2.34114552
REMARK minimizedRMSD -1
REMARK  0 active torsions:
REMARK  status: ('A' for Active; 'I' for Inactive)
ROOT
ATOM      1  C2' OXE d   1       0.275   2.359  -0.031  0.00  0.00     0.078 C 
ATOM      2  C1' OXE d   1      -1.962   0.775  -0.639  0.00  0.00     0.078 C 
ATOM      3  C1  OXE d   1      -0.708   0.074  -0.180  0.00  0.00    -0.078 A 
ATOM      4  C2  OXE d   1       0.396   0.853   0.070  0.00  0.00    -0.078 A 
ATOM      5  C3  OXE d   1       1.562   0.263   0.549  0.00  0.00     0.003 A 
ATOM      6  C4  OXE d   1       1.669  -1.131   0.630  0.00  0.00    -0.002 A 
ATOM      7  C5  OXE d   1       0.569  -1.945   0.342  0.00  0.00    -0.002 A 
ATOM      8  C6  OXE d   1      -0.637  -1.357  -0.023  0.00  0.00     0.003 A 
ENDROOT
TORSDOF 0
ENDMDL
