MODEL 1
REMARK minimizedAffinity -3.67305946
REMARK minimizedRMSD -1
REMARK  0 active torsions:
REMARK  status: ('A' for Active; 'I' for Inactive)
ROOT
ATOM      1  C2' OXE d   1       0.694  -1.830   1.961  0.00  0.00     0.078 C 
ATOM      2  C1' OXE d   1       2.627   0.170   1.585  0.00  0.00     0.078 C 
ATOM      3  C1  OXE d   1       1.305   0.327   0.875  0.00  0.00    -0.078 A 
ATOM      4  C2  OXE d   1       0.383  -0.680   1.028  0.00  0.00    -0.078 A 
ATOM      5  C3  OXE d   1      -0.873  -0.559   0.439  0.00  0.00     0.003 A 
ATOM      6  C4  OXE d   1      -1.149   0.503  -0.430  0.00  0.00    -0.002 A 
ATOM      7  C5  OXE d   1      -0.209   1.519  -0.631  0.00  0.00    -0.002 A 
ATOM      8  C6  OXE d   1       1.005   1.468   0.046  0.00  0.00     0.003 A 
ENDROOT
TORSDOF 0
ENDMDL
