MODEL 1
REMARK minimizedAffinity -2.01595187
REMARK minimizedRMSD -1
REMARK  0 active torsions:
REMARK  status: ('A' for Active; 'I' for Inactive)
ROOT
ATOM      1  C2' OXE d   1      -1.737  -0.005  -0.529  0.00  0.00     0.078 C 
ATOM      2  C1' OXE d   1      -0.620  -1.879   1.237  0.00  0.00     0.078 C 
ATOM      3  C1  OXE d   1       0.182  -0.640   0.927  0.00  0.00    -0.078 A 
ATOM      4  C2  OXE d   1      -0.352   0.249   0.025  0.00  0.00    -0.078 A 
ATOM      5  C3  OXE d   1       0.321   1.435  -0.254  0.00  0.00     0.003 A 
ATOM      6  C4  OXE d   1       1.606   1.658   0.255  0.00  0.00    -0.002 A 
ATOM      7  C5  OXE d   1       2.185   0.746   1.144  0.00  0.00    -0.002 A 
ATOM      8  C6  OXE d   1       1.470  -0.385   1.522  0.00  0.00     0.003 A 
ENDROOT
TORSDOF 0
ENDMDL
