MODEL 1
REMARK minimizedAffinity -2.28937459
REMARK minimizedRMSD -1
REMARK  0 active torsions:
REMARK  status: ('A' for Active; 'I' for Inactive)
ROOT
ATOM      1  C2' OXE d   1      -1.177   0.252  -0.474  0.00  0.00     0.078 C 
ATOM      2  C1' OXE d   1       0.799   2.233  -0.698  0.00  0.00     0.078 C 
ATOM      3  C1  OXE d   1       1.068   1.073   0.228  0.00  0.00    -0.078 A 
ATOM      4  C2  OXE d   1       0.076   0.133   0.367  0.00  0.00    -0.078 A 
ATOM      5  C3  OXE d   1       0.294  -0.986   1.166  0.00  0.00     0.003 A 
ATOM      6  C4  OXE d   1       1.451  -1.083   1.948  0.00  0.00    -0.002 A 
ATOM      7  C5  OXE d   1       2.457  -0.116   1.852  0.00  0.00    -0.002 A 
ATOM      8  C6  OXE d   1       2.300   0.944   0.966  0.00  0.00     0.003 A 
ENDROOT
TORSDOF 0
ENDMDL
