MODEL 1
REMARK minimizedAffinity -2.71738935
REMARK minimizedRMSD -1
REMARK  0 active torsions:
REMARK  status: ('A' for Active; 'I' for Inactive)
ROOT
ATOM      1  C2' OXE d   1      -2.316   0.563  -0.917  0.00  0.00     0.078 C 
ATOM      2  C1' OXE d   1      -1.792  -1.265   1.148  0.00  0.00     0.078 C 
ATOM      3  C1  OXE d   1      -0.696  -0.302   0.766  0.00  0.00    -0.078 A 
ATOM      4  C2  OXE d   1      -0.945   0.558  -0.277  0.00  0.00    -0.078 A 
ATOM      5  C3  OXE d   1       0.012   1.504  -0.634  0.00  0.00     0.003 A 
ATOM      6  C4  OXE d   1       1.281   1.486  -0.044  0.00  0.00    -0.002 A 
ATOM      7  C5  OXE d   1       1.570   0.592   0.993  0.00  0.00    -0.002 A 
ATOM      8  C6  OXE d   1       0.580  -0.278   1.438  0.00  0.00     0.003 A 
ENDROOT
TORSDOF 0
ENDMDL
