MODEL 1
REMARK minimizedAffinity 5.74981451
REMARK minimizedRMSD -1
REMARK  2 active torsions:
REMARK  status: ('A' for Active; 'I' for Inactive)
REMARK    1  A    between atoms: C2'_3  and  C1'_4 
REMARK    2  A    between atoms: C1'_4  and  C1_5 
ROOT
ATOM      1  C1  I4B d   1       2.309  -2.037   1.385  0.00  0.00    -0.075 A 
ATOM      2  C2  I4B d   1       2.755  -0.980   0.631  0.00  0.00     0.003 A 
ATOM      3  C3  I4B d   1       2.423  -0.895  -0.743  0.00  0.00     0.002 A 
ATOM      4  C4  I4B d   1       1.690  -1.908  -1.329  0.00  0.00    -0.004 A 
ATOM      5  C5  I4B d   1       1.220  -2.966  -0.557  0.00  0.00     0.002 A 
ATOM      6  C6  I4B d   1       1.521  -3.025   0.811  0.00  0.00     0.003 A 
ENDROOT
BRANCH   1   7
ATOM      7  C1' I4B d   1       2.706  -2.112   2.826  0.00  0.00     0.060 C 
BRANCH   7   8
ATOM      8  C2' I4B d   1       1.457  -2.376   3.641  0.00  0.00    -0.013 C 
ATOM      9  C4' I4B d   1       1.751  -3.275   4.813  0.00  0.00     0.013 C 
ATOM     10  C3' I4B d   1       0.911  -1.055   4.095  0.00  0.00     0.013 C 
ENDBRANCH   7   8
ENDBRANCH   1   7
TORSDOF 2
ENDMDL
