MODEL 1
REMARK minimizedAffinity 5.00222445
REMARK minimizedRMSD -1
REMARK  2 active torsions:
REMARK  status: ('A' for Active; 'I' for Inactive)
REMARK    1  A    between atoms: C2'_3  and  C1'_4 
REMARK    2  A    between atoms: C1'_4  and  C1_5 
ROOT
ATOM      1  C1  I4B d   1      -4.055   1.001  -3.107  0.00  0.00    -0.075 A 
ATOM      2  C2  I4B d   1      -2.981   1.228  -2.284  0.00  0.00     0.003 A 
ATOM      3  C3  I4B d   1      -1.662   1.155  -2.795  0.00  0.00     0.002 A 
ATOM      4  C4  I4B d   1      -1.464   0.804  -4.115  0.00  0.00    -0.004 A 
ATOM      5  C5  I4B d   1      -2.555   0.596  -4.954  0.00  0.00     0.002 A 
ATOM      6  C6  I4B d   1      -3.859   0.707  -4.451  0.00  0.00     0.003 A 
ENDROOT
BRANCH   1   7
ATOM      7  C1' I4B d   1      -5.432   1.054  -2.527  0.00  0.00     0.060 C 
BRANCH   7   8
ATOM      8  C2' I4B d   1      -5.345   1.743  -1.180  0.00  0.00    -0.013 C 
ATOM      9  C4' I4B d   1      -5.996   3.100  -1.218  0.00  0.00     0.013 C 
ATOM     10  C3' I4B d   1      -6.000   0.856  -0.163  0.00  0.00     0.013 C 
ENDBRANCH   7   8
ENDBRANCH   1   7
TORSDOF 2
ENDMDL
