MODEL 1
REMARK minimizedAffinity 4.5003686
REMARK minimizedRMSD -1
REMARK  2 active torsions:
REMARK  status: ('A' for Active; 'I' for Inactive)
REMARK    1  A    between atoms: C2'_3  and  C1'_4 
REMARK    2  A    between atoms: C1'_4  and  C1_5 
ROOT
ATOM      1  C1  I4B d   1       0.866   0.632  -0.096  0.00  0.00    -0.075 A 
ATOM      2  C2  I4B d   1       1.954  -0.184   0.091  0.00  0.00     0.003 A 
ATOM      3  C3  I4B d   1       2.192  -1.267  -0.789  0.00  0.00     0.002 A 
ATOM      4  C4  I4B d   1       1.295  -1.528  -1.805  0.00  0.00    -0.004 A 
ATOM      5  C5  I4B d   1       0.205  -0.686  -2.007  0.00  0.00     0.002 A 
ATOM      6  C6  I4B d   1      -0.005   0.408  -1.155  0.00  0.00     0.003 A 
ENDROOT
BRANCH   1   7
ATOM      7  C1' I4B d   1       0.627   1.748   0.871  0.00  0.00     0.060 C 
BRANCH   7   8
ATOM      8  C2' I4B d   1      -0.793   1.623   1.385  0.00  0.00    -0.013 C 
ATOM      9  C4' I4B d   1      -0.826   0.982   2.748  0.00  0.00     0.013 C 
ATOM     10  C3' I4B d   1      -1.395   2.996   1.418  0.00  0.00     0.013 C 
ENDBRANCH   7   8
ENDBRANCH   1   7
TORSDOF 2
ENDMDL
