MODEL 1
REMARK minimizedAffinity 1.20124435
REMARK minimizedRMSD -1
REMARK  2 active torsions:
REMARK  status: ('A' for Active; 'I' for Inactive)
REMARK    1  A    between atoms: C2'_3  and  C1'_4 
REMARK    2  A    between atoms: C1'_4  and  C1_5 
ROOT
ATOM      1  C1  I4B d   1      -0.189   0.347  -1.949  0.00  0.00    -0.075 A 
ATOM      2  C2  I4B d   1       0.611  -0.709  -1.590  0.00  0.00     0.003 A 
ATOM      3  C3  I4B d   1       1.495  -0.592  -0.490  0.00  0.00     0.002 A 
ATOM      4  C4  I4B d   1       1.582   0.608   0.186  0.00  0.00    -0.004 A 
ATOM      5  C5  I4B d   1       0.753   1.670  -0.165  0.00  0.00     0.002 A 
ATOM      6  C6  I4B d   1      -0.147   1.535  -1.231  0.00  0.00     0.003 A 
ENDROOT
BRANCH   1   7
ATOM      7  C1' I4B d   1      -1.087   0.199  -3.137  0.00  0.00     0.060 C 
BRANCH   7   8
ATOM      8  C2' I4B d   1      -2.269   1.127  -2.946  0.00  0.00    -0.013 C 
ATOM      9  C4' I4B d   1      -2.568   1.896  -4.206  0.00  0.00     0.013 C 
ATOM     10  C3' I4B d   1      -3.446   0.296  -2.526  0.00  0.00     0.013 C 
ENDBRANCH   7   8
ENDBRANCH   1   7
TORSDOF 2
ENDMDL
