MODEL 1
REMARK minimizedAffinity 8.38699436
REMARK minimizedRMSD -1
REMARK  2 active torsions:
REMARK  status: ('A' for Active; 'I' for Inactive)
REMARK    1  A    between atoms: C2'_3  and  C1'_4 
REMARK    2  A    between atoms: C1'_4  and  C1_5 
ROOT
ATOM      1  C1  I4B d   1       2.412  -0.134   1.020  0.00  0.00    -0.075 A 
ATOM      2  C2  I4B d   1       2.988  -1.095   1.813  0.00  0.00     0.003 A 
ATOM      3  C3  I4B d   1       3.111  -2.426   1.347  0.00  0.00     0.002 A 
ATOM      4  C4  I4B d   1       2.602  -2.761   0.109  0.00  0.00    -0.004 A 
ATOM      5  C5  I4B d   1       2.039  -1.782  -0.704  0.00  0.00     0.002 A 
ATOM      6  C6  I4B d   1       1.954  -0.457  -0.251  0.00  0.00     0.003 A 
ENDROOT
BRANCH   1   7
ATOM      7  C1' I4B d   1       2.268   1.254   1.557  0.00  0.00     0.060 C 
BRANCH   7   8
ATOM      8  C2' I4B d   1       1.656   2.114   0.471  0.00  0.00    -0.013 C 
ATOM      9  C4' I4B d   1       0.187   2.338   0.716  0.00  0.00     0.013 C 
ATOM     10  C3' I4B d   1       2.402   3.414   0.434  0.00  0.00     0.013 C 
ENDBRANCH   7   8
ENDBRANCH   1   7
TORSDOF 2
ENDMDL
