MODEL 1
REMARK minimizedAffinity 5.51650429
REMARK minimizedRMSD -1
REMARK  2 active torsions:
REMARK  status: ('A' for Active; 'I' for Inactive)
REMARK    1  A    between atoms: C2'_3  and  C1'_4 
REMARK    2  A    between atoms: C1'_4  and  C1_5 
ROOT
ATOM      1  C1  I4B d   1       2.540  -0.423   2.034  0.00  0.00    -0.075 A 
ATOM      2  C2  I4B d   1       3.540  -1.171   1.465  0.00  0.00     0.003 A 
ATOM      3  C3  I4B d   1       4.221  -0.697   0.318  0.00  0.00     0.002 A 
ATOM      4  C4  I4B d   1       3.838   0.500  -0.253  0.00  0.00    -0.004 A 
ATOM      5  C5  I4B d   1       2.839   1.268   0.339  0.00  0.00     0.002 A 
ATOM      6  C6  I4B d   1       2.194   0.810   1.497  0.00  0.00     0.003 A 
ENDROOT
BRANCH   1   7
ATOM      7  C1' I4B d   1       1.819  -0.970   3.225  0.00  0.00     0.060 C 
BRANCH   7   8
ATOM      8  C2' I4B d   1       1.260   0.200   4.010  0.00  0.00    -0.013 C 
ATOM      9  C4' I4B d   1      -0.244   0.230   3.947  0.00  0.00     0.013 C 
ATOM     10  C3' I4B d   1       1.740   0.079   5.426  0.00  0.00     0.013 C 
ENDBRANCH   7   8
ENDBRANCH   1   7
TORSDOF 2
ENDMDL
