MODEL 1
REMARK minimizedAffinity 6.94266033
REMARK minimizedRMSD -1
REMARK  2 active torsions:
REMARK  status: ('A' for Active; 'I' for Inactive)
REMARK    1  A    between atoms: C2'_3  and  C1'_4 
REMARK    2  A    between atoms: C1'_4  and  C1_5 
ROOT
ATOM      1  C1  I4B d   1       3.596  -1.470   1.077  0.00  0.00    -0.075 A 
ATOM      2  C2  I4B d   1       2.795  -0.518   0.498  0.00  0.00     0.003 A 
ATOM      3  C3  I4B d   1       3.306   0.773   0.224  0.00  0.00     0.002 A 
ATOM      4  C4  I4B d   1       4.600   1.083   0.589  0.00  0.00    -0.004 A 
ATOM      5  C5  I4B d   1       5.419   0.110   1.155  0.00  0.00     0.002 A 
ATOM      6  C6  I4B d   1       4.918  -1.179   1.389  0.00  0.00     0.003 A 
ENDROOT
BRANCH   1   7
ATOM      7  C1' I4B d   1       3.014  -2.814   1.382  0.00  0.00     0.060 C 
BRANCH   7   8
ATOM      8  C2' I4B d   1       1.506  -2.703   1.281  0.00  0.00    -0.013 C 
ATOM      9  C4' I4B d   1       0.938  -3.780   0.395  0.00  0.00     0.013 C 
ATOM     10  C3' I4B d   1       0.941  -2.790   2.668  0.00  0.00     0.013 C 
ENDBRANCH   7   8
ENDBRANCH   1   7
TORSDOF 2
ENDMDL
