MODEL 1
REMARK minimizedAffinity 11.9855909
REMARK minimizedRMSD -1
REMARK  2 active torsions:
REMARK  status: ('A' for Active; 'I' for Inactive)
REMARK    1  A    between atoms: C2'_3  and  C1'_4 
REMARK    2  A    between atoms: C1'_4  and  C1_5 
ROOT
ATOM      1  C1  I4B d   1       2.219  -1.383   2.330  0.00  0.00    -0.075 A 
ATOM      2  C2  I4B d   1       1.709  -0.109   2.286  0.00  0.00     0.003 A 
ATOM      3  C3  I4B d   1       0.752   0.308   3.241  0.00  0.00     0.002 A 
ATOM      4  C4  I4B d   1       0.297  -0.590   4.186  0.00  0.00    -0.004 A 
ATOM      5  C5  I4B d   1       0.832  -1.873   4.243  0.00  0.00     0.002 A 
ATOM      6  C6  I4B d   1       1.808  -2.269   3.317  0.00  0.00     0.003 A 
ENDROOT
BRANCH   1   7
ATOM      7  C1' I4B d   1       3.205  -1.801   1.285  0.00  0.00     0.060 C 
BRANCH   7   8
ATOM      8  C2' I4B d   1       2.504  -1.769  -0.057  0.00  0.00    -0.013 C 
ATOM      9  C4' I4B d   1       3.485  -1.550  -1.179  0.00  0.00     0.013 C 
ATOM     10  C3' I4B d   1       1.769  -3.065  -0.227  0.00  0.00     0.013 C 
ENDBRANCH   7   8
ENDBRANCH   1   7
TORSDOF 2
ENDMDL
