MODEL 1
REMARK minimizedAffinity 11.0455904
REMARK minimizedRMSD -1
REMARK  2 active torsions:
REMARK  status: ('A' for Active; 'I' for Inactive)
REMARK    1  A    between atoms: C2'_3  and  C1'_4 
REMARK    2  A    between atoms: C1'_4  and  C1_5 
ROOT
ATOM      1  C1  I4B d   1       1.990   0.608   0.209  0.00  0.00    -0.075 A 
ATOM      2  C2  I4B d   1       2.684   1.688   0.695  0.00  0.00     0.003 A 
ATOM      3  C3  I4B d   1       2.030   2.929   0.882  0.00  0.00     0.002 A 
ATOM      4  C4  I4B d   1       0.703   3.059   0.525  0.00  0.00    -0.004 A 
ATOM      5  C5  I4B d   1      -0.005   1.957   0.054  0.00  0.00     0.002 A 
ATOM      6  C6  I4B d   1       0.640   0.720  -0.094  0.00  0.00     0.003 A 
ENDROOT
BRANCH   1   7
ATOM      7  C1' I4B d   1       2.721  -0.680  -0.008  0.00  0.00     0.060 C 
BRANCH   7   8
ATOM      8  C2' I4B d   1       1.781  -1.636  -0.713  0.00  0.00    -0.013 C 
ATOM      9  C4' I4B d   1       2.304  -2.008  -2.076  0.00  0.00     0.013 C 
ATOM     10  C3' I4B d   1       1.618  -2.849   0.153  0.00  0.00     0.013 C 
ENDBRANCH   7   8
ENDBRANCH   1   7
TORSDOF 2
ENDMDL
