MODEL 1
REMARK minimizedAffinity 0.0598779209
REMARK minimizedRMSD -1
REMARK  2 active torsions:
REMARK  status: ('A' for Active; 'I' for Inactive)
REMARK    1  A    between atoms: C2'_3  and  C1'_4 
REMARK    2  A    between atoms: C1'_4  and  C1_5 
ROOT
ATOM      1  C1  I4B d   1       1.831  -0.416  -1.060  0.00  0.00    -0.075 A 
ATOM      2  C2  I4B d   1       2.744  -1.235  -1.676  0.00  0.00     0.003 A 
ATOM      3  C3  I4B d   1       4.016  -0.733  -2.046  0.00  0.00     0.002 A 
ATOM      4  C4  I4B d   1       4.311   0.597  -1.829  0.00  0.00    -0.004 A 
ATOM      5  C5  I4B d   1       3.392   1.420  -1.184  0.00  0.00     0.002 A 
ATOM      6  C6  I4B d   1       2.148   0.907  -0.786  0.00  0.00     0.003 A 
ENDROOT
BRANCH   1   7
ATOM      7  C1' I4B d   1       0.486  -0.971  -0.713  0.00  0.00     0.060 C 
BRANCH   7   8
ATOM      8  C2' I4B d   1      -0.545  -0.270  -1.574  0.00  0.00    -0.013 C 
ATOM      9  C4' I4B d   1      -0.492  -0.762  -2.997  0.00  0.00     0.013 C 
ATOM     10  C3' I4B d   1      -1.895  -0.510  -0.968  0.00  0.00     0.013 C 
ENDBRANCH   7   8
ENDBRANCH   1   7
TORSDOF 2
ENDMDL
