MODEL 1
REMARK minimizedAffinity 11.3014202
REMARK minimizedRMSD -1
REMARK  0 active torsions:
REMARK  status: ('A' for Active; 'I' for Inactive)
ROOT
ATOM      1  C   UNL d   1       1.853  -2.691   6.000  0.00  0.00    -0.002 A 
ATOM      2  C1  UNL d   1       2.558  -3.735   5.417  0.00  0.00     0.010 A 
ATOM      3  C2  UNL d   1       2.848  -3.721   4.051  0.00  0.00     0.041 A 
ATOM      4  C3  UNL d   1       2.414  -2.629   3.274  0.00  0.00    -0.075 A 
ATOM      5  S   UNL d   1       2.655  -2.396   1.583  0.00  0.00     0.015 SA
ATOM      6  C4  UNL d   1       1.829  -0.905   1.594  0.00  0.00     0.022 A 
ATOM      7  C5  UNL d   1       1.373  -0.578   2.849  0.00  0.00     0.026 A 
ATOM      8  C6  UNL d   1       1.704  -1.565   3.838  0.00  0.00    -0.082 A 
ATOM      9  C7  UNL d   1       1.425  -1.610   5.225  0.00  0.00     0.045 A 
ENDROOT
TORSDOF 0
ENDMDL
