MODEL 1
REMARK minimizedAffinity 22.093111
REMARK minimizedRMSD -1
REMARK  0 active torsions:
REMARK  status: ('A' for Active; 'I' for Inactive)
ROOT
ATOM      1  C   UNL d   1      -2.623   0.356  -1.902  0.00  0.00    -0.002 A 
ATOM      2  C1  UNL d   1      -3.245  -0.649  -2.629  0.00  0.00     0.010 A 
ATOM      3  C2  UNL d   1      -3.742  -0.395  -3.909  0.00  0.00     0.041 A 
ATOM      4  C3  UNL d   1      -3.600   0.898  -4.451  0.00  0.00    -0.075 A 
ATOM      5  S   UNL d   1      -4.131   1.439  -6.000  0.00  0.00     0.015 SA
ATOM      6  C4  UNL d   1      -3.544   3.017  -5.732  0.00  0.00     0.022 A 
ATOM      7  C5  UNL d   1      -2.954   3.145  -4.497  0.00  0.00     0.026 A 
ATOM      8  C6  UNL d   1      -2.977   1.926  -3.738  0.00  0.00    -0.082 A 
ATOM      9  C7  UNL d   1      -2.484   1.637  -2.443  0.00  0.00     0.045 A 
ENDROOT
TORSDOF 0
ENDMDL
