MODEL 1
REMARK minimizedAffinity 16.8634129
REMARK minimizedRMSD -1
REMARK  0 active torsions:
REMARK  status: ('A' for Active; 'I' for Inactive)
ROOT
ATOM      1  C   UNL d   1      -1.889  -4.640  -0.240  0.00  0.00    -0.002 A 
ATOM      2  C1  UNL d   1      -0.747  -5.293  -0.680  0.00  0.00     0.010 A 
ATOM      3  C2  UNL d   1       0.519  -4.773  -0.405  0.00  0.00     0.041 A 
ATOM      4  C3  UNL d   1       0.619  -3.575   0.329  0.00  0.00    -0.075 A 
ATOM      5  S   UNL d   1       2.064  -2.753   0.785  0.00  0.00     0.015 SA
ATOM      6  C4  UNL d   1       1.199  -1.515   1.576  0.00  0.00     0.022 A 
ATOM      7  C5  UNL d   1      -0.160  -1.709   1.503  0.00  0.00     0.026 A 
ATOM      8  C6  UNL d   1      -0.517  -2.899   0.784  0.00  0.00    -0.082 A 
ATOM      9  C7  UNL d   1      -1.786  -3.451   0.487  0.00  0.00     0.045 A 
ENDROOT
TORSDOF 0
ENDMDL
