MODEL 1
REMARK minimizedAffinity 15.1754713
REMARK minimizedRMSD -1
REMARK  0 active torsions:
REMARK  status: ('A' for Active; 'I' for Inactive)
ROOT
ATOM      1  C   UNL d   1       1.652  -3.010   5.997  0.00  0.00    -0.002 A 
ATOM      2  C1  UNL d   1       2.447  -3.987   5.414  0.00  0.00     0.010 A 
ATOM      3  C2  UNL d   1       2.691  -3.978   4.039  0.00  0.00     0.041 A 
ATOM      4  C3  UNL d   1       2.117  -2.960   3.252  0.00  0.00    -0.075 A 
ATOM      5  S   UNL d   1       2.279  -2.747   1.549  0.00  0.00     0.015 SA
ATOM      6  C4  UNL d   1       1.297  -1.354   1.555  0.00  0.00     0.022 A 
ATOM      7  C5  UNL d   1       0.848  -1.045   2.817  0.00  0.00     0.026 A 
ATOM      8  C6  UNL d   1       1.314  -1.964   3.816  0.00  0.00    -0.082 A 
ATOM      9  C7  UNL d   1       1.085  -2.002   5.213  0.00  0.00     0.045 A 
ENDROOT
TORSDOF 0
ENDMDL
