MODEL 1
REMARK minimizedAffinity -2.84413719
REMARK minimizedRMSD -1
REMARK  3 active torsions:
REMARK  status: ('A' for Active; 'I' for Inactive)
REMARK    1  A    between atoms: C3'_2  and  C2'_3 
REMARK    2  A    between atoms: C2'_3  and  C1'_4 
REMARK    3  A    between atoms: C1'_4  and  C1_5 
ROOT
ATOM      1  C1  N4B d   1       0.164   0.699   0.554  0.00  0.00    -0.075 A 
ATOM      2  C2  N4B d   1      -1.181   0.483   0.927  0.00  0.00     0.002 A 
ATOM      3  C3  N4B d   1      -1.562  -0.726   1.455  0.00  0.00     0.002 A 
ATOM      4  C4  N4B d   1      -0.623  -1.736   1.603  0.00  0.00    -0.004 A 
ATOM      5  C5  N4B d   1       0.679  -1.511   1.265  0.00  0.00     0.002 A 
ATOM      6  C6  N4B d   1       1.077  -0.299   0.736  0.00  0.00     0.002 A 
ENDROOT
BRANCH   1   7
ATOM      7  C1' N4B d   1       0.610   1.974  -0.107  0.00  0.00     0.057 C 
BRANCH   7   8
ATOM      8  C2' N4B d   1       2.134   2.043  -0.085  0.00  0.00     0.009 C 
BRANCH   8   9
ATOM      9  C3' N4B d   1       2.638   3.215   0.740  0.00  0.00     0.004 C 
ATOM     10  C4' N4B d   1       2.664   2.921   2.210  0.00  0.00     0.003 C 
ENDBRANCH   8   9
ENDBRANCH   7   8
ENDBRANCH   1   7
TORSDOF 3
ENDMDL
