MODEL 1
REMARK minimizedAffinity -4.63430643
REMARK minimizedRMSD -1
REMARK  3 active torsions:
REMARK  status: ('A' for Active; 'I' for Inactive)
REMARK    1  A    between atoms: C3'_2  and  C2'_3 
REMARK    2  A    between atoms: C2'_3  and  C1'_4 
REMARK    3  A    between atoms: C1'_4  and  C1_5 
ROOT
ATOM      1  C1  N4B d   1      -0.625   0.078  -0.601  0.00  0.00    -0.075 A 
ATOM      2  C2  N4B d   1      -1.286   0.448   0.591  0.00  0.00     0.002 A 
ATOM      3  C3  N4B d   1      -2.593   0.080   0.793  0.00  0.00     0.002 A 
ATOM      4  C4  N4B d   1      -3.263  -0.640  -0.185  0.00  0.00    -0.004 A 
ATOM      5  C5  N4B d   1      -2.609  -1.016  -1.322  0.00  0.00     0.002 A 
ATOM      6  C6  N4B d   1      -1.294  -0.656  -1.538  0.00  0.00     0.002 A 
ENDROOT
BRANCH   1   7
ATOM      7  C1' N4B d   1       0.777   0.531  -0.905  0.00  0.00     0.057 C 
BRANCH   7   8
ATOM      8  C2' N4B d   1       1.645   0.343   0.336  0.00  0.00     0.009 C 
BRANCH   8   9
ATOM      9  C3' N4B d   1       2.698   1.431   0.463  0.00  0.00     0.004 C 
ATOM     10  C4' N4B d   1       2.828   1.952   1.863  0.00  0.00     0.003 C 
ENDBRANCH   8   9
ENDBRANCH   7   8
ENDBRANCH   1   7
TORSDOF 3
ENDMDL
