MODEL 1
REMARK minimizedAffinity 3.20495725
REMARK minimizedRMSD -1
REMARK  3 active torsions:
REMARK  status: ('A' for Active; 'I' for Inactive)
REMARK    1  A    between atoms: C3'_2  and  C2'_3 
REMARK    2  A    between atoms: C2'_3  and  C1'_4 
REMARK    3  A    between atoms: C1'_4  and  C1_5 
ROOT
ATOM      1  C1  N4B d   1      -1.444  -0.820  -0.244  0.00  0.00    -0.075 A 
ATOM      2  C2  N4B d   1      -2.523  -0.474   0.599  0.00  0.00     0.002 A 
ATOM      3  C3  N4B d   1      -2.346  -0.433   1.960  0.00  0.00     0.002 A 
ATOM      4  C4  N4B d   1      -1.109  -0.751   2.500  0.00  0.00    -0.004 A 
ATOM      5  C5  N4B d   1      -0.065  -1.060   1.678  0.00  0.00     0.002 A 
ATOM      6  C6  N4B d   1      -0.228  -1.101   0.308  0.00  0.00     0.002 A 
ENDROOT
BRANCH   1   7
ATOM      7  C1' N4B d   1      -1.613  -0.962  -1.732  0.00  0.00     0.057 C 
BRANCH   7   8
ATOM      8  C2' N4B d   1      -2.750  -1.938  -2.017  0.00  0.00     0.009 C 
BRANCH   8   9
ATOM      9  C3' N4B d   1      -2.369  -2.964  -3.070  0.00  0.00     0.004 C 
ATOM     10  C4' N4B d   1      -2.631  -4.373  -2.630  0.00  0.00     0.003 C 
ENDBRANCH   8   9
ENDBRANCH   7   8
ENDBRANCH   1   7
TORSDOF 3
ENDMDL
