MODEL 1
REMARK minimizedAffinity -6.25513363
REMARK minimizedRMSD -1
REMARK  3 active torsions:
REMARK  status: ('A' for Active; 'I' for Inactive)
REMARK    1  A    between atoms: C3'_2  and  C2'_3 
REMARK    2  A    between atoms: C2'_3  and  C1'_4 
REMARK    3  A    between atoms: C1'_4  and  C1_5 
ROOT
ATOM      1  C1  N4B d   1      -0.877   0.250  -0.171  0.00  0.00    -0.075 A 
ATOM      2  C2  N4B d   1      -1.792  -0.518   0.582  0.00  0.00     0.002 A 
ATOM      3  C3  N4B d   1      -2.952  -0.969   0.001  0.00  0.00     0.002 A 
ATOM      4  C4  N4B d   1      -3.226  -0.650  -1.321  0.00  0.00    -0.004 A 
ATOM      5  C5  N4B d   1      -2.325   0.071  -2.049  0.00  0.00     0.002 A 
ATOM      6  C6  N4B d   1      -1.154   0.527  -1.479  0.00  0.00     0.002 A 
ENDROOT
BRANCH   1   7
ATOM      7  C1' N4B d   1       0.363   0.837   0.445  0.00  0.00     0.057 C 
BRANCH   7   8
ATOM      8  C2' N4B d   1      -0.037   1.945   1.415  0.00  0.00     0.009 C 
BRANCH   8   9
ATOM      9  C3' N4B d   1       1.026   3.026   1.512  0.00  0.00     0.004 C 
ATOM     10  C4' N4B d   1       2.407   2.510   1.235  0.00  0.00     0.003 C 
ENDBRANCH   8   9
ENDBRANCH   7   8
ENDBRANCH   1   7
TORSDOF 3
ENDMDL
