MODEL 1
REMARK minimizedAffinity -5.64063215
REMARK minimizedRMSD -1
REMARK  3 active torsions:
REMARK  status: ('A' for Active; 'I' for Inactive)
REMARK    1  A    between atoms: C3'_2  and  C2'_3 
REMARK    2  A    between atoms: C2'_3  and  C1'_4 
REMARK    3  A    between atoms: C1'_4  and  C1_5 
ROOT
ATOM      1  C1  N4B d   1       0.031   0.005   0.099  0.00  0.00    -0.075 A 
ATOM      2  C2  N4B d   1       0.023   0.147  -1.306  0.00  0.00     0.002 A 
ATOM      3  C3  N4B d   1      -1.073  -0.252  -2.030  0.00  0.00     0.002 A 
ATOM      4  C4  N4B d   1      -2.161  -0.811  -1.376  0.00  0.00    -0.004 A 
ATOM      5  C5  N4B d   1      -2.156  -0.920  -0.016  0.00  0.00     0.002 A 
ATOM      6  C6  N4B d   1      -1.063  -0.520   0.725  0.00  0.00     0.002 A 
ENDROOT
BRANCH   1   7
ATOM      7  C1' N4B d   1       1.240   0.348   0.925  0.00  0.00     0.057 C 
BRANCH   7   8
ATOM      8  C2' N4B d   1       2.247   1.094   0.054  0.00  0.00     0.009 C 
BRANCH   8   9
ATOM      9  C3' N4B d   1       3.005   2.150   0.840  0.00  0.00     0.004 C 
ATOM     10  C4' N4B d   1       2.997   3.491   0.168  0.00  0.00     0.003 C 
ENDBRANCH   8   9
ENDBRANCH   7   8
ENDBRANCH   1   7
TORSDOF 3
ENDMDL
