MODEL 1
REMARK minimizedAffinity -4.02185154
REMARK minimizedRMSD -1
REMARK  3 active torsions:
REMARK  status: ('A' for Active; 'I' for Inactive)
REMARK    1  A    between atoms: C3'_2  and  C2'_3 
REMARK    2  A    between atoms: C2'_3  and  C1'_4 
REMARK    3  A    between atoms: C1'_4  and  C1_5 
ROOT
ATOM      1  C1  N4B d   1      -0.643  -0.134  -0.097  0.00  0.00    -0.075 A 
ATOM      2  C2  N4B d   1      -1.311  -1.313   0.301  0.00  0.00     0.002 A 
ATOM      3  C3  N4B d   1      -2.288  -1.852  -0.499  0.00  0.00     0.002 A 
ATOM      4  C4  N4B d   1      -2.628  -1.221  -1.686  0.00  0.00    -0.004 A 
ATOM      5  C5  N4B d   1      -1.961  -0.097  -2.076  0.00  0.00     0.002 A 
ATOM      6  C6  N4B d   1      -0.973   0.454  -1.284  0.00  0.00     0.002 A 
ENDROOT
BRANCH   1   7
ATOM      7  C1' N4B d   1       0.372   0.540   0.785  0.00  0.00     0.057 C 
BRANCH   7   8
ATOM      8  C2' N4B d   1       1.763   0.336   0.192  0.00  0.00     0.009 C 
BRANCH   8   9
ATOM      9  C3' N4B d   1       2.659   1.542   0.418  0.00  0.00     0.004 C 
ATOM     10  C4' N4B d   1       2.408   2.214   1.735  0.00  0.00     0.003 C 
ENDBRANCH   8   9
ENDBRANCH   7   8
ENDBRANCH   1   7
TORSDOF 3
ENDMDL
