MODEL 1
REMARK minimizedAffinity -3.54909825
REMARK minimizedRMSD -1
REMARK  3 active torsions:
REMARK  status: ('A' for Active; 'I' for Inactive)
REMARK    1  A    between atoms: C3'_2  and  C2'_3 
REMARK    2  A    between atoms: C2'_3  and  C1'_4 
REMARK    3  A    between atoms: C1'_4  and  C1_5 
ROOT
ATOM      1  C1  N4B d   1      -0.859   0.075   0.251  0.00  0.00    -0.075 A 
ATOM      2  C2  N4B d   1      -0.421   0.889  -0.816  0.00  0.00     0.002 A 
ATOM      3  C3  N4B d   1       0.901   1.249  -0.908  0.00  0.00     0.002 A 
ATOM      4  C4  N4B d   1       1.797   0.822   0.062  0.00  0.00    -0.004 A 
ATOM      5  C5  N4B d   1       1.371   0.015   1.075  0.00  0.00     0.002 A 
ATOM      6  C6  N4B d   1       0.045  -0.357   1.178  0.00  0.00     0.002 A 
ENDROOT
BRANCH   1   7
ATOM      7  C1' N4B d   1      -2.310  -0.273   0.441  0.00  0.00     0.057 C 
BRANCH   7   8
ATOM      8  C2' N4B d   1      -2.688  -1.390  -0.528  0.00  0.00     0.009 C 
BRANCH   8   9
ATOM      9  C3' N4B d   1      -1.956  -1.265  -1.853  0.00  0.00     0.004 C 
ATOM     10  C4' N4B d   1      -2.166  -2.451  -2.746  0.00  0.00     0.003 C 
ENDBRANCH   8   9
ENDBRANCH   7   8
ENDBRANCH   1   7
TORSDOF 3
ENDMDL
