MODEL 1
REMARK minimizedAffinity 3.06179667
REMARK minimizedRMSD -1
REMARK  2 active torsions:
REMARK  status: ('A' for Active; 'I' for Inactive)
REMARK    1  A    between atoms: C1_2  and  C2_3 
REMARK    2  A    between atoms: C2_3  and  C3_4 
ROOT
ATOM      1  C3  UNL d   1       0.759   1.672   1.111  0.00  0.00    -0.075 A 
ATOM      2  C4  UNL d   1       0.389   1.415   2.439  0.00  0.00     0.002 A 
ATOM      3  C5  UNL d   1      -0.945   1.518   2.834  0.00  0.00     0.002 A 
ATOM      4  C6  UNL d   1      -1.922   1.888   1.912  0.00  0.00    -0.004 A 
ATOM      5  C7  UNL d   1      -1.562   2.162   0.594  0.00  0.00     0.002 A 
ATOM      6  C8  UNL d   1      -0.229   2.055   0.195  0.00  0.00     0.002 A 
ENDROOT
BRANCH   1   7
ATOM      7  C2  UNL d   1       2.197   1.533   0.669  0.00  0.00     0.056 C 
BRANCH   7   8
ATOM      8  C1  UNL d   1       2.451   0.345  -0.265  0.00  0.00     0.007 C 
ATOM      9  C   UNL d   1       3.325  -0.734   0.361  0.00  0.00     0.009 C 
ENDBRANCH   7   8
ENDBRANCH   1   7
TORSDOF 2
ENDMDL
