MODEL 1
REMARK minimizedAffinity 10.0570631
REMARK minimizedRMSD -1
REMARK  2 active torsions:
REMARK  status: ('A' for Active; 'I' for Inactive)
REMARK    1  A    between atoms: C1_2  and  C2_3 
REMARK    2  A    between atoms: C2_3  and  C3_4 
ROOT
ATOM      1  C3  UNL d   1      -0.200  -2.137  -1.621  0.00  0.00    -0.075 A 
ATOM      2  C4  UNL d   1       0.978  -2.308  -0.880  0.00  0.00     0.002 A 
ATOM      3  C5  UNL d   1       1.490  -1.262  -0.112  0.00  0.00     0.002 A 
ATOM      4  C6  UNL d   1       0.838  -0.032  -0.083  0.00  0.00    -0.004 A 
ATOM      5  C7  UNL d   1      -0.324   0.155  -0.828  0.00  0.00     0.002 A 
ATOM      6  C8  UNL d   1      -0.841  -0.891  -1.594  0.00  0.00     0.002 A 
ENDROOT
BRANCH   1   7
ATOM      7  C2  UNL d   1      -0.776  -3.274  -2.431  0.00  0.00     0.056 C 
BRANCH   7   8
ATOM      8  C1  UNL d   1      -1.053  -2.919  -3.896  0.00  0.00     0.007 C 
ATOM      9  C   UNL d   1      -1.943  -3.933  -4.602  0.00  0.00     0.009 C 
ENDBRANCH   7   8
ENDBRANCH   1   7
TORSDOF 2
ENDMDL
