MODEL 1
REMARK minimizedAffinity 3.37520933
REMARK minimizedRMSD -1
REMARK  2 active torsions:
REMARK  status: ('A' for Active; 'I' for Inactive)
REMARK    1  A    between atoms: C2'_3  and  C1'_4 
REMARK    2  A    between atoms: C1'_4  and  C1_5 
ROOT
ATOM      1  C1  I4B d   1       2.002  -1.636   0.353  0.00  0.00    -0.075 A 
ATOM      2  C2  I4B d   1       0.815  -1.170   0.861  0.00  0.00     0.003 A 
ATOM      3  C3  I4B d   1      -0.347  -1.977   0.810  0.00  0.00     0.002 A 
ATOM      4  C4  I4B d   1      -0.290  -3.214   0.200  0.00  0.00    -0.004 A 
ATOM      5  C5  I4B d   1       0.920  -3.693  -0.295  0.00  0.00     0.002 A 
ATOM      6  C6  I4B d   1       2.076  -2.904  -0.207  0.00  0.00     0.003 A 
ENDROOT
BRANCH   1   7
ATOM      7  C1' I4B d   1       3.203  -0.744   0.394  0.00  0.00     0.060 C 
BRANCH   7   8
ATOM      8  C2' I4B d   1       3.790  -0.816   1.789  0.00  0.00    -0.013 C 
ATOM      9  C4' I4B d   1       5.292  -0.910   1.744  0.00  0.00     0.013 C 
ATOM     10  C3' I4B d   1       3.346   0.403   2.542  0.00  0.00     0.013 C 
ENDBRANCH   7   8
ENDBRANCH   1   7
TORSDOF 2
ENDMDL
