MODEL 1
REMARK minimizedAffinity 11.8278437
REMARK minimizedRMSD -1
REMARK  2 active torsions:
REMARK  status: ('A' for Active; 'I' for Inactive)
REMARK    1  A    between atoms: C2'_3  and  C1'_4 
REMARK    2  A    between atoms: C1'_4  and  C1_5 
ROOT
ATOM      1  C1  I4B d   1      -5.166  -4.573   3.579  0.00  0.00    -0.075 A 
ATOM      2  C2  I4B d   1      -5.210  -3.652   4.596  0.00  0.00     0.003 A 
ATOM      3  C3  I4B d   1      -4.512  -3.889   5.804  0.00  0.00     0.002 A 
ATOM      4  C4  I4B d   1      -3.827  -5.076   5.972  0.00  0.00    -0.004 A 
ATOM      5  C5  I4B d   1      -3.764  -5.998   4.931  0.00  0.00     0.002 A 
ATOM      6  C6  I4B d   1      -4.427  -5.740   3.723  0.00  0.00     0.003 A 
ENDROOT
BRANCH   1   7
ATOM      7  C1' I4B d   1      -5.943  -4.305   2.329  0.00  0.00     0.060 C 
BRANCH   7   8
ATOM      8  C2' I4B d   1      -4.976  -3.797   1.279  0.00  0.00    -0.013 C 
ATOM      9  C4' I4B d   1      -5.697  -3.416   0.013  0.00  0.00     0.013 C 
ATOM     10  C3' I4B d   1      -4.239  -2.625   1.856  0.00  0.00     0.013 C 
ENDBRANCH   7   8
ENDBRANCH   1   7
TORSDOF 2
ENDMDL
