MODEL 1
REMARK minimizedAffinity -2.01399493
REMARK minimizedRMSD -1
REMARK  2 active torsions:
REMARK  status: ('A' for Active; 'I' for Inactive)
REMARK    1  A    between atoms: C2'_3  and  C1'_4 
REMARK    2  A    between atoms: C1'_4  and  C1_5 
ROOT
ATOM      1  C1  I4B d   1      -5.755  -4.722   3.235  0.00  0.00    -0.075 A 
ATOM      2  C2  I4B d   1      -6.000  -3.611   4.003  0.00  0.00     0.003 A 
ATOM      3  C3  I4B d   1      -5.808  -3.656   5.405  0.00  0.00     0.002 A 
ATOM      4  C4  I4B d   1      -5.421  -4.840   6.000  0.00  0.00    -0.004 A 
ATOM      5  C5  I4B d   1      -5.151  -5.959   5.218  0.00  0.00     0.002 A 
ATOM      6  C6  I4B d   1      -5.307  -5.897   3.825  0.00  0.00     0.003 A 
ENDROOT
BRANCH   1   7
ATOM      7  C1' I4B d   1      -5.999  -4.649   1.761  0.00  0.00     0.060 C 
BRANCH   7   8
ATOM      8  C2' I4B d   1      -5.345  -3.385   1.242  0.00  0.00    -0.013 C 
ATOM      9  C4' I4B d   1      -3.856  -3.563   1.096  0.00  0.00     0.013 C 
ATOM     10  C3' I4B d   1      -5.980  -3.041  -0.072  0.00  0.00     0.013 C 
ENDBRANCH   7   8
ENDBRANCH   1   7
TORSDOF 2
ENDMDL
