MODEL 1
REMARK minimizedAffinity 2.14269495
REMARK minimizedRMSD -1
REMARK  2 active torsions:
REMARK  status: ('A' for Active; 'I' for Inactive)
REMARK    1  A    between atoms: C2'_3  and  C1'_4 
REMARK    2  A    between atoms: C1'_4  and  C1_5 
ROOT
ATOM      1  C1  I4B d   1       0.744  -1.484  -0.356  0.00  0.00    -0.075 A 
ATOM      2  C2  I4B d   1      -0.484  -1.277   0.223  0.00  0.00     0.003 A 
ATOM      3  C3  I4B d   1      -0.586  -0.555   1.437  0.00  0.00     0.002 A 
ATOM      4  C4  I4B d   1       0.560  -0.105   2.059  0.00  0.00    -0.004 A 
ATOM      5  C5  I4B d   1       1.801  -0.295   1.458  0.00  0.00     0.002 A 
ATOM      6  C6  I4B d   1       1.893  -0.978   0.237  0.00  0.00     0.003 A 
ENDROOT
BRANCH   1   7
ATOM      7  C1' I4B d   1       0.819  -2.279  -1.621  0.00  0.00     0.060 C 
BRANCH   7   8
ATOM      8  C2' I4B d   1       0.800  -3.748  -1.250  0.00  0.00    -0.013 C 
ATOM      9  C4' I4B d   1       0.471  -4.607  -2.443  0.00  0.00     0.013 C 
ATOM     10  C3' I4B d   1       2.143  -4.100  -0.684  0.00  0.00     0.013 C 
ENDBRANCH   7   8
ENDBRANCH   1   7
TORSDOF 2
ENDMDL
