MODEL 1
REMARK minimizedAffinity 1.68901801
REMARK minimizedRMSD -1
REMARK  2 active torsions:
REMARK  status: ('A' for Active; 'I' for Inactive)
REMARK    1  A    between atoms: C2'_3  and  C1'_4 
REMARK    2  A    between atoms: C1'_4  and  C1_5 
ROOT
ATOM      1  C1  I4B d   1      -1.364  -0.928   2.031  0.00  0.00    -0.075 A 
ATOM      2  C2  I4B d   1      -1.211  -0.697   3.376  0.00  0.00     0.003 A 
ATOM      3  C3  I4B d   1      -1.513   0.575   3.919  0.00  0.00     0.002 A 
ATOM      4  C4  I4B d   1      -1.913   1.595   3.080  0.00  0.00    -0.004 A 
ATOM      5  C5  I4B d   1      -2.090   1.352   1.721  0.00  0.00     0.002 A 
ATOM      6  C6  I4B d   1      -1.826   0.080   1.195  0.00  0.00     0.003 A 
ENDROOT
BRANCH   1   7
ATOM      7  C1' I4B d   1      -1.005  -2.274   1.486  0.00  0.00     0.060 C 
BRANCH   7   8
ATOM      8  C2' I4B d   1      -0.048  -2.068   0.329  0.00  0.00    -0.013 C 
ATOM      9  C4' I4B d   1       1.237  -1.433   0.791  0.00  0.00     0.013 C 
ATOM     10  C3' I4B d   1       0.205  -3.404  -0.305  0.00  0.00     0.013 C 
ENDBRANCH   7   8
ENDBRANCH   1   7
TORSDOF 2
ENDMDL
