MODEL 1
REMARK minimizedAffinity 7.17860937
REMARK minimizedRMSD -1
REMARK  2 active torsions:
REMARK  status: ('A' for Active; 'I' for Inactive)
REMARK    1  A    between atoms: C2'_3  and  C1'_4 
REMARK    2  A    between atoms: C1'_4  and  C1_5 
ROOT
ATOM      1  C1  I4B d   1       1.495  -3.618  -0.323  0.00  0.00    -0.075 A 
ATOM      2  C2  I4B d   1       0.200  -4.072  -0.303  0.00  0.00     0.003 A 
ATOM      3  C3  I4B d   1      -0.829  -3.267   0.245  0.00  0.00     0.002 A 
ATOM      4  C4  I4B d   1      -0.512  -2.046   0.803  0.00  0.00    -0.004 A 
ATOM      5  C5  I4B d   1       0.799  -1.578   0.761  0.00  0.00     0.002 A 
ATOM      6  C6  I4B d   1       1.807  -2.363   0.183  0.00  0.00     0.003 A 
ENDROOT
BRANCH   1   7
ATOM      7  C1' I4B d   1       2.561  -4.507  -0.880  0.00  0.00     0.060 C 
BRANCH   7   8
ATOM      8  C2' I4B d   1       3.744  -4.466   0.066  0.00  0.00    -0.013 C 
ATOM      9  C4' I4B d   1       4.468  -5.787   0.093  0.00  0.00     0.013 C 
ATOM     10  C3' I4B d   1       4.653  -3.359  -0.377  0.00  0.00     0.013 C 
ENDBRANCH   7   8
ENDBRANCH   1   7
TORSDOF 2
ENDMDL
