MODEL 1
REMARK minimizedAffinity 4.27548456
REMARK minimizedRMSD -1
REMARK  2 active torsions:
REMARK  status: ('A' for Active; 'I' for Inactive)
REMARK    1  A    between atoms: C2'_3  and  C1'_4 
REMARK    2  A    between atoms: C1'_4  and  C1_5 
ROOT
ATOM      1  C1  I4B d   1      -5.164  -3.748   3.808  0.00  0.00    -0.075 A 
ATOM      2  C2  I4B d   1      -5.798  -4.857   3.306  0.00  0.00     0.003 A 
ATOM      3  C3  I4B d   1      -5.998  -5.995   4.124  0.00  0.00     0.002 A 
ATOM      4  C4  I4B d   1      -5.507  -6.000   5.414  0.00  0.00    -0.004 A 
ATOM      5  C5  I4B d   1      -4.885  -4.866   5.929  0.00  0.00     0.002 A 
ATOM      6  C6  I4B d   1      -4.723  -3.728   5.125  0.00  0.00     0.003 A 
ENDROOT
BRANCH   1   7
ATOM      7  C1' I4B d   1      -4.940  -2.576   2.906  0.00  0.00     0.060 C 
BRANCH   7   8
ATOM      8  C2' I4B d   1      -4.640  -3.105   1.518  0.00  0.00    -0.013 C 
ATOM      9  C4' I4B d   1      -4.109  -4.513   1.575  0.00  0.00     0.013 C 
ATOM     10  C3' I4B d   1      -5.904  -3.035   0.714  0.00  0.00     0.013 C 
ENDBRANCH   7   8
ENDBRANCH   1   7
TORSDOF 2
ENDMDL
