MODEL 1
REMARK minimizedAffinity -1.98283994
REMARK minimizedRMSD -1
REMARK  2 active torsions:
REMARK  status: ('A' for Active; 'I' for Inactive)
REMARK    1  A    between atoms: C2'_3  and  C1'_4 
REMARK    2  A    between atoms: C1'_4  and  C1_5 
ROOT
ATOM      1  C1  I4B d   1       1.101  -1.283   0.654  0.00  0.00    -0.075 A 
ATOM      2  C2  I4B d   1       2.289  -0.596   0.634  0.00  0.00     0.003 A 
ATOM      3  C3  I4B d   1       3.497  -1.269   0.332  0.00  0.00     0.002 A 
ATOM      4  C4  I4B d   1       3.479  -2.631   0.107  0.00  0.00    -0.004 A 
ATOM      5  C5  I4B d   1       2.270  -3.322   0.104  0.00  0.00     0.002 A 
ATOM      6  C6  I4B d   1       1.072  -2.642   0.368  0.00  0.00     0.003 A 
ENDROOT
BRANCH   1   7
ATOM      7  C1' I4B d   1      -0.152  -0.547   1.010  0.00  0.00     0.060 C 
BRANCH   7   8
ATOM      8  C2' I4B d   1      -1.212  -0.910  -0.010  0.00  0.00    -0.013 C 
ATOM      9  C4' I4B d   1      -1.663  -2.337   0.156  0.00  0.00     0.013 C 
ATOM     10  C3' I4B d   1      -2.358   0.043   0.154  0.00  0.00     0.013 C 
ENDBRANCH   7   8
ENDBRANCH   1   7
TORSDOF 2
ENDMDL
