MODEL 1
REMARK minimizedAffinity 3.92597413
REMARK minimizedRMSD -1
REMARK  2 active torsions:
REMARK  status: ('A' for Active; 'I' for Inactive)
REMARK    1  A    between atoms: C2'_3  and  C1'_4 
REMARK    2  A    between atoms: C1'_4  and  C1_5 
ROOT
ATOM      1  C1  I4B d   1       0.769  -1.374  -0.109  0.00  0.00    -0.075 A 
ATOM      2  C2  I4B d   1      -0.213  -0.941   0.747  0.00  0.00     0.003 A 
ATOM      3  C3  I4B d   1       0.125  -0.178   1.891  0.00  0.00     0.002 A 
ATOM      4  C4  I4B d   1       1.452   0.084   2.166  0.00  0.00    -0.004 A 
ATOM      5  C5  I4B d   1       2.444  -0.337   1.285  0.00  0.00     0.002 A 
ATOM      6  C6  I4B d   1       2.100  -1.060   0.134  0.00  0.00     0.003 A 
ENDROOT
BRANCH   1   7
ATOM      7  C1' I4B d   1       0.380  -2.206  -1.289  0.00  0.00     0.060 C 
BRANCH   7   8
ATOM      8  C2' I4B d   1       0.422  -3.661  -0.870  0.00  0.00    -0.013 C 
ATOM      9  C4' I4B d   1       1.784  -4.258  -1.107  0.00  0.00     0.013 C 
ATOM     10  C3' I4B d   1       0.043  -3.736   0.579  0.00  0.00     0.013 C 
ENDBRANCH   7   8
ENDBRANCH   1   7
TORSDOF 2
ENDMDL
