MODEL 1
REMARK minimizedAffinity 12.8512783
REMARK minimizedRMSD -1
REMARK  2 active torsions:
REMARK  status: ('A' for Active; 'I' for Inactive)
REMARK    1  A    between atoms: C2'_3  and  C1'_4 
REMARK    2  A    between atoms: C1'_4  and  C1_5 
ROOT
ATOM      1  C1  I4B d   1       0.877  -2.251   0.688  0.00  0.00    -0.075 A 
ATOM      2  C2  I4B d   1       2.151  -2.659   0.381  0.00  0.00     0.003 A 
ATOM      3  C3  I4B d   1       2.358  -3.733  -0.518  0.00  0.00     0.002 A 
ATOM      4  C4  I4B d   1       1.269  -4.399  -1.044  0.00  0.00    -0.004 A 
ATOM      5  C5  I4B d   1      -0.021  -3.968  -0.749  0.00  0.00     0.002 A 
ATOM      6  C6  I4B d   1      -0.219  -2.880   0.113  0.00  0.00     0.003 A 
ENDROOT
BRANCH   1   7
ATOM      7  C1' I4B d   1       0.695  -1.135   1.667  0.00  0.00     0.060 C 
BRANCH   7   8
ATOM      8  C2' I4B d   1       1.933  -1.071   2.538  0.00  0.00    -0.013 C 
ATOM      9  C4' I4B d   1       2.562   0.297   2.492  0.00  0.00     0.013 C 
ATOM     10  C3' I4B d   1       1.534  -1.436   3.937  0.00  0.00     0.013 C 
ENDBRANCH   7   8
ENDBRANCH   1   7
TORSDOF 2
ENDMDL
