MODEL 1
REMARK minimizedAffinity -2.9457922
REMARK minimizedRMSD -1
REMARK  2 active torsions:
REMARK  status: ('A' for Active; 'I' for Inactive)
REMARK    1  A    between atoms: C1_2  and  C2_3 
REMARK    2  A    between atoms: C2_3  and  C3_4 
ROOT
ATOM      1  C3  UNL d   1       0.170  -0.253  -0.170  0.00  0.00    -0.075 A 
ATOM      2  C4  UNL d   1       0.979   0.511   0.684  0.00  0.00     0.002 A 
ATOM      3  C5  UNL d   1       2.302   0.140   0.926  0.00  0.00     0.002 A 
ATOM      4  C6  UNL d   1       2.828  -1.003   0.329  0.00  0.00    -0.004 A 
ATOM      5  C7  UNL d   1       2.029  -1.779  -0.508  0.00  0.00     0.002 A 
ATOM      6  C8  UNL d   1       0.706  -1.407  -0.756  0.00  0.00     0.002 A 
ENDROOT
BRANCH   1   7
ATOM      7  C2  UNL d   1      -1.253   0.161  -0.460  0.00  0.00     0.056 C 
BRANCH   7   8
ATOM      8  C1  UNL d   1      -1.932   0.910   0.692  0.00  0.00     0.007 C 
ATOM      9  C   UNL d   1      -3.451   0.919   0.589  0.00  0.00     0.009 C 
ENDBRANCH   7   8
ENDBRANCH   1   7
TORSDOF 2
ENDMDL
