MODEL 1
REMARK minimizedAffinity -6.27206993
REMARK minimizedRMSD -1
REMARK  2 active torsions:
REMARK  status: ('A' for Active; 'I' for Inactive)
REMARK    1  A    between atoms: C1_2  and  C2_3 
REMARK    2  A    between atoms: C2_3  and  C3_4 
ROOT
ATOM      1  C3  UNL d   1       0.200  -0.203   0.298  0.00  0.00    -0.075 A 
ATOM      2  C4  UNL d   1       0.557  -1.485  -0.146  0.00  0.00     0.002 A 
ATOM      3  C5  UNL d   1       1.841  -1.981   0.080  0.00  0.00     0.002 A 
ATOM      4  C6  UNL d   1       2.786  -1.200   0.741  0.00  0.00    -0.004 A 
ATOM      5  C7  UNL d   1       2.448   0.081   1.172  0.00  0.00     0.002 A 
ATOM      6  C8  UNL d   1       1.163   0.578   0.951  0.00  0.00     0.002 A 
ENDROOT
BRANCH   1   7
ATOM      7  C2  UNL d   1      -1.197   0.328   0.083  0.00  0.00     0.056 C 
BRANCH   7   8
ATOM      8  C1  UNL d   1      -1.921   0.718   1.376  0.00  0.00     0.007 C 
ATOM      9  C   UNL d   1      -3.418   0.439   1.332  0.00  0.00     0.009 C 
ENDBRANCH   7   8
ENDBRANCH   1   7
TORSDOF 2
ENDMDL
