MODEL 1
REMARK minimizedAffinity -5.90251255
REMARK minimizedRMSD -1
REMARK  2 active torsions:
REMARK  status: ('A' for Active; 'I' for Inactive)
REMARK    1  A    between atoms: C1_2  and  C2_3 
REMARK    2  A    between atoms: C2_3  and  C3_4 
ROOT
ATOM      1  C3  UNL d   1      -0.001  -0.048   0.284  0.00  0.00    -0.075 A 
ATOM      2  C4  UNL d   1       1.132   0.642   0.743  0.00  0.00     0.002 A 
ATOM      3  C5  UNL d   1       2.319  -0.042   1.004  0.00  0.00     0.002 A 
ATOM      4  C6  UNL d   1       2.388  -1.421   0.821  0.00  0.00    -0.004 A 
ATOM      5  C7  UNL d   1       1.264  -2.118   0.382  0.00  0.00     0.002 A 
ATOM      6  C8  UNL d   1       0.076  -1.436   0.115  0.00  0.00     0.002 A 
ENDROOT
BRANCH   1   7
ATOM      7  C2  UNL d   1      -1.280   0.690  -0.029  0.00  0.00     0.056 C 
BRANCH   7   8
ATOM      8  C1  UNL d   1      -2.473   0.264   0.834  0.00  0.00     0.007 C 
ATOM      9  C   UNL d   1      -2.849   1.295   1.890  0.00  0.00     0.009 C 
ENDBRANCH   7   8
ENDBRANCH   1   7
TORSDOF 2
ENDMDL
