MODEL 1
REMARK minimizedAffinity 5.14675713
REMARK minimizedRMSD -1
REMARK  0 active torsions:
REMARK  status: ('A' for Active; 'I' for Inactive)
ROOT
ATOM      1  C2' OXE d   1       1.861   3.508   3.601  0.00  0.00     0.078 C 
ATOM      2  C1' OXE d   1      -0.061   1.463   3.530  0.00  0.00     0.078 C 
ATOM      3  C1  OXE d   1       0.235   2.195   2.245  0.00  0.00    -0.078 A 
ATOM      4  C2  OXE d   1       1.143   3.225   2.299  0.00  0.00    -0.078 A 
ATOM      5  C3  OXE d   1       1.494   3.897   1.132  0.00  0.00     0.003 A 
ATOM      6  C4  OXE d   1       0.818   3.637  -0.067  0.00  0.00    -0.002 A 
ATOM      7  C5  OXE d   1      -0.139   2.618  -0.135  0.00  0.00    -0.002 A 
ATOM      8  C6  OXE d   1      -0.410   1.861   0.999  0.00  0.00     0.003 A 
ENDROOT
TORSDOF 0
ENDMDL
