MODEL 1
REMARK minimizedAffinity 2.99630666
REMARK minimizedRMSD -1
REMARK  0 active torsions:
REMARK  status: ('A' for Active; 'I' for Inactive)
ROOT
ATOM      1  C2' OXE d   1      -3.459  -1.529  -1.691  0.00  0.00     0.078 C 
ATOM      2  C1' OXE d   1      -3.580   1.274  -1.584  0.00  0.00     0.078 C 
ATOM      3  C1  OXE d   1      -3.771   0.512  -0.296  0.00  0.00    -0.078 A 
ATOM      4  C2  OXE d   1      -3.757  -0.860  -0.366  0.00  0.00    -0.078 A 
ATOM      5  C3  OXE d   1      -3.874  -1.611   0.801  0.00  0.00     0.003 A 
ATOM      6  C4  OXE d   1      -4.159  -0.985   2.020  0.00  0.00    -0.002 A 
ATOM      7  C5  OXE d   1      -4.217   0.410   2.106  0.00  0.00    -0.002 A 
ATOM      8  C6  OXE d   1      -3.984   1.173   0.967  0.00  0.00     0.003 A 
ENDROOT
TORSDOF 0
ENDMDL
