MODEL 1
REMARK minimizedAffinity 4.25881338
REMARK minimizedRMSD -1
REMARK  0 active torsions:
REMARK  status: ('A' for Active; 'I' for Inactive)
ROOT
ATOM      1  C2' OXE d   1      -0.233   1.710   3.082  0.00  0.00     0.078 C 
ATOM      2  C1' OXE d   1      -1.980   1.164   0.954  0.00  0.00     0.078 C 
ATOM      3  C1  OXE d   1      -0.869   2.155   0.715  0.00  0.00    -0.078 A 
ATOM      4  C2  OXE d   1      -0.047   2.451   1.776  0.00  0.00    -0.078 A 
ATOM      5  C3  OXE d   1       1.027   3.317   1.595  0.00  0.00     0.003 A 
ATOM      6  C4  OXE d   1       1.187   4.006   0.386  0.00  0.00    -0.002 A 
ATOM      7  C5  OXE d   1       0.337   3.749  -0.695  0.00  0.00    -0.002 A 
ATOM      8  C6  OXE d   1      -0.667   2.796  -0.561  0.00  0.00     0.003 A 
ENDROOT
TORSDOF 0
ENDMDL
