MODEL 1
REMARK minimizedAffinity 1.36831582
REMARK minimizedRMSD -1
REMARK  0 active torsions:
REMARK  status: ('A' for Active; 'I' for Inactive)
ROOT
ATOM      1  C2' OXE d   1      -1.659   1.415   0.581  0.00  0.00     0.078 C 
ATOM      2  C1' OXE d   1      -0.525   3.650  -0.683  0.00  0.00     0.078 C 
ATOM      3  C1  OXE d   1      -0.010   3.279   0.685  0.00  0.00    -0.078 A 
ATOM      4  C2  OXE d   1      -0.603   2.212   1.316  0.00  0.00    -0.078 A 
ATOM      5  C3  OXE d   1      -0.129   1.794   2.556  0.00  0.00     0.003 A 
ATOM      6  C4  OXE d   1       0.841   2.543   3.233  0.00  0.00    -0.002 A 
ATOM      7  C5  OXE d   1       1.430   3.656   2.625  0.00  0.00    -0.002 A 
ATOM      8  C6  OXE d   1       1.047   4.012   1.337  0.00  0.00     0.003 A 
ENDROOT
TORSDOF 0
ENDMDL
