MODEL 1
REMARK minimizedAffinity 2.42596102
REMARK minimizedRMSD -1
REMARK  0 active torsions:
REMARK  status: ('A' for Active; 'I' for Inactive)
ROOT
ATOM      1  C2' OXE d   1       1.598   3.816   2.969  0.00  0.00     0.078 C 
ATOM      2  C1' OXE d   1      -0.335   1.782   3.062  0.00  0.00     0.078 C 
ATOM      3  C1  OXE d   1      -0.075   2.446   1.733  0.00  0.00    -0.078 A 
ATOM      4  C2  OXE d   1       0.839   3.472   1.706  0.00  0.00    -0.078 A 
ATOM      5  C3  OXE d   1       1.156   4.081   0.496  0.00  0.00     0.003 A 
ATOM      6  C4  OXE d   1       0.442   3.764  -0.666  0.00  0.00    -0.002 A 
ATOM      7  C5  OXE d   1      -0.521   2.750  -0.653  0.00  0.00    -0.002 A 
ATOM      8  C6  OXE d   1      -0.761   2.054   0.526  0.00  0.00     0.003 A 
ENDROOT
TORSDOF 0
ENDMDL
