MODEL 1
REMARK minimizedAffinity 1.26547599
REMARK minimizedRMSD -1
REMARK  0 active torsions:
REMARK  status: ('A' for Active; 'I' for Inactive)
ROOT
ATOM      1  C2' OXE d   1      -0.452   5.744  -0.692  0.00  0.00     0.078 C 
ATOM      2  C1' OXE d   1      -0.808   4.126  -2.958  0.00  0.00     0.078 C 
ATOM      3  C1  OXE d   1      -0.666   3.442  -1.621  0.00  0.00    -0.078 A 
ATOM      4  C2  OXE d   1      -0.445   4.240  -0.524  0.00  0.00    -0.078 A 
ATOM      5  C3  OXE d   1      -0.361   3.664   0.741  0.00  0.00     0.003 A 
ATOM      6  C4  OXE d   1      -0.345   2.272   0.887  0.00  0.00    -0.002 A 
ATOM      7  C5  OXE d   1      -0.529   1.440  -0.223  0.00  0.00    -0.002 A 
ATOM      8  C6  OXE d   1      -0.733   2.009  -1.475  0.00  0.00     0.003 A 
ENDROOT
TORSDOF 0
ENDMDL
