MODEL 1
REMARK minimizedAffinity 1.11246526
REMARK minimizedRMSD -1
REMARK  0 active torsions:
REMARK  status: ('A' for Active; 'I' for Inactive)
ROOT
ATOM      1  C2' OXE d   1      -0.036   5.218  -1.598  0.00  0.00     0.078 C 
ATOM      2  C1' OXE d   1      -1.181   2.772  -0.832  0.00  0.00     0.078 C 
ATOM      3  C1  OXE d   1      -0.133   3.372   0.071  0.00  0.00    -0.078 A 
ATOM      4  C2  OXE d   1       0.455   4.545  -0.335  0.00  0.00    -0.078 A 
ATOM      5  C3  OXE d   1       1.389   5.169   0.488  0.00  0.00     0.003 A 
ATOM      6  C4  OXE d   1       1.845   4.535   1.650  0.00  0.00    -0.002 A 
ATOM      7  C5  OXE d   1       1.288   3.320   2.062  0.00  0.00    -0.002 A 
ATOM      8  C6  OXE d   1       0.270   2.747   1.307  0.00  0.00     0.003 A 
ENDROOT
TORSDOF 0
ENDMDL
