MODEL 1
REMARK minimizedAffinity 9.05512905
REMARK minimizedRMSD -1
REMARK  0 active torsions:
REMARK  status: ('A' for Active; 'I' for Inactive)
ROOT
ATOM      1  C2' OXE d   1       0.493  -0.633  -1.678  0.00  0.00     0.078 C 
ATOM      2  C1' OXE d   1      -0.441   1.894  -0.891  0.00  0.00     0.078 C 
ATOM      3  C1  OXE d   1      -1.457   0.794  -1.070  0.00  0.00    -0.078 A 
ATOM      4  C2  OXE d   1      -0.996  -0.427  -1.501  0.00  0.00    -0.078 A 
ATOM      5  C3  OXE d   1      -1.883  -1.492  -1.630  0.00  0.00     0.003 A 
ATOM      6  C4  OXE d   1      -3.260  -1.291  -1.474  0.00  0.00    -0.002 A 
ATOM      7  C5  OXE d   1      -3.754  -0.045  -1.074  0.00  0.00    -0.002 A 
ATOM      8  C6  OXE d   1      -2.864   0.994  -0.827  0.00  0.00     0.003 A 
ENDROOT
TORSDOF 0
ENDMDL
