MODEL 1
REMARK minimizedAffinity 13.010869
REMARK minimizedRMSD -1
REMARK  0 active torsions:
REMARK  status: ('A' for Active; 'I' for Inactive)
ROOT
ATOM      1  C2' OXE d   1       0.547   0.103  -0.986  0.00  0.00     0.078 C 
ATOM      2  C1' OXE d   1      -0.323   2.772  -1.031  0.00  0.00     0.078 C 
ATOM      3  C1  OXE d   1      -1.367   1.690  -1.150  0.00  0.00    -0.078 A 
ATOM      4  C2  OXE d   1      -0.928   0.388  -1.174  0.00  0.00    -0.078 A 
ATOM      5  C3  OXE d   1      -1.853  -0.651  -1.227  0.00  0.00     0.003 A 
ATOM      6  C4  OXE d   1      -3.214  -0.379  -1.411  0.00  0.00    -0.002 A 
ATOM      7  C5  OXE d   1      -3.678   0.941  -1.429  0.00  0.00    -0.002 A 
ATOM      8  C6  OXE d   1      -2.774   1.984  -1.257  0.00  0.00     0.003 A 
ENDROOT
TORSDOF 0
ENDMDL
