MODEL 1
REMARK minimizedAffinity 3.51734781
REMARK minimizedRMSD -1
REMARK  0 active torsions:
REMARK  status: ('A' for Active; 'I' for Inactive)
ROOT
ATOM      1  C2' OXE d   1       0.451  -0.392  -0.766  0.00  0.00     0.078 C 
ATOM      2  C1' OXE d   1      -0.066   2.363  -0.915  0.00  0.00     0.078 C 
ATOM      3  C1  OXE d   1      -1.229   1.419  -1.091  0.00  0.00    -0.078 A 
ATOM      4  C2  OXE d   1      -0.959   0.071  -1.063  0.00  0.00    -0.078 A 
ATOM      5  C3  OXE d   1      -2.003  -0.843  -1.165  0.00  0.00     0.003 A 
ATOM      6  C4  OXE d   1      -3.303  -0.406  -1.449  0.00  0.00    -0.002 A 
ATOM      7  C5  OXE d   1      -3.592   0.960  -1.521  0.00  0.00    -0.002 A 
ATOM      8  C6  OXE d   1      -2.577   1.885  -1.303  0.00  0.00     0.003 A 
ENDROOT
TORSDOF 0
ENDMDL
