MODEL 1
REMARK minimizedAffinity -5.60268116
REMARK minimizedRMSD -1
REMARK  0 active torsions:
REMARK  status: ('A' for Active; 'I' for Inactive)
ROOT
ATOM      1  N1  IND d   1       1.003  -1.480   0.667  0.00  0.00    -0.196 N 
ATOM      2  C2  IND d   1       0.494  -2.218   1.700  0.00  0.00     0.054 A 
ATOM      3  C3  IND d   1      -0.856  -2.137   1.715  0.00  0.00    -0.031 A 
ATOM      4  C4  IND d   1      -2.440  -0.935   0.080  0.00  0.00     0.051 A 
ATOM      5  C5  IND d   1      -2.441  -0.099  -1.001  0.00  0.00    -0.031 A 
ATOM      6  C6  IND d   1      -1.270   0.326  -1.595  0.00  0.00     0.015 A 
ATOM      7  C7  IND d   1      -0.049  -0.081  -1.135  0.00  0.00    -0.016 A 
ATOM      8  C8  IND d   1      -0.045  -0.924  -0.033  0.00  0.00    -0.047 A 
ATOM      9  C9  IND d   1      -1.229  -1.324   0.600  0.00  0.00    -0.096 A 
ATOM     10  HN1 IND d   1       1.838  -1.381   0.486  0.00  0.00     0.298 HD
ENDROOT
TORSDOF 0
ENDMDL
