MODEL 1
REMARK minimizedAffinity -3.91704297
REMARK minimizedRMSD -1
REMARK  0 active torsions:
REMARK  status: ('A' for Active; 'I' for Inactive)
ROOT
ATOM      1  N1  IND d   1      -2.037  -1.202   0.554  0.00  0.00    -0.196 N 
ATOM      2  C2  IND d   1      -2.702  -0.631  -0.495  0.00  0.00     0.054 A 
ATOM      3  C3  IND d   1      -1.823  -0.131  -1.393  0.00  0.00    -0.031 A 
ATOM      4  C4  IND d   1       0.749  -0.227  -1.391  0.00  0.00     0.051 A 
ATOM      5  C5  IND d   1       1.812  -0.614  -0.624  0.00  0.00    -0.031 A 
ATOM      6  C6  IND d   1       1.643  -1.232   0.598  0.00  0.00     0.015 A 
ATOM      7  C7  IND d   1       0.399  -1.497   1.096  0.00  0.00    -0.016 A 
ATOM      8  C8  IND d   1      -0.683  -1.099   0.323  0.00  0.00    -0.047 A 
ATOM      9  C9  IND d   1      -0.517  -0.434  -0.898  0.00  0.00    -0.096 A 
ATOM     10  HN1 IND d   1      -2.403  -1.564   1.243  0.00  0.00     0.298 HD
ENDROOT
TORSDOF 0
ENDMDL
