MODEL 1
REMARK minimizedAffinity -3.46376204
REMARK minimizedRMSD -1
REMARK  0 active torsions:
REMARK  status: ('A' for Active; 'I' for Inactive)
ROOT
ATOM      1  N1  IND d   1       4.689   4.678  -0.952  0.00  0.00    -0.196 N 
ATOM      2  C2  IND d   1       4.933   4.157  -2.193  0.00  0.00     0.054 A 
ATOM      3  C3  IND d   1       4.315   2.963  -2.332  0.00  0.00    -0.031 A 
ATOM      4  C4  IND d   1       2.768   1.721  -0.691  0.00  0.00     0.051 A 
ATOM      5  C5  IND d   1       2.276   1.784   0.583  0.00  0.00    -0.031 A 
ATOM      6  C6  IND d   1       2.567   2.837   1.426  0.00  0.00     0.015 A 
ATOM      7  C7  IND d   1       3.355   3.877   1.021  0.00  0.00    -0.016 A 
ATOM      8  C8  IND d   1       3.862   3.813  -0.269  0.00  0.00    -0.047 A 
ATOM      9  C9  IND d   1       3.605   2.726  -1.115  0.00  0.00    -0.096 A 
ATOM     10  HN1 IND d   1       5.000   5.420  -0.650  0.00  0.00     0.298 HD
ENDROOT
TORSDOF 0
ENDMDL
