MODEL 1
REMARK minimizedAffinity -5.63764858
REMARK minimizedRMSD -1
REMARK  0 active torsions:
REMARK  status: ('A' for Active; 'I' for Inactive)
ROOT
ATOM      1  N1  IND d   1      -1.961   0.482  -0.588  0.00  0.00    -0.196 N 
ATOM      2  C2  IND d   1      -3.080  -0.185  -0.174  0.00  0.00     0.054 A 
ATOM      3  C3  IND d   1      -2.738  -1.277   0.546  0.00  0.00    -0.031 A 
ATOM      4  C4  IND d   1      -0.404  -2.104   1.252  0.00  0.00     0.051 A 
ATOM      5  C5  IND d   1       0.927  -1.846   1.083  0.00  0.00    -0.031 A 
ATOM      6  C6  IND d   1       1.373  -0.775   0.335  0.00  0.00     0.015 A 
ATOM      7  C7  IND d   1       0.499   0.088  -0.265  0.00  0.00    -0.016 A 
ATOM      8  C8  IND d   1      -0.853  -0.176  -0.100  0.00  0.00    -0.047 A 
ATOM      9  C9  IND d   1      -1.311  -1.285   0.622  0.00  0.00    -0.096 A 
ATOM     10  HN1 IND d   1      -1.951   1.193  -1.071  0.00  0.00     0.298 HD
ENDROOT
TORSDOF 0
ENDMDL
