MODEL 1
REMARK minimizedAffinity -4.16657448
REMARK minimizedRMSD -1
REMARK  0 active torsions:
REMARK  status: ('A' for Active; 'I' for Inactive)
ROOT
ATOM      1  N1  IND d   1      -3.069  -0.161  -0.996  0.00  0.00    -0.196 N 
ATOM      2  C2  IND d   1      -3.440  -0.648   0.226  0.00  0.00     0.054 A 
ATOM      3  C3  IND d   1      -2.361  -0.762   1.033  0.00  0.00    -0.031 A 
ATOM      4  C4  IND d   1       0.090  -0.112   0.590  0.00  0.00     0.051 A 
ATOM      5  C5  IND d   1       0.923   0.340  -0.395  0.00  0.00    -0.031 A 
ATOM      6  C6  IND d   1       0.458   0.658  -1.654  0.00  0.00     0.015 A 
ATOM      7  C7  IND d   1      -0.865   0.545  -1.975  0.00  0.00    -0.016 A 
ATOM      8  C8  IND d   1      -1.713   0.079  -0.980  0.00  0.00    -0.047 A 
ATOM      9  C9  IND d   1      -1.240  -0.285   0.287  0.00  0.00    -0.096 A 
ATOM     10  HN1 IND d   1      -3.595  -0.026  -1.663  0.00  0.00     0.298 HD
ENDROOT
TORSDOF 0
ENDMDL
