MODEL 1
REMARK minimizedAffinity -4.09479666
REMARK minimizedRMSD -1
REMARK  0 active torsions:
REMARK  status: ('A' for Active; 'I' for Inactive)
ROOT
ATOM      1  N1  IND d   1       1.657  -0.015   1.863  0.00  0.00    -0.196 N 
ATOM      2  C2  IND d   1       1.335  -0.562   0.652  0.00  0.00     0.054 A 
ATOM      3  C3  IND d   1       1.712   0.261  -0.352  0.00  0.00    -0.031 A 
ATOM      4  C4  IND d   1       2.965   2.507  -0.241  0.00  0.00     0.051 A 
ATOM      5  C5  IND d   1       3.441   3.433   0.645  0.00  0.00    -0.031 A 
ATOM      6  C6  IND d   1       3.347   3.251   2.009  0.00  0.00     0.015 A 
ATOM      7  C7  IND d   1       2.781   2.127   2.541  0.00  0.00    -0.016 A 
ATOM      8  C8  IND d   1       2.291   1.189   1.645  0.00  0.00    -0.047 A 
ATOM      9  C9  IND d   1       2.345   1.387   0.259  0.00  0.00    -0.096 A 
ATOM     10  HN1 IND d   1       1.491  -0.364   2.631  0.00  0.00     0.298 HD
ENDROOT
TORSDOF 0
ENDMDL
