MODEL 1
REMARK minimizedAffinity 0.69656235
REMARK minimizedRMSD -1
REMARK  0 active torsions:
REMARK  status: ('A' for Active; 'I' for Inactive)
ROOT
ATOM      1  N1  IND d   1       0.439   0.559   1.264  0.00  0.00    -0.196 N 
ATOM      2  C2  IND d   1       0.354  -0.197   0.128  0.00  0.00     0.054 A 
ATOM      3  C3  IND d   1       1.176   0.295  -0.827  0.00  0.00    -0.031 A 
ATOM      4  C4  IND d   1       2.824   2.269  -0.708  0.00  0.00     0.051 A 
ATOM      5  C5  IND d   1       3.229   3.286   0.110  0.00  0.00    -0.031 A 
ATOM      6  C6  IND d   1       2.717   3.448   1.381  0.00  0.00     0.015 A 
ATOM      7  C7  IND d   1       1.784   2.588   1.888  0.00  0.00    -0.016 A 
ATOM      8  C8  IND d   1       1.365   1.558   1.058  0.00  0.00    -0.047 A 
ATOM      9  C9  IND d   1       1.850   1.414  -0.249  0.00  0.00    -0.096 A 
ATOM     10  HN1 IND d   1      -0.011   0.432   1.985  0.00  0.00     0.298 HD
ENDROOT
TORSDOF 0
ENDMDL
