MODEL 1
REMARK minimizedAffinity -1.98954594
REMARK minimizedRMSD -1
REMARK  0 active torsions:
REMARK  status: ('A' for Active; 'I' for Inactive)
ROOT
ATOM      1  N1  IND d   1       3.217   1.232   1.093  0.00  0.00    -0.196 N 
ATOM      2  C2  IND d   1       3.161   2.586   1.268  0.00  0.00     0.054 A 
ATOM      3  C3  IND d   1       2.025   3.084   0.731  0.00  0.00    -0.031 A 
ATOM      4  C4  IND d   1       0.069   1.845  -0.394  0.00  0.00     0.051 A 
ATOM      5  C5  IND d   1      -0.320   0.605  -0.816  0.00  0.00    -0.031 A 
ATOM      6  C6  IND d   1       0.464  -0.513  -0.617  0.00  0.00     0.015 A 
ATOM      7  C7  IND d   1       1.668  -0.433   0.024  0.00  0.00    -0.016 A 
ATOM      8  C8  IND d   1       2.069   0.826   0.449  0.00  0.00    -0.047 A 
ATOM      9  C9  IND d   1       1.297   1.970   0.212  0.00  0.00    -0.096 A 
ATOM     10  HN1 IND d   1       3.860   0.720   1.344  0.00  0.00     0.298 HD
ENDROOT
TORSDOF 0
ENDMDL
