MODEL 1
REMARK minimizedAffinity 0.0722137168
REMARK minimizedRMSD -1
REMARK  0 active torsions:
REMARK  status: ('A' for Active; 'I' for Inactive)
ROOT
ATOM      1  N1  IND d   1      -2.030  -0.786  -1.522  0.00  0.00    -0.196 N 
ATOM      2  C2  IND d   1      -2.585  -1.332  -0.399  0.00  0.00     0.054 A 
ATOM      3  C3  IND d   1      -1.761  -1.170   0.661  0.00  0.00    -0.031 A 
ATOM      4  C4  IND d   1       0.501   0.052   0.801  0.00  0.00     0.051 A 
ATOM      5  C5  IND d   1       1.435   0.681   0.026  0.00  0.00    -0.031 A 
ATOM      6  C6  IND d   1       1.257   0.859  -1.330  0.00  0.00     0.015 A 
ATOM      7  C7  IND d   1       0.128   0.423  -1.964  0.00  0.00    -0.016 A 
ATOM      8  C8  IND d   1      -0.819  -0.223  -1.182  0.00  0.00    -0.047 A 
ATOM      9  C9  IND d   1      -0.625  -0.444   0.187  0.00  0.00    -0.096 A 
ATOM     10  HN1 IND d   1      -2.378  -0.793  -2.308  0.00  0.00     0.298 HD
ENDROOT
TORSDOF 0
ENDMDL
