MODEL 1
REMARK minimizedAffinity -3.92058468
REMARK minimizedRMSD -1
REMARK  0 active torsions:
REMARK  status: ('A' for Active; 'I' for Inactive)
ROOT
ATOM      1  N1  IND d   1       0.721   0.201   0.379  0.00  0.00    -0.196 N 
ATOM      2  C2  IND d   1       1.239   0.588  -0.826  0.00  0.00     0.054 A 
ATOM      3  C3  IND d   1       0.301   0.487  -1.795  0.00  0.00    -0.031 A 
ATOM      4  C4  IND d   1      -2.175  -0.194  -1.610  0.00  0.00     0.051 A 
ATOM      5  C5  IND d   1      -3.098  -0.667  -0.721  0.00  0.00    -0.031 A 
ATOM      6  C6  IND d   1      -2.791  -0.878   0.607  0.00  0.00     0.015 A 
ATOM      7  C7  IND d   1      -1.545  -0.610   1.101  0.00  0.00    -0.016 A 
ATOM      8  C8  IND d   1      -0.603  -0.136   0.199  0.00  0.00    -0.047 A 
ATOM      9  C9  IND d   1      -0.897   0.040  -1.159  0.00  0.00    -0.096 A 
ATOM     10  HN1 IND d   1       1.150   0.172   1.123  0.00  0.00     0.298 HD
ENDROOT
TORSDOF 0
ENDMDL
