MODEL 1
REMARK minimizedAffinity -2.52941275
REMARK minimizedRMSD -1
REMARK  0 active torsions:
REMARK  status: ('A' for Active; 'I' for Inactive)
ROOT
ATOM      1  N1  IND d   1       0.426   0.196   1.231  0.00  0.00    -0.196 N 
ATOM      2  C2  IND d   1       1.564   0.675   0.644  0.00  0.00     0.054 A 
ATOM      3  C3  IND d   1       1.417   0.720  -0.700  0.00  0.00    -0.031 A 
ATOM      4  C4  IND d   1      -0.640   0.153  -2.140  0.00  0.00     0.051 A 
ATOM      5  C5  IND d   1      -1.905  -0.360  -2.058  0.00  0.00    -0.031 A 
ATOM      6  C6  IND d   1      -2.469  -0.718  -0.851  0.00  0.00     0.015 A 
ATOM      7  C7  IND d   1      -1.792  -0.565   0.326  0.00  0.00    -0.016 A 
ATOM      8  C8  IND d   1      -0.505  -0.052   0.246  0.00  0.00    -0.047 A 
ATOM      9  C9  IND d   1       0.089   0.273  -0.981  0.00  0.00    -0.096 A 
ATOM     10  HN1 IND d   1       0.310   0.071   2.074  0.00  0.00     0.298 HD
ENDROOT
TORSDOF 0
ENDMDL
