MODEL 1
REMARK minimizedAffinity -4.11950684
REMARK minimizedRMSD -1
REMARK  0 active torsions:
REMARK  status: ('A' for Active; 'I' for Inactive)
ROOT
ATOM      1  N1  IND d   1       0.643  -0.163   1.472  0.00  0.00    -0.196 N 
ATOM      2  C2  IND d   1       1.684   0.520   0.907  0.00  0.00     0.054 A 
ATOM      3  C3  IND d   1       1.398   0.834  -0.377  0.00  0.00    -0.031 A 
ATOM      4  C4  IND d   1      -0.756   0.416  -1.723  0.00  0.00     0.051 A 
ATOM      5  C5  IND d   1      -1.971  -0.204  -1.645  0.00  0.00    -0.031 A 
ATOM      6  C6  IND d   1      -2.387  -0.853  -0.500  0.00  0.00     0.015 A 
ATOM      7  C7  IND d   1      -1.604  -0.897   0.618  0.00  0.00    -0.016 A 
ATOM      8  C8  IND d   1      -0.366  -0.274   0.541  0.00  0.00    -0.047 A 
ATOM      9  C9  IND d   1       0.079   0.349  -0.632  0.00  0.00    -0.096 A 
ATOM     10  HN1 IND d   1       0.622  -0.472   2.274  0.00  0.00     0.298 HD
ENDROOT
TORSDOF 0
ENDMDL
