MODEL 1
REMARK minimizedAffinity -2.52783799
REMARK minimizedRMSD -1
REMARK  0 active torsions:
REMARK  status: ('A' for Active; 'I' for Inactive)
ROOT
ATOM      1  N1  IND d   1      -2.567  -0.565  -1.677  0.00  0.00    -0.196 N 
ATOM      2  C2  IND d   1      -3.321  -1.063  -0.651  0.00  0.00     0.054 A 
ATOM      3  C3  IND d   1      -2.613  -1.053   0.501  0.00  0.00    -0.031 A 
ATOM      4  C4  IND d   1      -0.238  -0.169   0.954  0.00  0.00     0.051 A 
ATOM      5  C5  IND d   1       0.859   0.346   0.321  0.00  0.00    -0.031 A 
ATOM      6  C6  IND d   1       0.869   0.591  -1.037  0.00  0.00     0.015 A 
ATOM      7  C7  IND d   1      -0.226   0.340  -1.814  0.00  0.00    -0.016 A 
ATOM      8  C8  IND d   1      -1.339  -0.190  -1.176  0.00  0.00    -0.047 A 
ATOM      9  C9  IND d   1      -1.341  -0.480   0.194  0.00  0.00    -0.096 A 
ATOM     10  HN1 IND d   1      -2.817  -0.498  -2.497  0.00  0.00     0.298 HD
ENDROOT
TORSDOF 0
ENDMDL
