MODEL 1
REMARK minimizedAffinity -3.08674407
REMARK minimizedRMSD -1
REMARK  0 active torsions:
REMARK  status: ('A' for Active; 'I' for Inactive)
ROOT
ATOM      1  N1  IND d   1      -2.296  -0.634   0.992  0.00  0.00    -0.196 N 
ATOM      2  C2  IND d   1      -3.128  -0.529  -0.088  0.00  0.00     0.054 A 
ATOM      3  C3  IND d   1      -2.435  -0.139  -1.180  0.00  0.00    -0.031 A 
ATOM      4  C4  IND d   1       0.090   0.284  -1.450  0.00  0.00     0.051 A 
ATOM      5  C5  IND d   1       1.254   0.350  -0.736  0.00  0.00    -0.031 A 
ATOM      6  C6  IND d   1       1.295   0.083   0.618  0.00  0.00     0.015 A 
ATOM      7  C7  IND d   1       0.170  -0.272   1.308  0.00  0.00    -0.016 A 
ATOM      8  C8  IND d   1      -1.014  -0.333   0.587  0.00  0.00    -0.047 A 
ATOM      9  C9  IND d   1      -1.069  -0.022  -0.777  0.00  0.00    -0.096 A 
ATOM     10  HN1 IND d   1      -2.533  -0.852   1.789  0.00  0.00     0.298 HD
ENDROOT
TORSDOF 0
ENDMDL
