MODEL 1
REMARK minimizedAffinity -3.20198655
REMARK minimizedRMSD -1
REMARK  0 active torsions:
REMARK  status: ('A' for Active; 'I' for Inactive)
ROOT
ATOM      1  N1  IND d   1       1.995   1.355  -0.350  0.00  0.00    -0.196 N 
ATOM      2  C2  IND d   1       2.521   1.086   0.883  0.00  0.00     0.054 A 
ATOM      3  C3  IND d   1       1.700   0.265   1.576  0.00  0.00    -0.031 A 
ATOM      4  C4  IND d   1      -0.507  -0.839   0.845  0.00  0.00     0.051 A 
ATOM      5  C5  IND d   1      -1.410  -0.865  -0.181  0.00  0.00    -0.031 A 
ATOM      6  C6  IND d   1      -1.220  -0.141  -1.339  0.00  0.00     0.015 A 
ATOM      7  C7  IND d   1      -0.108   0.632  -1.521  0.00  0.00    -0.016 A 
ATOM      8  C8  IND d   1       0.808   0.667  -0.479  0.00  0.00    -0.047 A 
ATOM      9  C9  IND d   1       0.599  -0.033   0.716  0.00  0.00    -0.096 A 
ATOM     10  HN1 IND d   1       2.345   1.868  -0.944  0.00  0.00     0.298 HD
ENDROOT
TORSDOF 0
ENDMDL
