MODEL 1
REMARK minimizedAffinity -2.22959542
REMARK minimizedRMSD -1
REMARK  0 active torsions:
REMARK  status: ('A' for Active; 'I' for Inactive)
ROOT
ATOM      1  N1  IND d   1       0.664   0.019   0.385  0.00  0.00    -0.196 N 
ATOM      2  C2  IND d   1       1.285   0.030  -0.833  0.00  0.00     0.054 A 
ATOM      3  C3  IND d   1       0.389  -0.204  -1.819  0.00  0.00    -0.031 A 
ATOM      4  C4  IND d   1      -2.160  -0.531  -1.669  0.00  0.00     0.051 A 
ATOM      5  C5  IND d   1      -3.178  -0.659  -0.767  0.00  0.00    -0.031 A 
ATOM      6  C6  IND d   1      -2.964  -0.563   0.593  0.00  0.00     0.015 A 
ATOM      7  C7  IND d   1      -1.719  -0.323   1.103  0.00  0.00    -0.016 A 
ATOM      8  C8  IND d   1      -0.682  -0.199   0.190  0.00  0.00    -0.047 A 
ATOM      9  C9  IND d   1      -0.886  -0.338  -1.189  0.00  0.00    -0.096 A 
ATOM     10  HN1 IND d   1       1.050   0.130   1.145  0.00  0.00     0.298 HD
ENDROOT
TORSDOF 0
ENDMDL
