MODEL 1
REMARK minimizedAffinity 33.1961937
REMARK minimizedRMSD -1
REMARK  0 active torsions:
REMARK  status: ('A' for Active; 'I' for Inactive)
ROOT
ATOM      1  C   UNL d   1       1.469  -0.972   3.853  0.00  0.00     0.124 A 
ATOM      2  C1  UNL d   1       0.569  -2.001   4.095  0.00  0.00     0.062 A 
ATOM      3  C2  UNL d   1      -0.605  -2.092   3.354  0.00  0.00     0.162 A 
ATOM      4  C3  UNL d   1      -0.886  -1.153   2.361  0.00  0.00    -0.034 A 
ATOM      5  C4  UNL d   1       0.024  -0.121   2.124  0.00  0.00     0.162 A 
ATOM      6  C5  UNL d   1       1.196  -0.034   2.868  0.00  0.00     0.062 A 
ATOM      7  F   UNL d   1       2.064   0.961   2.633  0.00  0.00    -0.097 F 
ATOM      8  F1  UNL d   1      -0.215   0.799   1.178  0.00  0.00    -0.096 F 
ATOM      9  I   UNL d   1      -2.640  -1.287   1.250  0.00  0.00    -0.060 I 
ATOM     10  F2  UNL d   1      -1.457  -3.097   3.609  0.00  0.00    -0.096 F 
ATOM     11  F3  UNL d   1       0.831  -2.908   5.047  0.00  0.00    -0.097 F 
ATOM     12  F4  UNL d   1       2.598  -0.886   4.569  0.00  0.00    -0.092 F 
ENDROOT
TORSDOF 0
ENDMDL
