MODEL 1
REMARK minimizedAffinity 19.630825
REMARK minimizedRMSD -1
REMARK  0 active torsions:
REMARK  status: ('A' for Active; 'I' for Inactive)
ROOT
ATOM      1  C   UNL d   1       1.139  -2.050  -5.663  0.00  0.00     0.124 A 
ATOM      2  C1  UNL d   1       1.189  -0.673  -5.491  0.00  0.00     0.062 A 
ATOM      3  C2  UNL d   1       2.414  -0.012  -5.489  0.00  0.00     0.162 A 
ATOM      4  C3  UNL d   1       3.599  -0.726  -5.661  0.00  0.00    -0.034 A 
ATOM      5  C4  UNL d   1       3.542  -2.110  -5.832  0.00  0.00     0.162 A 
ATOM      6  C5  UNL d   1       2.315  -2.767  -5.834  0.00  0.00     0.062 A 
ATOM      7  F   UNL d   1       2.269  -4.096  -6.000  0.00  0.00    -0.097 F 
ATOM      8  F1  UNL d   1       4.662  -2.828  -6.000  0.00  0.00    -0.096 F 
ATOM      9  I   UNL d   1       5.433   0.259  -5.658  0.00  0.00    -0.060 I 
ATOM     10  F2  UNL d   1       2.432   1.319  -5.321  0.00  0.00    -0.096 F 
ATOM     11  F3  UNL d   1       0.054   0.022  -5.325  0.00  0.00    -0.097 F 
ATOM     12  F4  UNL d   1      -0.040  -2.684  -5.664  0.00  0.00    -0.092 F 
ENDROOT
TORSDOF 0
ENDMDL
