MODEL 1
REMARK minimizedAffinity 22.264328
REMARK minimizedRMSD -1
REMARK  0 active torsions:
REMARK  status: ('A' for Active; 'I' for Inactive)
ROOT
ATOM      1  C   UNL d   1       3.212  -0.491   5.115  0.00  0.00     0.124 A 
ATOM      2  C1  UNL d   1       2.234  -1.475   5.114  0.00  0.00     0.062 A 
ATOM      3  C2  UNL d   1       1.189  -1.422   4.196  0.00  0.00     0.162 A 
ATOM      4  C3  UNL d   1       1.118  -0.381   3.270  0.00  0.00    -0.034 A 
ATOM      5  C4  UNL d   1       2.105   0.606   3.278  0.00  0.00     0.162 A 
ATOM      6  C5  UNL d   1       3.147   0.548   4.197  0.00  0.00     0.062 A 
ATOM      7  F   UNL d   1       4.092   1.500   4.197  0.00  0.00    -0.097 F 
ATOM      8  F1  UNL d   1       2.067   1.620   2.402  0.00  0.00    -0.096 F 
ATOM      9  I   UNL d   1      -0.443  -0.298   1.895  0.00  0.00    -0.060 I 
ATOM     10  F2  UNL d   1       0.257  -2.387   4.217  0.00  0.00    -0.096 F 
ATOM     11  F3  UNL d   1       2.294  -2.479   6.000  0.00  0.00    -0.097 F 
ATOM     12  F4  UNL d   1       4.216  -0.544   6.000  0.00  0.00    -0.092 F 
ENDROOT
TORSDOF 0
ENDMDL
