MODEL 1
REMARK minimizedAffinity 28.813961
REMARK minimizedRMSD -1
REMARK  0 active torsions:
REMARK  status: ('A' for Active; 'I' for Inactive)
ROOT
ATOM      1  C   UNL d   1      -0.018  -1.624   3.621  0.00  0.00     0.124 A 
ATOM      2  C1  UNL d   1       1.229  -1.750   4.216  0.00  0.00     0.062 A 
ATOM      3  C2  UNL d   1       2.241  -0.841   3.922  0.00  0.00     0.162 A 
ATOM      4  C3  UNL d   1       2.009   0.205   3.028  0.00  0.00    -0.034 A 
ATOM      5  C4  UNL d   1       0.752   0.325   2.433  0.00  0.00     0.162 A 
ATOM      6  C5  UNL d   1      -0.256  -0.586   2.731  0.00  0.00     0.062 A 
ATOM      7  F   UNL d   1      -1.461  -0.463   2.155  0.00  0.00    -0.097 F 
ATOM      8  F1  UNL d   1       0.494   1.319   1.569  0.00  0.00    -0.096 F 
ATOM      9  I   UNL d   1       3.518   1.567   2.585  0.00  0.00    -0.060 I 
ATOM     10  F2  UNL d   1       3.437  -0.987   4.511  0.00  0.00    -0.096 F 
ATOM     11  F3  UNL d   1       1.462  -2.752   5.076  0.00  0.00    -0.097 F 
ATOM     12  F4  UNL d   1      -0.989  -2.501   3.906  0.00  0.00    -0.092 F 
ENDROOT
TORSDOF 0
ENDMDL
