MODEL 1
REMARK minimizedAffinity 18.8111916
REMARK minimizedRMSD -1
REMARK  0 active torsions:
REMARK  status: ('A' for Active; 'I' for Inactive)
ROOT
ATOM      1  C   UNL d   1       1.886  -0.034  -5.301  0.00  0.00     0.124 A 
ATOM      2  C1  UNL d   1       3.097  -0.711  -5.246  0.00  0.00     0.062 A 
ATOM      3  C2  UNL d   1       3.139  -2.088  -5.445  0.00  0.00     0.162 A 
ATOM      4  C3  UNL d   1       1.966  -2.798  -5.702  0.00  0.00    -0.034 A 
ATOM      5  C4  UNL d   1       0.752  -2.110  -5.755  0.00  0.00     0.162 A 
ATOM      6  C5  UNL d   1       0.715  -0.734  -5.555  0.00  0.00     0.062 A 
ATOM      7  F   UNL d   1      -0.455  -0.082  -5.609  0.00  0.00    -0.097 F 
ATOM      8  F1  UNL d   1      -0.395  -2.762  -6.000  0.00  0.00    -0.096 F 
ATOM      9  I   UNL d   1       2.024  -4.856  -6.000  0.00  0.00    -0.060 I 
ATOM     10  F2  UNL d   1       4.322  -2.716  -5.386  0.00  0.00    -0.096 F 
ATOM     11  F3  UNL d   1       4.229  -0.037  -4.999  0.00  0.00    -0.097 F 
ATOM     12  F4  UNL d   1       1.849   1.291  -5.108  0.00  0.00    -0.092 F 
ENDROOT
TORSDOF 0
ENDMDL
