MODEL 1
REMARK minimizedAffinity 27.0256939
REMARK minimizedRMSD -1
REMARK  0 active torsions:
REMARK  status: ('A' for Active; 'I' for Inactive)
ROOT
ATOM      1  C   UNL d   1       3.748   4.661   2.692  0.00  0.00     0.124 A 
ATOM      2  C1  UNL d   1       4.262   3.752   1.776  0.00  0.00     0.062 A 
ATOM      3  C2  UNL d   1       4.906   2.600   2.219  0.00  0.00     0.162 A 
ATOM      4  C3  UNL d   1       5.038   2.349   3.585  0.00  0.00    -0.034 A 
ATOM      5  C4  UNL d   1       4.520   3.268   4.499  0.00  0.00     0.162 A 
ATOM      6  C5  UNL d   1       3.878   4.418   4.052  0.00  0.00     0.062 A 
ATOM      7  F   UNL d   1       3.382   5.294   4.937  0.00  0.00    -0.097 F 
ATOM      8  F1  UNL d   1       4.630   3.057   5.819  0.00  0.00    -0.096 F 
ATOM      9  I   UNL d   1       6.000   0.628   4.251  0.00  0.00    -0.060 I 
ATOM     10  F2  UNL d   1       5.392   1.740   1.312  0.00  0.00    -0.096 F 
ATOM     11  F3  UNL d   1       4.139   3.985   0.462  0.00  0.00    -0.097 F 
ATOM     12  F4  UNL d   1       3.131   5.769   2.263  0.00  0.00    -0.092 F 
ENDROOT
TORSDOF 0
ENDMDL
