MODEL 1
REMARK minimizedAffinity 19.4977226
REMARK minimizedRMSD -1
REMARK  0 active torsions:
REMARK  status: ('A' for Active; 'I' for Inactive)
ROOT
ATOM      1  C   UNL d   1       1.327  -1.885  -5.208  0.00  0.00     0.124 A 
ATOM      2  C1  UNL d   1       2.608  -2.403  -5.343  0.00  0.00     0.062 A 
ATOM      3  C2  UNL d   1       3.701  -1.548  -5.454  0.00  0.00     0.162 A 
ATOM      4  C3  UNL d   1       3.518  -0.166  -5.429  0.00  0.00    -0.034 A 
ATOM      5  C4  UNL d   1       2.227   0.348  -5.295  0.00  0.00     0.162 A 
ATOM      6  C5  UNL d   1       1.138  -0.510  -5.184  0.00  0.00     0.062 A 
ATOM      7  F   UNL d   1      -0.099  -0.008  -5.055  0.00  0.00    -0.097 F 
ATOM      8  F1  UNL d   1       2.016   1.672  -5.268  0.00  0.00    -0.096 F 
ATOM      9  I   UNL d   1       5.150   1.116  -5.595  0.00  0.00    -0.060 I 
ATOM     10  F2  UNL d   1       4.927  -2.077  -5.582  0.00  0.00    -0.096 F 
ATOM     11  F3  UNL d   1       2.793  -3.731  -5.367  0.00  0.00    -0.097 F 
ATOM     12  F4  UNL d   1       0.277  -2.710  -5.103  0.00  0.00    -0.092 F 
ENDROOT
TORSDOF 0
ENDMDL
