MODEL 1
REMARK minimizedAffinity 22.3254719
REMARK minimizedRMSD -1
REMARK  0 active torsions:
REMARK  status: ('A' for Active; 'I' for Inactive)
ROOT
ATOM      1  C   UNL d   1      -0.934  -0.748   3.171  0.00  0.00     0.124 A 
ATOM      2  C1  UNL d   1      -0.591   0.534   2.765  0.00  0.00     0.062 A 
ATOM      3  C2  UNL d   1       0.709   1.000   2.940  0.00  0.00     0.162 A 
ATOM      4  C3  UNL d   1       1.677   0.182   3.524  0.00  0.00    -0.034 A 
ATOM      5  C4  UNL d   1       1.324  -1.106   3.931  0.00  0.00     0.162 A 
ATOM      6  C5  UNL d   1       0.023  -1.566   3.754  0.00  0.00     0.062 A 
ATOM      7  F   UNL d   1      -0.306  -2.805   4.147  0.00  0.00    -0.097 F 
ATOM      8  F1  UNL d   1       2.229  -1.918   4.496  0.00  0.00    -0.096 F 
ATOM      9  I   UNL d   1       3.622   0.875   3.789  0.00  0.00    -0.060 I 
ATOM     10  F2  UNL d   1       1.013   2.243   2.538  0.00  0.00    -0.096 F 
ATOM     11  F3  UNL d   1      -1.514   1.327   2.202  0.00  0.00    -0.097 F 
ATOM     12  F4  UNL d   1      -2.185  -1.193   3.002  0.00  0.00    -0.092 F 
ENDROOT
TORSDOF 0
ENDMDL
