MODEL 1
REMARK minimizedAffinity 5.4881053
REMARK minimizedRMSD -1
REMARK  0 active torsions:
REMARK  status: ('A' for Active; 'I' for Inactive)
ROOT
ATOM      1  C   UNL d   1       0.829   1.194   2.638  0.00  0.00     0.124 A 
ATOM      2  C1  UNL d   1       2.169   1.346   2.965  0.00  0.00     0.062 A 
ATOM      3  C2  UNL d   1       2.835   0.347   3.668  0.00  0.00     0.162 A 
ATOM      4  C3  UNL d   1       2.162  -0.814   4.050  0.00  0.00    -0.034 A 
ATOM      5  C4  UNL d   1       0.814  -0.959   3.719  0.00  0.00     0.162 A 
ATOM      6  C5  UNL d   1       0.152   0.043   3.016  0.00  0.00     0.062 A 
ATOM      7  F   UNL d   1      -1.143  -0.105   2.701  0.00  0.00    -0.097 F 
ATOM      8  F1  UNL d   1       0.136  -2.061   4.070  0.00  0.00    -0.096 F 
ATOM      9  I   UNL d   1       3.155  -2.310   5.102  0.00  0.00    -0.060 I 
ATOM     10  F2  UNL d   1       4.131   0.520   3.970  0.00  0.00    -0.096 F 
ATOM     11  F3  UNL d   1       2.825   2.458   2.602  0.00  0.00    -0.097 F 
ATOM     12  F4  UNL d   1       0.190   2.158   1.962  0.00  0.00    -0.092 F 
ENDROOT
TORSDOF 0
ENDMDL
