MODEL 1
REMARK minimizedAffinity 18.1415615
REMARK minimizedRMSD -1
REMARK  0 active torsions:
REMARK  status: ('A' for Active; 'I' for Inactive)
ROOT
ATOM      1  C   UNL d   1       1.063   0.545   1.855  0.00  0.00     0.124 A 
ATOM      2  C1  UNL d   1       1.691   1.563   1.151  0.00  0.00     0.062 A 
ATOM      3  C2  UNL d   1       2.777   2.233   1.708  0.00  0.00     0.162 A 
ATOM      4  C3  UNL d   1       3.242   1.886   2.976  0.00  0.00    -0.034 A 
ATOM      5  C4  UNL d   1       2.605   0.861   3.679  0.00  0.00     0.162 A 
ATOM      6  C5  UNL d   1       1.520   0.195   3.118  0.00  0.00     0.062 A 
ATOM      7  F   UNL d   1       0.914  -0.788   3.799  0.00  0.00    -0.097 F 
ATOM      8  F1  UNL d   1       3.026   0.502   4.900  0.00  0.00    -0.096 F 
ATOM      9  I   UNL d   1       4.866   2.884   3.813  0.00  0.00    -0.060 I 
ATOM     10  F2  UNL d   1       3.365   3.212   1.005  0.00  0.00    -0.096 F 
ATOM     11  F3  UNL d   1       1.251   1.904  -0.069  0.00  0.00    -0.097 F 
ATOM     12  F4  UNL d   1       0.018  -0.097   1.317  0.00  0.00    -0.092 F 
ENDROOT
TORSDOF 0
ENDMDL
