MODEL 1
REMARK minimizedAffinity 0.237102956
REMARK minimizedRMSD -1
REMARK  0 active torsions:
REMARK  status: ('A' for Active; 'I' for Inactive)
ROOT
ATOM      1  C   UNL d   1      -4.991  -5.097  -5.999  0.00  0.00     0.020 A 
ATOM      2  C1  UNL d   1      -5.699  -5.758  -4.996  0.00  0.00     0.020 A 
ATOM      3  C2  UNL d   1      -6.000  -5.097  -3.803  0.00  0.00     0.034 A 
ATOM      4  C3  UNL d   1      -5.592  -3.772  -3.610  0.00  0.00     0.017 A 
ATOM      5  C4  UNL d   1      -4.882  -3.110  -4.617  0.00  0.00     0.017 A 
ATOM      6  C5  UNL d   1      -4.583  -3.776  -5.810  0.00  0.00     0.034 A 
ATOM      7 Cl   UNL d   1      -4.346  -1.475  -4.452  0.00  0.00    -0.070 Cl
ATOM      8 Cl1  UNL d   1      -5.999  -3.017  -2.110  0.00  0.00    -0.070 Cl
ENDROOT
TORSDOF 0
ENDMDL
