MODEL 1
REMARK minimizedAffinity 6.44655132
REMARK minimizedRMSD -1
REMARK  0 active torsions:
REMARK  status: ('A' for Active; 'I' for Inactive)
ROOT
ATOM      1  C   UNL d   1      -4.730  -5.922  -5.777  0.00  0.00     0.020 A 
ATOM      2  C1  UNL d   1      -5.929  -5.320  -5.401  0.00  0.00     0.020 A 
ATOM      3  C2  UNL d   1      -5.986  -3.938  -5.203  0.00  0.00     0.034 A 
ATOM      4  C3  UNL d   1      -4.840  -3.155  -5.382  0.00  0.00     0.017 A 
ATOM      5  C4  UNL d   1      -3.636  -3.760  -5.760  0.00  0.00     0.017 A 
ATOM      6  C5  UNL d   1      -3.585  -5.144  -5.956  0.00  0.00     0.034 A 
ATOM      7 Cl   UNL d   1      -2.180  -2.859  -6.000  0.00  0.00    -0.070 Cl
ATOM      8 Cl1  UNL d   1      -4.982  -1.453  -5.121  0.00  0.00    -0.070 Cl
ENDROOT
TORSDOF 0
ENDMDL
