MODEL 1
REMARK minimizedAffinity 19.136591
REMARK minimizedRMSD -1
REMARK  0 active torsions:
REMARK  status: ('A' for Active; 'I' for Inactive)
ROOT
ATOM      1  C   UNL d   1      -4.715  -1.924  -1.007  0.00  0.00     0.020 A 
ATOM      2  C1  UNL d   1      -5.677  -1.480  -0.100  0.00  0.00     0.020 A 
ATOM      3  C2  UNL d   1      -5.997  -2.258   1.015  0.00  0.00     0.034 A 
ATOM      4  C3  UNL d   1      -5.355  -3.484   1.225  0.00  0.00     0.017 A 
ATOM      5  C4  UNL d   1      -4.390  -3.928   0.314  0.00  0.00     0.017 A 
ATOM      6  C5  UNL d   1      -4.073  -3.145  -0.800  0.00  0.00     0.034 A 
ATOM      7 Cl   UNL d   1      -3.555  -5.429   0.507  0.00  0.00    -0.070 Cl
ATOM      8 Cl1  UNL d   1      -5.800  -4.394   2.625  0.00  0.00    -0.070 Cl
ENDROOT
TORSDOF 0
ENDMDL
