MODEL 1
REMARK minimizedAffinity 3.25716066
REMARK minimizedRMSD -1
REMARK  0 active torsions:
REMARK  status: ('A' for Active; 'I' for Inactive)
ROOT
ATOM      1  C   UNL d   1      -3.827  -5.999   1.408  0.00  0.00     0.020 A 
ATOM      2  C1  UNL d   1      -3.681  -5.998   0.021  0.00  0.00     0.020 A 
ATOM      3  C2  UNL d   1      -4.201  -4.946  -0.735  0.00  0.00     0.034 A 
ATOM      4  C3  UNL d   1      -4.869  -3.889  -0.105  0.00  0.00     0.017 A 
ATOM      5  C4  UNL d   1      -5.014  -3.890   1.287  0.00  0.00     0.017 A 
ATOM      6  C5  UNL d   1      -4.492  -4.947   2.039  0.00  0.00     0.034 A 
ATOM      7 Cl   UNL d   1      -5.825  -2.622   2.135  0.00  0.00    -0.070 Cl
ATOM      8 Cl1  UNL d   1      -5.485  -2.620  -1.102  0.00  0.00    -0.070 Cl
ENDROOT
TORSDOF 0
ENDMDL
