MODEL 1
REMARK minimizedAffinity 14.3494463
REMARK minimizedRMSD -1
REMARK  0 active torsions:
REMARK  status: ('A' for Active; 'I' for Inactive)
ROOT
ATOM      1  C   UNL d   1       3.193   4.362  -5.256  0.00  0.00     0.020 A 
ATOM      2  C1  UNL d   1       2.596   5.392  -4.530  0.00  0.00     0.020 A 
ATOM      3  C2  UNL d   1       1.919   5.108  -3.343  0.00  0.00     0.034 A 
ATOM      4  C3  UNL d   1       1.837   3.791  -2.877  0.00  0.00     0.017 A 
ATOM      5  C4  UNL d   1       2.437   2.758  -3.606  0.00  0.00     0.017 A 
ATOM      6  C5  UNL d   1       3.113   3.048  -4.794  0.00  0.00     0.034 A 
ATOM      7 Cl   UNL d   1       2.378   1.108  -3.094  0.00  0.00    -0.070 Cl
ATOM      8 Cl1  UNL d   1       0.984   3.513  -1.400  0.00  0.00    -0.070 Cl
ENDROOT
TORSDOF 0
ENDMDL
