MODEL 1
REMARK minimizedAffinity 2.48123455
REMARK minimizedRMSD -1
REMARK  0 active torsions:
REMARK  status: ('A' for Active; 'I' for Inactive)
ROOT
ATOM      1  C   UNL d   1      -6.000  -2.852   1.819  0.00  0.00     0.020 A 
ATOM      2  C1  UNL d   1      -5.584  -4.086   2.319  0.00  0.00     0.020 A 
ATOM      3  C2  UNL d   1      -4.936  -4.996   1.482  0.00  0.00     0.034 A 
ATOM      4  C3  UNL d   1      -4.702  -4.675   0.140  0.00  0.00     0.017 A 
ATOM      5  C4  UNL d   1      -5.120  -3.437  -0.362  0.00  0.00     0.017 A 
ATOM      6  C5  UNL d   1      -5.768  -2.529   0.481  0.00  0.00     0.034 A 
ATOM      7 Cl   UNL d   1      -4.867  -2.970  -2.006  0.00  0.00    -0.070 Cl
ATOM      8 Cl1  UNL d   1      -3.896  -5.849  -0.838  0.00  0.00    -0.070 Cl
ENDROOT
TORSDOF 0
ENDMDL
