MODEL 1
REMARK minimizedAffinity 14.8753834
REMARK minimizedRMSD -1
REMARK  0 active torsions:
REMARK  status: ('A' for Active; 'I' for Inactive)
ROOT
ATOM      1  C   UNL d   1       1.301  -1.036  -3.186  0.00  0.00     0.020 A 
ATOM      2  C1  UNL d   1       1.630  -1.232  -4.527  0.00  0.00     0.020 A 
ATOM      3  C2  UNL d   1       2.235  -0.206  -5.255  0.00  0.00     0.034 A 
ATOM      4  C3  UNL d   1       2.514   1.021  -4.642  0.00  0.00     0.017 A 
ATOM      5  C4  UNL d   1       2.184   1.217  -3.296  0.00  0.00     0.017 A 
ATOM      6  C5  UNL d   1       1.578   0.186  -2.572  0.00  0.00     0.034 A 
ATOM      7 Cl   UNL d   1       2.497   2.703  -2.472  0.00  0.00    -0.070 Cl
ATOM      8 Cl1  UNL d   1       3.265   2.246  -5.602  0.00  0.00    -0.070 Cl
ENDROOT
TORSDOF 0
ENDMDL
