MODEL 1
REMARK minimizedAffinity 13.7616959
REMARK minimizedRMSD -1
REMARK  0 active torsions:
REMARK  status: ('A' for Active; 'I' for Inactive)
ROOT
ATOM      1  C   UNL d   1       1.302  -0.755  -5.030  0.00  0.00     0.020 A 
ATOM      2  C1  UNL d   1       1.143   0.234  -6.000  0.00  0.00     0.020 A 
ATOM      3  C2  UNL d   1       1.910   1.399  -5.941  0.00  0.00     0.034 A 
ATOM      4  C3  UNL d   1       2.839   1.579  -4.910  0.00  0.00     0.017 A 
ATOM      5  C4  UNL d   1       2.998   0.586  -3.937  0.00  0.00     0.017 A 
ATOM      6  C5  UNL d   1       2.228  -0.579  -4.001  0.00  0.00     0.034 A 
ATOM      7 Cl   UNL d   1       4.125   0.736  -2.635  0.00  0.00    -0.070 Cl
ATOM      8 Cl1  UNL d   1       3.754   3.045  -4.900  0.00  0.00    -0.070 Cl
ENDROOT
TORSDOF 0
ENDMDL
