MODEL 1
REMARK minimizedAffinity 15.1931019
REMARK minimizedRMSD -1
REMARK  0 active torsions:
REMARK  status: ('A' for Active; 'I' for Inactive)
ROOT
ATOM      1  C   UNL d   1       3.832   3.387  -6.000  0.00  0.00     0.020 A 
ATOM      2  C1  UNL d   1       3.671   4.119  -4.824  0.00  0.00     0.020 A 
ATOM      3  C2  UNL d   1       3.298   3.472  -3.644  0.00  0.00     0.034 A 
ATOM      4  C3  UNL d   1       3.084   2.089  -3.637  0.00  0.00     0.017 A 
ATOM      5  C4  UNL d   1       3.246   1.355  -4.818  0.00  0.00     0.017 A 
ATOM      6  C5  UNL d   1       3.620   2.008  -5.996  0.00  0.00     0.034 A 
ATOM      7 Cl   UNL d   1       3.001  -0.355  -4.887  0.00  0.00    -0.070 Cl
ATOM      8 Cl1  UNL d   1       2.625   1.355  -2.142  0.00  0.00    -0.070 Cl
ENDROOT
TORSDOF 0
ENDMDL
