MODEL 1
REMARK minimizedAffinity 6.87462378
REMARK minimizedRMSD -1
REMARK  0 active torsions:
REMARK  status: ('A' for Active; 'I' for Inactive)
ROOT
ATOM      1  C   UNL d   1      -5.604  -5.549  -5.392  0.00  0.00     0.020 A 
ATOM      2  C1  UNL d   1      -4.367  -5.827  -5.972  0.00  0.00     0.020 A 
ATOM      3  C2  UNL d   1      -3.372  -4.848  -6.000  0.00  0.00     0.034 A 
ATOM      4  C3  UNL d   1      -3.612  -3.585  -5.447  0.00  0.00     0.017 A 
ATOM      5  C4  UNL d   1      -4.854  -3.306  -4.865  0.00  0.00     0.017 A 
ATOM      6  C5  UNL d   1      -5.847  -4.291  -4.839  0.00  0.00     0.034 A 
ATOM      7 Cl   UNL d   1      -5.225  -1.771  -4.162  0.00  0.00    -0.070 Cl
ATOM      8 Cl1  UNL d   1      -2.337  -2.421  -5.516  0.00  0.00    -0.070 Cl
ENDROOT
TORSDOF 0
ENDMDL
