MODEL 1
REMARK minimizedAffinity 7.52332115
REMARK minimizedRMSD -1
REMARK  0 active torsions:
REMARK  status: ('A' for Active; 'I' for Inactive)
ROOT
ATOM      1  C   UNL d   1       1.393  -5.214   1.582  0.00  0.00     0.020 A 
ATOM      2  C1  UNL d   1       0.763  -5.214   2.825  0.00  0.00     0.020 A 
ATOM      3  C2  UNL d   1       1.503  -5.459   3.983  0.00  0.00     0.034 A 
ATOM      4  C3  UNL d   1       2.878  -5.705   3.901  0.00  0.00     0.017 A 
ATOM      5  C4  UNL d   1       3.511  -5.704   2.652  0.00  0.00     0.017 A 
ATOM      6  C5  UNL d   1       2.765  -5.458   1.496  0.00  0.00     0.034 A 
ATOM      7 Cl   UNL d   1       5.204  -5.999   2.471  0.00  0.00    -0.070 Cl
ATOM      8 Cl1  UNL d   1       3.732  -6.000   5.374  0.00  0.00    -0.070 Cl
ENDROOT
TORSDOF 0
ENDMDL
