MODEL 1
REMARK minimizedAffinity 5.87086582
REMARK minimizedRMSD -1
REMARK  0 active torsions:
REMARK  status: ('A' for Active; 'I' for Inactive)
ROOT
ATOM      1  C   UNL d   1      -3.082   1.598   1.347  0.00  0.00     0.020 A 
ATOM      2  C1  UNL d   1      -1.853   0.942   1.404  0.00  0.00     0.020 A 
ATOM      3  C2  UNL d   1      -1.776  -0.422   1.113  0.00  0.00     0.034 A 
ATOM      4  C3  UNL d   1      -2.929  -1.133   0.763  0.00  0.00     0.017 A 
ATOM      5  C4  UNL d   1      -4.162  -0.474   0.706  0.00  0.00     0.017 A 
ATOM      6  C5  UNL d   1      -4.234   0.892   0.998  0.00  0.00     0.034 A 
ATOM      7 Cl   UNL d   1      -5.629  -1.285   0.282  0.00  0.00    -0.070 Cl
ATOM      8 Cl1  UNL d   1      -2.760  -2.817   0.415  0.00  0.00    -0.070 Cl
ENDROOT
TORSDOF 0
ENDMDL
