MODEL 1
REMARK minimizedAffinity 10.7491016
REMARK minimizedRMSD -1
REMARK  0 active torsions:
REMARK  status: ('A' for Active; 'I' for Inactive)
ROOT
ATOM      1  C   UNL d   1      -1.001  -0.267   1.482  0.00  0.00     0.020 A 
ATOM      2  C1  UNL d   1      -0.896   1.121   1.411  0.00  0.00     0.020 A 
ATOM      3  C2  UNL d   1      -2.028   1.893   1.139  0.00  0.00     0.034 A 
ATOM      4  C3  UNL d   1      -3.268   1.278   0.939  0.00  0.00     0.017 A 
ATOM      5  C4  UNL d   1      -3.372  -0.116   1.011  0.00  0.00     0.017 A 
ATOM      6  C5  UNL d   1      -2.236  -0.884   1.283  0.00  0.00     0.034 A 
ATOM      7 Cl   UNL d   1      -4.869  -0.947   0.774  0.00  0.00    -0.070 Cl
ATOM      8 Cl1  UNL d   1      -4.626   2.295   0.608  0.00  0.00    -0.070 Cl
ENDROOT
TORSDOF 0
ENDMDL
