MODEL 1
REMARK minimizedAffinity 12.7139387
REMARK minimizedRMSD -1
REMARK  0 active torsions:
REMARK  status: ('A' for Active; 'I' for Inactive)
ROOT
ATOM      1  C   UNL d   1      -3.389   0.278   0.936  0.00  0.00     0.020 A 
ATOM      2  C1  UNL d   1      -2.225  -0.470   1.110  0.00  0.00     0.020 A 
ATOM      3  C2  UNL d   1      -1.128   0.090   1.767  0.00  0.00     0.034 A 
ATOM      4  C3  UNL d   1      -1.191   1.400   2.253  0.00  0.00     0.017 A 
ATOM      5  C4  UNL d   1      -2.360   2.150   2.079  0.00  0.00     0.017 A 
ATOM      6  C5  UNL d   1      -3.456   1.585   1.420  0.00  0.00     0.034 A 
ATOM      7 Cl   UNL d   1      -2.514   3.774   2.651  0.00  0.00    -0.070 Cl
ATOM      8 Cl1  UNL d   1       0.204   2.028   3.057  0.00  0.00    -0.070 Cl
ENDROOT
TORSDOF 0
ENDMDL
