MODEL 1
REMARK minimizedAffinity 10.3347702
REMARK minimizedRMSD -1
REMARK  0 active torsions:
REMARK  status: ('A' for Active; 'I' for Inactive)
ROOT
ATOM      1  C   UNL d   1      -2.441  -0.746   1.770  0.00  0.00     0.020 A 
ATOM      2  C1  UNL d   1      -1.133  -1.002   2.179  0.00  0.00     0.020 A 
ATOM      3  C2  UNL d   1      -0.308   0.051   2.581  0.00  0.00     0.034 A 
ATOM      4  C3  UNL d   1      -0.790   1.365   2.574  0.00  0.00     0.017 A 
ATOM      5  C4  UNL d   1      -2.103   1.621   2.163  0.00  0.00     0.017 A 
ATOM      6  C5  UNL d   1      -2.925   0.563   1.762  0.00  0.00     0.034 A 
ATOM      7 Cl   UNL d   1      -2.769   3.216   2.128  0.00  0.00    -0.070 Cl
ATOM      8 Cl1  UNL d   1       0.285   2.618   3.084  0.00  0.00    -0.070 Cl
ENDROOT
TORSDOF 0
ENDMDL
