MODEL 1
REMARK minimizedAffinity 1.97018647
REMARK minimizedRMSD -1
REMARK  0 active torsions:
REMARK  status: ('A' for Active; 'I' for Inactive)
ROOT
ATOM      1  C   UNL d   1      -3.478   1.085   1.039  0.00  0.00     0.020 A 
ATOM      2  C1  UNL d   1      -2.115   0.792   1.060  0.00  0.00     0.020 A 
ATOM      3  C2  UNL d   1      -1.673  -0.498   0.760  0.00  0.00     0.034 A 
ATOM      4  C3  UNL d   1      -2.595  -1.500   0.436  0.00  0.00     0.017 A 
ATOM      5  C4  UNL d   1      -3.963  -1.206   0.415  0.00  0.00     0.017 A 
ATOM      6  C5  UNL d   1      -4.400   0.088   0.716  0.00  0.00     0.034 A 
ATOM      7 Cl   UNL d   1      -5.160  -2.390   0.025  0.00  0.00    -0.070 Cl
ATOM      8 Cl1  UNL d   1      -1.977  -3.073   0.075  0.00  0.00    -0.070 Cl
ENDROOT
TORSDOF 0
ENDMDL
