MODEL 1
REMARK minimizedAffinity 12.2901716
REMARK minimizedRMSD -1
REMARK  0 active torsions:
REMARK  status: ('A' for Active; 'I' for Inactive)
ROOT
ATOM      1  C   UNL d   1       5.999  -0.478   1.875  0.00  0.00     0.020 A 
ATOM      2  C1  UNL d   1       5.551  -1.362   2.856  0.00  0.00     0.020 A 
ATOM      3  C2  UNL d   1       4.209  -1.354   3.242  0.00  0.00     0.034 A 
ATOM      4  C3  UNL d   1       3.310  -0.460   2.647  0.00  0.00     0.017 A 
ATOM      5  C4  UNL d   1       3.762   0.426   1.663  0.00  0.00     0.017 A 
ATOM      6  C5  UNL d   1       5.106   0.414   1.280  0.00  0.00     0.034 A 
ATOM      7 Cl   UNL d   1       2.713   1.558   0.883  0.00  0.00    -0.070 Cl
ATOM      8 Cl1  UNL d   1       1.665  -0.506   3.173  0.00  0.00    -0.070 Cl
ENDROOT
TORSDOF 0
ENDMDL
