MODEL 1
REMARK minimizedAffinity 5.04686689
REMARK minimizedRMSD -1
REMARK  0 active torsions:
REMARK  status: ('A' for Active; 'I' for Inactive)
ROOT
ATOM      1  C   UNL d   1      -2.978   1.429   1.753  0.00  0.00     0.020 A 
ATOM      2  C1  UNL d   1      -2.668   0.070   1.779  0.00  0.00     0.020 A 
ATOM      3  C2  UNL d   1      -1.408  -0.350   2.211  0.00  0.00     0.034 A 
ATOM      4  C3  UNL d   1      -0.454   0.589   2.619  0.00  0.00     0.017 A 
ATOM      5  C4  UNL d   1      -0.767   1.953   2.593  0.00  0.00     0.017 A 
ATOM      6  C5  UNL d   1      -2.029   2.369   2.159  0.00  0.00     0.034 A 
ATOM      7 Cl   UNL d   1       0.358   3.171   3.081  0.00  0.00    -0.070 Cl
ATOM      8 Cl1  UNL d   1       1.083  -0.002   3.142  0.00  0.00    -0.070 Cl
ENDROOT
TORSDOF 0
ENDMDL
