MODEL 1
REMARK minimizedAffinity 7.94869947
REMARK minimizedRMSD -1
REMARK  0 active torsions:
REMARK  status: ('A' for Active; 'I' for Inactive)
ROOT
ATOM      1  C   UNL d   1       0.381   1.468   2.460  0.00  0.00     0.172 C 
ATOM      2  N   UNL d   1       0.606   1.162   3.853  0.00  0.00    -0.070 N 
ATOM      3  C1  UNL d   1       0.437  -0.065   4.438  0.00  0.00    -0.004 A 
ATOM      4  C2  UNL d   1       0.753   0.057   5.774  0.00  0.00    -0.047 A 
ATOM      5  C3  UNL d   1       1.124   1.404   6.000  0.00  0.00    -0.047 A 
ATOM      6  C4  UNL d   1       1.024   2.065   4.794  0.00  0.00    -0.004 A 
ENDROOT
TORSDOF 0
ENDMDL
