MODEL 1
REMARK minimizedAffinity 13.3847313
REMARK minimizedRMSD -1
REMARK  0 active torsions:
REMARK  status: ('A' for Active; 'I' for Inactive)
ROOT
ATOM      1  C   UNL d   1      -6.000   3.175   3.499  0.00  0.00     0.172 C 
ATOM      2  N   UNL d   1      -5.071   2.233   4.078  0.00  0.00    -0.070 N 
ATOM      3  C1  UNL d   1      -4.570   2.284   5.351  0.00  0.00    -0.004 A 
ATOM      4  C2  UNL d   1      -3.722   1.211   5.515  0.00  0.00    -0.047 A 
ATOM      5  C3  UNL d   1      -3.711   0.489   4.298  0.00  0.00    -0.047 A 
ATOM      6  C4  UNL d   1      -4.555   1.144   3.425  0.00  0.00    -0.004 A 
ENDROOT
TORSDOF 0
ENDMDL
