MODEL 1
REMARK minimizedAffinity 9.10542107
REMARK minimizedRMSD -1
REMARK  0 active torsions:
REMARK  status: ('A' for Active; 'I' for Inactive)
ROOT
ATOM      1  C   UNL d   1      -4.830  -5.999  -5.953  0.00  0.00     0.172 C 
ATOM      2  N   UNL d   1      -4.902  -4.581  -5.686  0.00  0.00    -0.070 N 
ATOM      3  C1  UNL d   1      -6.000  -3.787  -5.880  0.00  0.00    -0.004 A 
ATOM      4  C2  UNL d   1      -5.663  -2.503  -5.507  0.00  0.00    -0.047 A 
ATOM      5  C3  UNL d   1      -4.316  -2.527  -5.075  0.00  0.00    -0.047 A 
ATOM      6  C4  UNL d   1      -3.869  -3.826  -5.196  0.00  0.00    -0.004 A 
ENDROOT
TORSDOF 0
ENDMDL
