MODEL 1
REMARK minimizedAffinity -0.0490513965
REMARK minimizedRMSD -1
REMARK  0 active torsions:
REMARK  status: ('A' for Active; 'I' for Inactive)
ROOT
ATOM      1  C   UNL d   1      -1.125   5.992  -3.416  0.00  0.00     0.172 C 
ATOM      2  N   UNL d   1      -1.999   5.354  -4.373  0.00  0.00    -0.070 N 
ATOM      3  C1  UNL d   1      -2.807   6.000  -5.269  0.00  0.00    -0.004 A 
ATOM      4  C2  UNL d   1      -3.477   5.042  -6.000  0.00  0.00    -0.047 A 
ATOM      5  C3  UNL d   1      -3.056   3.777  -5.525  0.00  0.00    -0.047 A 
ATOM      6  C4  UNL d   1      -2.141   3.999  -4.518  0.00  0.00    -0.004 A 
ENDROOT
TORSDOF 0
ENDMDL
