MODEL 1
REMARK minimizedAffinity 13.6692486
REMARK minimizedRMSD -1
REMARK  0 active torsions:
REMARK  status: ('A' for Active; 'I' for Inactive)
ROOT
ATOM      1  C   UNL d   1      -3.360   0.670   3.367  0.00  0.00     0.172 C 
ATOM      2  N   UNL d   1      -4.083   1.581   4.223  0.00  0.00    -0.070 N 
ATOM      3  C1  UNL d   1      -5.214   2.273   3.879  0.00  0.00    -0.004 A 
ATOM      4  C2  UNL d   1      -5.593   3.029   4.967  0.00  0.00    -0.047 A 
ATOM      5  C3  UNL d   1      -4.658   2.784   6.000  0.00  0.00    -0.047 A 
ATOM      6  C4  UNL d   1      -3.734   1.884   5.512  0.00  0.00    -0.004 A 
ENDROOT
TORSDOF 0
ENDMDL
