MODEL 1
REMARK minimizedAffinity 2.80691886
REMARK minimizedRMSD -1
REMARK  0 active torsions:
REMARK  status: ('A' for Active; 'I' for Inactive)
ROOT
ATOM      1  C   UNL d   1      -2.279   2.464  -4.159  0.00  0.00     0.172 C 
ATOM      2  N   UNL d   1      -2.411   3.798  -4.695  0.00  0.00    -0.070 N 
ATOM      3  C1  UNL d   1      -3.094   4.137  -5.832  0.00  0.00    -0.004 A 
ATOM      4  C2  UNL d   1      -2.983   5.501  -6.000  0.00  0.00    -0.047 A 
ATOM      5  C3  UNL d   1      -2.206   5.998  -4.927  0.00  0.00    -0.047 A 
ATOM      6  C4  UNL d   1      -1.865   4.922  -4.134  0.00  0.00    -0.004 A 
ENDROOT
TORSDOF 0
ENDMDL
