MODEL 1
REMARK minimizedAffinity 0.907526195
REMARK minimizedRMSD -1
REMARK  0 active torsions:
REMARK  status: ('A' for Active; 'I' for Inactive)
ROOT
ATOM      1  C   UNL d   1      -3.475   4.863  -5.997  0.00  0.00     0.172 C 
ATOM      2  N   UNL d   1      -2.624   3.890  -5.353  0.00  0.00    -0.070 N 
ATOM      3  C1  UNL d   1      -2.335   3.843  -4.016  0.00  0.00    -0.004 A 
ATOM      4  C2  UNL d   1      -1.494   2.772  -3.803  0.00  0.00    -0.047 A 
ATOM      5  C3  UNL d   1      -1.269   2.155  -5.057  0.00  0.00    -0.047 A 
ATOM      6  C4  UNL d   1      -1.981   2.867  -5.999  0.00  0.00    -0.004 A 
ENDROOT
TORSDOF 0
ENDMDL
