MODEL 1
REMARK minimizedAffinity 5.47754669
REMARK minimizedRMSD -1
REMARK  0 active torsions:
REMARK  status: ('A' for Active; 'I' for Inactive)
ROOT
ATOM      1  C   UNL d   1      -3.418   0.570   3.350  0.00  0.00     0.172 C 
ATOM      2  N   UNL d   1      -4.041   1.556   4.201  0.00  0.00    -0.070 N 
ATOM      3  C1  UNL d   1      -5.059   2.397   3.836  0.00  0.00    -0.004 A 
ATOM      4  C2  UNL d   1      -5.370   3.181   4.926  0.00  0.00    -0.047 A 
ATOM      5  C3  UNL d   1      -4.509   2.798   5.982  0.00  0.00    -0.047 A 
ATOM      6  C4  UNL d   1      -3.697   1.791   5.506  0.00  0.00    -0.004 A 
ENDROOT
TORSDOF 0
ENDMDL
