MODEL 1
REMARK minimizedAffinity 9.03716946
REMARK minimizedRMSD -1
REMARK  0 active torsions:
REMARK  status: ('A' for Active; 'I' for Inactive)
ROOT
ATOM      1  C   UNL d   1      -0.849   5.768  -3.088  0.00  0.00     0.172 C 
ATOM      2  N   UNL d   1       0.199   5.645  -2.102  0.00  0.00    -0.070 N 
ATOM      3  C1  UNL d   1       1.540   5.569  -2.368  0.00  0.00    -0.004 A 
ATOM      4  C2  UNL d   1       2.203   5.461  -1.164  0.00  0.00    -0.047 A 
ATOM      5  C3  UNL d   1       1.227   5.471  -0.140  0.00  0.00    -0.047 A 
ATOM      6  C4  UNL d   1      -0.006   5.586  -0.749  0.00  0.00    -0.004 A 
ENDROOT
TORSDOF 0
ENDMDL
