MODEL 1
REMARK minimizedAffinity -0.244059727
REMARK minimizedRMSD -1
REMARK  0 active torsions:
REMARK  status: ('A' for Active; 'I' for Inactive)
ROOT
ATOM      1  C   UNL d   1      -3.921   5.997  -5.999  0.00  0.00     0.172 C 
ATOM      2  N   UNL d   1      -3.362   4.763  -5.500  0.00  0.00    -0.070 N 
ATOM      3  C1  UNL d   1      -3.616   3.513  -5.999  0.00  0.00    -0.004 A 
ATOM      4  C2  UNL d   1      -2.894   2.606  -5.253  0.00  0.00    -0.047 A 
ATOM      5  C3  UNL d   1      -2.183   3.336  -4.271  0.00  0.00    -0.047 A 
ATOM      6  C4  UNL d   1      -2.490   4.669  -4.448  0.00  0.00    -0.004 A 
ENDROOT
TORSDOF 0
ENDMDL
