MODEL 1
REMARK minimizedAffinity 8.15224075
REMARK minimizedRMSD -1
REMARK  0 active torsions:
REMARK  status: ('A' for Active; 'I' for Inactive)
ROOT
ATOM      1  C   UNL d   1      -3.115  -2.616  -4.413  0.00  0.00     0.172 C 
ATOM      2  N   UNL d   1      -1.962  -1.937  -3.872  0.00  0.00    -0.070 N 
ATOM      3  C1  UNL d   1      -1.933  -0.641  -3.430  0.00  0.00    -0.004 A 
ATOM      4  C2  UNL d   1      -0.655  -0.373  -2.991  0.00  0.00    -0.047 A 
ATOM      5  C3  UNL d   1       0.112  -1.547  -3.177  0.00  0.00    -0.047 A 
ATOM      6  C4  UNL d   1      -0.722  -2.500  -3.724  0.00  0.00    -0.004 A 
ENDROOT
TORSDOF 0
ENDMDL
