MODEL 1
REMARK minimizedAffinity 12.2559719
REMARK minimizedRMSD -1
REMARK  0 active torsions:
REMARK  status: ('A' for Active; 'I' for Inactive)
ROOT
ATOM      1  C   UNL d   1      -5.997   3.141   3.644  0.00  0.00     0.172 C 
ATOM      2  N   UNL d   1      -5.020   2.366   4.371  0.00  0.00    -0.070 N 
ATOM      3  C1  UNL d   1      -4.681   2.539   5.686  0.00  0.00    -0.004 A 
ATOM      4  C2  UNL d   1      -3.716   1.606   6.000  0.00  0.00    -0.047 A 
ATOM      5  C3  UNL d   1      -3.467   0.846   4.832  0.00  0.00    -0.047 A 
ATOM      6  C4  UNL d   1      -4.287   1.338   3.839  0.00  0.00    -0.004 A 
ENDROOT
TORSDOF 0
ENDMDL
