MODEL 1
REMARK minimizedAffinity 4.28869581
REMARK minimizedRMSD -1
REMARK  0 active torsions:
REMARK  status: ('A' for Active; 'I' for Inactive)
ROOT
ATOM      1  C   UNL d   1      -3.737   4.332  -6.000  0.00  0.00     0.172 C 
ATOM      2  N   UNL d   1      -2.939   3.307  -5.367  0.00  0.00    -0.070 N 
ATOM      3  C1  UNL d   1      -2.368   2.236  -6.000  0.00  0.00    -0.004 A 
ATOM      4  C2  UNL d   1      -1.693   1.497  -5.053  0.00  0.00    -0.047 A 
ATOM      5  C3  UNL d   1      -1.865   2.147  -3.807  0.00  0.00    -0.047 A 
ATOM      6  C4  UNL d   1      -2.640   3.265  -4.031  0.00  0.00    -0.004 A 
ENDROOT
TORSDOF 0
ENDMDL
