MODEL 1
REMARK minimizedAffinity 12.4557228
REMARK minimizedRMSD -1
REMARK  0 active torsions:
REMARK  status: ('A' for Active; 'I' for Inactive)
ROOT
ATOM      1  C   UNL d   1      -1.860   5.982  -4.531  0.00  0.00     0.172 C 
ATOM      2  N   UNL d   1      -1.973   4.567  -4.794  0.00  0.00    -0.070 N 
ATOM      3  C1  UNL d   1      -1.737   3.565  -3.891  0.00  0.00    -0.004 A 
ATOM      4  C2  UNL d   1      -1.953   2.362  -4.528  0.00  0.00    -0.047 A 
ATOM      5  C3  UNL d   1      -2.332   2.651  -5.861  0.00  0.00    -0.047 A 
ATOM      6  C4  UNL d   1      -2.336   4.023  -5.998  0.00  0.00    -0.004 A 
ENDROOT
TORSDOF 0
ENDMDL
