MODEL 1
REMARK minimizedAffinity 8.75016022
REMARK minimizedRMSD -1
REMARK  0 active torsions:
REMARK  status: ('A' for Active; 'I' for Inactive)
ROOT
ATOM      1  C   UNL d   1      -3.613   1.105   3.862  0.00  0.00     0.172 C 
ATOM      2  N   UNL d   1      -2.241   1.305   3.456  0.00  0.00    -0.070 N 
ATOM      3  C1  UNL d   1      -1.829   1.991   2.345  0.00  0.00    -0.004 A 
ATOM      4  C2  UNL d   1      -0.452   1.954   2.313  0.00  0.00    -0.047 A 
ATOM      5  C3  UNL d   1      -0.021   1.219   3.443  0.00  0.00    -0.047 A 
ATOM      6  C4  UNL d   1      -1.149   0.829   4.133  0.00  0.00    -0.004 A 
ENDROOT
TORSDOF 0
ENDMDL
