MODEL 1
REMARK minimizedAffinity 4.41778755
REMARK minimizedRMSD -1
REMARK  0 active torsions:
REMARK  status: ('A' for Active; 'I' for Inactive)
ROOT
ATOM      1  C   UNL d   1      -4.599   1.978   4.297  0.00  0.00     0.172 C 
ATOM      2  N   UNL d   1      -3.753   1.130   3.490  0.00  0.00    -0.070 N 
ATOM      3  C1  UNL d   1      -3.986  -0.189   3.203  0.00  0.00    -0.004 A 
ATOM      4  C2  UNL d   1      -2.953  -0.637   2.410  0.00  0.00    -0.047 A 
ATOM      5  C3  UNL d   1      -2.068   0.449   2.213  0.00  0.00    -0.047 A 
ATOM      6  C4  UNL d   1      -2.587   1.531   2.893  0.00  0.00    -0.004 A 
ENDROOT
TORSDOF 0
ENDMDL
