MODEL 1
REMARK minimizedAffinity 23.4969158
REMARK minimizedRMSD -1
REMARK  0 active torsions:
REMARK  status: ('A' for Active; 'I' for Inactive)
ROOT
ATOM      1  C1  DEN d   1      -1.014   3.280   4.725  0.00  0.00     0.130 A 
ATOM      2  C2  DEN d   1      -0.303   3.319   6.000  0.00  0.00    -0.031 A 
ATOM      3  C3  DEN d   1       0.732   2.267   5.978  0.00  0.00     0.027 A 
ATOM      4  C4  DEN d   1       1.304   0.592   4.101  0.00  0.00     0.027 A 
ATOM      5  C5  DEN d   1       0.966   0.167   2.835  0.00  0.00    -0.003 A 
ATOM      6  C6  DEN d   1      -0.069   0.722   2.130  0.00  0.00     0.001 A 
ATOM      7  C7  DEN d   1      -0.774   1.766   2.668  0.00  0.00     0.017 A 
ATOM      8  C8  DEN d   1      -0.445   2.195   3.947  0.00  0.00    -0.094 A 
ATOM      9  C9  DEN d   1       0.613   1.629   4.639  0.00  0.00    -0.072 A 
ENDROOT
TORSDOF 0
ENDMDL
