MODEL 1
REMARK minimizedAffinity 8.45986557
REMARK minimizedRMSD -1
REMARK  0 active torsions:
REMARK  status: ('A' for Active; 'I' for Inactive)
ROOT
ATOM      1  C1  DEN d   1       4.579   6.000   1.813  0.00  0.00     0.130 A 
ATOM      2  C2  DEN d   1       4.236   5.588   0.454  0.00  0.00    -0.031 A 
ATOM      3  C3  DEN d   1       4.285   4.114   0.398  0.00  0.00     0.027 A 
ATOM      4  C4  DEN d   1       4.848   2.436   2.274  0.00  0.00     0.027 A 
ATOM      5  C5  DEN d   1       5.215   2.312   3.596  0.00  0.00    -0.003 A 
ATOM      6  C6  DEN d   1       5.426   3.400   4.400  0.00  0.00     0.001 A 
ATOM      7  C7  DEN d   1       5.229   4.661   3.902  0.00  0.00     0.017 A 
ATOM      8  C8  DEN d   1       4.867   4.794   2.569  0.00  0.00    -0.094 A 
ATOM      9  C9  DEN d   1       4.645   3.681   1.775  0.00  0.00    -0.072 A 
ENDROOT
TORSDOF 0
ENDMDL
