MODEL 1
REMARK minimizedAffinity 23.8643684
REMARK minimizedRMSD -1
REMARK  0 active torsions:
REMARK  status: ('A' for Active; 'I' for Inactive)
ROOT
ATOM      1  C1  DEN d   1      -0.592  -0.846   0.852  0.00  0.00     0.130 A 
ATOM      2  C2  DEN d   1       0.301  -1.998   0.765  0.00  0.00    -0.031 A 
ATOM      3  C3  DEN d   1       1.320  -1.868   1.827  0.00  0.00     0.027 A 
ATOM      4  C4  DEN d   1       1.597  -0.005   3.590  0.00  0.00     0.027 A 
ATOM      5  C5  DEN d   1       1.087   1.188   4.052  0.00  0.00    -0.003 A 
ATOM      6  C6  DEN d   1       0.011   1.799   3.463  0.00  0.00     0.001 A 
ATOM      7  C7  DEN d   1      -0.618   1.195   2.406  0.00  0.00     0.017 A 
ATOM      8  C8  DEN d   1      -0.105  -0.004   1.930  0.00  0.00    -0.094 A 
ATOM      9  C9  DEN d   1       0.976  -0.612   2.546  0.00  0.00    -0.072 A 
ENDROOT
TORSDOF 0
ENDMDL
