MODEL 1
REMARK minimizedAffinity 16.1873531
REMARK minimizedRMSD -1
REMARK  0 active torsions:
REMARK  status: ('A' for Active; 'I' for Inactive)
ROOT
ATOM      1  C1  DEN d   1      -1.362  -1.408  -2.544  0.00  0.00     0.130 A 
ATOM      2  C2  DEN d   1      -2.337  -2.412  -2.962  0.00  0.00    -0.031 A 
ATOM      3  C3  DEN d   1      -1.949  -2.896  -4.302  0.00  0.00     0.027 A 
ATOM      4  C4  DEN d   1       0.059  -2.195  -5.761  0.00  0.00     0.027 A 
ATOM      5  C5  DEN d   1       1.158  -1.368  -5.836  0.00  0.00    -0.003 A 
ATOM      6  C6  DEN d   1       1.472  -0.479  -4.842  0.00  0.00     0.001 A 
ATOM      7  C7  DEN d   1       0.704  -0.429  -3.709  0.00  0.00     0.017 A 
ATOM      8  C8  DEN d   1      -0.410  -1.254  -3.630  0.00  0.00    -0.094 A 
ATOM      9  C9  DEN d   1      -0.704  -2.155  -4.640  0.00  0.00    -0.072 A 
ENDROOT
TORSDOF 0
ENDMDL
