MODEL 1
REMARK minimizedAffinity 1.49975514
REMARK minimizedRMSD -1
REMARK  0 active torsions:
REMARK  status: ('A' for Active; 'I' for Inactive)
ROOT
ATOM      1  C1  DEN d   1       0.341  -1.226   3.208  0.00  0.00     0.130 A 
ATOM      2  C2  DEN d   1       0.385   0.044   2.488  0.00  0.00    -0.031 A 
ATOM      3  C3  DEN d   1       1.495   0.845   3.041  0.00  0.00     0.027 A 
ATOM      4  C4  DEN d   1       3.146   0.243   4.929  0.00  0.00     0.027 A 
ATOM      5  C5  DEN d   1       3.496  -0.721   5.849  0.00  0.00    -0.003 A 
ATOM      6  C6  DEN d   1       2.805  -1.897   5.974  0.00  0.00     0.001 A 
ATOM      7  C7  DEN d   1       1.753  -2.158   5.136  0.00  0.00     0.017 A 
ATOM      8  C8  DEN d   1       1.389  -1.188   4.212  0.00  0.00    -0.094 A 
ATOM      9  C9  DEN d   1       2.109  -0.011   4.092  0.00  0.00    -0.072 A 
ENDROOT
TORSDOF 0
ENDMDL
