MODEL 1
REMARK minimizedAffinity 21.9326458
REMARK minimizedRMSD -1
REMARK  0 active torsions:
REMARK  status: ('A' for Active; 'I' for Inactive)
ROOT
ATOM      1  C1  DEN d   1      -4.957   0.484  -1.222  0.00  0.00     0.130 A 
ATOM      2  C2  DEN d   1      -5.414   1.869  -1.294  0.00  0.00    -0.031 A 
ATOM      3  C3  DEN d   1      -4.872   2.591  -0.125  0.00  0.00     0.027 A 
ATOM      4  C4  DEN d   1      -3.374   1.703   1.778  0.00  0.00     0.027 A 
ATOM      5  C5  DEN d   1      -2.736   0.590   2.278  0.00  0.00    -0.003 A 
ATOM      6  C6  DEN d   1      -2.820  -0.635   1.669  0.00  0.00     0.001 A 
ATOM      7  C7  DEN d   1      -3.522  -0.765   0.500  0.00  0.00     0.017 A 
ATOM      8  C8  DEN d   1      -4.175   0.352  -0.005  0.00  0.00    -0.094 A 
ATOM      9  C9  DEN d   1      -4.068   1.583   0.618  0.00  0.00    -0.072 A 
ENDROOT
TORSDOF 0
ENDMDL
