MODEL 1
REMARK minimizedAffinity 21.9370365
REMARK minimizedRMSD -1
REMARK  0 active torsions:
REMARK  status: ('A' for Active; 'I' for Inactive)
ROOT
ATOM      1  C1  DEN d   1       4.579   4.111   4.880  0.00  0.00     0.130 A 
ATOM      2  C2  DEN d   1       4.644   2.722   5.325  0.00  0.00    -0.031 A 
ATOM      3  C3  DEN d   1       4.302   1.858   4.178  0.00  0.00     0.027 A 
ATOM      4  C4  DEN d   1       3.684   2.533   1.766  0.00  0.00     0.027 A 
ATOM      5  C5  DEN d   1       3.484   3.597   0.914  0.00  0.00    -0.003 A 
ATOM      6  C6  DEN d   1       3.602   4.897   1.330  0.00  0.00     0.001 A 
ATOM      7  C7  DEN d   1       3.972   5.166   2.621  0.00  0.00     0.017 A 
ATOM      8  C8  DEN d   1       4.167   4.098   3.488  0.00  0.00    -0.094 A 
ATOM      9  C9  DEN d   1       4.055   2.791   3.046  0.00  0.00    -0.072 A 
ENDROOT
TORSDOF 0
ENDMDL
