MODEL 1
REMARK minimizedAffinity 16.3621254
REMARK minimizedRMSD -1
REMARK  0 active torsions:
REMARK  status: ('A' for Active; 'I' for Inactive)
ROOT
ATOM      1  C1  DEN d   1      -1.425  -1.798  -2.133  0.00  0.00     0.130 A 
ATOM      2  C2  DEN d   1      -2.260  -2.957  -2.438  0.00  0.00    -0.031 A 
ATOM      3  C3  DEN d   1      -1.891  -3.443  -3.783  0.00  0.00     0.027 A 
ATOM      4  C4  DEN d   1      -0.115  -2.522  -5.411  0.00  0.00     0.027 A 
ATOM      5  C5  DEN d   1       0.836  -1.544  -5.598  0.00  0.00    -0.003 A 
ATOM      6  C6  DEN d   1       1.075  -0.570  -4.665  0.00  0.00     0.001 A 
ATOM      7  C7  DEN d   1       0.384  -0.579  -3.482  0.00  0.00     0.017 A 
ATOM      8  C8  DEN d   1      -0.582  -1.558  -3.289  0.00  0.00    -0.094 A 
ATOM      9  C9  DEN d   1      -0.800  -2.541  -4.239  0.00  0.00    -0.072 A 
ENDROOT
TORSDOF 0
ENDMDL
