MODEL 1
REMARK minimizedAffinity -3.0086472
REMARK minimizedRMSD -1
REMARK  0 active torsions:
REMARK  status: ('A' for Active; 'I' for Inactive)
ROOT
ATOM      1  N1  IND d   1       0.513   0.760  -0.930  0.00  0.00    -0.196 N 
ATOM      2  C2  IND d   1       0.324  -0.533  -0.529  0.00  0.00     0.054 A 
ATOM      3  C3  IND d   1      -0.339  -0.567   0.648  0.00  0.00    -0.031 A 
ATOM      4  C4  IND d   1      -1.299   1.372   2.043  0.00  0.00     0.051 A 
ATOM      5  C5  IND d   1      -1.345   2.737   2.101  0.00  0.00    -0.031 A 
ATOM      6  C6  IND d   1      -0.765   3.528   1.131  0.00  0.00     0.015 A 
ATOM      7  C7  IND d   1      -0.124   2.982   0.056  0.00  0.00    -0.016 A 
ATOM      8  C8  IND d   1      -0.069   1.597  -0.003  0.00  0.00    -0.047 A 
ATOM      9  C9  IND d   1      -0.618   0.789   1.000  0.00  0.00    -0.096 A 
ATOM     10  HN1 IND d   1       0.927   1.009  -1.642  0.00  0.00     0.298 HD
ENDROOT
TORSDOF 0
ENDMDL
