MODEL 1
REMARK minimizedAffinity -4.13767672
REMARK minimizedRMSD -1
REMARK  0 active torsions:
REMARK  status: ('A' for Active; 'I' for Inactive)
ROOT
ATOM      1  N1  IND d   1       0.717   0.100  -1.327  0.00  0.00    -0.196 N 
ATOM      2  C2  IND d   1       1.265  -1.134  -1.117  0.00  0.00     0.054 A 
ATOM      3  C3  IND d   1       0.909  -1.607   0.099  0.00  0.00    -0.031 A 
ATOM      4  C4  IND d   1      -0.648  -0.567   1.866  0.00  0.00     0.051 A 
ATOM      5  C5  IND d   1      -1.359   0.567   2.141  0.00  0.00    -0.031 A 
ATOM      6  C6  IND d   1      -1.417   1.624   1.256  0.00  0.00     0.015 A 
ATOM      7  C7  IND d   1      -0.774   1.581   0.051  0.00  0.00    -0.016 A 
ATOM      8  C8  IND d   1      -0.045   0.434  -0.229  0.00  0.00    -0.047 A 
ATOM      9  C9  IND d   1       0.053  -0.625   0.684  0.00  0.00    -0.096 A 
ATOM     10  HN1 IND d   1       0.829   0.586  -2.027  0.00  0.00     0.298 HD
ENDROOT
TORSDOF 0
ENDMDL
