MODEL 1
REMARK minimizedAffinity -4.4335351
REMARK minimizedRMSD -1
REMARK  0 active torsions:
REMARK  status: ('A' for Active; 'I' for Inactive)
ROOT
ATOM      1  N1  IND d   1      -0.290  -0.513  -0.703  0.00  0.00    -0.196 N 
ATOM      2  C2  IND d   1       0.007  -1.439   0.258  0.00  0.00     0.054 A 
ATOM      3  C3  IND d   1      -0.163  -0.909   1.490  0.00  0.00    -0.031 A 
ATOM      4  C4  IND d   1      -1.019   1.424   2.163  0.00  0.00     0.051 A 
ATOM      5  C5  IND d   1      -1.383   2.631   1.636  0.00  0.00    -0.031 A 
ATOM      6  C6  IND d   1      -1.405   2.855   0.274  0.00  0.00     0.015 A 
ATOM      7  C7  IND d   1      -1.072   1.873  -0.615  0.00  0.00    -0.016 A 
ATOM      8  C8  IND d   1      -0.695   0.648  -0.083  0.00  0.00    -0.047 A 
ATOM      9  C9  IND d   1      -0.630   0.428   1.299  0.00  0.00    -0.096 A 
ATOM     10  HN1 IND d   1      -0.233  -0.636  -1.552  0.00  0.00     0.298 HD
ENDROOT
TORSDOF 0
ENDMDL
