MODEL 1
REMARK minimizedAffinity -3.66927052
REMARK minimizedRMSD -1
REMARK  0 active torsions:
REMARK  status: ('A' for Active; 'I' for Inactive)
ROOT
ATOM      1  N1  IND d   1       0.364   0.579  -0.535  0.00  0.00    -0.196 N 
ATOM      2  C2  IND d   1       0.531  -0.624   0.091  0.00  0.00     0.054 A 
ATOM      3  C3  IND d   1      -0.208  -0.673   1.222  0.00  0.00    -0.031 A 
ATOM      4  C4  IND d   1      -1.845   1.067   2.182  0.00  0.00     0.051 A 
ATOM      5  C5  IND d   1      -2.305   2.339   1.981  0.00  0.00    -0.031 A 
ATOM      6  C6  IND d   1      -1.893   3.103   0.908  0.00  0.00     0.015 A 
ATOM      7  C7  IND d   1      -1.010   2.617  -0.014  0.00  0.00    -0.016 A 
ATOM      8  C8  IND d   1      -0.535   1.330   0.190  0.00  0.00    -0.047 A 
ATOM      9  C9  IND d   1      -0.917   0.565   1.300  0.00  0.00    -0.096 A 
ATOM     10  HN1 IND d   1       0.754   0.825  -1.261  0.00  0.00     0.298 HD
ENDROOT
TORSDOF 0
ENDMDL
