MODEL 1
REMARK minimizedAffinity -4.31994867
REMARK minimizedRMSD -1
REMARK  0 active torsions:
REMARK  status: ('A' for Active; 'I' for Inactive)
ROOT
ATOM      1  N1  IND d   1      -1.319  -0.070   0.340  0.00  0.00    -0.196 N 
ATOM      2  C2  IND d   1      -0.415   0.235   1.319  0.00  0.00     0.054 A 
ATOM      3  C3  IND d   1       0.788  -0.311   1.035  0.00  0.00    -0.031 A 
ATOM      4  C4  IND d   1       1.527  -1.657  -1.031  0.00  0.00     0.051 A 
ATOM      5  C5  IND d   1       1.043  -2.222  -2.179  0.00  0.00    -0.031 A 
ATOM      6  C6  IND d   1      -0.278  -2.093  -2.554  0.00  0.00     0.015 A 
ATOM      7  C7  IND d   1      -1.167  -1.382  -1.798  0.00  0.00    -0.016 A 
ATOM      8  C8  IND d   1      -0.682  -0.814  -0.629  0.00  0.00    -0.047 A 
ATOM      9  C9  IND d   1       0.649  -0.977  -0.221  0.00  0.00    -0.096 A 
ATOM     10  HN1 IND d   1      -2.147   0.162   0.331  0.00  0.00     0.298 HD
ENDROOT
TORSDOF 0
ENDMDL
