MODEL 1
REMARK minimizedAffinity -6.06617737
REMARK minimizedRMSD -1
REMARK  0 active torsions:
REMARK  status: ('A' for Active; 'I' for Inactive)
ROOT
ATOM      1  N1  IND d   1       0.772   0.802  -0.789  0.00  0.00    -0.196 N 
ATOM      2  C2  IND d   1       0.914  -0.352  -0.071  0.00  0.00     0.054 A 
ATOM      3  C3  IND d   1       0.005  -0.400   0.928  0.00  0.00    -0.031 A 
ATOM      4  C4  IND d   1      -1.878   1.257   1.506  0.00  0.00     0.051 A 
ATOM      5  C5  IND d   1      -2.383   2.479   1.157  0.00  0.00    -0.031 A 
ATOM      6  C6  IND d   1      -1.853   3.217   0.119  0.00  0.00     0.015 A 
ATOM      7  C7  IND d   1      -0.801   2.755  -0.620  0.00  0.00    -0.016 A 
ATOM      8  C8  IND d   1      -0.281   1.518  -0.264  0.00  0.00    -0.047 A 
ATOM      9  C9  IND d   1      -0.788   0.783   0.816  0.00  0.00    -0.096 A 
ATOM     10  HN1 IND d   1       1.258   1.041  -1.457  0.00  0.00     0.298 HD
ENDROOT
TORSDOF 0
ENDMDL
