MODEL 1
REMARK minimizedAffinity -4.97466612
REMARK minimizedRMSD -1
REMARK  0 active torsions:
REMARK  status: ('A' for Active; 'I' for Inactive)
ROOT
ATOM      1  N1  IND d   1       0.501   0.387  -0.555  0.00  0.00    -0.196 N 
ATOM      2  C2  IND d   1       0.176  -0.713   0.189  0.00  0.00     0.054 A 
ATOM      3  C3  IND d   1      -0.546  -0.351   1.273  0.00  0.00    -0.031 A 
ATOM      4  C4  IND d   1      -1.396   1.977   1.969  0.00  0.00     0.051 A 
ATOM      5  C5  IND d   1      -1.322   3.298   1.626  0.00  0.00    -0.031 A 
ATOM      6  C6  IND d   1      -0.625   3.724   0.514  0.00  0.00     0.015 A 
ATOM      7  C7  IND d   1       0.018   2.840  -0.306  0.00  0.00    -0.016 A 
ATOM      8  C8  IND d   1      -0.049   1.499   0.044  0.00  0.00    -0.047 A 
ATOM      9  C9  IND d   1      -0.719   1.065   1.195  0.00  0.00    -0.096 A 
ATOM     10  HN1 IND d   1       0.971   0.385  -1.275  0.00  0.00     0.298 HD
ENDROOT
TORSDOF 0
ENDMDL
