MODEL 1
REMARK minimizedAffinity -3.55565262
REMARK minimizedRMSD -1
REMARK  0 active torsions:
REMARK  status: ('A' for Active; 'I' for Inactive)
ROOT
ATOM      1  N1  IND d   1       1.349  -0.565  -0.881  0.00  0.00    -0.196 N 
ATOM      2  C2  IND d   1       0.228  -0.133  -0.228  0.00  0.00     0.054 A 
ATOM      3  C3  IND d   1      -0.777  -1.024  -0.380  0.00  0.00    -0.031 A 
ATOM      4  C4  IND d   1      -0.776  -3.305  -1.574  0.00  0.00     0.051 A 
ATOM      5  C5  IND d   1       0.006  -4.114  -2.349  0.00  0.00    -0.031 A 
ATOM      6  C6  IND d   1       1.303  -3.777  -2.679  0.00  0.00     0.015 A 
ATOM      7  C7  IND d   1       1.872  -2.617  -2.235  0.00  0.00    -0.016 A 
ATOM      8  C8  IND d   1       1.079  -1.789  -1.453  0.00  0.00    -0.047 A 
ATOM      9  C9  IND d   1      -0.252  -2.106  -1.150  0.00  0.00    -0.096 A 
ATOM     10  HN1 IND d   1       2.097  -0.144  -0.927  0.00  0.00     0.298 HD
ENDROOT
TORSDOF 0
ENDMDL
