MODEL 1
REMARK minimizedAffinity -4.69725561
REMARK minimizedRMSD -1
REMARK  0 active torsions:
REMARK  status: ('A' for Active; 'I' for Inactive)
ROOT
ATOM      1  N1  IND d   1       0.849   1.411  -0.972  0.00  0.00    -0.196 N 
ATOM      2  C2  IND d   1       0.611   0.095  -0.689  0.00  0.00     0.054 A 
ATOM      3  C3  IND d   1      -0.410  -0.020   0.190  0.00  0.00    -0.031 A 
ATOM      4  C4  IND d   1      -1.899   1.812   1.216  0.00  0.00     0.051 A 
ATOM      5  C5  IND d   1      -2.043   3.169   1.285  0.00  0.00    -0.031 A 
ATOM      6  C6  IND d   1      -1.215   4.027   0.590  0.00  0.00     0.015 A 
ATOM      7  C7  IND d   1      -0.215   3.557  -0.213  0.00  0.00    -0.016 A 
ATOM      8  C8  IND d   1      -0.062   2.179  -0.281  0.00  0.00    -0.047 A 
ATOM      9  C9  IND d   1      -0.871   1.305   0.456  0.00  0.00    -0.096 A 
ATOM     10  HN1 IND d   1       1.465   1.708  -1.493  0.00  0.00     0.298 HD
ENDROOT
TORSDOF 0
ENDMDL
