MODEL 1
REMARK minimizedAffinity -2.80886865
REMARK minimizedRMSD -1
REMARK  0 active torsions:
REMARK  status: ('A' for Active; 'I' for Inactive)
ROOT
ATOM      1  N1  IND d   1       0.848   1.409  -0.924  0.00  0.00    -0.196 N 
ATOM      2  C2  IND d   1       1.456   0.214  -1.189  0.00  0.00     0.054 A 
ATOM      3  C3  IND d   1       1.138  -0.697  -0.242  0.00  0.00    -0.031 A 
ATOM      4  C4  IND d   1      -0.443  -0.472   1.777  0.00  0.00     0.051 A 
ATOM      5  C5  IND d   1      -1.202   0.441   2.455  0.00  0.00    -0.031 A 
ATOM      6  C6  IND d   1      -1.321   1.748   2.031  0.00  0.00     0.015 A 
ATOM      7  C7  IND d   1      -0.692   2.191   0.902  0.00  0.00    -0.016 A 
ATOM      8  C8  IND d   1       0.085   1.269   0.215  0.00  0.00    -0.047 A 
ATOM      9  C9  IND d   1       0.244  -0.048   0.664  0.00  0.00    -0.096 A 
ATOM     10  HN1 IND d   1       0.928   2.127  -1.389  0.00  0.00     0.298 HD
ENDROOT
TORSDOF 0
ENDMDL
