MODEL 1
REMARK minimizedAffinity -4.44939041
REMARK minimizedRMSD -1
REMARK  0 active torsions:
REMARK  status: ('A' for Active; 'I' for Inactive)
ROOT
ATOM      1  N1  IND d   1       0.752   0.098  -0.285  0.00  0.00    -0.196 N 
ATOM      2  C2  IND d   1       0.619  -1.116   0.329  0.00  0.00     0.054 A 
ATOM      3  C3  IND d   1      -0.388  -1.079   1.230  0.00  0.00    -0.031 A 
ATOM      4  C4  IND d   1      -2.015   0.837   1.787  0.00  0.00     0.051 A 
ATOM      5  C5  IND d   1      -2.265   2.152   1.512  0.00  0.00    -0.031 A 
ATOM      6  C6  IND d   1      -1.508   2.864   0.603  0.00  0.00     0.015 A 
ATOM      7  C7  IND d   1      -0.476   2.280  -0.075  0.00  0.00    -0.016 A 
ATOM      8  C8  IND d   1      -0.215   0.947   0.207  0.00  0.00    -0.047 A 
ATOM      9  C9  IND d   1      -0.952   0.232   1.159  0.00  0.00    -0.096 A 
ATOM     10  HN1 IND d   1       1.342   0.298  -0.879  0.00  0.00     0.298 HD
ENDROOT
TORSDOF 0
ENDMDL
