MODEL 1
REMARK minimizedAffinity -4.23450279
REMARK minimizedRMSD -1
REMARK  0 active torsions:
REMARK  status: ('A' for Active; 'I' for Inactive)
ROOT
ATOM      1  N1  IND d   1       0.747  -0.604   1.085  0.00  0.00    -0.196 N 
ATOM      2  C2  IND d   1      -0.246   0.323   1.233  0.00  0.00     0.054 A 
ATOM      3  C3  IND d   1      -1.051   0.327   0.147  0.00  0.00    -0.031 A 
ATOM      4  C4  IND d   1      -0.984  -1.173  -1.944  0.00  0.00     0.051 A 
ATOM      5  C5  IND d   1      -0.237  -2.144  -2.550  0.00  0.00    -0.031 A 
ATOM      6  C6  IND d   1       0.898  -2.664  -1.962  0.00  0.00     0.015 A 
ATOM      7  C7  IND d   1       1.323  -2.238  -0.735  0.00  0.00    -0.016 A 
ATOM      8  C8  IND d   1       0.571  -1.247  -0.121  0.00  0.00    -0.047 A 
ATOM      9  C9  IND d   1      -0.557  -0.686  -0.732  0.00  0.00    -0.096 A 
ATOM     10  HN1 IND d   1       1.377  -0.760   1.650  0.00  0.00     0.298 HD
ENDROOT
TORSDOF 0
ENDMDL
