MODEL 1
REMARK minimizedAffinity -5.35931492
REMARK minimizedRMSD -1
REMARK  0 active torsions:
REMARK  status: ('A' for Active; 'I' for Inactive)
ROOT
ATOM      1  N1  IND d   1       0.594   0.139  -0.532  0.00  0.00    -0.196 N 
ATOM      2  C2  IND d   1       0.516  -0.895   0.359  0.00  0.00     0.054 A 
ATOM      3  C3  IND d   1      -0.251  -0.547   1.416  0.00  0.00    -0.031 A 
ATOM      4  C4  IND d   1      -1.561   1.628   1.842  0.00  0.00     0.051 A 
ATOM      5  C5  IND d   1      -1.770   2.877   1.330  0.00  0.00    -0.031 A 
ATOM      6  C6  IND d   1      -1.192   3.285   0.145  0.00  0.00     0.015 A 
ATOM      7  C7  IND d   1      -0.390   2.451  -0.581  0.00  0.00    -0.016 A 
ATOM      8  C8  IND d   1      -0.169   1.184  -0.059  0.00  0.00    -0.047 A 
ATOM      9  C9  IND d   1      -0.719   0.779   1.164  0.00  0.00    -0.096 A 
ATOM     10  HN1 IND d   1       1.044   0.137  -1.265  0.00  0.00     0.298 HD
ENDROOT
TORSDOF 0
ENDMDL
