MODEL 1
REMARK minimizedAffinity -1.07931948
REMARK minimizedRMSD -1
REMARK  0 active torsions:
REMARK  status: ('A' for Active; 'I' for Inactive)
ROOT
ATOM      1  N1  IND d   1       0.678   1.162  -1.529  0.00  0.00    -0.196 N 
ATOM      2  C2  IND d   1       1.664   0.412  -2.107  0.00  0.00     0.054 A 
ATOM      3  C3  IND d   1       1.957  -0.657  -1.332  0.00  0.00    -0.031 A 
ATOM      4  C4  IND d   1       0.872  -1.425   0.873  0.00  0.00     0.051 A 
ATOM      5  C5  IND d   1      -0.045  -1.044   1.812  0.00  0.00    -0.031 A 
ATOM      6  C6  IND d   1      -0.786   0.113   1.681  0.00  0.00     0.015 A 
ATOM      7  C7  IND d   1      -0.643   0.931   0.596  0.00  0.00    -0.016 A 
ATOM      8  C8  IND d   1       0.293   0.551  -0.356  0.00  0.00    -0.047 A 
ATOM      9  C9  IND d   1       1.077  -0.600  -0.208  0.00  0.00    -0.096 A 
ATOM     10  HN1 IND d   1       0.353   1.893  -1.845  0.00  0.00     0.298 HD
ENDROOT
TORSDOF 0
ENDMDL
