MODEL 1
REMARK minimizedAffinity -5.8269043
REMARK minimizedRMSD -1
REMARK  0 active torsions:
REMARK  status: ('A' for Active; 'I' for Inactive)
ROOT
ATOM      1  N1  IND d   1       0.297  -0.128  -0.787  0.00  0.00    -0.196 N 
ATOM      2  C2  IND d   1       0.517  -1.143   0.102  0.00  0.00     0.054 A 
ATOM      3  C3  IND d   1       0.045  -0.809   1.324  0.00  0.00    -0.031 A 
ATOM      4  C4  IND d   1      -1.214   1.309   2.068  0.00  0.00     0.051 A 
ATOM      5  C5  IND d   1      -1.620   2.535   1.619  0.00  0.00    -0.031 A 
ATOM      6  C6  IND d   1      -1.405   2.942   0.318  0.00  0.00     0.015 A 
ATOM      7  C7  IND d   1      -0.784   2.131  -0.589  0.00  0.00    -0.016 A 
ATOM      8  C8  IND d   1      -0.365   0.889  -0.135  0.00  0.00    -0.047 A 
ATOM      9  C9  IND d   1      -0.542   0.487   1.195  0.00  0.00    -0.096 A 
ATOM     10  HN1 IND d   1       0.532  -0.126  -1.614  0.00  0.00     0.298 HD
ENDROOT
TORSDOF 0
ENDMDL
