MODEL 1
REMARK minimizedAffinity -5.71624184
REMARK minimizedRMSD -1
REMARK  0 active torsions:
REMARK  status: ('A' for Active; 'I' for Inactive)
ROOT
ATOM      1  N1  IND d   1       0.923   0.798  -0.606  0.00  0.00    -0.196 N 
ATOM      2  C2  IND d   1       0.643  -0.354   0.074  0.00  0.00     0.054 A 
ATOM      3  C3  IND d   1      -0.356  -0.146   0.962  0.00  0.00    -0.031 A 
ATOM      4  C4  IND d   1      -1.742   1.980   1.393  0.00  0.00     0.051 A 
ATOM      5  C5  IND d   1      -1.832   3.298   1.042  0.00  0.00    -0.031 A 
ATOM      6  C6  IND d   1      -0.992   3.860   0.102  0.00  0.00     0.015 A 
ATOM      7  C7  IND d   1      -0.035   3.120  -0.532  0.00  0.00    -0.016 A 
ATOM      8  C8  IND d   1       0.063   1.783  -0.173  0.00  0.00    -0.047 A 
ATOM      9  C9  IND d   1      -0.758   1.217   0.811  0.00  0.00    -0.096 A 
ATOM     10  HN1 IND d   1       1.534   0.892  -1.204  0.00  0.00     0.298 HD
ENDROOT
TORSDOF 0
ENDMDL
