MODEL 1
REMARK minimizedAffinity -6.24575663
REMARK minimizedRMSD -1
REMARK  0 active torsions:
REMARK  status: ('A' for Active; 'I' for Inactive)
ROOT
ATOM      1  N1  IND d   1       0.409  -0.003  -0.727  0.00  0.00    -0.196 N 
ATOM      2  C2  IND d   1       0.353  -1.093   0.096  0.00  0.00     0.054 A 
ATOM      3  C3  IND d   1      -0.379  -0.813   1.197  0.00  0.00    -0.031 A 
ATOM      4  C4  IND d   1      -1.663   1.333   1.806  0.00  0.00     0.051 A 
ATOM      5  C5  IND d   1      -1.881   2.615   1.384  0.00  0.00    -0.031 A 
ATOM      6  C6  IND d   1      -1.339   3.098   0.211  0.00  0.00     0.015 A 
ATOM      7  C7  IND d   1      -0.563   2.311  -0.593  0.00  0.00    -0.016 A 
ATOM      8  C8  IND d   1      -0.334   1.011  -0.163  0.00  0.00    -0.047 A 
ATOM      9  C9  IND d   1      -0.847   0.528   1.048  0.00  0.00    -0.096 A 
ATOM     10  HN1 IND d   1       0.836   0.042  -1.472  0.00  0.00     0.298 HD
ENDROOT
TORSDOF 0
ENDMDL
