MODEL 1
REMARK minimizedAffinity -6.27742243
REMARK minimizedRMSD -1
REMARK  0 active torsions:
REMARK  status: ('A' for Active; 'I' for Inactive)
ROOT
ATOM      1  N1  IND d   1       0.572   0.051  -0.270  0.00  0.00    -0.196 N 
ATOM      2  C2  IND d   1       0.309  -0.976   0.593  0.00  0.00     0.054 A 
ATOM      3  C3  IND d   1      -0.556  -0.575   1.552  0.00  0.00    -0.031 A 
ATOM      4  C4  IND d   1      -1.745   1.691   1.838  0.00  0.00     0.051 A 
ATOM      5  C5  IND d   1      -1.797   2.953   1.317  0.00  0.00    -0.031 A 
ATOM      6  C6  IND d   1      -1.049   3.320   0.217  0.00  0.00     0.015 A 
ATOM      7  C7  IND d   1      -0.226   2.430  -0.413  0.00  0.00    -0.016 A 
ATOM      8  C8  IND d   1      -0.165   1.149   0.117  0.00  0.00    -0.047 A 
ATOM      9  C9  IND d   1      -0.890   0.783   1.259  0.00  0.00    -0.096 A 
ATOM     10  HN1 IND d   1       1.108   0.017  -0.942  0.00  0.00     0.298 HD
ENDROOT
TORSDOF 0
ENDMDL
