MODEL 1
REMARK minimizedAffinity -5.26718044
REMARK minimizedRMSD -1
REMARK  0 active torsions:
REMARK  status: ('A' for Active; 'I' for Inactive)
ROOT
ATOM      1  C   UNL d   1       0.212   0.382  -0.631  0.00  0.00     0.020 A 
ATOM      2  C1  UNL d   1       1.003  -0.145   0.389  0.00  0.00     0.020 A 
ATOM      3  C2  UNL d   1       0.447  -1.025   1.320  0.00  0.00     0.034 A 
ATOM      4  C3  UNL d   1      -0.904  -1.380   1.233  0.00  0.00     0.017 A 
ATOM      5  C4  UNL d   1      -1.697  -0.851   0.209  0.00  0.00     0.017 A 
ATOM      6  C5  UNL d   1      -1.135   0.029  -0.721  0.00  0.00     0.034 A 
ATOM      7 Cl   UNL d   1      -3.372  -1.243   0.037  0.00  0.00    -0.070 Cl
ATOM      8 Cl1  UNL d   1      -1.525  -2.473   2.419  0.00  0.00    -0.070 Cl
ENDROOT
TORSDOF 0
ENDMDL
