MODEL 1
REMARK minimizedAffinity 3.79362082
REMARK minimizedRMSD -1
REMARK  0 active torsions:
REMARK  status: ('A' for Active; 'I' for Inactive)
ROOT
ATOM      1  C   UNL d   1       1.078  -0.618   1.310  0.00  0.00     0.020 A 
ATOM      2  C1  UNL d   1       0.067  -1.539   1.578  0.00  0.00     0.020 A 
ATOM      3  C2  UNL d   1      -0.895  -1.823   0.606  0.00  0.00     0.034 A 
ATOM      4  C3  UNL d   1      -0.848  -1.184  -0.638  0.00  0.00     0.017 A 
ATOM      5  C4  UNL d   1       0.167  -0.259  -0.906  0.00  0.00     0.017 A 
ATOM      6  C5  UNL d   1       1.128   0.021   0.070  0.00  0.00     0.034 A 
ATOM      7 Cl   UNL d   1       0.291   0.569  -2.418  0.00  0.00    -0.070 Cl
ATOM      8 Cl1  UNL d   1      -2.070  -1.583  -1.793  0.00  0.00    -0.070 Cl
ENDROOT
TORSDOF 0
ENDMDL
