MODEL 1
REMARK minimizedAffinity -3.47177196
REMARK minimizedRMSD -1
REMARK  0 active torsions:
REMARK  status: ('A' for Active; 'I' for Inactive)
ROOT
ATOM      1  C   UNL d   1       1.031  -0.415  -0.072  0.00  0.00     0.020 A 
ATOM      2  C1  UNL d   1       0.675  -0.934   1.172  0.00  0.00     0.020 A 
ATOM      3  C2  UNL d   1       0.699  -0.114   2.302  0.00  0.00     0.034 A 
ATOM      4  C3  UNL d   1       1.079   1.228   2.191  0.00  0.00     0.017 A 
ATOM      5  C4  UNL d   1       1.437   1.747   0.941  0.00  0.00     0.017 A 
ATOM      6  C5  UNL d   1       1.411   0.922  -0.188  0.00  0.00     0.034 A 
ATOM      7 Cl   UNL d   1       1.918   3.393   0.724  0.00  0.00    -0.070 Cl
ATOM      8 Cl1  UNL d   1       1.086   2.184   3.630  0.00  0.00    -0.070 Cl
ENDROOT
TORSDOF 0
ENDMDL
