MODEL 1
REMARK minimizedAffinity 0.0202264395
REMARK minimizedRMSD -1
REMARK  0 active torsions:
REMARK  status: ('A' for Active; 'I' for Inactive)
ROOT
ATOM      1  C   UNL d   1      -2.317  -1.104  -1.134  0.00  0.00     0.020 A 
ATOM      2  C1  UNL d   1      -1.812   0.012  -1.800  0.00  0.00     0.020 A 
ATOM      3  C2  UNL d   1      -0.574   0.544  -1.434  0.00  0.00     0.034 A 
ATOM      4  C3  UNL d   1       0.164  -0.041  -0.398  0.00  0.00     0.017 A 
ATOM      5  C4  UNL d   1      -0.343  -1.162   0.269  0.00  0.00     0.017 A 
ATOM      6  C5  UNL d   1      -1.583  -1.690  -0.102  0.00  0.00     0.034 A 
ATOM      7 Cl   UNL d   1       0.510  -1.939   1.557  0.00  0.00    -0.070 Cl
ATOM      8 Cl1  UNL d   1       1.688   0.668   0.002  0.00  0.00    -0.070 Cl
ENDROOT
TORSDOF 0
ENDMDL
