MODEL 1
REMARK minimizedAffinity -2.93048978
REMARK minimizedRMSD -1
REMARK  0 active torsions:
REMARK  status: ('A' for Active; 'I' for Inactive)
ROOT
ATOM      1  C   UNL d   1       1.207   1.229  -0.711  0.00  0.00     0.020 A 
ATOM      2  C1  UNL d   1       0.217   1.368  -1.683  0.00  0.00     0.020 A 
ATOM      3  C2  UNL d   1      -0.837   0.454  -1.741  0.00  0.00     0.034 A 
ATOM      4  C3  UNL d   1      -0.905  -0.602  -0.826  0.00  0.00     0.017 A 
ATOM      5  C4  UNL d   1       0.089  -0.741   0.150  0.00  0.00     0.017 A 
ATOM      6  C5  UNL d   1       1.143   0.177   0.204  0.00  0.00     0.034 A 
ATOM      7 Cl   UNL d   1       0.074  -2.019   1.313  0.00  0.00    -0.070 Cl
ATOM      8 Cl1  UNL d   1      -2.237  -1.695  -0.956  0.00  0.00    -0.070 Cl
ENDROOT
TORSDOF 0
ENDMDL
