MODEL 1
REMARK minimizedAffinity -1.80446863
REMARK minimizedRMSD -1
REMARK  0 active torsions:
REMARK  status: ('A' for Active; 'I' for Inactive)
ROOT
ATOM      1  C   UNL d   1      -2.155  -0.774  -1.486  0.00  0.00     0.020 A 
ATOM      2  C1  UNL d   1      -1.517   0.293  -2.119  0.00  0.00     0.020 A 
ATOM      3  C2  UNL d   1      -0.398   0.885  -1.530  0.00  0.00     0.034 A 
ATOM      4  C3  UNL d   1       0.086   0.412  -0.305  0.00  0.00     0.017 A 
ATOM      5  C4  UNL d   1      -0.555  -0.658   0.329  0.00  0.00     0.017 A 
ATOM      6  C5  UNL d   1      -1.675  -1.248  -0.265  0.00  0.00     0.034 A 
ATOM      7 Cl   UNL d   1      -0.015  -1.297   1.842  0.00  0.00    -0.070 Cl
ATOM      8 Cl1  UNL d   1       1.475   1.192   0.365  0.00  0.00    -0.070 Cl
ENDROOT
TORSDOF 0
ENDMDL
