MODEL 1
REMARK minimizedAffinity -3.43494081
REMARK minimizedRMSD -1
REMARK  0 active torsions:
REMARK  status: ('A' for Active; 'I' for Inactive)
ROOT
ATOM      1  C   UNL d   1       2.269   2.500   1.618  0.00  0.00     0.020 A 
ATOM      2  C1  UNL d   1       1.931   1.998   2.874  0.00  0.00     0.020 A 
ATOM      3  C2  UNL d   1       1.218   0.802   2.979  0.00  0.00     0.034 A 
ATOM      4  C3  UNL d   1       0.840   0.104   1.826  0.00  0.00     0.017 A 
ATOM      5  C4  UNL d   1       1.180   0.608   0.566  0.00  0.00     0.017 A 
ATOM      6  C5  UNL d   1       1.894   1.806   0.466  0.00  0.00     0.034 A 
ATOM      7 Cl   UNL d   1       0.749  -0.196  -0.902  0.00  0.00    -0.070 Cl
ATOM      8 Cl1  UNL d   1      -0.040  -1.369   2.031  0.00  0.00    -0.070 Cl
ENDROOT
TORSDOF 0
ENDMDL
