MODEL 1
REMARK minimizedAffinity -5.42957115
REMARK minimizedRMSD -1
REMARK  0 active torsions:
REMARK  status: ('A' for Active; 'I' for Inactive)
ROOT
ATOM      1  C   UNL d   1       1.006  -0.560   1.512  0.00  0.00     0.020 A 
ATOM      2  C1  UNL d   1       0.518   0.411   0.639  0.00  0.00     0.020 A 
ATOM      3  C2  UNL d   1      -0.741   0.255   0.054  0.00  0.00     0.034 A 
ATOM      4  C3  UNL d   1      -1.515  -0.875   0.341  0.00  0.00     0.017 A 
ATOM      5  C4  UNL d   1      -1.024  -1.849   1.218  0.00  0.00     0.017 A 
ATOM      6  C5  UNL d   1       0.236  -1.688   1.801  0.00  0.00     0.034 A 
ATOM      7 Cl   UNL d   1      -1.922  -3.270   1.621  0.00  0.00    -0.070 Cl
ATOM      8 Cl1  UNL d   1      -3.062  -1.002  -0.417  0.00  0.00    -0.070 Cl
ENDROOT
TORSDOF 0
ENDMDL
