MODEL 1
REMARK minimizedAffinity -3.62176728
REMARK minimizedRMSD -1
REMARK  0 active torsions:
REMARK  status: ('A' for Active; 'I' for Inactive)
ROOT
ATOM      1  C   UNL d   1       1.487   0.067   0.840  0.00  0.00     0.020 A 
ATOM      2  C1  UNL d   1       0.884   0.872  -0.126  0.00  0.00     0.020 A 
ATOM      3  C2  UNL d   1      -0.385   0.548  -0.612  0.00  0.00     0.034 A 
ATOM      4  C3  UNL d   1      -1.054  -0.584  -0.132  0.00  0.00     0.017 A 
ATOM      5  C4  UNL d   1      -0.449  -1.391   0.837  0.00  0.00     0.017 A 
ATOM      6  C5  UNL d   1       0.822  -1.062   1.321  0.00  0.00     0.034 A 
ATOM      7 Cl   UNL d   1      -1.213  -2.803   1.478  0.00  0.00    -0.070 Cl
ATOM      8 Cl1  UNL d   1      -2.621  -0.924  -0.778  0.00  0.00    -0.070 Cl
ENDROOT
TORSDOF 0
ENDMDL
