MODEL 1
REMARK minimizedAffinity -5.06287241
REMARK minimizedRMSD -1
REMARK  0 active torsions:
REMARK  status: ('A' for Active; 'I' for Inactive)
ROOT
ATOM      1  C   UNL d   1      -2.323  -1.254   0.135  0.00  0.00     0.020 A 
ATOM      2  C1  UNL d   1      -1.476  -1.380   1.235  0.00  0.00     0.020 A 
ATOM      3  C2  UNL d   1      -0.301  -0.628   1.302  0.00  0.00     0.034 A 
ATOM      4  C3  UNL d   1       0.029   0.254   0.267  0.00  0.00     0.017 A 
ATOM      5  C4  UNL d   1      -0.822   0.380  -0.837  0.00  0.00     0.017 A 
ATOM      6  C5  UNL d   1      -1.997  -0.376  -0.899  0.00  0.00     0.034 A 
ATOM      7 Cl   UNL d   1      -0.481   1.448  -2.153  0.00  0.00    -0.070 Cl
ATOM      8 Cl1  UNL d   1       1.497   1.154   0.416  0.00  0.00    -0.070 Cl
ENDROOT
TORSDOF 0
ENDMDL
