MODEL 1
REMARK minimizedAffinity -4.47563219
REMARK minimizedRMSD -1
REMARK  0 active torsions:
REMARK  status: ('A' for Active; 'I' for Inactive)
ROOT
ATOM      1  C   UNL d   1       1.393   0.665  -0.741  0.00  0.00     0.020 A 
ATOM      2  C1  UNL d   1       0.410   0.991  -1.675  0.00  0.00     0.020 A 
ATOM      3  C2  UNL d   1      -0.861   0.421  -1.579  0.00  0.00     0.034 A 
ATOM      4  C3  UNL d   1      -1.154  -0.477  -0.547  0.00  0.00     0.017 A 
ATOM      5  C4  UNL d   1      -0.167  -0.804   0.391  0.00  0.00     0.017 A 
ATOM      6  C5  UNL d   1       1.105  -0.231   0.290  0.00  0.00     0.034 A 
ATOM      7 Cl   UNL d   1      -0.453  -1.905   1.692  0.00  0.00    -0.070 Cl
ATOM      8 Cl1  UNL d   1      -2.747  -1.143  -0.488  0.00  0.00    -0.070 Cl
ENDROOT
TORSDOF 0
ENDMDL
