MODEL 1
REMARK minimizedAffinity -4.49892855
REMARK minimizedRMSD -1
REMARK  0 active torsions:
REMARK  status: ('A' for Active; 'I' for Inactive)
ROOT
ATOM      1  C   UNL d   1       0.509  -1.543   1.764  0.00  0.00     0.020 A 
ATOM      2  C1  UNL d   1       1.383  -0.682   1.100  0.00  0.00     0.020 A 
ATOM      3  C2  UNL d   1       0.909   0.136   0.072  0.00  0.00     0.034 A 
ATOM      4  C3  UNL d   1      -0.441   0.094  -0.296  0.00  0.00     0.017 A 
ATOM      5  C4  UNL d   1      -1.316  -0.770   0.372  0.00  0.00     0.017 A 
ATOM      6  C5  UNL d   1      -0.837  -1.586   1.401  0.00  0.00     0.034 A 
ATOM      7 Cl   UNL d   1      -2.995  -0.876  -0.025  0.00  0.00    -0.070 Cl
ATOM      8 Cl1  UNL d   1      -0.957   1.133  -1.576  0.00  0.00    -0.070 Cl
ENDROOT
TORSDOF 0
ENDMDL
