MODEL 1
REMARK minimizedAffinity -0.302734762
REMARK minimizedRMSD -1
REMARK  0 active torsions:
REMARK  status: ('A' for Active; 'I' for Inactive)
ROOT
ATOM      1  C   UNL d   1       0.290   0.603  -1.280  0.00  0.00     0.020 A 
ATOM      2  C1  UNL d   1      -0.870   0.487  -2.046  0.00  0.00     0.020 A 
ATOM      3  C2  UNL d   1      -1.789  -0.528  -1.772  0.00  0.00     0.034 A 
ATOM      4  C3  UNL d   1      -1.551  -1.430  -0.729  0.00  0.00     0.017 A 
ATOM      5  C4  UNL d   1      -0.387  -1.313   0.039  0.00  0.00     0.017 A 
ATOM      6  C5  UNL d   1       0.530  -0.295  -0.239  0.00  0.00     0.034 A 
ATOM      7 Cl   UNL d   1      -0.024  -2.389   1.343  0.00  0.00    -0.070 Cl
ATOM      8 Cl1  UNL d   1      -2.731  -2.660  -0.446  0.00  0.00    -0.070 Cl
ENDROOT
TORSDOF 0
ENDMDL
