MODEL 1
REMARK minimizedAffinity -5.60629559
REMARK minimizedRMSD -1
REMARK  0 active torsions:
REMARK  status: ('A' for Active; 'I' for Inactive)
ROOT
ATOM      1  C   UNL d   1       1.379  -0.824   1.134  0.00  0.00     0.020 A 
ATOM      2  C1  UNL d   1       1.171   0.211   0.223  0.00  0.00     0.020 A 
ATOM      3  C2  UNL d   1      -0.025   0.279  -0.495  0.00  0.00     0.034 A 
ATOM      4  C3  UNL d   1      -1.017  -0.690  -0.303  0.00  0.00     0.017 A 
ATOM      5  C4  UNL d   1      -0.807  -1.728   0.611  0.00  0.00     0.017 A 
ATOM      6  C5  UNL d   1       0.392  -1.791   1.327  0.00  0.00     0.034 A 
ATOM      7 Cl   UNL d   1      -1.984  -2.960   0.902  0.00  0.00    -0.070 Cl
ATOM      8 Cl1  UNL d   1      -2.472  -0.543  -1.224  0.00  0.00    -0.070 Cl
ENDROOT
TORSDOF 0
ENDMDL
