MODEL 1
REMARK minimizedAffinity -4.9645505
REMARK minimizedRMSD -1
REMARK  0 active torsions:
REMARK  status: ('A' for Active; 'I' for Inactive)
ROOT
ATOM      1  C   UNL d   1      -2.732  -1.769   1.240  0.00  0.00     0.020 A 
ATOM      2  C1  UNL d   1      -3.100  -1.584  -0.092  0.00  0.00     0.020 A 
ATOM      3  C2  UNL d   1      -2.280  -0.844  -0.947  0.00  0.00     0.034 A 
ATOM      4  C3  UNL d   1      -1.088  -0.286  -0.470  0.00  0.00     0.017 A 
ATOM      5  C4  UNL d   1      -0.720  -0.473   0.867  0.00  0.00     0.017 A 
ATOM      6  C5  UNL d   1      -1.545  -1.214   1.718  0.00  0.00     0.034 A 
ATOM      7 Cl   UNL d   1       0.736   0.184   1.528  0.00  0.00    -0.070 Cl
ATOM      8 Cl1  UNL d   1      -0.122   0.617  -1.583  0.00  0.00    -0.070 Cl
ENDROOT
TORSDOF 0
ENDMDL
