MODEL 1
REMARK minimizedAffinity -2.36541295
REMARK minimizedRMSD -1
REMARK  0 active torsions:
REMARK  status: ('A' for Active; 'I' for Inactive)
ROOT
ATOM      1  C   UNL d   1       1.230  -0.756   0.756  0.00  0.00     0.020 A 
ATOM      2  C1  UNL d   1       0.698  -0.140   1.888  0.00  0.00     0.020 A 
ATOM      3  C2  UNL d   1       1.025   1.186   2.180  0.00  0.00     0.034 A 
ATOM      4  C3  UNL d   1       1.888   1.899   1.340  0.00  0.00     0.017 A 
ATOM      5  C4  UNL d   1       2.421   1.280   0.204  0.00  0.00     0.017 A 
ATOM      6  C5  UNL d   1       2.090  -0.048  -0.084  0.00  0.00     0.034 A 
ATOM      7 Cl   UNL d   1       3.492   2.096  -0.880  0.00  0.00    -0.070 Cl
ATOM      8 Cl1  UNL d   1       2.249   3.535   1.762  0.00  0.00    -0.070 Cl
ENDROOT
TORSDOF 0
ENDMDL
