MODEL 1
REMARK minimizedAffinity -4.86167192
REMARK minimizedRMSD -1
REMARK  0 active torsions:
REMARK  status: ('A' for Active; 'I' for Inactive)
ROOT
ATOM      1  C   UNL d   1       1.262  -0.317   1.164  0.00  0.00     0.020 A 
ATOM      2  C1  UNL d   1       0.232  -0.711   2.016  0.00  0.00     0.020 A 
ATOM      3  C2  UNL d   1      -1.082  -0.763   1.546  0.00  0.00     0.034 A 
ATOM      4  C3  UNL d   1      -1.369  -0.420   0.220  0.00  0.00     0.017 A 
ATOM      5  C4  UNL d   1      -0.334  -0.024  -0.635  0.00  0.00     0.017 A 
ATOM      6  C5  UNL d   1       0.979   0.026  -0.159  0.00  0.00     0.034 A 
ATOM      7 Cl   UNL d   1      -0.611   0.414  -2.284  0.00  0.00    -0.070 Cl
ATOM      8 Cl1  UNL d   1      -3.017  -0.507  -0.294  0.00  0.00    -0.070 Cl
ENDROOT
TORSDOF 0
ENDMDL
