MODEL 1
REMARK minimizedAffinity 14.0593243
REMARK minimizedRMSD -1
REMARK  0 active torsions:
REMARK  status: ('A' for Active; 'I' for Inactive)
ROOT
ATOM      1  C   UNL d   1      -0.270  -1.767   1.416  0.00  0.00     0.023 A 
ATOM      2  C1  UNL d   1       0.943  -1.214   1.828  0.00  0.00     0.003 A 
ATOM      3  C2  UNL d   1       2.146  -1.711   1.323  0.00  0.00     0.048 A 
ATOM      4  C3  UNL d   1       2.129  -2.760   0.405  0.00  0.00     0.023 A 
ATOM      5  C4  UNL d   1       0.918  -3.315  -0.012  0.00  0.00     0.048 A 
ATOM      6  C5  UNL d   1      -0.282  -2.816   0.497  0.00  0.00     0.003 A 
ATOM      7  I   UNL d   1       3.919  -3.501  -0.349  0.00  0.00    -0.146 I 
ENDROOT
TORSDOF 0
ENDMDL
