MODEL 1
REMARK minimizedAffinity 16.2249889
REMARK minimizedRMSD -1
REMARK  0 active torsions:
REMARK  status: ('A' for Active; 'I' for Inactive)
ROOT
ATOM      1  C   UNL d   1       5.966   3.773   0.670  0.00  0.00     0.023 A 
ATOM      2  C1  UNL d   1       5.998   4.548  -0.490  0.00  0.00     0.003 A 
ATOM      3  C2  UNL d   1       5.138   4.255  -1.550  0.00  0.00     0.048 A 
ATOM      4  C3  UNL d   1       4.249   3.186  -1.444  0.00  0.00     0.023 A 
ATOM      5  C4  UNL d   1       4.213   2.408  -0.286  0.00  0.00     0.048 A 
ATOM      6  C5  UNL d   1       5.075   2.705   0.772  0.00  0.00     0.003 A 
ATOM      7  I   UNL d   1       2.968   2.748  -3.021  0.00  0.00    -0.146 I 
ENDROOT
TORSDOF 0
ENDMDL
