MODEL 1
REMARK minimizedAffinity 7.55771494
REMARK minimizedRMSD -1
REMARK  0 active torsions:
REMARK  status: ('A' for Active; 'I' for Inactive)
ROOT
ATOM      1  C   UNL d   1      -5.433  -1.465   3.014  0.00  0.00     0.023 A 
ATOM      2  C1  UNL d   1      -4.595  -0.482   2.488  0.00  0.00     0.003 A 
ATOM      3  C2  UNL d   1      -3.891   0.368   3.343  0.00  0.00     0.048 A 
ATOM      4  C3  UNL d   1      -4.028   0.228   4.724  0.00  0.00     0.023 A 
ATOM      5  C4  UNL d   1      -4.864  -0.755   5.255  0.00  0.00     0.048 A 
ATOM      6  C5  UNL d   1      -5.567  -1.602   4.396  0.00  0.00     0.003 A 
ATOM      7  I   UNL d   1      -2.980   1.492   5.999  0.00  0.00    -0.146 I 
ENDROOT
TORSDOF 0
ENDMDL
