MODEL 1
REMARK minimizedAffinity 14.8601341
REMARK minimizedRMSD -1
REMARK  0 active torsions:
REMARK  status: ('A' for Active; 'I' for Inactive)
ROOT
ATOM      1  C   UNL d   1       0.744   3.062  -3.008  0.00  0.00     0.023 A 
ATOM      2  C1  UNL d   1       1.872   2.253  -3.145  0.00  0.00     0.003 A 
ATOM      3  C2  UNL d   1       3.146   2.793  -2.961  0.00  0.00     0.048 A 
ATOM      4  C3  UNL d   1       3.286   4.142  -2.639  0.00  0.00     0.023 A 
ATOM      5  C4  UNL d   1       2.160   4.956  -2.501  0.00  0.00     0.048 A 
ATOM      6  C5  UNL d   1       0.888   4.412  -2.687  0.00  0.00     0.003 A 
ATOM      7  I   UNL d   1       5.182   4.948  -2.365  0.00  0.00    -0.146 I 
ENDROOT
TORSDOF 0
ENDMDL
