MODEL 1
REMARK minimizedAffinity 9.13064384
REMARK minimizedRMSD -1
REMARK  0 active torsions:
REMARK  status: ('A' for Active; 'I' for Inactive)
ROOT
ATOM      1  C   UNL d   1      -4.461   0.246   4.882  0.00  0.00     0.023 A 
ATOM      2  C1  UNL d   1      -3.143   0.704   4.863  0.00  0.00     0.003 A 
ATOM      3  C2  UNL d   1      -2.262   0.257   3.876  0.00  0.00     0.048 A 
ATOM      4  C3  UNL d   1      -2.706  -0.646   2.911  0.00  0.00     0.023 A 
ATOM      5  C4  UNL d   1      -4.023  -1.106   2.925  0.00  0.00     0.048 A 
ATOM      6  C5  UNL d   1      -4.900  -0.658   3.915  0.00  0.00     0.003 A 
ATOM      7  I   UNL d   1      -1.396  -1.312   1.440  0.00  0.00    -0.146 I 
ENDROOT
TORSDOF 0
ENDMDL
