MODEL 1
REMARK minimizedAffinity 10.216301
REMARK minimizedRMSD -1
REMARK  0 active torsions:
REMARK  status: ('A' for Active; 'I' for Inactive)
ROOT
ATOM      1  C   UNL d   1       3.867  -1.132  -0.190  0.00  0.00     0.023 A 
ATOM      2  C1  UNL d   1       4.701  -1.832  -1.063  0.00  0.00     0.003 A 
ATOM      3  C2  UNL d   1       4.719  -3.228  -1.044  0.00  0.00     0.048 A 
ATOM      4  C3  UNL d   1       3.900  -3.919  -0.151  0.00  0.00     0.023 A 
ATOM      5  C4  UNL d   1       3.063  -3.223   0.723  0.00  0.00     0.048 A 
ATOM      6  C5  UNL d   1       3.049  -1.827   0.702  0.00  0.00     0.003 A 
ATOM      7  I   UNL d   1       3.925  -5.997  -0.121  0.00  0.00    -0.146 I 
ENDROOT
TORSDOF 0
ENDMDL
