MODEL 1
REMARK minimizedAffinity -0.588798881
REMARK minimizedRMSD -1
REMARK  0 active torsions:
REMARK  status: ('A' for Active; 'I' for Inactive)
ROOT
ATOM      1  C   UNL d   1       5.769  -4.564  -0.639  0.00  0.00     0.023 A 
ATOM      2  C1  UNL d   1       4.650  -3.762  -0.863  0.00  0.00     0.003 A 
ATOM      3  C2  UNL d   1       3.759  -4.076  -1.892  0.00  0.00     0.048 A 
ATOM      4  C3  UNL d   1       3.993  -5.194  -2.692  0.00  0.00     0.023 A 
ATOM      5  C4  UNL d   1       5.111  -6.000  -2.471  0.00  0.00     0.048 A 
ATOM      6  C5  UNL d   1       6.000  -5.682  -1.442  0.00  0.00     0.003 A 
ATOM      7  I   UNL d   1       2.668  -5.663  -4.223  0.00  0.00    -0.146 I 
ENDROOT
TORSDOF 0
ENDMDL
