MODEL 1
REMARK minimizedAffinity 5.14192343
REMARK minimizedRMSD -1
REMARK  0 active torsions:
REMARK  status: ('A' for Active; 'I' for Inactive)
ROOT
ATOM      1  C   UNL d   1      -5.812  -2.568  -5.600  0.00  0.00     0.023 A 
ATOM      2  C1  UNL d   1      -5.807  -1.173  -5.617  0.00  0.00     0.003 A 
ATOM      3  C2  UNL d   1      -5.860  -0.459  -4.418  0.00  0.00     0.048 A 
ATOM      4  C3  UNL d   1      -5.917  -1.145  -3.206  0.00  0.00     0.023 A 
ATOM      5  C4  UNL d   1      -5.921  -2.541  -3.184  0.00  0.00     0.048 A 
ATOM      6  C5  UNL d   1      -5.869  -3.251  -4.385  0.00  0.00     0.003 A 
ATOM      7  I   UNL d   1      -5.995  -0.084  -1.421  0.00  0.00    -0.146 I 
ENDROOT
TORSDOF 0
ENDMDL
