MODEL 1
REMARK minimizedAffinity 8.45794773
REMARK minimizedRMSD -1
REMARK  0 active torsions:
REMARK  status: ('A' for Active; 'I' for Inactive)
ROOT
ATOM      1  C   UNL d   1      -5.521   4.589   6.000  0.00  0.00     0.023 A 
ATOM      2  C1  UNL d   1      -4.222   4.864   5.571  0.00  0.00     0.003 A 
ATOM      3  C2  UNL d   1      -3.399   3.828   5.125  0.00  0.00     0.048 A 
ATOM      4  C3  UNL d   1      -3.881   2.519   5.108  0.00  0.00     0.023 A 
ATOM      5  C4  UNL d   1      -5.181   2.240   5.536  0.00  0.00     0.048 A 
ATOM      6  C5  UNL d   1      -5.999   3.279   5.982  0.00  0.00     0.003 A 
ATOM      7  I   UNL d   1      -2.658   0.976   4.444  0.00  0.00    -0.146 I 
ENDROOT
TORSDOF 0
ENDMDL
