MODEL 1
REMARK minimizedAffinity 12.3416653
REMARK minimizedRMSD -1
REMARK  0 active torsions:
REMARK  status: ('A' for Active; 'I' for Inactive)
ROOT
ATOM      1  C   UNL d   1      -4.064  -5.868   5.980  0.00  0.00     0.023 A 
ATOM      2  C1  UNL d   1      -3.243  -5.798   4.855  0.00  0.00     0.003 A 
ATOM      3  C2  UNL d   1      -3.797  -5.535   3.600  0.00  0.00     0.048 A 
ATOM      4  C3  UNL d   1      -5.172  -5.342   3.479  0.00  0.00     0.023 A 
ATOM      5  C4  UNL d   1      -5.998  -5.410   4.602  0.00  0.00     0.048 A 
ATOM      6  C5  UNL d   1      -5.440  -5.674   5.854  0.00  0.00     0.003 A 
ATOM      7  I   UNL d   1      -5.999  -4.949   1.612  0.00  0.00    -0.146 I 
ENDROOT
TORSDOF 0
ENDMDL
