MODEL 1
REMARK minimizedAffinity 6.66996431
REMARK minimizedRMSD -1
REMARK  0 active torsions:
REMARK  status: ('A' for Active; 'I' for Inactive)
ROOT
ATOM      1  C   UNL d   1       3.682  -3.789  -0.182  0.00  0.00     0.023 A 
ATOM      2  C1  UNL d   1       2.839  -3.197   0.758  0.00  0.00     0.003 A 
ATOM      3  C2  UNL d   1       2.624  -1.818   0.734  0.00  0.00     0.048 A 
ATOM      4  C3  UNL d   1       3.254  -1.036  -0.233  0.00  0.00     0.023 A 
ATOM      5  C4  UNL d   1       4.098  -1.624  -1.177  0.00  0.00     0.048 A 
ATOM      6  C5  UNL d   1       4.311  -3.004  -1.149  0.00  0.00     0.003 A 
ATOM      7  I   UNL d   1       2.935   1.017  -0.271  0.00  0.00    -0.146 I 
ENDROOT
TORSDOF 0
ENDMDL
