MODEL 1
REMARK minimizedAffinity 10.3052616
REMARK minimizedRMSD -1
REMARK  0 active torsions:
REMARK  status: ('A' for Active; 'I' for Inactive)
ROOT
ATOM      1  C   UNL d   1       3.372   1.366   1.223  0.00  0.00     0.023 A 
ATOM      2  C1  UNL d   1       3.662   1.288  -0.139  0.00  0.00     0.003 A 
ATOM      3  C2  UNL d   1       3.990   0.059  -0.715  0.00  0.00     0.048 A 
ATOM      4  C3  UNL d   1       4.026  -1.088   0.077  0.00  0.00     0.023 A 
ATOM      5  C4  UNL d   1       3.736  -1.015   1.440  0.00  0.00     0.048 A 
ATOM      6  C5  UNL d   1       3.409   0.216   2.012  0.00  0.00     0.003 A 
ATOM      7  I   UNL d   1       4.514  -2.919  -0.778  0.00  0.00    -0.146 I 
ENDROOT
TORSDOF 0
ENDMDL
