MODEL 1
REMARK minimizedAffinity 15.416913
REMARK minimizedRMSD -1
REMARK  0 active torsions:
REMARK  status: ('A' for Active; 'I' for Inactive)
ROOT
ATOM      1  C   UNL d   1      -1.582  -0.001   2.787  0.00  0.00     0.023 A 
ATOM      2  C1  UNL d   1      -2.622   0.597   3.500  0.00  0.00     0.003 A 
ATOM      3  C2  UNL d   1      -3.890   0.707   2.926  0.00  0.00     0.048 A 
ATOM      4  C3  UNL d   1      -4.113   0.215   1.641  0.00  0.00     0.023 A 
ATOM      5  C4  UNL d   1      -3.076  -0.386   0.925  0.00  0.00     0.048 A 
ATOM      6  C5  UNL d   1      -1.809  -0.492   1.502  0.00  0.00     0.003 A 
ATOM      7  I   UNL d   1      -6.000   0.377   0.785  0.00  0.00    -0.146 I 
ENDROOT
TORSDOF 0
ENDMDL
