MODEL 1
REMARK minimizedAffinity 9.51364326
REMARK minimizedRMSD -1
REMARK  0 active torsions:
REMARK  status: ('A' for Active; 'I' for Inactive)
ROOT
ATOM      1  C   UNL d   1      -2.880  -0.450   1.789  0.00  0.00     0.023 A 
ATOM      2  C1  UNL d   1      -1.689   0.276   1.824  0.00  0.00     0.003 A 
ATOM      3  C2  UNL d   1      -0.465  -0.380   1.670  0.00  0.00     0.048 A 
ATOM      4  C3  UNL d   1      -0.440  -1.761   1.480  0.00  0.00     0.023 A 
ATOM      5  C4  UNL d   1      -1.629  -2.491   1.443  0.00  0.00     0.048 A 
ATOM      6  C5  UNL d   1      -2.850  -1.831   1.598  0.00  0.00     0.003 A 
ATOM      7  I   UNL d   1       1.379  -2.739   1.251  0.00  0.00    -0.146 I 
ENDROOT
TORSDOF 0
ENDMDL
