MODEL 1
REMARK minimizedAffinity 1.21387982
REMARK minimizedRMSD -1
REMARK  0 active torsions:
REMARK  status: ('A' for Active; 'I' for Inactive)
ROOT
ATOM      1  C   UNL d   1       0.554  -2.165   1.129  0.00  0.00     0.023 A 
ATOM      2  C1  UNL d   1      -0.524  -2.045   2.006  0.00  0.00     0.003 A 
ATOM      3  C2  UNL d   1      -1.271  -0.865   2.040  0.00  0.00     0.048 A 
ATOM      4  C3  UNL d   1      -0.935   0.190   1.192  0.00  0.00     0.023 A 
ATOM      5  C4  UNL d   1       0.142   0.074   0.312  0.00  0.00     0.048 A 
ATOM      6  C5  UNL d   1       0.886  -1.107   0.283  0.00  0.00     0.003 A 
ATOM      7  I   UNL d   1      -2.044   1.947   1.240  0.00  0.00    -0.146 I 
ENDROOT
TORSDOF 0
ENDMDL
