MODEL 1
REMARK minimizedAffinity -3.75264025
REMARK minimizedRMSD -1
REMARK  0 active torsions:
REMARK  status: ('A' for Active; 'I' for Inactive)
ROOT
ATOM      1  C   UNL d   1      -0.193   2.967  -1.380  0.00  0.00     0.078 C 
ATOM      2  C1  UNL d   1       0.059   1.982  -0.277  0.00  0.00    -0.077 A 
ATOM      3  C2  UNL d   1       0.010   2.375   1.066  0.00  0.00    -0.001 A 
ATOM      4  C3  UNL d   1       0.257   1.449   2.081  0.00  0.00     0.003 A 
ATOM      5  C4  UNL d   1       0.554   0.125   1.764  0.00  0.00    -0.005 A 
ATOM      6  C5  UNL d   1       0.606  -0.274   0.430  0.00  0.00     0.003 A 
ATOM      7  C6  UNL d   1       0.360   0.650  -0.587  0.00  0.00    -0.001 A 
ENDROOT
TORSDOF 0
ENDMDL
