MODEL 1
REMARK minimizedAffinity -3.22386813
REMARK minimizedRMSD -1
REMARK  0 active torsions:
REMARK  status: ('A' for Active; 'I' for Inactive)
ROOT
ATOM      1  C   UNL d   1      -0.398  -0.435  -1.252  0.00  0.00     0.078 C 
ATOM      2  C1  UNL d   1       0.151  -0.474   0.143  0.00  0.00    -0.077 A 
ATOM      3  C2  UNL d   1       1.496  -0.782   0.381  0.00  0.00    -0.001 A 
ATOM      4  C3  UNL d   1       1.991  -0.824   1.685  0.00  0.00     0.003 A 
ATOM      5  C4  UNL d   1       1.148  -0.560   2.762  0.00  0.00    -0.005 A 
ATOM      6  C5  UNL d   1      -0.193  -0.255   2.536  0.00  0.00     0.003 A 
ATOM      7  C6  UNL d   1      -0.690  -0.213   1.232  0.00  0.00    -0.001 A 
ENDROOT
TORSDOF 0
ENDMDL
