MODEL 1
REMARK minimizedAffinity -4.83204317
REMARK minimizedRMSD -1
REMARK  0 active torsions:
REMARK  status: ('A' for Active; 'I' for Inactive)
ROOT
ATOM      1  C   UNL d   1       0.522  -0.777  -0.846  0.00  0.00     0.078 C 
ATOM      2  C1  UNL d   1      -0.023   0.187   0.166  0.00  0.00    -0.077 A 
ATOM      3  C2  UNL d   1       0.251   0.030   1.531  0.00  0.00    -0.001 A 
ATOM      4  C3  UNL d   1      -0.271   0.929   2.463  0.00  0.00     0.003 A 
ATOM      5  C4  UNL d   1      -1.070   1.990   2.041  0.00  0.00    -0.005 A 
ATOM      6  C5  UNL d   1      -1.349   2.152   0.685  0.00  0.00     0.003 A 
ATOM      7  C6  UNL d   1      -0.829   1.254  -0.248  0.00  0.00    -0.001 A 
ENDROOT
TORSDOF 0
ENDMDL
