MODEL 1
REMARK minimizedAffinity -3.50770164
REMARK minimizedRMSD -1
REMARK  0 active torsions:
REMARK  status: ('A' for Active; 'I' for Inactive)
ROOT
ATOM      1  C   UNL d   1      -0.588   3.677   0.137  0.00  0.00     0.078 C 
ATOM      2  C1  UNL d   1      -0.354   2.261   0.571  0.00  0.00    -0.077 A 
ATOM      3  C2  UNL d   1      -0.348   1.914   1.928  0.00  0.00    -0.001 A 
ATOM      4  C3  UNL d   1      -0.118   0.594   2.318  0.00  0.00     0.003 A 
ATOM      5  C4  UNL d   1       0.108  -0.390   1.358  0.00  0.00    -0.005 A 
ATOM      6  C5  UNL d   1       0.106  -0.055   0.006  0.00  0.00     0.003 A 
ATOM      7  C6  UNL d   1      -0.123   1.265  -0.386  0.00  0.00    -0.001 A 
ENDROOT
TORSDOF 0
ENDMDL
