MODEL 1
REMARK minimizedAffinity 7.73180771
REMARK minimizedRMSD -1
REMARK  0 active torsions:
REMARK  status: ('A' for Active; 'I' for Inactive)
ROOT
ATOM      1  C   UNL d   1       0.677   4.047   0.802  0.00  0.00     0.078 C 
ATOM      2  C1  UNL d   1       0.559   2.640   1.307  0.00  0.00    -0.077 A 
ATOM      3  C2  UNL d   1       0.639   2.356   2.676  0.00  0.00    -0.001 A 
ATOM      4  C3  UNL d   1       0.537   1.041   3.131  0.00  0.00     0.003 A 
ATOM      5  C4  UNL d   1       0.355  -0.001   2.224  0.00  0.00    -0.005 A 
ATOM      6  C5  UNL d   1       0.276   0.271   0.860  0.00  0.00     0.003 A 
ATOM      7  C6  UNL d   1       0.378   1.586   0.403  0.00  0.00    -0.001 A 
ENDROOT
TORSDOF 0
ENDMDL
