MODEL 1
REMARK minimizedAffinity -2.57776594
REMARK minimizedRMSD -1
REMARK  1 active torsions:
REMARK  status: ('A' for Active; 'I' for Inactive)
REMARK    1  A    between atoms: N_2  and  C1_3 
ROOT
ATOM      1  C1  UNL d   1       0.027   0.456   1.700  0.00  0.00     0.143 A 
ATOM      2  C2  UNL d   1       1.376   0.293   2.035  0.00  0.00    -0.057 A 
ATOM      3  C3  UNL d   1       2.296  -0.221   1.113  0.00  0.00     0.033 A 
ATOM      4  C4  UNL d   1       1.875  -0.611  -0.154  0.00  0.00    -0.042 A 
ATOM      5  C5  UNL d   1       0.535  -0.482  -0.500  0.00  0.00     0.033 A 
ATOM      6  C6  UNL d   1      -0.377   0.038   0.423  0.00  0.00    -0.057 A 
ENDROOT
BRANCH   1   7
ATOM      7  N   UNL d   1      -0.954   0.869   2.605  0.00  0.00    -0.732 N 
ATOM      8  C   UNL d   1      -0.686   1.933   3.548  0.00  0.00     0.284 C 
ATOM      9  H3  UNL d   1      -1.878   0.911   2.183  0.00  0.00     0.395 HD
ENDBRANCH   1   7
TORSDOF 1
ENDMDL
