MODEL 1
REMARK minimizedAffinity -0.358705282
REMARK minimizedRMSD -1
REMARK  1 active torsions:
REMARK  status: ('A' for Active; 'I' for Inactive)
REMARK    1  A    between atoms: N_2  and  C1_3 
ROOT
ATOM      1  C1  UNL d   1       0.370  -0.342   1.619  0.00  0.00     0.143 A 
ATOM      2  C2  UNL d   1      -0.859   0.160   1.177  0.00  0.00    -0.057 A 
ATOM      3  C3  UNL d   1      -1.998   0.113   1.990  0.00  0.00     0.033 A 
ATOM      4  C4  UNL d   1      -1.934  -0.465   3.253  0.00  0.00    -0.042 A 
ATOM      5  C5  UNL d   1      -0.730  -0.994   3.704  0.00  0.00     0.033 A 
ATOM      6  C6  UNL d   1       0.406  -0.938   2.890  0.00  0.00    -0.057 A 
ENDROOT
BRANCH   1   7
ATOM      7  N   UNL d   1       1.514  -0.414   0.820  0.00  0.00    -0.732 N 
ATOM      8  C   UNL d   1       2.248   0.784   0.476  0.00  0.00     0.284 C 
ATOM      9  H3  UNL d   1       2.103  -1.209   1.056  0.00  0.00     0.395 HD
ENDBRANCH   1   7
TORSDOF 1
ENDMDL
