MODEL 1
REMARK minimizedAffinity 2.68072581
REMARK minimizedRMSD -1
REMARK  1 active torsions:
REMARK  status: ('A' for Active; 'I' for Inactive)
REMARK    1  A    between atoms: N_2  and  C1_3 
ROOT
ATOM      1  C1  UNL d   1       0.255  -0.308   0.781  0.00  0.00     0.143 A 
ATOM      2  C2  UNL d   1       0.435  -0.650   2.125  0.00  0.00    -0.057 A 
ATOM      3  C3  UNL d   1      -0.638  -0.653   3.024  0.00  0.00     0.033 A 
ATOM      4  C4  UNL d   1      -1.910  -0.284   2.599  0.00  0.00    -0.042 A 
ATOM      5  C5  UNL d   1      -2.108   0.083   1.272  0.00  0.00     0.033 A 
ATOM      6  C6  UNL d   1      -1.033   0.077   0.378  0.00  0.00    -0.057 A 
ENDROOT
BRANCH   1   7
ATOM      7  N   UNL d   1       1.300  -0.191  -0.139  0.00  0.00    -0.732 N 
ATOM      8  C   UNL d   1       2.329   0.811   0.038  0.00  0.00     0.284 C 
ATOM      9  H3  UNL d   1       1.649  -1.096  -0.447  0.00  0.00     0.395 HD
ENDBRANCH   1   7
TORSDOF 1
ENDMDL
