MODEL 1
REMARK minimizedAffinity -1.51730192
REMARK minimizedRMSD -1
REMARK  1 active torsions:
REMARK  status: ('A' for Active; 'I' for Inactive)
REMARK    1  A    between atoms: N_2  and  C1_3 
ROOT
ATOM      1  C1  UNL d   1       0.782   0.250   0.131  0.00  0.00     0.143 A 
ATOM      2  C2  UNL d   1       0.179   0.595   1.346  0.00  0.00    -0.057 A 
ATOM      3  C3  UNL d   1      -1.196   0.429   1.546  0.00  0.00     0.033 A 
ATOM      4  C4  UNL d   1      -2.001  -0.059   0.522  0.00  0.00    -0.042 A 
ATOM      5  C5  UNL d   1      -1.427  -0.384  -0.702  0.00  0.00     0.033 A 
ATOM      6  C6  UNL d   1      -0.052  -0.223  -0.894  0.00  0.00    -0.057 A 
ENDROOT
BRANCH   1   7
ATOM      7  N   UNL d   1       2.128   0.484  -0.163  0.00  0.00    -0.732 N 
ATOM      8  C   UNL d   1       2.778   1.699   0.277  0.00  0.00     0.284 C 
ATOM      9  H3  UNL d   1       2.698  -0.353  -0.064  0.00  0.00     0.395 HD
ENDBRANCH   1   7
TORSDOF 1
ENDMDL
