MODEL 1
REMARK minimizedAffinity -3.41604233
REMARK minimizedRMSD -1
REMARK  1 active torsions:
REMARK  status: ('A' for Active; 'I' for Inactive)
REMARK    1  A    between atoms: N_2  and  C1_3 
ROOT
ATOM      1  C1  UNL d   1      -0.920   0.504   0.399  0.00  0.00     0.143 A 
ATOM      2  C2  UNL d   1       0.077  -0.161   1.121  0.00  0.00    -0.057 A 
ATOM      3  C3  UNL d   1      -0.145  -0.596   2.434  0.00  0.00     0.033 A 
ATOM      4  C4  UNL d   1      -1.362  -0.346   3.059  0.00  0.00    -0.042 A 
ATOM      5  C5  UNL d   1      -2.358   0.336   2.370  0.00  0.00     0.033 A 
ATOM      6  C6  UNL d   1      -2.133   0.762   1.057  0.00  0.00    -0.057 A 
ENDROOT
BRANCH   1   7
ATOM      7  N   UNL d   1      -0.727   1.048  -0.873  0.00  0.00    -0.732 N 
ATOM      8  C   UNL d   1       0.066   0.349  -1.861  0.00  0.00     0.284 C 
ATOM      9  H3  UNL d   1      -1.572   1.475  -1.245  0.00  0.00     0.395 HD
ENDBRANCH   1   7
TORSDOF 1
ENDMDL
