MODEL 1
REMARK minimizedAffinity -1.62855387
REMARK minimizedRMSD -1
REMARK  1 active torsions:
REMARK  status: ('A' for Active; 'I' for Inactive)
REMARK    1  A    between atoms: N_2  and  C1_3 
ROOT
ATOM      1  C1  UNL d   1       0.831  -0.669   0.697  0.00  0.00     0.143 A 
ATOM      2  C2  UNL d   1      -0.029  -0.754  -0.404  0.00  0.00    -0.057 A 
ATOM      3  C3  UNL d   1      -1.405  -0.531  -0.269  0.00  0.00     0.033 A 
ATOM      4  C4  UNL d   1      -1.950  -0.247   0.978  0.00  0.00    -0.042 A 
ATOM      5  C5  UNL d   1      -1.118  -0.182   2.090  0.00  0.00     0.033 A 
ATOM      6  C6  UNL d   1       0.255  -0.399   1.948  0.00  0.00    -0.057 A 
ENDROOT
BRANCH   1   7
ATOM      7  N   UNL d   1       2.193  -0.977   0.646  0.00  0.00    -0.732 N 
ATOM      8  C   UNL d   1       3.076  -0.265  -0.252  0.00  0.00     0.284 C 
ATOM      9  H3  UNL d   1       2.587  -1.149   1.568  0.00  0.00     0.395 HD
ENDBRANCH   1   7
TORSDOF 1
ENDMDL
