MODEL 1
REMARK minimizedAffinity -2.29308248
REMARK minimizedRMSD -1
REMARK  2 active torsions:
REMARK  status: ('A' for Active; 'I' for Inactive)
REMARK    1  A    between atoms: C2'_3  and  C1'_4 
REMARK    2  A    between atoms: C1'_4  and  C1_5 
ROOT
ATOM      1  C1  I4B d   1      -0.958   0.289  -0.643  0.00  0.00    -0.075 A 
ATOM      2  C2  I4B d   1      -0.055   1.323  -0.667  0.00  0.00     0.003 A 
ATOM      3  C3  I4B d   1       1.077   1.301   0.183  0.00  0.00     0.002 A 
ATOM      4  C4  I4B d   1       1.239   0.258   1.072  0.00  0.00    -0.004 A 
ATOM      5  C5  I4B d   1       0.335  -0.800   1.080  0.00  0.00     0.002 A 
ATOM      6  C6  I4B d   1      -0.764  -0.791   0.209  0.00  0.00     0.003 A 
ENDROOT
BRANCH   1   7
ATOM      7  C1' I4B d   1      -2.159   0.360  -1.531  0.00  0.00     0.060 C 
BRANCH   7   8
ATOM      8  C2' I4B d   1      -1.799  -0.279  -2.856  0.00  0.00    -0.013 C 
ATOM      9  C4' I4B d   1      -2.164  -1.739  -2.875  0.00  0.00     0.013 C 
ATOM     10  C3' I4B d   1      -2.512   0.472  -3.941  0.00  0.00     0.013 C 
ENDBRANCH   7   8
ENDBRANCH   1   7
TORSDOF 2
ENDMDL
