MODEL 1
REMARK minimizedAffinity 1.06689489
REMARK minimizedRMSD -1
REMARK  2 active torsions:
REMARK  status: ('A' for Active; 'I' for Inactive)
REMARK    1  A    between atoms: C2'_3  and  C1'_4 
REMARK    2  A    between atoms: C1'_4  and  C1_5 
ROOT
ATOM      1  C1  I4B d   1       0.886   0.349   0.425  0.00  0.00    -0.075 A 
ATOM      2  C2  I4B d   1       0.511  -0.930   0.757  0.00  0.00     0.003 A 
ATOM      3  C3  I4B d   1      -0.843  -1.327   0.646  0.00  0.00     0.002 A 
ATOM      4  C4  I4B d   1      -1.792  -0.406   0.251  0.00  0.00    -0.004 A 
ATOM      5  C5  I4B d   1      -1.407   0.883  -0.107  0.00  0.00     0.002 A 
ATOM      6  C6  I4B d   1      -0.058   1.259  -0.032  0.00  0.00     0.003 A 
ENDROOT
BRANCH   1   7
ATOM      7  C1' I4B d   1       2.319   0.744   0.585  0.00  0.00     0.060 C 
BRANCH   7   8
ATOM      8  C2' I4B d   1       2.866   0.034   1.807  0.00  0.00    -0.013 C 
ATOM      9  C4' I4B d   1       4.263  -0.472   1.563  0.00  0.00     0.013 C 
ATOM     10  C3' I4B d   1       2.832   0.998   2.955  0.00  0.00     0.013 C 
ENDBRANCH   7   8
ENDBRANCH   1   7
TORSDOF 2
ENDMDL
