MODEL 1
REMARK minimizedAffinity -5.17730665
REMARK minimizedRMSD -1
REMARK  2 active torsions:
REMARK  status: ('A' for Active; 'I' for Inactive)
REMARK    1  A    between atoms: C2'_3  and  C1'_4 
REMARK    2  A    between atoms: C1'_4  and  C1_5 
ROOT
ATOM      1  C1  I4B d   1      -1.116   0.291  -1.110  0.00  0.00    -0.075 A 
ATOM      2  C2  I4B d   1      -2.488   0.251  -1.111  0.00  0.00     0.003 A 
ATOM      3  C3  I4B d   1      -3.194   0.040  -2.320  0.00  0.00     0.002 A 
ATOM      4  C4  I4B d   1      -2.495  -0.076  -3.504  0.00  0.00    -0.004 A 
ATOM      5  C5  I4B d   1      -1.103  -0.059  -3.498  0.00  0.00     0.002 A 
ATOM      6  C6  I4B d   1      -0.408   0.113  -2.292  0.00  0.00     0.003 A 
ENDROOT
BRANCH   1   7
ATOM      7  C1' I4B d   1      -0.403   0.549   0.179  0.00  0.00     0.060 C 
BRANCH   7   8
ATOM      8  C2' I4B d   1       1.076   0.684  -0.124  0.00  0.00    -0.013 C 
ATOM      9  C4' I4B d   1       1.436   2.109  -0.455  0.00  0.00     0.013 C 
ATOM     10  C3' I4B d   1       1.840   0.196   1.071  0.00  0.00     0.013 C 
ENDBRANCH   7   8
ENDBRANCH   1   7
TORSDOF 2
ENDMDL
