MODEL 1
REMARK minimizedAffinity -4.28033209
REMARK minimizedRMSD -1
REMARK  2 active torsions:
REMARK  status: ('A' for Active; 'I' for Inactive)
REMARK    1  A    between atoms: C2'_3  and  C1'_4 
REMARK    2  A    between atoms: C1'_4  and  C1_5 
ROOT
ATOM      1  C1  I4B d   1      -1.224   0.418  -0.294  0.00  0.00    -0.075 A 
ATOM      2  C2  I4B d   1      -1.053  -0.601   0.609  0.00  0.00     0.003 A 
ATOM      3  C3  I4B d   1       0.149  -0.702   1.351  0.00  0.00     0.002 A 
ATOM      4  C4  I4B d   1       1.166   0.202   1.123  0.00  0.00    -0.004 A 
ATOM      5  C5  I4B d   1       0.982   1.249   0.224  0.00  0.00     0.002 A 
ATOM      6  C6  I4B d   1      -0.225   1.365  -0.480  0.00  0.00     0.003 A 
ENDROOT
BRANCH   1   7
ATOM      7  C1' I4B d   1      -2.493   0.475  -1.085  0.00  0.00     0.060 C 
BRANCH   7   8
ATOM      8  C2' I4B d   1      -2.180   0.037  -2.501  0.00  0.00    -0.013 C 
ATOM      9  C4' I4B d   1      -2.873  -1.257  -2.837  0.00  0.00     0.013 C 
ATOM     10  C3' I4B d   1      -2.605   1.135  -3.430  0.00  0.00     0.013 C 
ENDBRANCH   7   8
ENDBRANCH   1   7
TORSDOF 2
ENDMDL
