MODEL 1
REMARK minimizedAffinity 6.54416084
REMARK minimizedRMSD -1
REMARK  0 active torsions:
REMARK  status: ('A' for Active; 'I' for Inactive)
ROOT
ATOM      1  C   UNL d   1       3.311  -2.075  -2.605  0.00  0.00    -0.002 A 
ATOM      2  C1  UNL d   1       2.165  -1.718  -3.302  0.00  0.00     0.010 A 
ATOM      3  C2  UNL d   1       1.414  -0.607  -2.912  0.00  0.00     0.041 A 
ATOM      4  C3  UNL d   1       1.840   0.147  -1.800  0.00  0.00    -0.075 A 
ATOM      5  S   UNL d   1       1.080   1.548  -1.142  0.00  0.00     0.015 SA
ATOM      6  C4  UNL d   1       2.260   1.705   0.079  0.00  0.00     0.022 A 
ATOM      7  C5  UNL d   1       3.217   0.721   0.001  0.00  0.00     0.026 A 
ATOM      8  C6  UNL d   1       2.991  -0.193  -1.084  0.00  0.00    -0.082 A 
ATOM      9  C7  UNL d   1       3.730  -1.325  -1.504  0.00  0.00     0.045 A 
ENDROOT
TORSDOF 0
ENDMDL
