MODEL 1
REMARK minimizedAffinity 5.71561623
REMARK minimizedRMSD -1
REMARK  0 active torsions:
REMARK  status: ('A' for Active; 'I' for Inactive)
ROOT
ATOM      1  C   UNL d   1       2.983  -2.834  -2.571  0.00  0.00    -0.002 A 
ATOM      2  C1  UNL d   1       3.875  -2.403  -1.599  0.00  0.00     0.010 A 
ATOM      3  C2  UNL d   1       3.560  -1.320  -0.776  0.00  0.00     0.041 A 
ATOM      4  C3  UNL d   1       2.321  -0.672  -0.946  0.00  0.00    -0.075 A 
ATOM      5  S   UNL d   1       1.720   0.674  -0.052  0.00  0.00     0.015 SA
ATOM      6  C4  UNL d   1       0.265   0.709  -0.939  0.00  0.00     0.022 A 
ATOM      7  C5  UNL d   1       0.222  -0.275  -1.898  0.00  0.00     0.026 A 
ATOM      8  C6  UNL d   1       1.405  -1.088  -1.917  0.00  0.00    -0.082 A 
ATOM      9  C7  UNL d   1       1.754  -2.188  -2.737  0.00  0.00     0.045 A 
ENDROOT
TORSDOF 0
ENDMDL
