MODEL 1
REMARK minimizedAffinity 3.11641192
REMARK minimizedRMSD -1
REMARK  0 active torsions:
REMARK  status: ('A' for Active; 'I' for Inactive)
ROOT
ATOM      1  C   UNL d   1      -3.184   0.683  -5.979  0.00  0.00    -0.002 A 
ATOM      2  C1  UNL d   1      -2.117   1.570  -5.951  0.00  0.00     0.010 A 
ATOM      3  C2  UNL d   1      -2.339   2.948  -5.941  0.00  0.00     0.041 A 
ATOM      4  C3  UNL d   1      -3.665   3.425  -5.959  0.00  0.00    -0.075 A 
ATOM      5  S   UNL d   1      -4.178   5.071  -5.950  0.00  0.00     0.015 SA
ATOM      6  C4  UNL d   1      -5.825   4.636  -5.983  0.00  0.00     0.022 A 
ATOM      7  C5  UNL d   1      -5.998   3.272  -6.000  0.00  0.00     0.026 A 
ATOM      8  C6  UNL d   1      -4.756   2.552  -5.986  0.00  0.00    -0.082 A 
ATOM      9  C7  UNL d   1      -4.498   1.160  -5.996  0.00  0.00     0.045 A 
ENDROOT
TORSDOF 0
ENDMDL
