MODEL 1
REMARK minimizedAffinity 1.38679111
REMARK minimizedRMSD -1
REMARK  0 active torsions:
REMARK  status: ('A' for Active; 'I' for Inactive)
ROOT
ATOM      1  C   UNL d   1      -3.458  -0.982  -5.982  0.00  0.00    -0.002 A 
ATOM      2  C1  UNL d   1      -4.846  -1.010  -5.989  0.00  0.00     0.010 A 
ATOM      3  C2  UNL d   1      -5.580   0.177  -5.994  0.00  0.00     0.041 A 
ATOM      4  C3  UNL d   1      -4.890   1.406  -5.993  0.00  0.00    -0.075 A 
ATOM      5  S   UNL d   1      -5.581   2.985  -5.999  0.00  0.00     0.015 SA
ATOM      6  C4  UNL d   1      -4.050   3.735  -5.994  0.00  0.00     0.022 A 
ATOM      7  C5  UNL d   1      -3.026   2.818  -5.987  0.00  0.00     0.026 A 
ATOM      8  C6  UNL d   1      -3.494   1.460  -5.987  0.00  0.00    -0.082 A 
ATOM      9  C7  UNL d   1      -2.777   0.239  -5.981  0.00  0.00     0.045 A 
ENDROOT
TORSDOF 0
ENDMDL
