MODEL 1
REMARK minimizedAffinity 1.92500103
REMARK minimizedRMSD -1
REMARK  0 active torsions:
REMARK  status: ('A' for Active; 'I' for Inactive)
ROOT
ATOM      1  C   UNL d   1      -4.011   5.079  -5.999  0.00  0.00    -0.002 A 
ATOM      2  C1  UNL d   1      -2.624   5.066  -5.999  0.00  0.00     0.010 A 
ATOM      3  C2  UNL d   1      -1.925   3.857  -5.998  0.00  0.00     0.041 A 
ATOM      4  C3  UNL d   1      -2.651   2.650  -5.998  0.00  0.00    -0.075 A 
ATOM      5  S   UNL d   1      -2.009   1.050  -5.997  0.00  0.00     0.015 SA
ATOM      6  C4  UNL d   1      -3.561   0.346  -5.997  0.00  0.00     0.022 A 
ATOM      7  C5  UNL d   1      -4.557   1.294  -5.998  0.00  0.00     0.026 A 
ATOM      8  C6  UNL d   1      -4.049   2.637  -5.998  0.00  0.00    -0.082 A 
ATOM      9  C7  UNL d   1      -4.728   3.880  -5.999  0.00  0.00     0.045 A 
ENDROOT
TORSDOF 0
ENDMDL
