MODEL 1
REMARK minimizedAffinity 5.93580008
REMARK minimizedRMSD -1
REMARK  0 active torsions:
REMARK  status: ('A' for Active; 'I' for Inactive)
ROOT
ATOM      1  C   UNL d   1       3.503  -0.739  -0.412  0.00  0.00    -0.002 A 
ATOM      2  C1  UNL d   1       3.244  -1.508  -1.537  0.00  0.00     0.010 A 
ATOM      3  C2  UNL d   1       2.001  -1.447  -2.169  0.00  0.00     0.041 A 
ATOM      4  C3  UNL d   1       1.012  -0.589  -1.647  0.00  0.00    -0.075 A 
ATOM      5  S   UNL d   1      -0.583  -0.350  -2.256  0.00  0.00     0.015 SA
ATOM      6  C4  UNL d   1      -0.958   0.780  -1.036  0.00  0.00     0.022 A 
ATOM      7  C5  UNL d   1       0.096   0.981  -0.177  0.00  0.00     0.026 A 
ATOM      8  C6  UNL d   1       1.249   0.196  -0.515  0.00  0.00    -0.082 A 
ATOM      9  C7  UNL d   1       2.520   0.110   0.103  0.00  0.00     0.045 A 
ENDROOT
TORSDOF 0
ENDMDL
