MODEL 1
REMARK minimizedAffinity 2.49631357
REMARK minimizedRMSD -1
REMARK  0 active torsions:
REMARK  status: ('A' for Active; 'I' for Inactive)
ROOT
ATOM      1  C   UNL d   1      -4.379   4.466  -6.000  0.00  0.00    -0.002 A 
ATOM      2  C1  UNL d   1      -3.033   4.439  -5.663  0.00  0.00     0.010 A 
ATOM      3  C2  UNL d   1      -2.411   3.238  -5.318  0.00  0.00     0.041 A 
ATOM      4  C3  UNL d   1      -3.171   2.052  -5.319  0.00  0.00    -0.075 A 
ATOM      5  S   UNL d   1      -2.620   0.465  -4.932  0.00  0.00     0.015 SA
ATOM      6  C4  UNL d   1      -4.159  -0.216  -5.205  0.00  0.00     0.022 A 
ATOM      7  C5  UNL d   1      -5.082   0.730  -5.583  0.00  0.00     0.026 A 
ATOM      8  C6  UNL d   1      -4.527   2.053  -5.655  0.00  0.00    -0.082 A 
ATOM      9  C7  UNL d   1      -5.130   3.287  -6.000  0.00  0.00     0.045 A 
ENDROOT
TORSDOF 0
ENDMDL
