MODEL 1
REMARK minimizedAffinity -0.097228162
REMARK minimizedRMSD -1
REMARK  0 active torsions:
REMARK  status: ('A' for Active; 'I' for Inactive)
ROOT
ATOM      1  C   UNL d   1      -3.027  -0.563  -5.995  0.00  0.00    -0.002 A 
ATOM      2  C1  UNL d   1      -1.734  -0.060  -5.993  0.00  0.00     0.010 A 
ATOM      3  C2  UNL d   1      -1.508   1.318  -5.994  0.00  0.00     0.041 A 
ATOM      4  C3  UNL d   1      -2.614   2.190  -5.996  0.00  0.00    -0.075 A 
ATOM      5  S   UNL d   1      -2.579   3.914  -5.997  0.00  0.00     0.015 SA
ATOM      6  C4  UNL d   1      -4.280   4.023  -5.999  0.00  0.00     0.022 A 
ATOM      7  C5  UNL d   1      -4.876   2.784  -5.999  0.00  0.00     0.026 A 
ATOM      8  C6  UNL d   1      -3.926   1.707  -5.997  0.00  0.00    -0.082 A 
ATOM      9  C7  UNL d   1      -4.122   0.305  -5.996  0.00  0.00     0.045 A 
ENDROOT
TORSDOF 0
ENDMDL
