MODEL 1
REMARK minimizedAffinity -1.86619711
REMARK minimizedRMSD -1
REMARK  0 active torsions:
REMARK  status: ('A' for Active; 'I' for Inactive)
ROOT
ATOM      1  C   UNL d   1      -1.928  -5.427  -5.903  0.00  0.00    -0.002 A 
ATOM      2  C1  UNL d   1      -3.191  -6.000  -5.928  0.00  0.00     0.010 A 
ATOM      3  C2  UNL d   1      -4.334  -5.198  -5.958  0.00  0.00     0.041 A 
ATOM      4  C3  UNL d   1      -4.185  -3.798  -5.964  0.00  0.00    -0.075 A 
ATOM      5  S   UNL d   1      -5.441  -2.618  -6.000  0.00  0.00     0.015 SA
ATOM      6  C4  UNL d   1      -4.331  -1.325  -5.984  0.00  0.00     0.022 A 
ATOM      7  C5  UNL d   1      -3.029  -1.765  -5.952  0.00  0.00     0.026 A 
ATOM      8  C6  UNL d   1      -2.923  -3.197  -5.941  0.00  0.00    -0.082 A 
ATOM      9  C7  UNL d   1      -1.783  -4.037  -5.910  0.00  0.00     0.045 A 
ENDROOT
TORSDOF 0
ENDMDL
