MODEL 1
REMARK minimizedAffinity 7.3037076
REMARK minimizedRMSD -1
REMARK  0 active torsions:
REMARK  status: ('A' for Active; 'I' for Inactive)
ROOT
ATOM      1  C   UNL d   1      -3.361  -1.476  -5.759  0.00  0.00    -0.002 A 
ATOM      2  C1  UNL d   1      -2.298  -0.680  -5.356  0.00  0.00     0.010 A 
ATOM      3  C2  UNL d   1      -2.467   0.695  -5.180  0.00  0.00     0.041 A 
ATOM      4  C3  UNL d   1      -3.735   1.262  -5.417  0.00  0.00    -0.075 A 
ATOM      5  S   UNL d   1      -4.176   2.922  -5.265  0.00  0.00     0.015 SA
ATOM      6  C4  UNL d   1      -5.787   2.613  -5.731  0.00  0.00     0.022 A 
ATOM      7  C5  UNL d   1      -6.000   1.282  -6.000  0.00  0.00     0.026 A 
ATOM      8  C6  UNL d   1      -4.821   0.481  -5.823  0.00  0.00    -0.082 A 
ATOM      9  C7  UNL d   1      -4.618  -0.910  -5.993  0.00  0.00     0.045 A 
ENDROOT
TORSDOF 0
ENDMDL
