MODEL 1
REMARK minimizedAffinity -2.28211379
REMARK minimizedRMSD -1
REMARK  1 active torsions:
REMARK  status: ('A' for Active; 'I' for Inactive)
REMARK    1  A    between atoms: C1_2  and  C2_3 
ROOT
ATOM      1  C2  UNL d   1       0.287  -0.406   0.506  0.00  0.00    -0.076 A 
ATOM      2  C3  UNL d   1      -1.080  -0.127   0.682  0.00  0.00     0.004 A 
ATOM      3  C4  UNL d   1      -1.525   1.175   0.901  0.00  0.00    -0.003 A 
ATOM      4  C5  UNL d   1      -0.610   2.221   0.947  0.00  0.00     0.000 A 
ATOM      5  C6  UNL d   1       0.748   1.966   0.757  0.00  0.00     0.000 A 
ATOM      6  C7  UNL d   1       1.211   0.661   0.519  0.00  0.00    -0.073 A 
ATOM      7  C8  UNL d   1       2.687   0.442   0.327  0.00  0.00     0.078 C 
ENDROOT
BRANCH   1   8
ATOM      8  C1  UNL d   1       0.713  -1.841   0.299  0.00  0.00     0.053 C 
ATOM      9  C   UNL d   1      -0.290  -2.634  -0.526  0.00  0.00     0.018 C 
ENDBRANCH   1   8
TORSDOF 1
ENDMDL
