MODEL 1
REMARK minimizedAffinity -3.26170444
REMARK minimizedRMSD -1
REMARK  1 active torsions:
REMARK  status: ('A' for Active; 'I' for Inactive)
REMARK    1  A    between atoms: C1_2  and  C2_3 
ROOT
ATOM      1  C2  UNL d   1      -0.492  -0.413   0.087  0.00  0.00    -0.076 A 
ATOM      2  C3  UNL d   1       0.870  -0.103   0.245  0.00  0.00     0.004 A 
ATOM      3  C4  UNL d   1       1.284   1.205   0.486  0.00  0.00    -0.003 A 
ATOM      4  C5  UNL d   1       0.344   2.226   0.573  0.00  0.00     0.000 A 
ATOM      5  C6  UNL d   1      -1.013   1.934   0.436  0.00  0.00     0.000 A 
ATOM      6  C7  UNL d   1      -1.449   0.617   0.210  0.00  0.00    -0.073 A 
ATOM      7  C8  UNL d   1      -2.924   0.360   0.064  0.00  0.00     0.078 C 
ENDROOT
BRANCH   1   8
ATOM      8  C1  UNL d   1      -0.881  -1.846  -0.199  0.00  0.00     0.053 C 
ATOM      9  C   UNL d   1      -0.425  -2.310  -1.573  0.00  0.00     0.018 C 
ENDBRANCH   1   8
TORSDOF 1
ENDMDL
