MODEL 1
REMARK minimizedAffinity 1.20414174
REMARK minimizedRMSD -1
REMARK  1 active torsions:
REMARK  status: ('A' for Active; 'I' for Inactive)
REMARK    1  A    between atoms: C1_2  and  C2_3 
ROOT
ATOM      1  C2  UNL d   1       0.012   1.738   0.572  0.00  0.00    -0.076 A 
ATOM      2  C3  UNL d   1       0.591   2.890   1.132  0.00  0.00     0.004 A 
ATOM      3  C4  UNL d   1       1.944   2.924   1.465  0.00  0.00    -0.003 A 
ATOM      4  C5  UNL d   1       2.740   1.806   1.242  0.00  0.00     0.000 A 
ATOM      5  C6  UNL d   1       2.187   0.661   0.672  0.00  0.00     0.000 A 
ATOM      6  C7  UNL d   1       0.828   0.616   0.315  0.00  0.00    -0.073 A 
ATOM      7  C8  UNL d   1       0.282  -0.648  -0.291  0.00  0.00     0.078 C 
ENDROOT
BRANCH   1   8
ATOM      8  C1  UNL d   1      -1.467   1.750   0.257  0.00  0.00     0.053 C 
ATOM      9  C   UNL d   1      -2.167   0.473   0.694  0.00  0.00     0.018 C 
ENDBRANCH   1   8
TORSDOF 1
ENDMDL
