MODEL 1
REMARK minimizedAffinity -4.2968421
REMARK minimizedRMSD -1
REMARK  1 active torsions:
REMARK  status: ('A' for Active; 'I' for Inactive)
REMARK    1  A    between atoms: C1_2  and  C2_3 
ROOT
ATOM      1  C2  UNL d   1       0.680   0.290   0.604  0.00  0.00    -0.076 A 
ATOM      2  C3  UNL d   1      -0.679   0.649   0.562  0.00  0.00     0.004 A 
ATOM      3  C4  UNL d   1      -1.073   1.980   0.695  0.00  0.00    -0.003 A 
ATOM      4  C5  UNL d   1      -0.115   2.972   0.871  0.00  0.00     0.000 A 
ATOM      5  C6  UNL d   1       1.238   2.635   0.897  0.00  0.00     0.000 A 
ATOM      6  C7  UNL d   1       1.653   1.301   0.748  0.00  0.00    -0.073 A 
ATOM      7  C8  UNL d   1       3.125   0.994   0.791  0.00  0.00     0.078 C 
ENDROOT
BRANCH   1   8
ATOM      8  C1  UNL d   1       1.046  -1.172   0.482  0.00  0.00     0.053 C 
ATOM      9  C   UNL d   1       0.035  -1.960  -0.338  0.00  0.00     0.018 C 
ENDBRANCH   1   8
TORSDOF 1
ENDMDL
