MODEL 1
REMARK minimizedAffinity -4.5076704
REMARK minimizedRMSD -1
REMARK  1 active torsions:
REMARK  status: ('A' for Active; 'I' for Inactive)
REMARK    1  A    between atoms: C1_2  and  C2_3 
ROOT
ATOM      1  C2  UNL d   1      -0.388   0.171   0.187  0.00  0.00    -0.076 A 
ATOM      2  C3  UNL d   1       0.904   0.704   0.041  0.00  0.00     0.004 A 
ATOM      3  C4  UNL d   1       1.124   2.079   0.095  0.00  0.00    -0.003 A 
ATOM      4  C5  UNL d   1       0.054   2.944   0.298  0.00  0.00     0.000 A 
ATOM      5  C6  UNL d   1      -1.233   2.432   0.463  0.00  0.00     0.000 A 
ATOM      6  C7  UNL d   1      -1.469   1.047   0.427  0.00  0.00    -0.073 A 
ATOM      7  C8  UNL d   1      -2.877   0.550   0.604  0.00  0.00     0.078 C 
ENDROOT
BRANCH   1   8
ATOM      8  C1  UNL d   1      -0.569  -1.327   0.092  0.00  0.00     0.053 C 
ATOM      9  C   UNL d   1      -0.083  -1.890  -1.235  0.00  0.00     0.018 C 
ENDBRANCH   1   8
TORSDOF 1
ENDMDL
