MODEL 1
REMARK minimizedAffinity -3.89306283
REMARK minimizedRMSD -1
REMARK  1 active torsions:
REMARK  status: ('A' for Active; 'I' for Inactive)
REMARK    1  A    between atoms: C1_2  and  C2_3 
ROOT
ATOM      1  C2  UNL d   1      -0.094  -0.978  -1.023  0.00  0.00    -0.076 A 
ATOM      2  C3  UNL d   1      -0.496  -1.068  -2.367  0.00  0.00     0.004 A 
ATOM      3  C4  UNL d   1      -0.696  -2.306  -2.975  0.00  0.00    -0.003 A 
ATOM      4  C5  UNL d   1      -0.498  -3.475  -2.249  0.00  0.00     0.000 A 
ATOM      5  C6  UNL d   1      -0.117  -3.405  -0.909  0.00  0.00     0.000 A 
ATOM      6  C7  UNL d   1       0.073  -2.164  -0.276  0.00  0.00    -0.073 A 
ATOM      7  C8  UNL d   1       0.491  -2.147   1.169  0.00  0.00     0.078 C 
ENDROOT
BRANCH   1   8
ATOM      8  C1  UNL d   1       0.133   0.392  -0.425  0.00  0.00     0.053 C 
ATOM      9  C   UNL d   1      -1.168   1.124  -0.133  0.00  0.00     0.018 C 
ENDBRANCH   1   8
TORSDOF 1
ENDMDL
