MODEL 1
REMARK minimizedAffinity -3.44394898
REMARK minimizedRMSD -1
REMARK  1 active torsions:
REMARK  status: ('A' for Active; 'I' for Inactive)
REMARK    1  A    between atoms: C1_2  and  C2_3 
ROOT
ATOM      1  C2  UNL d   1      -0.354  -0.203   0.307  0.00  0.00    -0.076 A 
ATOM      2  C3  UNL d   1      -1.713   0.145   0.219  0.00  0.00     0.004 A 
ATOM      3  C4  UNL d   1      -2.117   1.479   0.266  0.00  0.00    -0.003 A 
ATOM      4  C5  UNL d   1      -1.167   2.486   0.402  0.00  0.00     0.000 A 
ATOM      5  C6  UNL d   1       0.186   2.159   0.474  0.00  0.00     0.000 A 
ATOM      6  C7  UNL d   1       0.611   0.821   0.411  0.00  0.00    -0.073 A 
ATOM      7  C8  UNL d   1       2.084   0.526   0.498  0.00  0.00     0.078 C 
ENDROOT
BRANCH   1   8
ATOM      8  C1  UNL d   1       0.021  -1.667   0.277  0.00  0.00     0.053 C 
ATOM      9  C   UNL d   1      -0.321  -2.330  -1.049  0.00  0.00     0.018 C 
ENDBRANCH   1   8
TORSDOF 1
ENDMDL
