MODEL 1
REMARK minimizedAffinity -0.135602981
REMARK minimizedRMSD -1
REMARK  1 active torsions:
REMARK  status: ('A' for Active; 'I' for Inactive)
REMARK    1  A    between atoms: C1_2  and  C2_3 
ROOT
ATOM      1  C2  UNL d   1      -0.163  -0.203   0.435  0.00  0.00    -0.076 A 
ATOM      2  C3  UNL d   1      -1.468   0.305   0.561  0.00  0.00     0.004 A 
ATOM      3  C4  UNL d   1      -1.696   1.673   0.702  0.00  0.00    -0.003 A 
ATOM      4  C5  UNL d   1      -0.622   2.556   0.717  0.00  0.00     0.000 A 
ATOM      5  C6  UNL d   1       0.678   2.072   0.576  0.00  0.00     0.000 A 
ATOM      6  C7  UNL d   1       0.924   0.697   0.417  0.00  0.00    -0.073 A 
ATOM      7  C8  UNL d   1       2.347   0.229   0.275  0.00  0.00     0.078 C 
ENDROOT
BRANCH   1   8
ATOM      8  C1  UNL d   1       0.024  -1.698   0.313  0.00  0.00     0.053 C 
ATOM      9  C   UNL d   1      -0.106  -2.187  -1.121  0.00  0.00     0.018 C 
ENDBRANCH   1   8
TORSDOF 1
ENDMDL
