MODEL 1
REMARK minimizedAffinity -2.85586643
REMARK minimizedRMSD -1
REMARK  1 active torsions:
REMARK  status: ('A' for Active; 'I' for Inactive)
REMARK    1  A    between atoms: C1_2  and  C2_3 
ROOT
ATOM      1  C2  UNL d   1       0.760   0.378   0.164  0.00  0.00    -0.076 A 
ATOM      2  C3  UNL d   1       2.120   0.493   0.501  0.00  0.00     0.004 A 
ATOM      3  C4  UNL d   1       2.603   1.622   1.160  0.00  0.00    -0.003 A 
ATOM      4  C5  UNL d   1       1.734   2.655   1.493  0.00  0.00     0.000 A 
ATOM      5  C6  UNL d   1       0.379   2.550   1.182  0.00  0.00     0.000 A 
ATOM      6  C7  UNL d   1      -0.127   1.412   0.532  0.00  0.00    -0.073 A 
ATOM      7  C8  UNL d   1      -1.597   1.355   0.215  0.00  0.00     0.078 C 
ENDROOT
BRANCH   1   8
ATOM      8  C1  UNL d   1       0.299  -0.858  -0.575  0.00  0.00     0.053 C 
ATOM      9  C   UNL d   1       0.091  -2.046   0.350  0.00  0.00     0.018 C 
ENDBRANCH   1   8
TORSDOF 1
ENDMDL
