MODEL 1
REMARK minimizedAffinity -5.87705183
REMARK minimizedRMSD -1
REMARK  1 active torsions:
REMARK  status: ('A' for Active; 'I' for Inactive)
REMARK    1  A    between atoms: C1_2  and  C2_3 
ROOT
ATOM      1  C2  UNL d   1       1.608   0.621   0.272  0.00  0.00    -0.076 A 
ATOM      2  C3  UNL d   1       1.619  -0.783   0.214  0.00  0.00     0.004 A 
ATOM      3  C4  UNL d   1       0.435  -1.505   0.071  0.00  0.00    -0.003 A 
ATOM      4  C5  UNL d   1      -0.780  -0.833  -0.017  0.00  0.00     0.000 A 
ATOM      5  C6  UNL d   1      -0.808   0.561   0.021  0.00  0.00     0.000 A 
ATOM      6  C7  UNL d   1       0.379   1.304   0.149  0.00  0.00    -0.073 A 
ATOM      7  C8  UNL d   1       0.290   2.805   0.191  0.00  0.00     0.078 C 
ENDROOT
BRANCH   1   8
ATOM      8  C1  UNL d   1       2.921   1.348   0.455  0.00  0.00     0.053 C 
ATOM      9  C   UNL d   1       2.899   2.299   1.642  0.00  0.00     0.018 C 
ENDBRANCH   1   8
TORSDOF 1
ENDMDL
