MODEL 1
REMARK minimizedAffinity 0.887977123
REMARK minimizedRMSD -1
REMARK  1 active torsions:
REMARK  status: ('A' for Active; 'I' for Inactive)
REMARK    1  A    between atoms: C1_2  and  C2_3 
ROOT
ATOM      1  C2  UNL d   1      -0.357  -0.448  -0.046  0.00  0.00    -0.076 A 
ATOM      2  C3  UNL d   1      -1.659   0.075  -0.121  0.00  0.00     0.004 A 
ATOM      3  C4  UNL d   1      -1.915   1.410   0.185  0.00  0.00    -0.003 A 
ATOM      4  C5  UNL d   1      -0.872   2.245   0.572  0.00  0.00     0.000 A 
ATOM      5  C6  UNL d   1       0.429   1.747   0.635  0.00  0.00     0.000 A 
ATOM      6  C7  UNL d   1       0.707   0.408   0.313  0.00  0.00    -0.073 A 
ATOM      7  C8  UNL d   1       2.128  -0.077   0.405  0.00  0.00     0.078 C 
ENDROOT
BRANCH   1   8
ATOM      8  C1  UNL d   1      -0.144  -1.911  -0.363  0.00  0.00     0.053 C 
ATOM      9  C   UNL d   1      -0.478  -2.248  -1.808  0.00  0.00     0.018 C 
ENDBRANCH   1   8
TORSDOF 1
ENDMDL
