MODEL 1
REMARK minimizedAffinity -3.72101808
REMARK minimizedRMSD -1
REMARK  1 active torsions:
REMARK  status: ('A' for Active; 'I' for Inactive)
REMARK    1  A    between atoms: C1_2  and  C2_3 
ROOT
ATOM      1  C2  UNL d   1      -0.516  -0.902  -0.817  0.00  0.00    -0.076 A 
ATOM      2  C3  UNL d   1      -1.173  -1.138  -2.037  0.00  0.00     0.004 A 
ATOM      3  C4  UNL d   1      -0.838  -2.233  -2.831  0.00  0.00    -0.003 A 
ATOM      4  C5  UNL d   1       0.158  -3.110  -2.419  0.00  0.00     0.000 A 
ATOM      5  C6  UNL d   1       0.808  -2.902  -1.203  0.00  0.00     0.000 A 
ATOM      6  C7  UNL d   1       0.472  -1.812  -0.382  0.00  0.00    -0.073 A 
ATOM      7  C8  UNL d   1       1.209  -1.631   0.917  0.00  0.00     0.078 C 
ENDROOT
BRANCH   1   8
ATOM      8  C1  UNL d   1      -0.902   0.317  -0.010  0.00  0.00     0.053 C 
ATOM      9  C   UNL d   1      -2.067   0.049   0.931  0.00  0.00     0.018 C 
ENDBRANCH   1   8
TORSDOF 1
ENDMDL
