MODEL 1
REMARK minimizedAffinity -3.11097097
REMARK minimizedRMSD -1
REMARK  1 active torsions:
REMARK  status: ('A' for Active; 'I' for Inactive)
REMARK    1  A    between atoms: C1_2  and  C2_3 
ROOT
ATOM      1  C2  UNL d   1      -0.375  -1.533  -0.199  0.00  0.00    -0.076 A 
ATOM      2  C3  UNL d   1      -1.318  -1.756  -1.218  0.00  0.00     0.004 A 
ATOM      3  C4  UNL d   1      -1.278  -2.914  -1.992  0.00  0.00    -0.003 A 
ATOM      4  C5  UNL d   1      -0.294  -3.869  -1.760  0.00  0.00     0.000 A 
ATOM      5  C6  UNL d   1       0.639  -3.672  -0.742  0.00  0.00     0.000 A 
ATOM      6  C7  UNL d   1       0.602  -2.517   0.058  0.00  0.00    -0.073 A 
ATOM      7  C8  UNL d   1       1.637  -2.354   1.138  0.00  0.00     0.078 C 
ENDROOT
BRANCH   1   8
ATOM      8  C1  UNL d   1      -0.453  -0.245   0.590  0.00  0.00     0.053 C 
ATOM      9  C   UNL d   1      -1.513   0.704   0.054  0.00  0.00     0.018 C 
ENDBRANCH   1   8
TORSDOF 1
ENDMDL
