MODEL 1
REMARK minimizedAffinity -2.06122994
REMARK minimizedRMSD -1
REMARK  0 active torsions:
REMARK  status: ('A' for Active; 'I' for Inactive)
ROOT
ATOM      1  C   UNL d   1      -1.286   0.139   2.182  0.00  0.00     0.172 C 
ATOM      2  N   UNL d   1      -0.503  -0.316   1.058  0.00  0.00    -0.070 N 
ATOM      3  C1  UNL d   1       0.833  -0.617   1.085  0.00  0.00    -0.004 A 
ATOM      4  C2  UNL d   1       1.202  -1.012  -0.183  0.00  0.00    -0.047 A 
ATOM      5  C3  UNL d   1       0.049  -0.944  -1.000  0.00  0.00    -0.047 A 
ATOM      6  C4  UNL d   1      -0.992  -0.510  -0.207  0.00  0.00    -0.004 A 
ENDROOT
TORSDOF 0
ENDMDL
