MODEL 1
REMARK minimizedAffinity 6.88726377
REMARK minimizedRMSD -1
REMARK  0 active torsions:
REMARK  status: ('A' for Active; 'I' for Inactive)
ROOT
ATOM      1  C   UNL d   1      -2.315  -0.333  -0.335  0.00  0.00     0.172 C 
ATOM      2  N   UNL d   1      -1.349  -0.007   0.687  0.00  0.00    -0.070 N 
ATOM      3  C1  UNL d   1       0.008  -0.158   0.580  0.00  0.00    -0.004 A 
ATOM      4  C2  UNL d   1       0.574   0.265   1.763  0.00  0.00    -0.047 A 
ATOM      5  C3  UNL d   1      -0.478   0.684   2.611  0.00  0.00    -0.047 A 
ATOM      6  C4  UNL d   1      -1.658   0.505   1.920  0.00  0.00    -0.004 A 
ENDROOT
TORSDOF 0
ENDMDL
