MODEL 1
REMARK minimizedAffinity 1.14083946
REMARK minimizedRMSD -1
REMARK  0 active torsions:
REMARK  status: ('A' for Active; 'I' for Inactive)
ROOT
ATOM      1  C   UNL d   1      -0.848   1.284   2.961  0.00  0.00     0.172 C 
ATOM      2  N   UNL d   1      -0.407   0.446   1.871  0.00  0.00    -0.070 N 
ATOM      3  C1  UNL d   1      -1.072   0.259   0.689  0.00  0.00    -0.004 A 
ATOM      4  C2  UNL d   1      -0.327  -0.607  -0.082  0.00  0.00    -0.047 A 
ATOM      5  C3  UNL d   1       0.825  -0.954   0.663  0.00  0.00    -0.047 A 
ATOM      6  C4  UNL d   1       0.750  -0.288   1.868  0.00  0.00    -0.004 A 
ENDROOT
TORSDOF 0
ENDMDL
