MODEL 1
REMARK minimizedAffinity 5.12207222
REMARK minimizedRMSD -1
REMARK  0 active torsions:
REMARK  status: ('A' for Active; 'I' for Inactive)
ROOT
ATOM      1  C   UNL d   1       5.795   1.965   3.092  0.00  0.00     0.172 C 
ATOM      2  N   UNL d   1       5.199   2.022   1.778  0.00  0.00    -0.070 N 
ATOM      3  C1  UNL d   1       3.894   1.733   1.481  0.00  0.00    -0.004 A 
ATOM      4  C2  UNL d   1       3.722   1.907   0.125  0.00  0.00    -0.047 A 
ATOM      5  C3  UNL d   1       4.967   2.314  -0.412  0.00  0.00    -0.047 A 
ATOM      6  C4  UNL d   1       5.863   2.377   0.634  0.00  0.00    -0.004 A 
ENDROOT
TORSDOF 0
ENDMDL
