MODEL 1
REMARK minimizedAffinity 4.07573843
REMARK minimizedRMSD -1
REMARK  0 active torsions:
REMARK  status: ('A' for Active; 'I' for Inactive)
ROOT
ATOM      1  C   UNL d   1       4.056   2.131  -0.152  0.00  0.00     0.172 C 
ATOM      2  N   UNL d   1       3.054   1.150   0.193  0.00  0.00    -0.070 N 
ATOM      3  C1  UNL d   1       2.297   0.436  -0.697  0.00  0.00    -0.004 A 
ATOM      4  C2  UNL d   1       1.464  -0.391   0.025  0.00  0.00    -0.047 A 
ATOM      5  C3  UNL d   1       1.729  -0.165   1.397  0.00  0.00    -0.047 A 
ATOM      6  C4  UNL d   1       2.717   0.793   1.472  0.00  0.00    -0.004 A 
ENDROOT
TORSDOF 0
ENDMDL
