MODEL 1
REMARK minimizedAffinity 1.78021026
REMARK minimizedRMSD -1
REMARK  0 active torsions:
REMARK  status: ('A' for Active; 'I' for Inactive)
ROOT
ATOM      1  C   UNL d   1      -3.048   5.999  -0.781  0.00  0.00     0.172 C 
ATOM      2  N   UNL d   1      -1.722   5.984  -0.209  0.00  0.00    -0.070 N 
ATOM      3  C1  UNL d   1      -1.430   5.955   1.129  0.00  0.00    -0.004 A 
ATOM      4  C2  UNL d   1      -0.059   5.948   1.261  0.00  0.00    -0.047 A 
ATOM      5  C3  UNL d   1       0.493   5.975  -0.042  0.00  0.00    -0.047 A 
ATOM      6  C4  UNL d   1      -0.559   5.997  -0.932  0.00  0.00    -0.004 A 
ENDROOT
TORSDOF 0
ENDMDL
