MODEL 1
REMARK minimizedAffinity 0.912693441
REMARK minimizedRMSD -1
REMARK  0 active torsions:
REMARK  status: ('A' for Active; 'I' for Inactive)
ROOT
ATOM      1  C   UNL d   1      -1.112  -1.849  -6.000  0.00  0.00     0.172 C 
ATOM      2  N   UNL d   1      -0.334  -0.922  -5.212  0.00  0.00    -0.070 N 
ATOM      3  C1  UNL d   1       0.928  -0.483  -5.511  0.00  0.00    -0.004 A 
ATOM      4  C2  UNL d   1       1.319   0.388  -4.517  0.00  0.00    -0.047 A 
ATOM      5  C3  UNL d   1       0.255   0.474  -3.588  0.00  0.00    -0.047 A 
ATOM      6  C4  UNL d   1      -0.756  -0.346  -4.042  0.00  0.00    -0.004 A 
ENDROOT
TORSDOF 0
ENDMDL
