MODEL 1
REMARK minimizedAffinity 3.13779974
REMARK minimizedRMSD -1
REMARK  0 active torsions:
REMARK  status: ('A' for Active; 'I' for Inactive)
ROOT
ATOM      1  C   UNL d   1       1.644  -0.314   1.027  0.00  0.00     0.172 C 
ATOM      2  N   UNL d   1       0.293  -0.423   0.530  0.00  0.00    -0.070 N 
ATOM      3  C1  UNL d   1      -0.800   0.225   1.041  0.00  0.00    -0.004 A 
ATOM      4  C2  UNL d   1      -1.897  -0.143   0.291  0.00  0.00    -0.047 A 
ATOM      5  C3  UNL d   1      -1.448  -1.044  -0.704  0.00  0.00    -0.047 A 
ATOM      6  C4  UNL d   1      -0.088  -1.199  -0.533  0.00  0.00    -0.004 A 
ENDROOT
TORSDOF 0
ENDMDL
