MODEL 1
REMARK minimizedAffinity -3.73222208
REMARK minimizedRMSD -1
REMARK  0 active torsions:
REMARK  status: ('A' for Active; 'I' for Inactive)
ROOT
ATOM      1  C1  BNZ d   1       0.365  -2.756   0.146  0.00  0.00     0.000 A 
ATOM      2  C2  BNZ d   1      -0.310  -1.768  -0.520  0.00  0.00     0.000 A 
ATOM      3  C3  BNZ d   1       0.194  -0.499  -0.586  0.00  0.00     0.000 A 
ATOM      4  C4  BNZ d   1       1.350  -0.210   0.046  0.00  0.00     0.000 A 
ATOM      5  C5  BNZ d   1       2.038  -1.193   0.728  0.00  0.00     0.000 A 
ATOM      6  C6  BNZ d   1       1.547  -2.479   0.760  0.00  0.00     0.000 A 
ENDROOT
TORSDOF 0
ENDMDL
