MODEL 1
REMARK minimizedAffinity -3.95740509
REMARK minimizedRMSD -1
REMARK  0 active torsions:
REMARK  status: ('A' for Active; 'I' for Inactive)
ROOT
ATOM      1  C1  BNZ d   1      -0.455  -1.255  -0.095  0.00  0.00     0.000 A 
ATOM      2  C2  BNZ d   1       0.175  -2.251   0.602  0.00  0.00     0.000 A 
ATOM      3  C3  BNZ d   1       1.482  -2.123   0.979  0.00  0.00     0.000 A 
ATOM      4  C4  BNZ d   1       2.169  -1.017   0.625  0.00  0.00     0.000 A 
ATOM      5  C5  BNZ d   1       1.551  -0.009  -0.087  0.00  0.00     0.000 A 
ATOM      6  C6  BNZ d   1       0.223  -0.124  -0.431  0.00  0.00     0.000 A 
ENDROOT
TORSDOF 0
ENDMDL
