MODEL 1
REMARK minimizedAffinity -4.16489029
REMARK minimizedRMSD -1
REMARK  0 active torsions:
REMARK  status: ('A' for Active; 'I' for Inactive)
ROOT
ATOM      1  C1  BNZ d   1       0.031   0.115   0.383  0.00  0.00     0.000 A 
ATOM      2  C2  BNZ d   1       0.039  -0.959   1.232  0.00  0.00     0.000 A 
ATOM      3  C3  BNZ d   1       0.995  -1.930   1.125  0.00  0.00     0.000 A 
ATOM      4  C4  BNZ d   1       1.917  -1.846   0.144  0.00  0.00     0.000 A 
ATOM      5  C5  BNZ d   1       1.917  -0.774  -0.726  0.00  0.00     0.000 A 
ATOM      6  C6  BNZ d   1       0.977   0.222  -0.590  0.00  0.00     0.000 A 
ENDROOT
TORSDOF 0
ENDMDL
