MODEL 1
REMARK minimizedAffinity -5.03356981
REMARK minimizedRMSD -1
REMARK  0 active torsions:
REMARK  status: ('A' for Active; 'I' for Inactive)
ROOT
ATOM      1  C1  BNZ d   1       1.201  -0.507   0.211  0.00  0.00     0.000 A 
ATOM      2  C2  BNZ d   1       1.873  -1.521   0.841  0.00  0.00     0.000 A 
ATOM      3  C3  BNZ d   1       1.236  -2.329   1.741  0.00  0.00     0.000 A 
ATOM      4  C4  BNZ d   1      -0.059  -2.098   2.039  0.00  0.00     0.000 A 
ATOM      5  C5  BNZ d   1      -0.747  -1.074   1.420  0.00  0.00     0.000 A 
ATOM      6  C6  BNZ d   1      -0.114  -0.287   0.485  0.00  0.00     0.000 A 
ENDROOT
TORSDOF 0
ENDMDL
