MODEL 1
REMARK minimizedAffinity -2.3962028
REMARK minimizedRMSD -1
REMARK  0 active torsions:
REMARK  status: ('A' for Active; 'I' for Inactive)
ROOT
ATOM      1  C1  BNZ d   1      -0.523  -1.117   0.569  0.00  0.00     0.000 A 
ATOM      2  C2  BNZ d   1       0.777  -1.499   0.375  0.00  0.00     0.000 A 
ATOM      3  C3  BNZ d   1       1.739  -0.578   0.069  0.00  0.00     0.000 A 
ATOM      4  C4  BNZ d   1       1.393   0.717  -0.082  0.00  0.00     0.000 A 
ATOM      5  C5  BNZ d   1       0.084   1.117   0.102  0.00  0.00     0.000 A 
ATOM      6  C6  BNZ d   1      -0.874   0.192   0.448  0.00  0.00     0.000 A 
ENDROOT
TORSDOF 0
ENDMDL
