MODEL 1
REMARK minimizedAffinity -5.28475809
REMARK minimizedRMSD -1
REMARK  0 active torsions:
REMARK  status: ('A' for Active; 'I' for Inactive)
ROOT
ATOM      1  C1  BNZ d   1      -0.721  -1.017   1.688  0.00  0.00     0.000 A 
ATOM      2  C2  BNZ d   1      -0.219  -1.873   2.632  0.00  0.00     0.000 A 
ATOM      3  C3  BNZ d   1       0.939  -2.563   2.406  0.00  0.00     0.000 A 
ATOM      4  C4  BNZ d   1       1.572  -2.427   1.223  0.00  0.00     0.000 A 
ATOM      5  C5  BNZ d   1       1.074  -1.575   0.257  0.00  0.00     0.000 A 
ATOM      6  C6  BNZ d   1      -0.071  -0.853   0.503  0.00  0.00     0.000 A 
ENDROOT
TORSDOF 0
ENDMDL
