MODEL 1
REMARK minimizedAffinity -4.55659485
REMARK minimizedRMSD -1
REMARK  0 active torsions:
REMARK  status: ('A' for Active; 'I' for Inactive)
ROOT
ATOM      1  C1  BNZ d   1      -0.599   0.046   0.024  0.00  0.00     0.000 A 
ATOM      2  C2  BNZ d   1      -0.519  -1.195   0.597  0.00  0.00     0.000 A 
ATOM      3  C3  BNZ d   1       0.628  -1.933   0.509  0.00  0.00     0.000 A 
ATOM      4  C4  BNZ d   1       1.677  -1.448  -0.184  0.00  0.00     0.000 A 
ATOM      5  C5  BNZ d   1       1.609  -0.202  -0.775  0.00  0.00     0.000 A 
ATOM      6  C6  BNZ d   1       0.467   0.555  -0.652  0.00  0.00     0.000 A 
ENDROOT
TORSDOF 0
ENDMDL
