MODEL 1
REMARK minimizedAffinity -1.15997696
REMARK minimizedRMSD -1
REMARK  0 active torsions:
REMARK  status: ('A' for Active; 'I' for Inactive)
ROOT
ATOM      1  C1  BNZ d   1       0.498  -1.246   1.233  0.00  0.00     0.000 A 
ATOM      2  C2  BNZ d   1      -0.595  -0.422   1.188  0.00  0.00     0.000 A 
ATOM      3  C3  BNZ d   1      -0.613   0.674   0.372  0.00  0.00     0.000 A 
ATOM      4  C4  BNZ d   1       0.476   0.968  -0.367  0.00  0.00     0.000 A 
ATOM      5  C5  BNZ d   1       1.589   0.153  -0.326  0.00  0.00     0.000 A 
ATOM      6  C6  BNZ d   1       1.589  -0.972   0.467  0.00  0.00     0.000 A 
ENDROOT
TORSDOF 0
ENDMDL
