MODEL 1
REMARK minimizedAffinity -3.81619668
REMARK minimizedRMSD -1
REMARK  0 active torsions:
REMARK  status: ('A' for Active; 'I' for Inactive)
ROOT
ATOM      1  C1  BNZ d   1      -0.402  -0.383   1.099  0.00  0.00     0.000 A 
ATOM      2  C2  BNZ d   1      -0.884  -0.934   2.256  0.00  0.00     0.000 A 
ATOM      3  C3  BNZ d   1      -0.204  -1.937   2.890  0.00  0.00     0.000 A 
ATOM      4  C4  BNZ d   1       0.933  -2.414   2.344  0.00  0.00     0.000 A 
ATOM      5  C5  BNZ d   1       1.427  -1.876   1.173  0.00  0.00     0.000 A 
ATOM      6  C6  BNZ d   1       0.760  -0.840   0.559  0.00  0.00     0.000 A 
ENDROOT
TORSDOF 0
ENDMDL
