MODEL 1
REMARK minimizedAffinity -3.62058878
REMARK minimizedRMSD -1
REMARK  0 active torsions:
REMARK  status: ('A' for Active; 'I' for Inactive)
ROOT
ATOM      1  C1  BNZ d   1       1.863  -1.881   0.957  0.00  0.00     0.000 A 
ATOM      2  C2  BNZ d   1       2.122  -0.982  -0.043  0.00  0.00     0.000 A 
ATOM      3  C3  BNZ d   1       1.195  -0.041  -0.394  0.00  0.00     0.000 A 
ATOM      4  C4  BNZ d   1      -0.003  -0.026   0.225  0.00  0.00     0.000 A 
ATOM      5  C5  BNZ d   1      -0.282  -0.932   1.228  0.00  0.00     0.000 A 
ATOM      6  C6  BNZ d   1       0.668  -1.853   1.607  0.00  0.00     0.000 A 
ENDROOT
TORSDOF 0
ENDMDL
