MODEL 1
REMARK minimizedAffinity -4.86770248
REMARK minimizedRMSD -1
REMARK  0 active torsions:
REMARK  status: ('A' for Active; 'I' for Inactive)
ROOT
ATOM      1  C1  BNZ d   1      -0.122  -0.951   0.747  0.00  0.00     0.000 A 
ATOM      2  C2  BNZ d   1      -0.410  -1.381   2.016  0.00  0.00     0.000 A 
ATOM      3  C3  BNZ d   1       0.320  -2.379   2.598  0.00  0.00     0.000 A 
ATOM      4  C4  BNZ d   1       1.308  -2.973   1.899  0.00  0.00     0.000 A 
ATOM      5  C5  BNZ d   1       1.604  -2.557   0.616  0.00  0.00     0.000 A 
ATOM      6  C6  BNZ d   1       0.893  -1.526   0.047  0.00  0.00     0.000 A 
ENDROOT
TORSDOF 0
ENDMDL
