MODEL 1
REMARK minimizedAffinity -3.82051134
REMARK minimizedRMSD -1
REMARK  0 active torsions:
REMARK  status: ('A' for Active; 'I' for Inactive)
ROOT
ATOM      1  C1  BNZ d   1       1.385  -2.979   1.909  0.00  0.00     0.000 A 
ATOM      2  C2  BNZ d   1       1.803  -2.420   0.731  0.00  0.00     0.000 A 
ATOM      3  C3  BNZ d   1       1.152  -1.343   0.197  0.00  0.00     0.000 A 
ATOM      4  C4  BNZ d   1       0.061  -0.853   0.820  0.00  0.00     0.000 A 
ATOM      5  C5  BNZ d   1      -0.378  -1.411   2.004  0.00  0.00     0.000 A 
ATOM      6  C6  BNZ d   1       0.303  -2.471   2.558  0.00  0.00     0.000 A 
ENDROOT
TORSDOF 0
ENDMDL
