MODEL 1
REMARK minimizedAffinity -4.8924408
REMARK minimizedRMSD -1
REMARK  0 active torsions:
REMARK  status: ('A' for Active; 'I' for Inactive)
ROOT
ATOM      1  C1  BNZ d   1       1.110  -2.730   1.809  0.00  0.00     0.000 A 
ATOM      2  C2  BNZ d   1       1.552  -2.311   0.583  0.00  0.00     0.000 A 
ATOM      3  C3  BNZ d   1       0.915  -1.300  -0.082  0.00  0.00     0.000 A 
ATOM      4  C4  BNZ d   1      -0.184  -0.739   0.460  0.00  0.00     0.000 A 
ATOM      5  C5  BNZ d   1      -0.648  -1.157   1.692  0.00  0.00     0.000 A 
ATOM      6  C6  BNZ d   1       0.019  -2.148   2.376  0.00  0.00     0.000 A 
ENDROOT
TORSDOF 0
ENDMDL
