MODEL 1
REMARK minimizedAffinity -4.4799304
REMARK minimizedRMSD -1
REMARK  0 active torsions:
REMARK  status: ('A' for Active; 'I' for Inactive)
ROOT
ATOM      1  C1  BNZ d   1       1.716  -0.320  -0.076  0.00  0.00     0.000 A 
ATOM      2  C2  BNZ d   1       2.197  -1.535   0.334  0.00  0.00     0.000 A 
ATOM      3  C3  BNZ d   1       1.348  -2.510   0.780  0.00  0.00     0.000 A 
ATOM      4  C4  BNZ d   1       0.026  -2.254   0.853  0.00  0.00     0.000 A 
ATOM      5  C5  BNZ d   1      -0.473  -1.031   0.452  0.00  0.00     0.000 A 
ATOM      6  C6  BNZ d   1       0.380  -0.066  -0.033  0.00  0.00     0.000 A 
ENDROOT
TORSDOF 0
ENDMDL
