MODEL 1
REMARK minimizedAffinity -3.44344544
REMARK minimizedRMSD -1
REMARK  0 active torsions:
REMARK  status: ('A' for Active; 'I' for Inactive)
ROOT
ATOM      1  C1  BNZ d   1      -0.249  -1.436   0.971  0.00  0.00     0.000 A 
ATOM      2  C2  BNZ d   1      -0.520  -0.162   0.547  0.00  0.00     0.000 A 
ATOM      3  C3  BNZ d   1       0.459   0.616  -0.005  0.00  0.00     0.000 A 
ATOM      4  C4  BNZ d   1       1.716   0.134  -0.095  0.00  0.00     0.000 A 
ATOM      5  C5  BNZ d   1       2.007  -1.145   0.337  0.00  0.00     0.000 A 
ATOM      6  C6  BNZ d   1       1.010  -1.939   0.855  0.00  0.00     0.000 A 
ENDROOT
TORSDOF 0
ENDMDL
