MODEL 1
REMARK minimizedAffinity 26.8998775
REMARK minimizedRMSD -1
REMARK  0 active torsions:
REMARK  status: ('A' for Active; 'I' for Inactive)
ROOT
ATOM      1  C   UNL d   1      -3.000   0.603  -2.407  0.00  0.00     0.124 A 
ATOM      2  C1  UNL d   1      -2.682   1.883  -2.838  0.00  0.00     0.062 A 
ATOM      3  C2  UNL d   1      -3.483   2.524  -3.780  0.00  0.00     0.162 A 
ATOM      4  C3  UNL d   1      -4.610   1.885  -4.296  0.00  0.00    -0.034 A 
ATOM      5  C4  UNL d   1      -4.923   0.597  -3.858  0.00  0.00     0.162 A 
ATOM      6  C5  UNL d   1      -4.120  -0.039  -2.917  0.00  0.00     0.062 A 
ATOM      7  F   UNL d   1      -4.429  -1.276  -2.501  0.00  0.00    -0.097 F 
ATOM      8  F1  UNL d   1      -6.000  -0.046  -4.334  0.00  0.00    -0.096 F 
ATOM      9  I   UNL d   1      -5.810   2.839  -5.704  0.00  0.00    -0.060 I 
ATOM     10  F2  UNL d   1      -3.151   3.761  -4.179  0.00  0.00    -0.096 F 
ATOM     11  F3  UNL d   1      -1.600   2.505  -2.348  0.00  0.00    -0.097 F 
ATOM     12  F4  UNL d   1      -2.228  -0.011  -1.501  0.00  0.00    -0.092 F 
ENDROOT
TORSDOF 0
ENDMDL
