MODEL 1
REMARK minimizedAffinity 24.586834
REMARK minimizedRMSD -1
REMARK  0 active torsions:
REMARK  status: ('A' for Active; 'I' for Inactive)
ROOT
ATOM      1  C   UNL d   1      -1.702   0.673  -2.924  0.00  0.00     0.124 A 
ATOM      2  C1  UNL d   1      -2.186   1.864  -2.402  0.00  0.00     0.062 A 
ATOM      3  C2  UNL d   1      -2.918   1.863  -1.218  0.00  0.00     0.162 A 
ATOM      4  C3  UNL d   1      -3.169   0.666  -0.547  0.00  0.00    -0.034 A 
ATOM      5  C4  UNL d   1      -2.679  -0.528  -1.078  0.00  0.00     0.162 A 
ATOM      6  C5  UNL d   1      -1.948  -0.522  -2.262  0.00  0.00     0.062 A 
ATOM      7  F   UNL d   1      -1.481  -1.674  -2.765  0.00  0.00    -0.097 F 
ATOM      8  F1  UNL d   1      -2.902  -1.696  -0.458  0.00  0.00    -0.096 F 
ATOM      9  I   UNL d   1      -4.262   0.661   1.224  0.00  0.00    -0.060 I 
ATOM     10  F2  UNL d   1      -3.374   3.029  -0.737  0.00  0.00    -0.096 F 
ATOM     11  F3  UNL d   1      -1.950   3.019  -3.040  0.00  0.00    -0.097 F 
ATOM     12  F4  UNL d   1      -0.999   0.676  -4.064  0.00  0.00    -0.092 F 
ENDROOT
TORSDOF 0
ENDMDL
