MODEL 1
REMARK minimizedAffinity 15.4615984
REMARK minimizedRMSD -1
REMARK  0 active torsions:
REMARK  status: ('A' for Active; 'I' for Inactive)
ROOT
ATOM      1  C   UNL d   1       2.199  -3.702  -0.011  0.00  0.00     0.124 A 
ATOM      2  C1  UNL d   1       2.079  -2.405   0.469  0.00  0.00     0.062 A 
ATOM      3  C2  UNL d   1       3.136  -1.509   0.337  0.00  0.00     0.162 A 
ATOM      4  C3  UNL d   1       4.323  -1.907  -0.278  0.00  0.00    -0.034 A 
ATOM      5  C4  UNL d   1       4.437  -3.214  -0.756  0.00  0.00     0.162 A 
ATOM      6  C5  UNL d   1       3.377  -4.105  -0.622  0.00  0.00     0.062 A 
ATOM      7  F   UNL d   1       3.495  -5.358  -1.086  0.00  0.00    -0.097 F 
ATOM      8  F1  UNL d   1       5.564  -3.630  -1.353  0.00  0.00    -0.096 F 
ATOM      9  I   UNL d   1       5.907  -0.571  -0.477  0.00  0.00    -0.060 I 
ATOM     10  F2  UNL d   1       2.992  -0.262   0.809  0.00  0.00    -0.096 F 
ATOM     11  F3  UNL d   1       0.942  -2.013   1.061  0.00  0.00    -0.097 F 
ATOM     12  F4  UNL d   1       1.180  -4.562   0.118  0.00  0.00    -0.092 F 
ENDROOT
TORSDOF 0
ENDMDL
