MODEL 1
REMARK minimizedAffinity 22.3692989
REMARK minimizedRMSD -1
REMARK  0 active torsions:
REMARK  status: ('A' for Active; 'I' for Inactive)
ROOT
ATOM      1  C   UNL d   1      -1.425   1.558  -2.509  0.00  0.00     0.124 A 
ATOM      2  C1  UNL d   1      -1.910   0.396  -1.927  0.00  0.00     0.062 A 
ATOM      3  C2  UNL d   1      -3.202  -0.041  -2.208  0.00  0.00     0.162 A 
ATOM      4  C3  UNL d   1      -4.017   0.686  -3.076  0.00  0.00    -0.034 A 
ATOM      5  C4  UNL d   1      -3.522   1.855  -3.656  0.00  0.00     0.162 A 
ATOM      6  C5  UNL d   1      -2.230   2.287  -3.373  0.00  0.00     0.062 A 
ATOM      7  F   UNL d   1      -1.762   3.410  -3.936  0.00  0.00    -0.097 F 
ATOM      8  F1  UNL d   1      -4.279   2.577  -4.496  0.00  0.00    -0.096 F 
ATOM      9  I   UNL d   1      -5.949   0.037  -3.498  0.00  0.00    -0.060 I 
ATOM     10  F2  UNL d   1      -3.645  -1.168  -1.631  0.00  0.00    -0.096 F 
ATOM     11  F3  UNL d   1      -1.134  -0.309  -1.091  0.00  0.00    -0.097 F 
ATOM     12  F4  UNL d   1      -0.182   1.976  -2.236  0.00  0.00    -0.092 F 
ENDROOT
TORSDOF 0
ENDMDL
