MODEL 1
REMARK minimizedAffinity 9.83587265
REMARK minimizedRMSD -1
REMARK  0 active torsions:
REMARK  status: ('A' for Active; 'I' for Inactive)
ROOT
ATOM      1  O1  BZF d   1      -2.763  -2.904  -2.769  0.00  0.00    -0.204 OA
ATOM      2  C2  BZF d   1      -4.089  -3.117  -3.094  0.00  0.00     0.174 A 
ATOM      3  C3  BZF d   1      -4.688  -1.961  -3.447  0.00  0.00    -0.012 A 
ATOM      4  C3A BZF d   1      -3.649  -0.978  -3.425  0.00  0.00    -0.107 A 
ATOM      5  C4  BZF d   1      -3.616   0.360  -3.699  0.00  0.00     0.055 A 
ATOM      6  C5  BZF d   1      -2.457   1.044  -3.510  0.00  0.00    -0.016 A 
ATOM      7  C6  BZF d   1      -1.316   0.425  -3.046  0.00  0.00     0.022 A 
ATOM      8  C7  BZF d   1      -1.298  -0.901  -2.765  0.00  0.00     0.029 A 
ATOM      9  C7A BZF d   1      -2.458  -1.602  -2.986  0.00  0.00     0.058 A 
ENDROOT
TORSDOF 0
ENDMDL
