MODEL 1
REMARK minimizedAffinity 6.27669334
REMARK minimizedRMSD -1
REMARK  0 active torsions:
REMARK  status: ('A' for Active; 'I' for Inactive)
ROOT
ATOM      1  O1  BZF d   1      -2.268   1.022  -0.183  0.00  0.00    -0.204 OA
ATOM      2  C2  BZF d   1      -1.921  -0.010   0.668  0.00  0.00     0.174 A 
ATOM      3  C3  BZF d   1      -1.855  -1.179   0.000  0.00  0.00    -0.012 A 
ATOM      4  C3A BZF d   1      -2.090  -0.843  -1.371  0.00  0.00    -0.107 A 
ATOM      5  C4  BZF d   1      -2.135  -1.576  -2.522  0.00  0.00     0.055 A 
ATOM      6  C5  BZF d   1      -2.462  -0.956  -3.687  0.00  0.00    -0.016 A 
ATOM      7  C6  BZF d   1      -2.753   0.391  -3.736  0.00  0.00     0.022 A 
ATOM      8  C7  BZF d   1      -2.717   1.160  -2.620  0.00  0.00     0.029 A 
ATOM      9  C7A BZF d   1      -2.355   0.543  -1.447  0.00  0.00     0.058 A 
ENDROOT
TORSDOF 0
ENDMDL
