MODEL 1
REMARK minimizedAffinity 13.1683474
REMARK minimizedRMSD -1
REMARK  0 active torsions:
REMARK  status: ('A' for Active; 'I' for Inactive)
ROOT
ATOM      1  O1  BZF d   1      -1.601  -1.466   0.093  0.00  0.00    -0.204 OA
ATOM      2  C2  BZF d   1      -1.543  -0.587   1.157  0.00  0.00     0.174 A 
ATOM      3  C3  BZF d   1      -1.777   0.676   0.747  0.00  0.00    -0.012 A 
ATOM      4  C3A BZF d   1      -2.086   0.568  -0.646  0.00  0.00    -0.107 A 
ATOM      5  C4  BZF d   1      -2.423   1.479  -1.606  0.00  0.00     0.055 A 
ATOM      6  C5  BZF d   1      -2.590   1.057  -2.887  0.00  0.00    -0.016 A 
ATOM      7  C6  BZF d   1      -2.423  -0.265  -3.244  0.00  0.00     0.022 A 
ATOM      8  C7  BZF d   1      -2.094  -1.206  -2.325  0.00  0.00     0.029 A 
ATOM      9  C7A BZF d   1      -1.957  -0.788  -1.024  0.00  0.00     0.058 A 
ENDROOT
TORSDOF 0
ENDMDL
