MODEL 1
REMARK minimizedAffinity 17.1800213
REMARK minimizedRMSD -1
REMARK  0 active torsions:
REMARK  status: ('A' for Active; 'I' for Inactive)
ROOT
ATOM      1  O1  BZF d   1       2.949  -4.509  -3.816  0.00  0.00    -0.204 OA
ATOM      2  C2  BZF d   1       3.045  -5.309  -4.938  0.00  0.00     0.174 A 
ATOM      3  C3  BZF d   1       3.546  -4.614  -5.980  0.00  0.00    -0.012 A 
ATOM      4  C3A BZF d   1       3.864  -3.323  -5.452  0.00  0.00    -0.107 A 
ATOM      5  C4  BZF d   1       4.408  -2.195  -5.996  0.00  0.00     0.055 A 
ATOM      6  C5  BZF d   1       4.519  -1.079  -5.229  0.00  0.00    -0.016 A 
ATOM      7  C6  BZF d   1       4.091  -1.054  -3.918  0.00  0.00     0.022 A 
ATOM      8  C7  BZF d   1       3.550  -2.150  -3.333  0.00  0.00     0.029 A 
ATOM      9  C7A BZF d   1       3.467  -3.289  -4.096  0.00  0.00     0.058 A 
ENDROOT
TORSDOF 0
ENDMDL
