MODEL 1
REMARK minimizedAffinity 6.85377502
REMARK minimizedRMSD -1
REMARK  0 active torsions:
REMARK  status: ('A' for Active; 'I' for Inactive)
ROOT
ATOM      1  O1  BZF d   1      -3.415   2.669  -4.177  0.00  0.00    -0.204 OA
ATOM      2  C2  BZF d   1      -3.825   3.645  -3.289  0.00  0.00     0.174 A 
ATOM      3  C3  BZF d   1      -3.699   3.217  -2.017  0.00  0.00    -0.012 A 
ATOM      4  C3A BZF d   1      -3.091   1.925  -2.113  0.00  0.00    -0.107 A 
ATOM      5  C4  BZF d   1      -2.697   1.002  -1.187  0.00  0.00     0.055 A 
ATOM      6  C5  BZF d   1      -2.204  -0.191  -1.612  0.00  0.00    -0.016 A 
ATOM      7  C6  BZF d   1      -2.096  -0.495  -2.953  0.00  0.00     0.022 A 
ATOM      8  C7  BZF d   1      -2.469   0.391  -3.909  0.00  0.00     0.029 A 
ATOM      9  C7A BZF d   1      -2.937   1.610  -3.482  0.00  0.00     0.058 A 
ENDROOT
TORSDOF 0
ENDMDL
