MODEL 1
REMARK minimizedAffinity 12.102725
REMARK minimizedRMSD -1
REMARK  0 active torsions:
REMARK  status: ('A' for Active; 'I' for Inactive)
ROOT
ATOM      1  O1  BZF d   1       0.317  -3.589   3.474  0.00  0.00    -0.204 OA
ATOM      2  C2  BZF d   1      -0.077  -3.069   2.256  0.00  0.00     0.174 A 
ATOM      3  C3  BZF d   1       0.265  -1.768   2.159  0.00  0.00    -0.012 A 
ATOM      4  C3A BZF d   1       0.995  -1.480   3.356  0.00  0.00    -0.107 A 
ATOM      5  C4  BZF d   1       1.609  -0.358   3.834  0.00  0.00     0.055 A 
ATOM      6  C5  BZF d   1       2.171  -0.389   5.071  0.00  0.00    -0.016 A 
ATOM      7  C6  BZF d   1       2.132  -1.522   5.858  0.00  0.00     0.022 A 
ATOM      8  C7  BZF d   1       1.539  -2.661   5.424  0.00  0.00     0.029 A 
ATOM      9  C7A BZF d   1       0.999  -2.642   4.161  0.00  0.00     0.058 A 
ENDROOT
TORSDOF 0
ENDMDL
