MODEL 1
REMARK minimizedAffinity 6.60931873
REMARK minimizedRMSD -1
REMARK  0 active torsions:
REMARK  status: ('A' for Active; 'I' for Inactive)
ROOT
ATOM      1  O1  BZF d   1      -2.823   1.890  -4.025  0.00  0.00    -0.204 OA
ATOM      2  C2  BZF d   1      -3.171   2.466  -2.818  0.00  0.00     0.174 A 
ATOM      3  C3  BZF d   1      -2.809   1.674  -1.788  0.00  0.00    -0.012 A 
ATOM      4  C3A BZF d   1      -2.114   0.575  -2.384  0.00  0.00    -0.107 A 
ATOM      5  C4  BZF d   1      -1.501  -0.535  -1.876  0.00  0.00     0.055 A 
ATOM      6  C5  BZF d   1      -0.979  -1.452  -2.733  0.00  0.00    -0.016 A 
ATOM      7  C6  BZF d   1      -1.057  -1.294  -4.101  0.00  0.00     0.022 A 
ATOM      8  C7  BZF d   1      -1.652  -0.207  -4.652  0.00  0.00     0.029 A 
ATOM      9  C7A BZF d   1      -2.150   0.737  -3.788  0.00  0.00     0.058 A 
ENDROOT
TORSDOF 0
ENDMDL
