MODEL 1
REMARK minimizedAffinity 5.26283407
REMARK minimizedRMSD -1
REMARK  0 active torsions:
REMARK  status: ('A' for Active; 'I' for Inactive)
ROOT
ATOM      1  O1  BZF d   1      -3.409   2.810  -4.245  0.00  0.00    -0.204 OA
ATOM      2  C2  BZF d   1      -3.571   3.771  -3.266  0.00  0.00     0.174 A 
ATOM      3  C3  BZF d   1      -3.162   3.307  -2.068  0.00  0.00    -0.012 A 
ATOM      4  C3A BZF d   1      -2.631   2.004  -2.330  0.00  0.00    -0.107 A 
ATOM      5  C4  BZF d   1      -2.058   1.048  -1.541  0.00  0.00     0.055 A 
ATOM      6  C5  BZF d   1      -1.713  -0.144  -2.094  0.00  0.00    -0.016 A 
ATOM      7  C6  BZF d   1      -1.931  -0.416  -3.429  0.00  0.00     0.022 A 
ATOM      8  C7  BZF d   1      -2.492   0.504  -4.252  0.00  0.00     0.029 A 
ATOM      9  C7A BZF d   1      -2.811   1.721  -3.703  0.00  0.00     0.058 A 
ENDROOT
TORSDOF 0
ENDMDL
