MODEL 1
REMARK minimizedAffinity 3.43450212
REMARK minimizedRMSD -1
REMARK  0 active torsions:
REMARK  status: ('A' for Active; 'I' for Inactive)
ROOT
ATOM      1  O1  BZF d   1      -0.100  -0.842  -3.593  0.00  0.00    -0.204 OA
ATOM      2  C2  BZF d   1       0.001   0.057  -2.548  0.00  0.00     0.174 A 
ATOM      3  C3  BZF d   1      -1.219   0.370  -2.068  0.00  0.00    -0.012 A 
ATOM      4  C3A BZF d   1      -2.135  -0.450  -2.800  0.00  0.00    -0.107 A 
ATOM      5  C4  BZF d   1      -3.491  -0.605  -2.766  0.00  0.00     0.055 A 
ATOM      6  C5  BZF d   1      -4.084  -1.435  -3.664  0.00  0.00    -0.016 A 
ATOM      7  C6  BZF d   1      -3.353  -2.119  -4.613  0.00  0.00     0.022 A 
ATOM      8  C7  BZF d   1      -2.004  -2.002  -4.683  0.00  0.00     0.029 A 
ATOM      9  C7A BZF d   1      -1.399  -1.190  -3.755  0.00  0.00     0.058 A 
ENDROOT
TORSDOF 0
ENDMDL
