MODEL 1
REMARK minimizedAffinity 0.868149936
REMARK minimizedRMSD -1
REMARK  1 active torsions:
REMARK  status: ('A' for Active; 'I' for Inactive)
REMARK    1  A    between atoms: C1_2  and  C2_3 
ROOT
ATOM      1  C2  UNL d   1      -0.194  -2.604   3.575  0.00  0.00    -0.081 A 
ATOM      2  C3  UNL d   1       0.649  -2.346   2.488  0.00  0.00     0.006 A 
ATOM      3  C4  UNL d   1       0.321  -1.359   1.555  0.00  0.00     0.002 A 
ATOM      4  C5  UNL d   1      -0.851  -0.609   1.698  0.00  0.00    -0.080 A 
ATOM      5  C6  UNL d   1      -1.200   0.473   0.721  0.00  0.00     0.076 C 
ATOM      6  C7  UNL d   1      -1.703  -0.879   2.775  0.00  0.00     0.002 A 
ATOM      7  C8  UNL d   1      -1.375  -1.866   3.707  0.00  0.00     0.006 A 
ENDROOT
BRANCH   1   8
ATOM      8  C1  UNL d   1       0.189  -3.623   4.618  0.00  0.00     0.054 C 
ATOM      9  C   UNL d   1       1.672  -3.961   4.542  0.00  0.00     0.018 C 
ENDBRANCH   1   8
TORSDOF 1
ENDMDL
