MODEL 1
REMARK minimizedAffinity -1.54954672
REMARK minimizedRMSD -1
REMARK  1 active torsions:
REMARK  status: ('A' for Active; 'I' for Inactive)
REMARK    1  A    between atoms: C1_2  and  C2_3 
ROOT
ATOM      1  C2  UNL d   1       1.771   0.483   0.418  0.00  0.00    -0.081 A 
ATOM      2  C3  UNL d   1       2.078  -0.870   0.229  0.00  0.00     0.006 A 
ATOM      3  C4  UNL d   1       3.348  -1.358   0.543  0.00  0.00     0.002 A 
ATOM      4  C5  UNL d   1       4.330  -0.504   1.058  0.00  0.00    -0.080 A 
ATOM      5  C6  UNL d   1       5.688  -1.022   1.428  0.00  0.00     0.076 C 
ATOM      6  C7  UNL d   1       4.029   0.851   1.230  0.00  0.00     0.002 A 
ATOM      7  C8  UNL d   1       2.759   1.340   0.916  0.00  0.00     0.006 A 
ENDROOT
BRANCH   1   8
ATOM      8  C1  UNL d   1       0.382   1.000   0.141  0.00  0.00     0.054 C 
ATOM      9  C   UNL d   1      -0.672  -0.052   0.456  0.00  0.00     0.018 C 
ENDBRANCH   1   8
TORSDOF 1
ENDMDL
