MODEL 1
REMARK minimizedAffinity 3.07043695
REMARK minimizedRMSD -1
REMARK  1 active torsions:
REMARK  status: ('A' for Active; 'I' for Inactive)
REMARK    1  A    between atoms: C1_2  and  C2_3 
ROOT
ATOM      1  C2  UNL d   1       1.862  -1.100   0.471  0.00  0.00    -0.081 A 
ATOM      2  C3  UNL d   1       2.580   0.035   0.867  0.00  0.00     0.006 A 
ATOM      3  C4  UNL d   1       3.915  -0.073   1.264  0.00  0.00     0.002 A 
ATOM      4  C5  UNL d   1       4.556  -1.316   1.264  0.00  0.00    -0.080 A 
ATOM      5  C6  UNL d   1       5.998  -1.442   1.659  0.00  0.00     0.076 C 
ATOM      6  C7  UNL d   1       3.835  -2.453   0.885  0.00  0.00     0.002 A 
ATOM      7  C8  UNL d   1       2.500  -2.345   0.488  0.00  0.00     0.006 A 
ENDROOT
BRANCH   1   8
ATOM      8  C1  UNL d   1       0.442  -0.977  -0.019  0.00  0.00     0.054 C 
ATOM      9  C   UNL d   1      -0.345   0.025   0.813  0.00  0.00     0.018 C 
ENDBRANCH   1   8
TORSDOF 1
ENDMDL
