MODEL 1
REMARK minimizedAffinity 2.66533685
REMARK minimizedRMSD -1
REMARK  1 active torsions:
REMARK  status: ('A' for Active; 'I' for Inactive)
REMARK    1  A    between atoms: C1_2  and  C2_3 
ROOT
ATOM      1  C2  UNL d   1       0.087  -1.112   0.857  0.00  0.00    -0.081 A 
ATOM      2  C3  UNL d   1      -0.743  -1.438   1.937  0.00  0.00     0.006 A 
ATOM      3  C4  UNL d   1      -0.303  -2.321   2.927  0.00  0.00     0.002 A 
ATOM      4  C5  UNL d   1       0.975  -2.885   2.858  0.00  0.00    -0.080 A 
ATOM      5  C6  UNL d   1       1.471  -3.810   3.930  0.00  0.00     0.076 C 
ATOM      6  C7  UNL d   1       1.798  -2.573   1.770  0.00  0.00     0.002 A 
ATOM      7  C8  UNL d   1       1.359  -1.691   0.780  0.00  0.00     0.006 A 
ENDROOT
BRANCH   1   8
ATOM      8  C1  UNL d   1      -0.359  -0.111  -0.177  0.00  0.00     0.054 C 
ATOM      9  C   UNL d   1      -1.442   0.807   0.372  0.00  0.00     0.018 C 
ENDBRANCH   1   8
TORSDOF 1
ENDMDL
