MODEL 1
REMARK minimizedAffinity 0.182842985
REMARK minimizedRMSD -1
REMARK  1 active torsions:
REMARK  status: ('A' for Active; 'I' for Inactive)
REMARK    1  A    between atoms: C1_2  and  C2_3 
ROOT
ATOM      1  C2  UNL d   1       0.852  -2.391   1.708  0.00  0.00    -0.081 A 
ATOM      2  C3  UNL d   1       1.595  -1.935   0.613  0.00  0.00     0.006 A 
ATOM      3  C4  UNL d   1       1.166  -0.828  -0.123  0.00  0.00     0.002 A 
ATOM      4  C5  UNL d   1      -0.009  -0.154   0.229  0.00  0.00    -0.080 A 
ATOM      5  C6  UNL d   1      -0.465   1.054  -0.533  0.00  0.00     0.076 C 
ATOM      6  C7  UNL d   1      -0.761  -0.620   1.312  0.00  0.00     0.002 A 
ATOM      7  C8  UNL d   1      -0.333  -1.728   2.048  0.00  0.00     0.006 A 
ENDROOT
BRANCH   1   8
ATOM      8  C1  UNL d   1       1.346  -3.545   2.542  0.00  0.00     0.054 C 
ATOM      9  C   UNL d   1       1.007  -3.350   4.013  0.00  0.00     0.018 C 
ENDBRANCH   1   8
TORSDOF 1
ENDMDL
