MODEL 1
REMARK minimizedAffinity 5.87970209
REMARK minimizedRMSD -1
REMARK  1 active torsions:
REMARK  status: ('A' for Active; 'I' for Inactive)
REMARK    1  A    between atoms: C1_2  and  C2_3 
ROOT
ATOM      1  C2  UNL d   1      -0.355  -1.101   1.519  0.00  0.00    -0.081 A 
ATOM      2  C3  UNL d   1      -1.030  -1.220   2.740  0.00  0.00     0.006 A 
ATOM      3  C4  UNL d   1      -0.572  -2.103   3.721  0.00  0.00     0.002 A 
ATOM      4  C5  UNL d   1       0.574  -2.875   3.501  0.00  0.00    -0.080 A 
ATOM      5  C6  UNL d   1       1.094  -3.804   4.557  0.00  0.00     0.076 C 
ATOM      6  C7  UNL d   1       1.239  -2.770   2.274  0.00  0.00     0.002 A 
ATOM      7  C8  UNL d   1       0.780  -1.888   1.293  0.00  0.00     0.006 A 
ENDROOT
BRANCH   1   8
ATOM      8  C1  UNL d   1      -0.809  -0.103   0.485  0.00  0.00     0.054 C 
ATOM      9  C   UNL d   1       0.033   1.164   0.532  0.00  0.00     0.018 C 
ENDBRANCH   1   8
TORSDOF 1
ENDMDL
