MODEL 1
REMARK minimizedAffinity 6.38262606
REMARK minimizedRMSD -1
REMARK  1 active torsions:
REMARK  status: ('A' for Active; 'I' for Inactive)
REMARK    1  A    between atoms: C1_2  and  C2_3 
ROOT
ATOM      1  C2  UNL d   1       1.130   0.067   0.232  0.00  0.00    -0.081 A 
ATOM      2  C3  UNL d   1       2.099   0.998   0.625  0.00  0.00     0.006 A 
ATOM      3  C4  UNL d   1       3.031   1.482  -0.296  0.00  0.00     0.002 A 
ATOM      4  C5  UNL d   1       3.005   1.048  -1.626  0.00  0.00    -0.080 A 
ATOM      5  C6  UNL d   1       3.980   1.583  -2.633  0.00  0.00     0.076 C 
ATOM      6  C7  UNL d   1       2.048   0.105  -2.015  0.00  0.00     0.002 A 
ATOM      7  C8  UNL d   1       1.116  -0.380  -1.094  0.00  0.00     0.006 A 
ENDROOT
BRANCH   1   8
ATOM      8  C1  UNL d   1       0.083  -0.408   1.207  0.00  0.00     0.054 C 
ATOM      9  C   UNL d   1      -0.937  -1.310   0.528  0.00  0.00     0.018 C 
ENDBRANCH   1   8
TORSDOF 1
ENDMDL
