MODEL 1
REMARK minimizedAffinity 12.0126314
REMARK minimizedRMSD -1
REMARK  1 active torsions:
REMARK  status: ('A' for Active; 'I' for Inactive)
REMARK    1  A    between atoms: C1_2  and  C2_3 
ROOT
ATOM      1  C2  UNL d   1      -0.085  -1.792   2.745  0.00  0.00    -0.081 A 
ATOM      2  C3  UNL d   1       1.191  -2.180   2.320  0.00  0.00     0.006 A 
ATOM      3  C4  UNL d   1       1.933  -3.106   3.058  0.00  0.00     0.002 A 
ATOM      4  C5  UNL d   1       1.409  -3.664   4.228  0.00  0.00    -0.080 A 
ATOM      5  C6  UNL d   1       2.182  -4.681   5.014  0.00  0.00     0.076 C 
ATOM      6  C7  UNL d   1       0.141  -3.263   4.663  0.00  0.00     0.002 A 
ATOM      7  C8  UNL d   1      -0.601  -2.338   3.926  0.00  0.00     0.006 A 
ENDROOT
BRANCH   1   8
ATOM      8  C1  UNL d   1      -0.914  -0.844   1.917  0.00  0.00     0.054 C 
ATOM      9  C   UNL d   1      -0.106  -0.266   0.764  0.00  0.00     0.018 C 
ENDBRANCH   1   8
TORSDOF 1
ENDMDL
