MODEL 1
REMARK minimizedAffinity -0.952506304
REMARK minimizedRMSD -1
REMARK  1 active torsions:
REMARK  status: ('A' for Active; 'I' for Inactive)
REMARK    1  A    between atoms: C1_2  and  C2_3 
ROOT
ATOM      1  C2  UNL d   1      -0.050   3.699  -3.565  0.00  0.00    -0.081 A 
ATOM      2  C3  UNL d   1       0.310   2.443  -4.067  0.00  0.00     0.006 A 
ATOM      3  C4  UNL d   1       1.551   1.884  -3.752  0.00  0.00     0.002 A 
ATOM      4  C5  UNL d   1       2.448   2.567  -2.924  0.00  0.00    -0.080 A 
ATOM      5  C6  UNL d   1       3.771   1.965  -2.553  0.00  0.00     0.076 C 
ATOM      6  C7  UNL d   1       2.095   3.830  -2.436  0.00  0.00     0.002 A 
ATOM      7  C8  UNL d   1       0.855   4.390  -2.751  0.00  0.00     0.006 A 
ENDROOT
BRANCH   1   8
ATOM      8  C1  UNL d   1      -1.413   4.276  -3.850  0.00  0.00     0.054 C 
ATOM      9  C   UNL d   1      -2.500   3.528  -3.092  0.00  0.00     0.018 C 
ENDBRANCH   1   8
TORSDOF 1
ENDMDL
