MODEL 1
REMARK minimizedAffinity 0.644569159
REMARK minimizedRMSD -1
REMARK  1 active torsions:
REMARK  status: ('A' for Active; 'I' for Inactive)
REMARK    1  A    between atoms: C1_2  and  C2_3 
ROOT
ATOM      1  C2  UNL d   1      -3.040  -4.573  -5.180  0.00  0.00    -0.081 A 
ATOM      2  C3  UNL d   1      -2.506  -3.493  -4.465  0.00  0.00     0.006 A 
ATOM      3  C4  UNL d   1      -3.119  -2.239  -4.515  0.00  0.00     0.002 A 
ATOM      4  C5  UNL d   1      -4.279  -2.045  -5.272  0.00  0.00    -0.080 A 
ATOM      5  C6  UNL d   1      -4.963  -0.711  -5.309  0.00  0.00     0.076 C 
ATOM      6  C7  UNL d   1      -4.803  -3.119  -6.000  0.00  0.00     0.002 A 
ATOM      7  C8  UNL d   1      -4.190  -4.373  -5.951  0.00  0.00     0.006 A 
ENDROOT
BRANCH   1   8
ATOM      8  C1  UNL d   1      -2.419  -5.942  -5.077  0.00  0.00     0.054 C 
ATOM      9  C   UNL d   1      -1.055  -5.983  -5.751  0.00  0.00     0.018 C 
ENDBRANCH   1   8
TORSDOF 1
ENDMDL
