MODEL 1
REMARK minimizedAffinity -0.711080134
REMARK minimizedRMSD -1
REMARK  0 active torsions:
REMARK  status: ('A' for Active; 'I' for Inactive)
ROOT
ATOM      1  C   UNL d   1      -0.642  -0.987  -0.197  0.00  0.00     0.023 A 
ATOM      2  C1  UNL d   1      -0.732   0.147  -1.004  0.00  0.00     0.003 A 
ATOM      3  C2  UNL d   1       0.152   1.212  -0.816  0.00  0.00     0.048 A 
ATOM      4  C3  UNL d   1       1.124   1.135   0.181  0.00  0.00     0.023 A 
ATOM      5  C4  UNL d   1       1.219   0.002   0.990  0.00  0.00     0.048 A 
ATOM      6  C5  UNL d   1       0.332  -1.060   0.799  0.00  0.00     0.003 A 
ATOM      7  I   UNL d   1       2.441   2.718   0.463  0.00  0.00    -0.146 I 
ENDROOT
TORSDOF 0
ENDMDL
