MODEL 1
REMARK minimizedAffinity -2.66315126
REMARK minimizedRMSD -1
REMARK  0 active torsions:
REMARK  status: ('A' for Active; 'I' for Inactive)
ROOT
ATOM      1  C   UNL d   1      -2.448  -0.886  -0.554  0.00  0.00     0.023 A 
ATOM      2  C1  UNL d   1      -1.846  -0.997   0.699  0.00  0.00     0.003 A 
ATOM      3  C2  UNL d   1      -0.587  -0.438   0.923  0.00  0.00     0.048 A 
ATOM      4  C3  UNL d   1       0.065   0.233  -0.111  0.00  0.00     0.023 A 
ATOM      5  C4  UNL d   1      -0.533   0.348  -1.367  0.00  0.00     0.048 A 
ATOM      6  C5  UNL d   1      -1.792  -0.214  -1.586  0.00  0.00     0.003 A 
ATOM      7  I   UNL d   1       1.940   1.068   0.219  0.00  0.00    -0.146 I 
ENDROOT
TORSDOF 0
ENDMDL
