MODEL 1
REMARK minimizedAffinity -3.13948417
REMARK minimizedRMSD -1
REMARK  0 active torsions:
REMARK  status: ('A' for Active; 'I' for Inactive)
ROOT
ATOM      1  C   UNL d   1      -2.748  -0.844  -0.984  0.00  0.00     0.023 A 
ATOM      2  C1  UNL d   1      -2.299  -1.050   0.321  0.00  0.00     0.003 A 
ATOM      3  C2  UNL d   1      -0.999  -0.686   0.679  0.00  0.00     0.048 A 
ATOM      4  C3  UNL d   1      -0.154  -0.117  -0.273  0.00  0.00     0.023 A 
ATOM      5  C4  UNL d   1      -0.599   0.092  -1.579  0.00  0.00     0.048 A 
ATOM      6  C5  UNL d   1      -1.899  -0.274  -1.933  0.00  0.00     0.003 A 
ATOM      7  I   UNL d   1       1.781   0.426   0.257  0.00  0.00    -0.146 I 
ENDROOT
TORSDOF 0
ENDMDL
