MODEL 1
REMARK minimizedAffinity -3.77097559
REMARK minimizedRMSD -1
REMARK  0 active torsions:
REMARK  status: ('A' for Active; 'I' for Inactive)
ROOT
ATOM      1  C   UNL d   1      -2.638  -0.393  -0.861  0.00  0.00     0.023 A 
ATOM      2  C1  UNL d   1      -2.490   0.253   0.366  0.00  0.00     0.003 A 
ATOM      3  C2  UNL d   1      -1.248   0.772   0.738  0.00  0.00     0.048 A 
ATOM      4  C3  UNL d   1      -0.159   0.643  -0.122  0.00  0.00     0.023 A 
ATOM      5  C4  UNL d   1      -0.302  -0.001  -1.352  0.00  0.00     0.048 A 
ATOM      6  C5  UNL d   1      -1.545  -0.520  -1.719  0.00  0.00     0.003 A 
ATOM      7  I   UNL d   1       1.690   1.416   0.429  0.00  0.00    -0.146 I 
ENDROOT
TORSDOF 0
ENDMDL
