MODEL 1
REMARK minimizedAffinity -1.01338625
REMARK minimizedRMSD -1
REMARK  0 active torsions:
REMARK  status: ('A' for Active; 'I' for Inactive)
ROOT
ATOM      1  C   UNL d   1      -2.989  -0.468  -0.350  0.00  0.00     0.023 A 
ATOM      2  C1  UNL d   1      -2.504  -0.035   0.884  0.00  0.00     0.003 A 
ATOM      3  C2  UNL d   1      -1.151   0.274   1.035  0.00  0.00     0.048 A 
ATOM      4  C3  UNL d   1      -0.287   0.148  -0.053  0.00  0.00     0.023 A 
ATOM      5  C4  UNL d   1      -0.768  -0.285  -1.290  0.00  0.00     0.048 A 
ATOM      6  C5  UNL d   1      -2.122  -0.593  -1.436  0.00  0.00     0.003 A 
ATOM      7  I   UNL d   1       1.728   0.607   0.170  0.00  0.00    -0.146 I 
ENDROOT
TORSDOF 0
ENDMDL
