MODEL 1
REMARK minimizedAffinity -3.77155137
REMARK minimizedRMSD -1
REMARK  0 active torsions:
REMARK  status: ('A' for Active; 'I' for Inactive)
ROOT
ATOM      1  C   UNL d   1      -2.192  -0.887  -0.858  0.00  0.00     0.023 A 
ATOM      2  C1  UNL d   1      -1.850  -0.947   0.493  0.00  0.00     0.003 A 
ATOM      3  C2  UNL d   1      -0.761  -0.216   0.972  0.00  0.00     0.048 A 
ATOM      4  C3  UNL d   1      -0.018   0.573   0.095  0.00  0.00     0.023 A 
ATOM      5  C4  UNL d   1      -0.357   0.636  -1.258  0.00  0.00     0.048 A 
ATOM      6  C5  UNL d   1      -1.446  -0.097  -1.732  0.00  0.00     0.003 A 
ATOM      7  I   UNL d   1       1.603   1.662   0.805  0.00  0.00    -0.146 I 
ENDROOT
TORSDOF 0
ENDMDL
