MODEL 1
REMARK minimizedAffinity -3.5921607
REMARK minimizedRMSD -1
REMARK  0 active torsions:
REMARK  status: ('A' for Active; 'I' for Inactive)
ROOT
ATOM      1  C   UNL d   1      -2.738  -1.273  -0.542  0.00  0.00     0.023 A 
ATOM      2  C1  UNL d   1      -2.195  -1.511   0.721  0.00  0.00     0.003 A 
ATOM      3  C2  UNL d   1      -0.937  -1.001   1.050  0.00  0.00     0.048 A 
ATOM      4  C3  UNL d   1      -0.228  -0.253   0.111  0.00  0.00     0.023 A 
ATOM      5  C4  UNL d   1      -0.768  -0.011  -1.153  0.00  0.00     0.048 A 
ATOM      6  C5  UNL d   1      -2.025  -0.523  -1.478  0.00  0.00     0.003 A 
ATOM      7  I   UNL d   1       1.644   0.508   0.598  0.00  0.00    -0.146 I 
ENDROOT
TORSDOF 0
ENDMDL
