MODEL 1
REMARK minimizedAffinity -2.5417769
REMARK minimizedRMSD -1
REMARK  0 active torsions:
REMARK  status: ('A' for Active; 'I' for Inactive)
ROOT
ATOM      1  C   UNL d   1      -2.092  -0.526  -0.062  0.00  0.00     0.023 A 
ATOM      2  C1  UNL d   1      -1.549  -0.846   1.182  0.00  0.00     0.003 A 
ATOM      3  C2  UNL d   1      -0.201  -0.590   1.444  0.00  0.00     0.048 A 
ATOM      4  C3  UNL d   1       0.597  -0.013   0.457  0.00  0.00     0.023 A 
ATOM      5  C4  UNL d   1       0.058   0.310  -0.789  0.00  0.00     0.048 A 
ATOM      6  C5  UNL d   1      -1.290   0.051  -1.047  0.00  0.00     0.003 A 
ATOM      7  I   UNL d   1       2.603   0.368   0.844  0.00  0.00    -0.146 I 
ENDROOT
TORSDOF 0
ENDMDL
