MODEL 1
REMARK minimizedAffinity -4.4472723
REMARK minimizedRMSD -1
REMARK  0 active torsions:
REMARK  status: ('A' for Active; 'I' for Inactive)
ROOT
ATOM      1  C   UNL d   1      -2.826  -0.539  -0.793  0.00  0.00     0.023 A 
ATOM      2  C1  UNL d   1      -2.420  -0.855   0.504  0.00  0.00     0.003 A 
ATOM      3  C2  UNL d   1      -1.126  -0.544   0.926  0.00  0.00     0.048 A 
ATOM      4  C3  UNL d   1      -0.244   0.083   0.048  0.00  0.00     0.023 A 
ATOM      5  C4  UNL d   1      -0.646   0.401  -1.250  0.00  0.00     0.048 A 
ATOM      6  C5  UNL d   1      -1.940   0.088  -1.669  0.00  0.00     0.003 A 
ATOM      7  I   UNL d   1       1.683   0.546   0.675  0.00  0.00    -0.146 I 
ENDROOT
TORSDOF 0
ENDMDL
