MODEL 1
REMARK minimizedAffinity -3.80189538
REMARK minimizedRMSD -1
REMARK  0 active torsions:
REMARK  status: ('A' for Active; 'I' for Inactive)
ROOT
ATOM      1  C   UNL d   1      -2.246  -1.029  -0.619  0.00  0.00     0.023 A 
ATOM      2  C1  UNL d   1      -1.284  -0.658  -1.559  0.00  0.00     0.003 A 
ATOM      3  C2  UNL d   1      -0.114  -0.017  -1.146  0.00  0.00     0.048 A 
ATOM      4  C3  UNL d   1       0.088   0.248   0.208  0.00  0.00     0.023 A 
ATOM      5  C4  UNL d   1      -0.871  -0.123   1.152  0.00  0.00     0.048 A 
ATOM      6  C5  UNL d   1      -2.040  -0.762   0.734  0.00  0.00     0.003 A 
ATOM      7  I   UNL d   1       1.829   1.201   0.825  0.00  0.00    -0.146 I 
ENDROOT
TORSDOF 0
ENDMDL
