MODEL 1
REMARK minimizedAffinity -3.58459473
REMARK minimizedRMSD -1
REMARK  0 active torsions:
REMARK  status: ('A' for Active; 'I' for Inactive)
ROOT
ATOM      1  C   UNL d   1      -2.430  -0.609  -0.506  0.00  0.00     0.023 A 
ATOM      2  C1  UNL d   1      -2.005  -0.642   0.822  0.00  0.00     0.003 A 
ATOM      3  C2  UNL d   1      -0.762  -0.109   1.172  0.00  0.00     0.048 A 
ATOM      4  C3  UNL d   1       0.049   0.457   0.190  0.00  0.00     0.023 A 
ATOM      5  C4  UNL d   1      -0.373   0.493  -1.140  0.00  0.00     0.048 A 
ATOM      6  C5  UNL d   1      -1.615  -0.042  -1.486  0.00  0.00     0.003 A 
ATOM      7  I   UNL d   1       1.898   1.252   0.709  0.00  0.00    -0.146 I 
ENDROOT
TORSDOF 0
ENDMDL
