MODEL 1
REMARK minimizedAffinity -1.60756481
REMARK minimizedRMSD -1
REMARK  1 active torsions:
REMARK  status: ('A' for Active; 'I' for Inactive)
REMARK    1  A    between atoms: N_2  and  C1_3 
ROOT
ATOM      1  C1  UNL d   1       1.692  -1.066  -1.120  0.00  0.00     0.143 A 
ATOM      2  C2  UNL d   1       1.495  -1.531   0.184  0.00  0.00    -0.057 A 
ATOM      3  C3  UNL d   1       1.211  -0.650   1.234  0.00  0.00     0.033 A 
ATOM      4  C4  UNL d   1       1.147   0.720   1.003  0.00  0.00    -0.042 A 
ATOM      5  C5  UNL d   1       1.364   1.208  -0.281  0.00  0.00     0.033 A 
ATOM      6  C6  UNL d   1       1.641   0.322  -1.327  0.00  0.00    -0.057 A 
ENDROOT
BRANCH   1   7
ATOM      7  N   UNL d   1       2.075  -1.882  -2.188  0.00  0.00    -0.732 N 
ATOM      8  C   UNL d   1       1.172  -2.121  -3.293  0.00  0.00     0.284 C 
ATOM      9  H3  UNL d   1       3.041  -1.729  -2.466  0.00  0.00     0.395 HD
ENDBRANCH   1   7
TORSDOF 1
ENDMDL
