MODEL 1
REMARK minimizedAffinity -0.133685812
REMARK minimizedRMSD -1
REMARK  1 active torsions:
REMARK  status: ('A' for Active; 'I' for Inactive)
REMARK    1  A    between atoms: N_2  and  C1_3 
ROOT
ATOM      1  C1  UNL d   1       2.615  -0.828  -0.715  0.00  0.00     0.143 A 
ATOM      2  C2  UNL d   1       2.337   0.513  -0.427  0.00  0.00    -0.057 A 
ATOM      3  C3  UNL d   1       1.271   0.870   0.407  0.00  0.00     0.033 A 
ATOM      4  C4  UNL d   1       0.444  -0.110   0.947  0.00  0.00    -0.042 A 
ATOM      5  C5  UNL d   1       0.686  -1.447   0.654  0.00  0.00     0.033 A 
ATOM      6  C6  UNL d   1       1.756  -1.798  -0.175  0.00  0.00    -0.057 A 
ENDROOT
BRANCH   1   7
ATOM      7  N   UNL d   1       3.600  -1.242  -1.616  0.00  0.00    -0.732 N 
ATOM      8  C   UNL d   1       4.418  -0.271  -2.311  0.00  0.00     0.284 C 
ATOM      9  H3  UNL d   1       4.112  -2.056  -1.285  0.00  0.00     0.395 HD
ENDBRANCH   1   7
TORSDOF 1
ENDMDL
