MODEL 1
REMARK minimizedAffinity 2.47489524
REMARK minimizedRMSD -1
REMARK  1 active torsions:
REMARK  status: ('A' for Active; 'I' for Inactive)
REMARK    1  A    between atoms: N_2  and  C1_3 
ROOT
ATOM      1  C1  UNL d   1       1.244  -0.860   0.920  0.00  0.00     0.143 A 
ATOM      2  C2  UNL d   1       1.817  -1.765   0.020  0.00  0.00    -0.057 A 
ATOM      3  C3  UNL d   1       2.738  -1.344  -0.947  0.00  0.00     0.033 A 
ATOM      4  C4  UNL d   1       3.082   0.000  -1.049  0.00  0.00    -0.042 A 
ATOM      5  C5  UNL d   1       2.506   0.921  -0.181  0.00  0.00     0.033 A 
ATOM      6  C6  UNL d   1       1.592   0.493   0.786  0.00  0.00    -0.057 A 
ENDROOT
BRANCH   1   7
ATOM      7  N   UNL d   1       0.249  -1.202   1.839  0.00  0.00    -0.732 N 
ATOM      8  C   UNL d   1      -1.106  -0.724   1.669  0.00  0.00     0.284 C 
ATOM      9  H3  UNL d   1       0.313  -2.172   2.138  0.00  0.00     0.395 HD
ENDBRANCH   1   7
TORSDOF 1
ENDMDL
