MODEL 1
REMARK minimizedAffinity 1.35348594
REMARK minimizedRMSD -1
REMARK  1 active torsions:
REMARK  status: ('A' for Active; 'I' for Inactive)
REMARK    1  A    between atoms: N_2  and  C1_3 
ROOT
ATOM      1  C1  UNL d   1      -0.046  -1.236   1.177  0.00  0.00     0.143 A 
ATOM      2  C2  UNL d   1       0.104   0.068   1.663  0.00  0.00    -0.057 A 
ATOM      3  C3  UNL d   1       1.025   0.954   1.092  0.00  0.00     0.033 A 
ATOM      4  C4  UNL d   1       1.837   0.541   0.040  0.00  0.00    -0.042 A 
ATOM      5  C5  UNL d   1       1.723  -0.758  -0.442  0.00  0.00     0.033 A 
ATOM      6  C6  UNL d   1       0.797  -1.636   0.128  0.00  0.00    -0.057 A 
ENDROOT
BRANCH   1   7
ATOM      7  N   UNL d   1      -0.874  -2.195   1.766  0.00  0.00    -0.732 N 
ATOM      8  C   UNL d   1      -2.312  -2.033   1.756  0.00  0.00     0.284 C 
ATOM      9  H3  UNL d   1      -0.561  -3.145   1.580  0.00  0.00     0.395 HD
ENDBRANCH   1   7
TORSDOF 1
ENDMDL
