MODEL 1
REMARK minimizedAffinity 4.46794558
REMARK minimizedRMSD -1
REMARK  1 active torsions:
REMARK  status: ('A' for Active; 'I' for Inactive)
REMARK    1  A    between atoms: N_2  and  C1_3 
ROOT
ATOM      1  C1  UNL d   1      -0.743   3.854  -3.325  0.00  0.00     0.143 A 
ATOM      2  C2  UNL d   1      -2.064   3.430  -3.507  0.00  0.00    -0.057 A 
ATOM      3  C3  UNL d   1      -2.357   2.125  -3.919  0.00  0.00     0.033 A 
ATOM      4  C4  UNL d   1      -1.330   1.225  -4.185  0.00  0.00    -0.042 A 
ATOM      5  C5  UNL d   1      -0.009   1.632  -4.035  0.00  0.00     0.033 A 
ATOM      6  C6  UNL d   1       0.278   2.935  -3.617  0.00  0.00    -0.057 A 
ENDROOT
BRANCH   1   7
ATOM      7  N   UNL d   1      -0.384   5.167  -3.013  0.00  0.00    -0.732 N 
ATOM      8  C   UNL d   1      -0.858   5.792  -1.797  0.00  0.00     0.284 C 
ATOM      9  H3  UNL d   1       0.591   5.365  -3.230  0.00  0.00     0.395 HD
ENDBRANCH   1   7
TORSDOF 1
ENDMDL
