MODEL 1
REMARK minimizedAffinity 3.1474123
REMARK minimizedRMSD -1
REMARK  1 active torsions:
REMARK  status: ('A' for Active; 'I' for Inactive)
REMARK    1  A    between atoms: N_2  and  C1_3 
ROOT
ATOM      1  C1  UNL d   1       1.036  -1.134   0.222  0.00  0.00     0.143 A 
ATOM      2  C2  UNL d   1       1.407   0.126   0.704  0.00  0.00    -0.057 A 
ATOM      3  C3  UNL d   1       0.851   0.646   1.879  0.00  0.00     0.033 A 
ATOM      4  C4  UNL d   1      -0.111  -0.075   2.579  0.00  0.00    -0.042 A 
ATOM      5  C5  UNL d   1      -0.513  -1.319   2.104  0.00  0.00     0.033 A 
ATOM      6  C6  UNL d   1       0.051  -1.835   0.934  0.00  0.00    -0.057 A 
ENDROOT
BRANCH   1   7
ATOM      7  N   UNL d   1       1.480  -1.663  -0.993  0.00  0.00    -0.732 N 
ATOM      8  C   UNL d   1       2.857  -1.505  -1.407  0.00  0.00     0.284 C 
ATOM      9  H3  UNL d   1       1.093  -2.586  -1.178  0.00  0.00     0.395 HD
ENDBRANCH   1   7
TORSDOF 1
ENDMDL
