MODEL 1
REMARK minimizedAffinity 2.56142187
REMARK minimizedRMSD -1
REMARK  1 active torsions:
REMARK  status: ('A' for Active; 'I' for Inactive)
REMARK    1  A    between atoms: N_2  and  C1_3 
ROOT
ATOM      1  C1  UNL d   1       0.597  -0.527   1.549  0.00  0.00     0.143 A 
ATOM      2  C2  UNL d   1       0.923  -1.328   0.450  0.00  0.00    -0.057 A 
ATOM      3  C3  UNL d   1       1.698  -0.833  -0.606  0.00  0.00     0.033 A 
ATOM      4  C4  UNL d   1       2.137   0.487  -0.595  0.00  0.00    -0.042 A 
ATOM      5  C5  UNL d   1       1.804   1.309   0.476  0.00  0.00     0.033 A 
ATOM      6  C6  UNL d   1       1.036   0.807   1.531  0.00  0.00    -0.057 A 
ENDROOT
BRANCH   1   7
ATOM      7  N   UNL d   1      -0.251  -0.931   2.583  0.00  0.00    -0.732 N 
ATOM      8  C   UNL d   1      -1.566  -1.462   2.292  0.00  0.00     0.284 C 
ATOM      9  H3  UNL d   1       0.244  -1.428   3.320  0.00  0.00     0.395 HD
ENDBRANCH   1   7
TORSDOF 1
ENDMDL
