MODEL 1
REMARK minimizedAffinity -2.57707047
REMARK minimizedRMSD -1
REMARK  1 active torsions:
REMARK  status: ('A' for Active; 'I' for Inactive)
REMARK    1  A    between atoms: N_2  and  C1_3 
ROOT
ATOM      1  C1  UNL d   1       0.218  -0.884   1.474  0.00  0.00     0.143 A 
ATOM      2  C2  UNL d   1       0.747  -1.866   0.631  0.00  0.00    -0.057 A 
ATOM      3  C3  UNL d   1       1.565  -1.528  -0.455  0.00  0.00     0.033 A 
ATOM      4  C4  UNL d   1       1.844  -0.194  -0.734  0.00  0.00    -0.042 A 
ATOM      5  C5  UNL d   1       1.308   0.800   0.076  0.00  0.00     0.033 A 
ATOM      6  C6  UNL d   1       0.498   0.456   1.162  0.00  0.00    -0.057 A 
ENDROOT
BRANCH   1   7
ATOM      7  N   UNL d   1      -0.681  -1.150   2.510  0.00  0.00    -0.732 N 
ATOM      8  C   UNL d   1      -2.069  -1.442   2.224  0.00  0.00     0.284 C 
ATOM      9  H3  UNL d   1      -0.274  -1.734   3.237  0.00  0.00     0.395 HD
ENDBRANCH   1   7
TORSDOF 1
ENDMDL
