MODEL 1
REMARK minimizedAffinity -2.9939003
REMARK minimizedRMSD -1
REMARK  1 active torsions:
REMARK  status: ('A' for Active; 'I' for Inactive)
REMARK    1  A    between atoms: N_2  and  C1_3 
ROOT
ATOM      1  C1  UNL d   1       2.658  -0.999  -0.944  0.00  0.00     0.143 A 
ATOM      2  C2  UNL d   1       1.726  -1.945  -0.503  0.00  0.00    -0.057 A 
ATOM      3  C3  UNL d   1       0.604  -1.565   0.243  0.00  0.00     0.033 A 
ATOM      4  C4  UNL d   1       0.408  -0.232   0.587  0.00  0.00    -0.042 A 
ATOM      5  C5  UNL d   1       1.334   0.722   0.181  0.00  0.00     0.033 A 
ATOM      6  C6  UNL d   1       2.450   0.338  -0.569  0.00  0.00    -0.057 A 
ENDROOT
BRANCH   1   7
ATOM      7  N   UNL d   1       3.845  -1.325  -1.604  0.00  0.00    -0.732 N 
ATOM      8  C   UNL d   1       4.513  -0.353  -2.443  0.00  0.00     0.284 C 
ATOM      9  H3  UNL d   1       4.474  -1.875  -1.023  0.00  0.00     0.395 HD
ENDBRANCH   1   7
TORSDOF 1
ENDMDL
