MODEL 1
REMARK minimizedAffinity 1.18054211
REMARK minimizedRMSD -1
REMARK  1 active torsions:
REMARK  status: ('A' for Active; 'I' for Inactive)
REMARK    1  A    between atoms: N_2  and  C1_3 
ROOT
ATOM      1  C1  UNL d   1       2.299  -1.179  -1.002  0.00  0.00     0.143 A 
ATOM      2  C2  UNL d   1       1.335  -1.799  -0.200  0.00  0.00    -0.057 A 
ATOM      3  C3  UNL d   1       0.494  -1.052   0.633  0.00  0.00     0.033 A 
ATOM      4  C4  UNL d   1       0.621   0.331   0.701  0.00  0.00    -0.042 A 
ATOM      5  C5  UNL d   1       1.589   0.967  -0.069  0.00  0.00     0.033 A 
ATOM      6  C6  UNL d   1       2.422   0.216  -0.905  0.00  0.00    -0.057 A 
ENDROOT
BRANCH   1   7
ATOM      7  N   UNL d   1       3.231  -1.874  -1.777  0.00  0.00    -0.732 N 
ATOM      8  C   UNL d   1       2.870  -3.116  -2.426  0.00  0.00     0.284 C 
ATOM      9  H3  UNL d   1       3.797  -1.254  -2.352  0.00  0.00     0.395 HD
ENDBRANCH   1   7
TORSDOF 1
ENDMDL
