MODEL 1
REMARK minimizedAffinity 4.96134758
REMARK minimizedRMSD -1
REMARK  1 active torsions:
REMARK  status: ('A' for Active; 'I' for Inactive)
REMARK    1  A    between atoms: N_2  and  C1_3 
ROOT
ATOM      1  C1  UNL d   1      -0.827   3.829  -3.268  0.00  0.00     0.143 A 
ATOM      2  C2  UNL d   1      -2.013   3.088  -3.291  0.00  0.00    -0.057 A 
ATOM      3  C3  UNL d   1      -2.026   1.750  -3.705  0.00  0.00     0.033 A 
ATOM      4  C4  UNL d   1      -0.852   1.137  -4.132  0.00  0.00    -0.042 A 
ATOM      5  C5  UNL d   1       0.334   1.863  -4.141  0.00  0.00     0.033 A 
ATOM      6  C6  UNL d   1       0.341   3.196  -3.720  0.00  0.00    -0.057 A 
ENDROOT
BRANCH   1   7
ATOM      7  N   UNL d   1      -0.767   5.191  -2.961  0.00  0.00    -0.732 N 
ATOM      8  C   UNL d   1      -1.768   5.800  -2.111  0.00  0.00     0.284 C 
ATOM      9  H3  UNL d   1       0.183   5.506  -2.776  0.00  0.00     0.395 HD
ENDBRANCH   1   7
TORSDOF 1
ENDMDL
