MODEL 1
REMARK minimizedAffinity -0.279122919
REMARK minimizedRMSD -1
REMARK  1 active torsions:
REMARK  status: ('A' for Active; 'I' for Inactive)
REMARK    1  A    between atoms: N_2  and  C1_3 
ROOT
ATOM      1  C1  UNL d   1       1.864  -0.233  -0.215  0.00  0.00     0.143 A 
ATOM      2  C2  UNL d   1       2.234   1.015  -0.728  0.00  0.00    -0.057 A 
ATOM      3  C3  UNL d   1       3.211   1.130  -1.724  0.00  0.00     0.033 A 
ATOM      4  C4  UNL d   1       3.859  -0.003  -2.205  0.00  0.00    -0.042 A 
ATOM      5  C5  UNL d   1       3.525  -1.251  -1.692  0.00  0.00     0.033 A 
ATOM      6  C6  UNL d   1       2.543  -1.360  -0.702  0.00  0.00    -0.057 A 
ENDROOT
BRANCH   1   7
ATOM      7  N   UNL d   1       0.970  -0.404   0.845  0.00  0.00    -0.732 N 
ATOM      8  C   UNL d   1       0.326  -1.681   1.067  0.00  0.00     0.284 C 
ATOM      9  H3  UNL d   1       1.284   0.057   1.696  0.00  0.00     0.395 HD
ENDBRANCH   1   7
TORSDOF 1
ENDMDL
