MODEL 1
REMARK minimizedAffinity 3.41507292
REMARK minimizedRMSD -1
REMARK  1 active torsions:
REMARK  status: ('A' for Active; 'I' for Inactive)
REMARK    1  A    between atoms: N_2  and  C1_3 
ROOT
ATOM      1  C1  UNL d   1       2.233   0.405   0.678  0.00  0.00     0.143 A 
ATOM      2  C2  UNL d   1       2.926  -0.329  -0.291  0.00  0.00    -0.057 A 
ATOM      3  C3  UNL d   1       2.374  -1.481  -0.862  0.00  0.00     0.033 A 
ATOM      4  C4  UNL d   1       1.125  -1.938  -0.452  0.00  0.00    -0.042 A 
ATOM      5  C5  UNL d   1       0.429  -1.239   0.527  0.00  0.00     0.033 A 
ATOM      6  C6  UNL d   1       0.983  -0.085   1.089  0.00  0.00    -0.057 A 
ENDROOT
BRANCH   1   7
ATOM      7  N   UNL d   1       2.770   1.503   1.355  0.00  0.00    -0.732 N 
ATOM      8  C   UNL d   1       3.957   1.357   2.170  0.00  0.00     0.284 C 
ATOM      9  H3  UNL d   1       2.753   2.351   0.794  0.00  0.00     0.395 HD
ENDBRANCH   1   7
TORSDOF 1
ENDMDL
