MODEL 1
REMARK minimizedAffinity -2.85008526
REMARK minimizedRMSD -1
REMARK  0 active torsions:
REMARK  status: ('A' for Active; 'I' for Inactive)
ROOT
ATOM      1  C   UNL d   1      -0.684   2.137   2.634  0.00  0.00     0.023 A 
ATOM      2  C1  UNL d   1       0.160   1.042   2.821  0.00  0.00     0.003 A 
ATOM      3  C2  UNL d   1       0.201   0.020   1.871  0.00  0.00     0.048 A 
ATOM      4  C3  UNL d   1      -0.604   0.100   0.735  0.00  0.00     0.023 A 
ATOM      5  C4  UNL d   1      -1.449   1.194   0.543  0.00  0.00     0.048 A 
ATOM      6  C5  UNL d   1      -1.488   2.213   1.497  0.00  0.00     0.003 A 
ATOM      7  I   UNL d   1      -0.544  -1.420  -0.682  0.00  0.00    -0.146 I 
ENDROOT
TORSDOF 0
ENDMDL
