MODEL 1
REMARK minimizedAffinity -4.48495483
REMARK minimizedRMSD -1
REMARK  0 active torsions:
REMARK  status: ('A' for Active; 'I' for Inactive)
ROOT
ATOM      1  C   UNL d   1      -0.434   2.098   1.497  0.00  0.00     0.023 A 
ATOM      2  C1  UNL d   1      -0.898   2.087   0.181  0.00  0.00     0.003 A 
ATOM      3  C2  UNL d   1      -0.685   0.968  -0.626  0.00  0.00     0.048 A 
ATOM      4  C3  UNL d   1      -0.010  -0.138  -0.111  0.00  0.00     0.023 A 
ATOM      5  C4  UNL d   1       0.455  -0.132   1.206  0.00  0.00     0.048 A 
ATOM      6  C5  UNL d   1       0.241   0.990   2.008  0.00  0.00     0.003 A 
ATOM      7  I   UNL d   1       0.308  -1.806  -1.310  0.00  0.00    -0.146 I 
ENDROOT
TORSDOF 0
ENDMDL
