MODEL 1
REMARK minimizedAffinity -2.21471334
REMARK minimizedRMSD -1
REMARK  0 active torsions:
REMARK  status: ('A' for Active; 'I' for Inactive)
ROOT
ATOM      1  C   UNL d   1      -1.389   1.632   1.855  0.00  0.00     0.023 A 
ATOM      2  C1  UNL d   1      -1.559   1.914   0.500  0.00  0.00     0.003 A 
ATOM      3  C2  UNL d   1      -0.780   1.258  -0.455  0.00  0.00     0.048 A 
ATOM      4  C3  UNL d   1       0.168   0.320  -0.048  0.00  0.00     0.023 A 
ATOM      5  C4  UNL d   1       0.342   0.033   1.307  0.00  0.00     0.048 A 
ATOM      6  C5  UNL d   1      -0.439   0.693   2.258  0.00  0.00     0.003 A 
ATOM      7  I   UNL d   1       1.329  -0.658  -1.467  0.00  0.00    -0.146 I 
ENDROOT
TORSDOF 0
ENDMDL
