MODEL 1
REMARK minimizedAffinity -1.09274435
REMARK minimizedRMSD -1
REMARK  0 active torsions:
REMARK  status: ('A' for Active; 'I' for Inactive)
ROOT
ATOM      1  C   UNL d   1       0.666  -0.885  -0.702  0.00  0.00     0.023 A 
ATOM      2  C1  UNL d   1       0.182   0.268  -1.320  0.00  0.00     0.003 A 
ATOM      3  C2  UNL d   1      -0.325   1.315  -0.548  0.00  0.00     0.048 A 
ATOM      4  C3  UNL d   1      -0.345   1.203   0.842  0.00  0.00     0.023 A 
ATOM      5  C4  UNL d   1       0.139   0.052   1.465  0.00  0.00     0.048 A 
ATOM      6  C5  UNL d   1       0.644  -0.993   0.689  0.00  0.00     0.003 A 
ATOM      7  I   UNL d   1      -1.100   2.761   1.993  0.00  0.00    -0.146 I 
ENDROOT
TORSDOF 0
ENDMDL
