MODEL 1
REMARK minimizedAffinity -2.27091503
REMARK minimizedRMSD -1
REMARK  0 active torsions:
REMARK  status: ('A' for Active; 'I' for Inactive)
ROOT
ATOM      1  C   UNL d   1      -1.035   2.111   0.774  0.00  0.00     0.023 A 
ATOM      2  C1  UNL d   1      -0.771   1.019   1.601  0.00  0.00     0.003 A 
ATOM      3  C2  UNL d   1      -0.375  -0.199   1.046  0.00  0.00     0.048 A 
ATOM      4  C3  UNL d   1      -0.244  -0.319  -0.337  0.00  0.00     0.023 A 
ATOM      5  C4  UNL d   1      -0.506   0.771  -1.169  0.00  0.00     0.048 A 
ATOM      6  C5  UNL d   1      -0.903   1.987  -0.609  0.00  0.00     0.003 A 
ATOM      7  I   UNL d   1       0.346  -2.132  -1.166  0.00  0.00    -0.146 I 
ENDROOT
TORSDOF 0
ENDMDL
