MODEL 1
REMARK minimizedAffinity 0.77882278
REMARK minimizedRMSD -1
REMARK  0 active torsions:
REMARK  status: ('A' for Active; 'I' for Inactive)
ROOT
ATOM      1  C   UNL d   1      -1.560   2.418  -0.296  0.00  0.00     0.023 A 
ATOM      2  C1  UNL d   1      -1.330   1.611   0.818  0.00  0.00     0.003 A 
ATOM      3  C2  UNL d   1      -0.738   0.356   0.663  0.00  0.00     0.048 A 
ATOM      4  C3  UNL d   1      -0.375  -0.085  -0.609  0.00  0.00     0.023 A 
ATOM      5  C4  UNL d   1      -0.602   0.719  -1.727  0.00  0.00     0.048 A 
ATOM      6  C5  UNL d   1      -1.196   1.973  -1.567  0.00  0.00     0.003 A 
ATOM      7  I   UNL d   1       0.507  -1.952  -0.842  0.00  0.00    -0.146 I 
ENDROOT
TORSDOF 0
ENDMDL
