MODEL 1
REMARK minimizedAffinity -0.515771985
REMARK minimizedRMSD -1
REMARK  0 active torsions:
REMARK  status: ('A' for Active; 'I' for Inactive)
ROOT
ATOM      1  C   UNL d   1       0.644  -1.641  -0.431  0.00  0.00     0.023 A 
ATOM      2  C1  UNL d   1       0.097  -0.580  -1.153  0.00  0.00     0.003 A 
ATOM      3  C2  UNL d   1      -0.183   0.630  -0.515  0.00  0.00     0.048 A 
ATOM      4  C3  UNL d   1       0.088   0.773   0.845  0.00  0.00     0.023 A 
ATOM      5  C4  UNL d   1       0.636  -0.285   1.572  0.00  0.00     0.048 A 
ATOM      6  C5  UNL d   1       0.913  -1.493   0.930  0.00  0.00     0.003 A 
ATOM      7  I   UNL d   1      -0.328   2.573   1.797  0.00  0.00    -0.146 I 
ENDROOT
TORSDOF 0
ENDMDL
