MODEL 1
REMARK minimizedAffinity -1.84304869
REMARK minimizedRMSD -1
REMARK  0 active torsions:
REMARK  status: ('A' for Active; 'I' for Inactive)
ROOT
ATOM      1  C   UNL d   1      -0.468   1.854  -0.865  0.00  0.00     0.023 A 
ATOM      2  C1  UNL d   1       0.307   1.302  -1.884  0.00  0.00     0.003 A 
ATOM      3  C2  UNL d   1       0.733  -0.025  -1.799  0.00  0.00     0.048 A 
ATOM      4  C3  UNL d   1       0.379  -0.795  -0.692  0.00  0.00     0.023 A 
ATOM      5  C4  UNL d   1      -0.398  -0.247   0.330  0.00  0.00     0.048 A 
ATOM      6  C5  UNL d   1      -0.820   1.081   0.241  0.00  0.00     0.003 A 
ATOM      7  I   UNL d   1       1.011  -2.770  -0.563  0.00  0.00    -0.146 I 
ENDROOT
TORSDOF 0
ENDMDL
