MODEL 1
REMARK minimizedAffinity -3.85330486
REMARK minimizedRMSD -1
REMARK  0 active torsions:
REMARK  status: ('A' for Active; 'I' for Inactive)
ROOT
ATOM      1  C   UNL d   1      -0.688   2.407   1.371  0.00  0.00     0.023 A 
ATOM      2  C1  UNL d   1      -1.144   2.131   0.082  0.00  0.00     0.003 A 
ATOM      3  C2  UNL d   1      -0.875   0.892  -0.504  0.00  0.00     0.048 A 
ATOM      4  C3  UNL d   1      -0.151  -0.066   0.205  0.00  0.00     0.023 A 
ATOM      5  C4  UNL d   1       0.306   0.206   1.495  0.00  0.00     0.048 A 
ATOM      6  C5  UNL d   1       0.036   1.446   2.077  0.00  0.00     0.003 A 
ATOM      7  I   UNL d   1       0.251  -1.910  -0.665  0.00  0.00    -0.146 I 
ENDROOT
TORSDOF 0
ENDMDL
