MODEL 1
REMARK minimizedAffinity -5.56943464
REMARK minimizedRMSD -1
REMARK  1 active torsions:
REMARK  status: ('A' for Active; 'I' for Inactive)
REMARK    1  A    between atoms: C1_2  and  C2_3 
ROOT
ATOM      1  C2  UNL d   1      -0.181  -0.138  -0.128  0.00  0.00    -0.081 A 
ATOM      2  C3  UNL d   1      -0.817   0.628  -1.112  0.00  0.00     0.006 A 
ATOM      3  C4  UNL d   1      -1.890   1.459  -0.780  0.00  0.00     0.002 A 
ATOM      4  C5  UNL d   1      -2.338   1.544   0.542  0.00  0.00    -0.080 A 
ATOM      5  C6  UNL d   1      -3.469   2.455   0.917  0.00  0.00     0.076 C 
ATOM      6  C7  UNL d   1      -1.714   0.766   1.523  0.00  0.00     0.002 A 
ATOM      7  C8  UNL d   1      -0.642  -0.065   1.191  0.00  0.00     0.006 A 
ENDROOT
BRANCH   1   8
ATOM      8  C1  UNL d   1       1.018  -0.985  -0.471  0.00  0.00     0.054 C 
ATOM      9  C   UNL d   1       0.966  -2.331   0.239  0.00  0.00     0.018 C 
ENDBRANCH   1   8
TORSDOF 1
ENDMDL
