MODEL 1
REMARK minimizedAffinity -5.3619504
REMARK minimizedRMSD -1
REMARK  1 active torsions:
REMARK  status: ('A' for Active; 'I' for Inactive)
REMARK    1  A    between atoms: C1_2  and  C2_3 
ROOT
ATOM      1  C2  UNL d   1      -0.603   0.572  -0.584  0.00  0.00    -0.081 A 
ATOM      2  C3  UNL d   1      -0.513  -0.757  -1.013  0.00  0.00     0.006 A 
ATOM      3  C4  UNL d   1       0.588  -1.542  -0.662  0.00  0.00     0.002 A 
ATOM      4  C5  UNL d   1       1.613  -1.013   0.130  0.00  0.00    -0.080 A 
ATOM      5  C6  UNL d   1       2.785  -1.854   0.539  0.00  0.00     0.076 C 
ATOM      6  C7  UNL d   1       1.532   0.321   0.543  0.00  0.00     0.002 A 
ATOM      7  C8  UNL d   1       0.432   1.106   0.192  0.00  0.00     0.006 A 
ENDROOT
BRANCH   1   8
ATOM      8  C1  UNL d   1      -1.820   1.402  -0.907  0.00  0.00     0.054 C 
ATOM      9  C   UNL d   1      -3.001   1.017  -0.027  0.00  0.00     0.018 C 
ENDBRANCH   1   8
TORSDOF 1
ENDMDL
