MODEL 1
REMARK minimizedAffinity -3.6241653
REMARK minimizedRMSD -1
REMARK  1 active torsions:
REMARK  status: ('A' for Active; 'I' for Inactive)
REMARK    1  A    between atoms: C1_2  and  C2_3 
ROOT
ATOM      1  C2  UNL d   1      -1.165   0.157  -0.285  0.00  0.00    -0.081 A 
ATOM      2  C3  UNL d   1      -1.002  -1.188  -0.639  0.00  0.00     0.006 A 
ATOM      3  C4  UNL d   1       0.213  -1.838  -0.409  0.00  0.00     0.002 A 
ATOM      4  C5  UNL d   1       1.281  -1.158   0.185  0.00  0.00    -0.080 A 
ATOM      5  C6  UNL d   1       2.581  -1.853   0.464  0.00  0.00     0.076 C 
ATOM      6  C7  UNL d   1       1.124   0.190   0.522  0.00  0.00     0.002 A 
ATOM      7  C8  UNL d   1      -0.090   0.841   0.293  0.00  0.00     0.006 A 
ENDROOT
BRANCH   1   8
ATOM      8  C1  UNL d   1      -2.494   0.843  -0.472  0.00  0.00     0.054 C 
ATOM      9  C   UNL d   1      -3.299   0.852   0.820  0.00  0.00     0.018 C 
ENDBRANCH   1   8
TORSDOF 1
ENDMDL
