MODEL 1
REMARK minimizedAffinity -4.57027388
REMARK minimizedRMSD -1
REMARK  1 active torsions:
REMARK  status: ('A' for Active; 'I' for Inactive)
REMARK    1  A    between atoms: C1_2  and  C2_3 
ROOT
ATOM      1  C2  UNL d   1      -1.251   0.761  -0.316  0.00  0.00    -0.081 A 
ATOM      2  C3  UNL d   1      -1.188  -0.495  -0.931  0.00  0.00     0.006 A 
ATOM      3  C4  UNL d   1      -0.026  -1.265  -0.853  0.00  0.00     0.002 A 
ATOM      4  C5  UNL d   1       1.090  -0.796  -0.152  0.00  0.00    -0.080 A 
ATOM      5  C6  UNL d   1       2.334  -1.626  -0.034  0.00  0.00     0.076 C 
ATOM      6  C7  UNL d   1       1.034   0.467   0.448  0.00  0.00     0.002 A 
ATOM      7  C8  UNL d   1      -0.128   1.237   0.370  0.00  0.00     0.006 A 
ENDROOT
BRANCH   1   8
ATOM      8  C1  UNL d   1      -2.525   1.566  -0.344  0.00  0.00     0.054 C 
ATOM      9  C   UNL d   1      -3.000   1.899   1.063  0.00  0.00     0.018 C 
ENDBRANCH   1   8
TORSDOF 1
ENDMDL
