MODEL 1
REMARK minimizedAffinity -2.62206578
REMARK minimizedRMSD -1
REMARK  1 active torsions:
REMARK  status: ('A' for Active; 'I' for Inactive)
REMARK    1  A    between atoms: C1_2  and  C2_3 
ROOT
ATOM      1  C2  UNL d   1      -1.493   0.562  -0.001  0.00  0.00    -0.081 A 
ATOM      2  C3  UNL d   1      -0.562   0.899  -0.991  0.00  0.00     0.006 A 
ATOM      3  C4  UNL d   1       0.710   0.323  -0.992  0.00  0.00     0.002 A 
ATOM      4  C5  UNL d   1       1.070  -0.605  -0.009  0.00  0.00    -0.080 A 
ATOM      5  C6  UNL d   1       2.422  -1.254  -0.016  0.00  0.00     0.076 C 
ATOM      6  C7  UNL d   1       0.146  -0.929   0.990  0.00  0.00     0.002 A 
ATOM      7  C8  UNL d   1      -1.126  -0.352   0.992  0.00  0.00     0.006 A 
ENDROOT
BRANCH   1   8
ATOM      8  C1  UNL d   1      -2.888   1.133  -0.035  0.00  0.00     0.054 C 
ATOM      9  C   UNL d   1      -3.505   1.169   1.356  0.00  0.00     0.018 C 
ENDBRANCH   1   8
TORSDOF 1
ENDMDL
