MODEL 1
REMARK minimizedAffinity -4.24673462
REMARK minimizedRMSD -1
REMARK  1 active torsions:
REMARK  status: ('A' for Active; 'I' for Inactive)
REMARK    1  A    between atoms: C1_2  and  C2_3 
ROOT
ATOM      1  C2  UNL d   1      -0.810   0.229  -0.338  0.00  0.00    -0.081 A 
ATOM      2  C3  UNL d   1      -0.385  -1.066  -0.658  0.00  0.00     0.006 A 
ATOM      3  C4  UNL d   1       0.883  -1.511  -0.275  0.00  0.00     0.002 A 
ATOM      4  C5  UNL d   1       1.743  -0.671   0.441  0.00  0.00    -0.080 A 
ATOM      5  C6  UNL d   1       3.094  -1.145   0.885  0.00  0.00     0.076 C 
ATOM      6  C7  UNL d   1       1.324   0.629   0.746  0.00  0.00     0.002 A 
ATOM      7  C8  UNL d   1       0.057   1.074   0.362  0.00  0.00     0.006 A 
ENDROOT
BRANCH   1   8
ATOM      8  C1  UNL d   1      -2.201   0.688  -0.693  0.00  0.00     0.054 C 
ATOM      9  C   UNL d   1      -2.771   1.607   0.378  0.00  0.00     0.018 C 
ENDBRANCH   1   8
TORSDOF 1
ENDMDL
