MODEL 1
REMARK minimizedAffinity -1.38243532
REMARK minimizedRMSD -1
REMARK  1 active torsions:
REMARK  status: ('A' for Active; 'I' for Inactive)
REMARK    1  A    between atoms: C1_2  and  C2_3 
ROOT
ATOM      1  C2  UNL d   1       0.111  -1.499  -0.922  0.00  0.00    -0.081 A 
ATOM      2  C3  UNL d   1       1.354  -1.851  -0.382  0.00  0.00     0.006 A 
ATOM      3  C4  UNL d   1       2.093  -0.924   0.356  0.00  0.00     0.002 A 
ATOM      4  C5  UNL d   1       1.599   0.366   0.574  0.00  0.00    -0.080 A 
ATOM      5  C6  UNL d   1       2.369   1.361   1.391  0.00  0.00     0.076 C 
ATOM      6  C7  UNL d   1       0.365   0.723   0.020  0.00  0.00     0.002 A 
ATOM      7  C8  UNL d   1      -0.374  -0.203  -0.719  0.00  0.00     0.006 A 
ENDROOT
BRANCH   1   8
ATOM      8  C1  UNL d   1      -0.718  -2.516  -1.664  0.00  0.00     0.054 C 
ATOM      9  C   UNL d   1      -0.650  -3.881  -0.994  0.00  0.00     0.018 C 
ENDBRANCH   1   8
TORSDOF 1
ENDMDL
