MODEL 1
REMARK minimizedAffinity -3.04972672
REMARK minimizedRMSD -1
REMARK  2 active torsions:
REMARK  status: ('A' for Active; 'I' for Inactive)
REMARK    1  A    between atoms: C1_2  and  C2_3 
REMARK    2  A    between atoms: C2_3  and  C3_4 
ROOT
ATOM      1  C3  UNL d   1       0.009  -0.821   2.747  0.00  0.00    -0.075 A 
ATOM      2  C4  UNL d   1       0.064   0.554   2.477  0.00  0.00     0.002 A 
ATOM      3  C5  UNL d   1      -1.049   1.221   1.965  0.00  0.00     0.002 A 
ATOM      4  C6  UNL d   1      -2.226   0.521   1.707  0.00  0.00    -0.004 A 
ATOM      5  C7  UNL d   1      -2.287  -0.848   1.955  0.00  0.00     0.002 A 
ATOM      6  C8  UNL d   1      -1.176  -1.517   2.472  0.00  0.00     0.002 A 
ENDROOT
BRANCH   1   7
ATOM      7  C2  UNL d   1       1.200  -1.543   3.329  0.00  0.00     0.056 C 
BRANCH   7   8
ATOM      8  C1  UNL d   1       1.318  -1.425   4.852  0.00  0.00     0.007 C 
ATOM      9  C   UNL d   1       2.760  -1.382   5.341  0.00  0.00     0.009 C 
ENDBRANCH   7   8
ENDBRANCH   1   7
TORSDOF 2
ENDMDL
