MODEL 1
REMARK minimizedAffinity 0.295994461
REMARK minimizedRMSD -1
REMARK  2 active torsions:
REMARK  status: ('A' for Active; 'I' for Inactive)
REMARK    1  A    between atoms: C1_2  and  C2_3 
REMARK    2  A    between atoms: C2_3  and  C3_4 
ROOT
ATOM      1  C3  UNL d   1      -1.931  -0.237   2.041  0.00  0.00    -0.075 A 
ATOM      2  C4  UNL d   1      -1.925  -1.123   0.954  0.00  0.00     0.002 A 
ATOM      3  C5  UNL d   1      -2.706  -0.866  -0.173  0.00  0.00     0.002 A 
ATOM      4  C6  UNL d   1      -3.508   0.272  -0.224  0.00  0.00    -0.004 A 
ATOM      5  C7  UNL d   1      -3.534   1.151   0.857  0.00  0.00     0.002 A 
ATOM      6  C8  UNL d   1      -2.750   0.898   1.985  0.00  0.00     0.002 A 
ENDROOT
BRANCH   1   7
ATOM      7  C2  UNL d   1      -1.066  -0.495   3.252  0.00  0.00     0.056 C 
BRANCH   7   8
ATOM      8  C1  UNL d   1       0.240  -1.233   2.940  0.00  0.00     0.007 C 
ATOM      9  C   UNL d   1       0.703  -2.140   4.072  0.00  0.00     0.009 C 
ENDBRANCH   7   8
ENDBRANCH   1   7
TORSDOF 2
ENDMDL
