MODEL 1
REMARK minimizedAffinity 4.93736029
REMARK minimizedRMSD -1
REMARK  2 active torsions:
REMARK  status: ('A' for Active; 'I' for Inactive)
REMARK    1  A    between atoms: C1_2  and  C2_3 
REMARK    2  A    between atoms: C2_3  and  C3_4 
ROOT
ATOM      1  C3  UNL d   1       0.431  -0.433  -5.366  0.00  0.00    -0.075 A 
ATOM      2  C4  UNL d   1      -0.766   0.248  -5.632  0.00  0.00     0.002 A 
ATOM      3  C5  UNL d   1      -1.985  -0.261  -5.186  0.00  0.00     0.002 A 
ATOM      4  C6  UNL d   1      -2.026  -1.461  -4.478  0.00  0.00    -0.004 A 
ATOM      5  C7  UNL d   1      -0.845  -2.154  -4.223  0.00  0.00     0.002 A 
ATOM      6  C8  UNL d   1       0.377  -1.645  -4.664  0.00  0.00     0.002 A 
ENDROOT
BRANCH   1   7
ATOM      7  C2  UNL d   1       1.757   0.127  -5.821  0.00  0.00     0.056 C 
BRANCH   7   8
ATOM      8  C1  UNL d   1       2.968  -0.464  -5.091  0.00  0.00     0.007 C 
ATOM      9  C   UNL d   1       4.271  -0.305  -5.863  0.00  0.00     0.009 C 
ENDBRANCH   7   8
ENDBRANCH   1   7
TORSDOF 2
ENDMDL
