MODEL 1
REMARK minimizedAffinity 1.43460226
REMARK minimizedRMSD -1
REMARK  2 active torsions:
REMARK  status: ('A' for Active; 'I' for Inactive)
REMARK    1  A    between atoms: C1_2  and  C2_3 
REMARK    2  A    between atoms: C2_3  and  C3_4 
ROOT
ATOM      1  C3  UNL d   1       0.377  -1.554   2.822  0.00  0.00    -0.075 A 
ATOM      2  C4  UNL d   1      -0.645  -2.512   2.888  0.00  0.00     0.002 A 
ATOM      3  C5  UNL d   1      -1.937  -2.199   2.463  0.00  0.00     0.002 A 
ATOM      4  C6  UNL d   1      -2.225  -0.925   1.979  0.00  0.00    -0.004 A 
ATOM      5  C7  UNL d   1      -1.222   0.040   1.926  0.00  0.00     0.002 A 
ATOM      6  C8  UNL d   1       0.073  -0.272   2.345  0.00  0.00     0.002 A 
ENDROOT
BRANCH   1   7
ATOM      7  C2  UNL d   1       1.784  -1.894   3.252  0.00  0.00     0.056 C 
BRANCH   7   8
ATOM      8  C1  UNL d   1       2.231  -1.190   4.538  0.00  0.00     0.007 C 
ATOM      9  C   UNL d   1       1.173  -1.210   5.632  0.00  0.00     0.009 C 
ENDBRANCH   7   8
ENDBRANCH   1   7
TORSDOF 2
ENDMDL
