MODEL 1
REMARK minimizedAffinity 8.53304482
REMARK minimizedRMSD -1
REMARK  2 active torsions:
REMARK  status: ('A' for Active; 'I' for Inactive)
REMARK    1  A    between atoms: C1_2  and  C2_3 
REMARK    2  A    between atoms: C2_3  and  C3_4 
ROOT
ATOM      1  C3  UNL d   1       0.613  -1.384   2.810  0.00  0.00    -0.075 A 
ATOM      2  C4  UNL d   1      -0.283  -0.345   2.521  0.00  0.00     0.002 A 
ATOM      3  C5  UNL d   1      -1.606  -0.625   2.176  0.00  0.00     0.002 A 
ATOM      4  C6  UNL d   1      -2.045  -1.945   2.105  0.00  0.00    -0.004 A 
ATOM      5  C7  UNL d   1      -1.159  -2.986   2.373  0.00  0.00     0.002 A 
ATOM      6  C8  UNL d   1       0.163  -2.708   2.723  0.00  0.00     0.002 A 
ENDROOT
BRANCH   1   7
ATOM      7  C2  UNL d   1       2.038  -1.086   3.212  0.00  0.00     0.056 C 
BRANCH   7   8
ATOM      8  C1  UNL d   1       2.486  -1.799   4.492  0.00  0.00     0.007 C 
ATOM      9  C   UNL d   1       2.164  -1.018   5.759  0.00  0.00     0.009 C 
ENDBRANCH   7   8
ENDBRANCH   1   7
TORSDOF 2
ENDMDL
