MODEL 1
REMARK minimizedAffinity -4.52500677
REMARK minimizedRMSD -1
REMARK  2 active torsions:
REMARK  status: ('A' for Active; 'I' for Inactive)
REMARK    1  A    between atoms: C1_2  and  C2_3 
REMARK    2  A    between atoms: C2_3  and  C3_4 
ROOT
ATOM      1  C3  UNL d   1      -1.503  -0.496   0.179  0.00  0.00    -0.075 A 
ATOM      2  C4  UNL d   1      -2.821  -0.233  -0.224  0.00  0.00     0.002 A 
ATOM      3  C5  UNL d   1      -3.845  -0.146   0.719  0.00  0.00     0.002 A 
ATOM      4  C6  UNL d   1      -3.568  -0.330   2.072  0.00  0.00    -0.004 A 
ATOM      5  C7  UNL d   1      -2.266  -0.608   2.481  0.00  0.00     0.002 A 
ATOM      6  C8  UNL d   1      -1.238  -0.691   1.541  0.00  0.00     0.002 A 
ENDROOT
BRANCH   1   7
ATOM      7  C2  UNL d   1      -0.385  -0.563  -0.834  0.00  0.00     0.056 C 
BRANCH   7   8
ATOM      8  C1  UNL d   1       0.076  -1.987  -1.161  0.00  0.00     0.007 C 
ATOM      9  C   UNL d   1       0.395  -2.190  -2.637  0.00  0.00     0.009 C 
ENDBRANCH   7   8
ENDBRANCH   1   7
TORSDOF 2
ENDMDL
