MODEL 1
REMARK minimizedAffinity -1.96211314
REMARK minimizedRMSD -1
REMARK  0 active torsions:
REMARK  status: ('A' for Active; 'I' for Inactive)
ROOT
ATOM      1  C   UNL d   1       0.033   1.167   0.014  0.00  0.00     0.172 C 
ATOM      2  N   UNL d   1       1.267   0.466   0.278  0.00  0.00    -0.070 N 
ATOM      3  C1  UNL d   1       2.160   0.768   1.272  0.00  0.00    -0.004 A 
ATOM      4  C2  UNL d   1       3.201  -0.131   1.191  0.00  0.00    -0.047 A 
ATOM      5  C3  UNL d   1       2.927  -1.002   0.110  0.00  0.00    -0.047 A 
ATOM      6  C4  UNL d   1       1.723  -0.609  -0.438  0.00  0.00    -0.004 A 
ENDROOT
TORSDOF 0
ENDMDL
