MODEL 1
REMARK minimizedAffinity -3.89165926
REMARK minimizedRMSD -1
REMARK  0 active torsions:
REMARK  status: ('A' for Active; 'I' for Inactive)
ROOT
ATOM      1  C   UNL d   1       0.020   1.425   0.058  0.00  0.00     0.172 C 
ATOM      2  N   UNL d   1       1.061   0.446   0.262  0.00  0.00    -0.070 N 
ATOM      3  C1  UNL d   1       2.389   0.721   0.451  0.00  0.00    -0.004 A 
ATOM      4  C2  UNL d   1       3.050  -0.478   0.608  0.00  0.00    -0.047 A 
ATOM      5  C3  UNL d   1       2.086  -1.509   0.508  0.00  0.00    -0.047 A 
ATOM      6  C4  UNL d   1       0.864  -0.909   0.294  0.00  0.00    -0.004 A 
ENDROOT
TORSDOF 0
ENDMDL
