MODEL 1
REMARK minimizedAffinity -3.59993649
REMARK minimizedRMSD -1
REMARK  0 active torsions:
REMARK  status: ('A' for Active; 'I' for Inactive)
ROOT
ATOM      1  C   UNL d   1      -0.502  -0.052   0.532  0.00  0.00     0.172 C 
ATOM      2  N   UNL d   1       0.918  -0.184   0.758  0.00  0.00    -0.070 N 
ATOM      3  C1  UNL d   1       1.892   0.593   0.190  0.00  0.00    -0.004 A 
ATOM      4  C2  UNL d   1       3.111   0.152   0.659  0.00  0.00    -0.047 A 
ATOM      5  C3  UNL d   1       2.861  -0.928   1.538  0.00  0.00    -0.047 A 
ATOM      6  C4  UNL d   1       1.495  -1.114   1.582  0.00  0.00    -0.004 A 
ENDROOT
TORSDOF 0
ENDMDL
