MODEL 1
REMARK minimizedAffinity -2.5368557
REMARK minimizedRMSD -1
REMARK  0 active torsions:
REMARK  status: ('A' for Active; 'I' for Inactive)
ROOT
ATOM      1  C   UNL d   1       2.543  -1.336  -0.215  0.00  0.00     0.172 C 
ATOM      2  N   UNL d   1       1.319  -0.587  -0.055  0.00  0.00    -0.070 N 
ATOM      3  C1  UNL d   1       0.056  -1.057  -0.300  0.00  0.00    -0.004 A 
ATOM      4  C2  UNL d   1      -0.833  -0.041  -0.028  0.00  0.00    -0.047 A 
ATOM      5  C3  UNL d   1      -0.080   1.080   0.396  0.00  0.00    -0.047 A 
ATOM      6  C4  UNL d   1       1.249   0.714   0.370  0.00  0.00    -0.004 A 
ENDROOT
TORSDOF 0
ENDMDL
