MODEL 1
REMARK minimizedAffinity -1.69303298
REMARK minimizedRMSD -1
REMARK  0 active torsions:
REMARK  status: ('A' for Active; 'I' for Inactive)
ROOT
ATOM      1  C   UNL d   1       1.145  -2.072   1.073  0.00  0.00     0.172 C 
ATOM      2  N   UNL d   1       0.666  -0.794   0.602  0.00  0.00    -0.070 N 
ATOM      3  C1  UNL d   1       1.226   0.423   0.887  0.00  0.00    -0.004 A 
ATOM      4  C2  UNL d   1       0.479   1.391   0.252  0.00  0.00    -0.047 A 
ATOM      5  C3  UNL d   1      -0.567   0.734  -0.438  0.00  0.00    -0.047 A 
ATOM      6  C4  UNL d   1      -0.428  -0.618  -0.204  0.00  0.00    -0.004 A 
ENDROOT
TORSDOF 0
ENDMDL
