MODEL 1
REMARK minimizedAffinity -2.1234405
REMARK minimizedRMSD -1
REMARK  0 active torsions:
REMARK  status: ('A' for Active; 'I' for Inactive)
ROOT
ATOM      1  C   UNL d   1       2.897  -0.297   0.705  0.00  0.00     0.172 C 
ATOM      2  N   UNL d   1       1.491  -0.033   0.509  0.00  0.00    -0.070 N 
ATOM      3  C1  UNL d   1       0.465  -0.871   0.856  0.00  0.00    -0.004 A 
ATOM      4  C2  UNL d   1      -0.718  -0.258   0.507  0.00  0.00    -0.047 A 
ATOM      5  C3  UNL d   1      -0.393   0.992  -0.071  0.00  0.00    -0.047 A 
ATOM      6  C4  UNL d   1       0.981   1.106  -0.057  0.00  0.00    -0.004 A 
ENDROOT
TORSDOF 0
ENDMDL
