MODEL 1
REMARK minimizedAffinity 13.6602468
REMARK minimizedRMSD -1
REMARK  0 active torsions:
REMARK  status: ('A' for Active; 'I' for Inactive)
ROOT
ATOM      1  C   UNL d   1       2.031   1.407  -0.312  0.00  0.00    -0.002 A 
ATOM      2  C1  UNL d   1       3.410   1.517  -0.422  0.00  0.00     0.010 A 
ATOM      3  C2  UNL d   1       4.230   0.405  -0.221  0.00  0.00     0.041 A 
ATOM      4  C3  UNL d   1       3.634  -0.833   0.094  0.00  0.00    -0.075 A 
ATOM      5  S   UNL d   1       4.439  -2.330   0.381  0.00  0.00     0.015 SA
ATOM      6  C4  UNL d   1       2.972  -3.152   0.655  0.00  0.00     0.022 A 
ATOM      7  C5  UNL d   1       1.884  -2.319   0.535  0.00  0.00     0.026 A 
ATOM      8  C6  UNL d   1       2.248  -0.969   0.208  0.00  0.00    -0.082 A 
ATOM      9  C7  UNL d   1       1.444   0.177  -0.000  0.00  0.00     0.045 A 
ENDROOT
TORSDOF 0
ENDMDL
