MODEL 1
REMARK minimizedAffinity 8.10717487
REMARK minimizedRMSD -1
REMARK  0 active torsions:
REMARK  status: ('A' for Active; 'I' for Inactive)
ROOT
ATOM      1  C   UNL d   1      -2.302  -1.773  -4.186  0.00  0.00    -0.002 A 
ATOM      2  C1  UNL d   1      -1.703  -1.040  -5.201  0.00  0.00     0.010 A 
ATOM      3  C2  UNL d   1      -2.387   0.009  -5.817  0.00  0.00     0.041 A 
ATOM      4  C3  UNL d   1      -3.695   0.314  -5.391  0.00  0.00    -0.075 A 
ATOM      5  S   UNL d   1      -4.723   1.557  -6.000  0.00  0.00     0.015 SA
ATOM      6  C4  UNL d   1      -5.981   1.145  -4.926  0.00  0.00     0.022 A 
ATOM      7  C5  UNL d   1      -5.642   0.087  -4.116  0.00  0.00     0.026 A 
ATOM      8  C6  UNL d   1      -4.318  -0.409  -4.370  0.00  0.00    -0.082 A 
ATOM      9  C7  UNL d   1      -3.599  -1.468  -3.766  0.00  0.00     0.045 A 
ENDROOT
TORSDOF 0
ENDMDL
