MODEL 1
REMARK minimizedAffinity -1.27926075
REMARK minimizedRMSD -1
REMARK  0 active torsions:
REMARK  status: ('A' for Active; 'I' for Inactive)
ROOT
ATOM      1  C   UNL d   1       1.345  -1.262   1.706  0.00  0.00    -0.002 A 
ATOM      2  C1  UNL d   1       1.933  -1.481   0.469  0.00  0.00     0.010 A 
ATOM      3  C2  UNL d   1       3.101  -2.240   0.362  0.00  0.00     0.041 A 
ATOM      4  C3  UNL d   1       3.671  -2.781   1.531  0.00  0.00    -0.075 A 
ATOM      5  S   UNL d   1       5.098  -3.743   1.642  0.00  0.00     0.015 SA
ATOM      6  C4  UNL d   1       4.959  -3.886   3.335  0.00  0.00     0.022 A 
ATOM      7  C5  UNL d   1       3.857  -3.222   3.820  0.00  0.00     0.026 A 
ATOM      8  C6  UNL d   1       3.096  -2.575   2.788  0.00  0.00    -0.082 A 
ATOM      9  C7  UNL d   1       1.913  -1.801   2.863  0.00  0.00     0.045 A 
ENDROOT
TORSDOF 0
ENDMDL
