MODEL 1
REMARK minimizedAffinity 10.1796455
REMARK minimizedRMSD -1
REMARK  0 active torsions:
REMARK  status: ('A' for Active; 'I' for Inactive)
ROOT
ATOM      1  C   UNL d   1      -3.878  -1.255  -2.646  0.00  0.00    -0.002 A 
ATOM      2  C1  UNL d   1      -3.737  -1.486  -4.007  0.00  0.00     0.010 A 
ATOM      3  C2  UNL d   1      -3.540  -0.424  -4.891  0.00  0.00     0.041 A 
ATOM      4  C3  UNL d   1      -3.485   0.888  -4.380  0.00  0.00    -0.075 A 
ATOM      5  S   UNL d   1      -3.252   2.343  -5.274  0.00  0.00     0.015 SA
ATOM      6  C4  UNL d   1      -3.334   3.307  -3.870  0.00  0.00     0.022 A 
ATOM      7  C5  UNL d   1      -3.535   2.553  -2.738  0.00  0.00     0.026 A 
ATOM      8  C6  UNL d   1      -3.624   1.146  -3.013  0.00  0.00    -0.082 A 
ATOM      9  C7  UNL d   1      -3.824   0.048  -2.142  0.00  0.00     0.045 A 
ENDROOT
TORSDOF 0
ENDMDL
