MODEL 1
REMARK minimizedAffinity 4.47952938
REMARK minimizedRMSD -1
REMARK  0 active torsions:
REMARK  status: ('A' for Active; 'I' for Inactive)
ROOT
ATOM      1  C   UNL d   1      -1.540  -0.455  -4.972  0.00  0.00    -0.002 A 
ATOM      2  C1  UNL d   1      -2.135  -1.490  -4.264  0.00  0.00     0.010 A 
ATOM      3  C2  UNL d   1      -3.513  -1.498  -4.041  0.00  0.00     0.041 A 
ATOM      4  C3  UNL d   1      -4.291  -0.438  -4.548  0.00  0.00    -0.075 A 
ATOM      5  S   UNL d   1      -5.997  -0.237  -4.398  0.00  0.00     0.015 SA
ATOM      6  C4  UNL d   1      -5.977   1.227  -5.270  0.00  0.00     0.022 A 
ATOM      7  C5  UNL d   1      -4.708   1.569  -5.672  0.00  0.00     0.026 A 
ATOM      8  C6  UNL d   1      -3.716   0.615  -5.264  0.00  0.00    -0.082 A 
ATOM      9  C7  UNL d   1      -2.315   0.595  -5.472  0.00  0.00     0.045 A 
ENDROOT
TORSDOF 0
ENDMDL
