MODEL 1
REMARK minimizedAffinity 1.97126448
REMARK minimizedRMSD -1
REMARK  0 active torsions:
REMARK  status: ('A' for Active; 'I' for Inactive)
ROOT
ATOM      1  C   UNL d   1      -1.694  -0.941  -5.350  0.00  0.00    -0.002 A 
ATOM      2  C1  UNL d   1      -2.139  -1.601  -4.214  0.00  0.00     0.010 A 
ATOM      3  C2  UNL d   1      -3.415  -1.355  -3.703  0.00  0.00     0.041 A 
ATOM      4  C3  UNL d   1      -4.245  -0.426  -4.361  0.00  0.00    -0.075 A 
ATOM      5  S   UNL d   1      -5.845   0.035  -3.916  0.00  0.00     0.015 SA
ATOM      6  C4  UNL d   1      -5.977   1.119  -5.225  0.00  0.00     0.022 A 
ATOM      7  C5  UNL d   1      -4.836   1.142  -5.992  0.00  0.00     0.026 A 
ATOM      8  C6  UNL d   1      -3.819   0.251  -5.507  0.00  0.00    -0.082 A 
ATOM      9  C7  UNL d   1      -2.520  -0.020  -6.000  0.00  0.00     0.045 A 
ENDROOT
TORSDOF 0
ENDMDL
