MODEL 1
REMARK minimizedAffinity 2.93553758
REMARK minimizedRMSD -1
REMARK  0 active torsions:
REMARK  status: ('A' for Active; 'I' for Inactive)
ROOT
ATOM      1  C2' OXE d   1       1.883  -2.236  -3.874  0.00  0.00     0.078 C 
ATOM      2  C1' OXE d   1       0.629  -2.141  -1.364  0.00  0.00     0.078 C 
ATOM      3  C1  OXE d   1       1.978  -1.480  -1.503  0.00  0.00    -0.078 A 
ATOM      4  C2  OXE d   1       2.605  -1.572  -2.722  0.00  0.00    -0.078 A 
ATOM      5  C3  OXE d   1       3.826  -0.933  -2.919  0.00  0.00     0.003 A 
ATOM      6  C4  OXE d   1       4.491  -0.329  -1.846  0.00  0.00    -0.002 A 
ATOM      7  C5  OXE d   1       3.888  -0.259  -0.585  0.00  0.00    -0.002 A 
ATOM      8  C6  OXE d   1       2.616  -0.791  -0.408  0.00  0.00     0.003 A 
ENDROOT
TORSDOF 0
ENDMDL
