MODEL 1
REMARK minimizedAffinity -2.28611755
REMARK minimizedRMSD -1
REMARK  0 active torsions:
REMARK  status: ('A' for Active; 'I' for Inactive)
ROOT
ATOM      1  C2' OXE d   1      -0.763   0.742   1.457  0.00  0.00     0.078 C 
ATOM      2  C1' OXE d   1      -0.812   1.784  -1.149  0.00  0.00     0.078 C 
ATOM      3  C1  OXE d   1       0.024   0.554  -0.899  0.00  0.00    -0.078 A 
ATOM      4  C2  OXE d   1       0.079   0.079   0.389  0.00  0.00    -0.078 A 
ATOM      5  C3  OXE d   1       0.792  -1.085   0.664  0.00  0.00     0.003 A 
ATOM      6  C4  OXE d   1       1.576  -1.687  -0.327  0.00  0.00    -0.002 A 
ATOM      7  C5  OXE d   1       1.566  -1.195  -1.636  0.00  0.00    -0.002 A 
ATOM      8  C6  OXE d   1       0.763  -0.104  -1.948  0.00  0.00     0.003 A 
ENDROOT
TORSDOF 0
ENDMDL
