MODEL 1
REMARK minimizedAffinity 5.20544338
REMARK minimizedRMSD -1
REMARK  0 active torsions:
REMARK  status: ('A' for Active; 'I' for Inactive)
ROOT
ATOM      1  C2' OXE d   1       2.876   1.464  -3.121  0.00  0.00     0.078 C 
ATOM      2  C1' OXE d   1       0.888   3.443  -3.245  0.00  0.00     0.078 C 
ATOM      3  C1  OXE d   1       0.634   2.245  -2.365  0.00  0.00    -0.078 A 
ATOM      4  C2  OXE d   1       1.592   1.260  -2.346  0.00  0.00    -0.078 A 
ATOM      5  C3  OXE d   1       1.432   0.159  -1.509  0.00  0.00     0.003 A 
ATOM      6  C4  OXE d   1       0.237  -0.027  -0.803  0.00  0.00    -0.002 A 
ATOM      7  C5  OXE d   1      -0.768   0.946  -0.839  0.00  0.00    -0.002 A 
ATOM      8  C6  OXE d   1      -0.568   2.105  -1.580  0.00  0.00     0.003 A 
ENDROOT
TORSDOF 0
ENDMDL
