MODEL 1
REMARK minimizedAffinity 7.61372662
REMARK minimizedRMSD -1
REMARK  0 active torsions:
REMARK  status: ('A' for Active; 'I' for Inactive)
ROOT
ATOM      1  C2' OXE d   1       1.674   1.699  -5.253  0.00  0.00     0.078 C 
ATOM      2  C1' OXE d   1       0.691   3.645  -3.484  0.00  0.00     0.078 C 
ATOM      3  C1  OXE d   1       1.621   2.595  -2.929  0.00  0.00    -0.078 A 
ATOM      4  C2  OXE d   1       2.060   1.619  -3.792  0.00  0.00    -0.078 A 
ATOM      5  C3  OXE d   1       2.963   0.659  -3.344  0.00  0.00     0.003 A 
ATOM      6  C4  OXE d   1       3.307   0.586  -1.989  0.00  0.00    -0.002 A 
ATOM      7  C5  OXE d   1       2.839   1.546  -1.086  0.00  0.00    -0.002 A 
ATOM      8  C6  OXE d   1       2.031   2.580  -1.547  0.00  0.00     0.003 A 
ENDROOT
TORSDOF 0
ENDMDL
