MODEL 1
REMARK minimizedAffinity -1.55030167
REMARK minimizedRMSD -1
REMARK  0 active torsions:
REMARK  status: ('A' for Active; 'I' for Inactive)
ROOT
ATOM      1  C2' OXE d   1       1.268  -2.600  -2.142  0.00  0.00     0.078 C 
ATOM      2  C1' OXE d   1       1.572   0.108  -1.467  0.00  0.00     0.078 C 
ATOM      3  C1  OXE d   1       0.212  -0.515  -1.277  0.00  0.00    -0.078 A 
ATOM      4  C2  OXE d   1       0.061  -1.828  -1.654  0.00  0.00    -0.078 A 
ATOM      5  C3  OXE d   1      -1.159  -2.468  -1.449  0.00  0.00     0.003 A 
ATOM      6  C4  OXE d   1      -2.273  -1.745  -1.007  0.00  0.00    -0.002 A 
ATOM      7  C5  OXE d   1      -2.150  -0.396  -0.656  0.00  0.00    -0.002 A 
ATOM      8  C6  OXE d   1      -0.907   0.221  -0.744  0.00  0.00     0.003 A 
ENDROOT
TORSDOF 0
ENDMDL
