MODEL 1
REMARK minimizedAffinity 6.14574862
REMARK minimizedRMSD -1
REMARK  0 active torsions:
REMARK  status: ('A' for Active; 'I' for Inactive)
ROOT
ATOM      1  C2' OXE d   1      -0.143   2.015  -1.170  0.00  0.00     0.078 C 
ATOM      2  C1' OXE d   1       1.480   3.220  -3.117  0.00  0.00     0.078 C 
ATOM      3  C1  OXE d   1       1.958   1.927  -2.505  0.00  0.00    -0.078 A 
ATOM      4  C2  OXE d   1       1.180   1.369  -1.520  0.00  0.00    -0.078 A 
ATOM      5  C3  OXE d   1       1.547   0.148  -0.961  0.00  0.00     0.003 A 
ATOM      6  C4  OXE d   1       2.777  -0.438  -1.283  0.00  0.00    -0.002 A 
ATOM      7  C5  OXE d   1       3.603   0.135  -2.255  0.00  0.00    -0.002 A 
ATOM      8  C6  OXE d   1       3.189   1.293  -2.905  0.00  0.00     0.003 A 
ENDROOT
TORSDOF 0
ENDMDL
