MODEL 1
REMARK minimizedAffinity 4.39192915
REMARK minimizedRMSD -1
REMARK  0 active torsions:
REMARK  status: ('A' for Active; 'I' for Inactive)
ROOT
ATOM      1  C2' OXE d   1       2.297  -0.810  -1.426  0.00  0.00     0.078 C 
ATOM      2  C1' OXE d   1       0.130   0.852  -0.778  0.00  0.00     0.078 C 
ATOM      3  C1  OXE d   1       1.096   1.334  -1.831  0.00  0.00    -0.078 A 
ATOM      4  C2  OXE d   1       2.180   0.536  -2.108  0.00  0.00    -0.078 A 
ATOM      5  C3  OXE d   1       3.072   0.907  -3.109  0.00  0.00     0.003 A 
ATOM      6  C4  OXE d   1       2.962   2.158  -3.728  0.00  0.00    -0.002 A 
ATOM      7  C5  OXE d   1       1.888   3.005  -3.432  0.00  0.00    -0.002 A 
ATOM      8  C6  OXE d   1       0.925   2.590  -2.519  0.00  0.00     0.003 A 
ENDROOT
TORSDOF 0
ENDMDL
