MODEL 1
REMARK minimizedAffinity 10.7475996
REMARK minimizedRMSD -1
REMARK  0 active torsions:
REMARK  status: ('A' for Active; 'I' for Inactive)
ROOT
ATOM      1  C2' OXE d   1       1.952  -0.860  -0.930  0.00  0.00     0.078 C 
ATOM      2  C1' OXE d   1      -0.398   0.628  -0.546  0.00  0.00     0.078 C 
ATOM      3  C1  OXE d   1       0.644   1.186  -1.483  0.00  0.00    -0.078 A 
ATOM      4  C2  OXE d   1       1.810   0.475  -1.629  0.00  0.00    -0.078 A 
ATOM      5  C3  OXE d   1       2.780   0.918  -2.523  0.00  0.00     0.003 A 
ATOM      6  C4  OXE d   1       2.646   2.158  -3.158  0.00  0.00    -0.002 A 
ATOM      7  C5  OXE d   1       1.483   2.918  -2.993  0.00  0.00    -0.002 A 
ATOM      8  C6  OXE d   1       0.456   2.427  -2.194  0.00  0.00     0.003 A 
ENDROOT
TORSDOF 0
ENDMDL
