MODEL 1
REMARK minimizedAffinity 1.69946027
REMARK minimizedRMSD -1
REMARK  0 active torsions:
REMARK  status: ('A' for Active; 'I' for Inactive)
ROOT
ATOM      1  C2' OXE d   1       2.226  -0.848  -0.693  0.00  0.00     0.078 C 
ATOM      2  C1' OXE d   1       0.102   0.856  -0.009  0.00  0.00     0.078 C 
ATOM      3  C1  OXE d   1       0.939   1.222  -1.210  0.00  0.00    -0.078 A 
ATOM      4  C2  OXE d   1       2.004   0.408  -1.510  0.00  0.00    -0.078 A 
ATOM      5  C3  OXE d   1       2.775   0.669  -2.639  0.00  0.00     0.003 A 
ATOM      6  C4  OXE d   1       2.570   1.837  -3.382  0.00  0.00    -0.002 A 
ATOM      7  C5  OXE d   1       1.514   2.701  -3.071  0.00  0.00    -0.002 A 
ATOM      8  C6  OXE d   1       0.665   2.386  -2.015  0.00  0.00     0.003 A 
ENDROOT
TORSDOF 0
ENDMDL
