MODEL 1
REMARK minimizedAffinity 1.44869125
REMARK minimizedRMSD -1
REMARK  0 active torsions:
REMARK  status: ('A' for Active; 'I' for Inactive)
ROOT
ATOM      1  C2' OXE d   1       1.533  -3.851  -2.670  0.00  0.00     0.078 C 
ATOM      2  C1' OXE d   1      -0.762  -2.907  -1.359  0.00  0.00     0.078 C 
ATOM      3  C1  OXE d   1       0.455  -2.016  -1.376  0.00  0.00    -0.078 A 
ATOM      4  C2  OXE d   1       1.588  -2.506  -1.979  0.00  0.00    -0.078 A 
ATOM      5  C3  OXE d   1       2.722  -1.704  -2.069  0.00  0.00     0.003 A 
ATOM      6  C4  OXE d   1       2.768  -0.465  -1.419  0.00  0.00    -0.002 A 
ATOM      7  C5  OXE d   1       1.637   0.035  -0.764  0.00  0.00    -0.002 A 
ATOM      8  C6  OXE d   1       0.462  -0.708  -0.770  0.00  0.00     0.003 A 
ENDROOT
TORSDOF 0
ENDMDL
