MODEL 1
REMARK minimizedAffinity 6.09369946
REMARK minimizedRMSD -1
REMARK  0 active torsions:
REMARK  status: ('A' for Active; 'I' for Inactive)
ROOT
ATOM      1  C2' OXE d   1       1.162   0.331  -0.775  0.00  0.00     0.078 C 
ATOM      2  C1' OXE d   1      -0.726   1.710   0.778  0.00  0.00     0.078 C 
ATOM      3  C1  OXE d   1      -1.116   0.359   0.233  0.00  0.00    -0.078 A 
ATOM      4  C2  OXE d   1      -0.203  -0.288  -0.565  0.00  0.00    -0.078 A 
ATOM      5  C3  OXE d   1      -0.491  -1.561  -1.049  0.00  0.00     0.003 A 
ATOM      6  C4  OXE d   1      -1.759  -2.122  -0.858  0.00  0.00    -0.002 A 
ATOM      7  C5  OXE d   1      -2.718  -1.462  -0.082  0.00  0.00    -0.002 A 
ATOM      8  C6  OXE d   1      -2.398  -0.243   0.505  0.00  0.00     0.003 A 
ENDROOT
TORSDOF 0
ENDMDL
