MODEL 1
REMARK minimizedAffinity 4.10820484
REMARK minimizedRMSD -1
REMARK  0 active torsions:
REMARK  status: ('A' for Active; 'I' for Inactive)
ROOT
ATOM      1  C2' OXE d   1      -1.715  -2.279  -0.946  0.00  0.00     0.078 C 
ATOM      2  C1' OXE d   1      -1.016   0.364  -0.306  0.00  0.00     0.078 C 
ATOM      3  C1  OXE d   1       0.078  -0.557  -0.787  0.00  0.00    -0.078 A 
ATOM      4  C2  OXE d   1      -0.264  -1.861  -1.053  0.00  0.00    -0.078 A 
ATOM      5  C3  OXE d   1       0.696  -2.737  -1.551  0.00  0.00     0.003 A 
ATOM      6  C4  OXE d   1       2.037  -2.345  -1.637  0.00  0.00    -0.002 A 
ATOM      7  C5  OXE d   1       2.414  -1.033  -1.333  0.00  0.00    -0.002 A 
ATOM      8  C6  OXE d   1       1.442  -0.116  -0.948  0.00  0.00     0.003 A 
ENDROOT
TORSDOF 0
ENDMDL
