MODEL 1
REMARK minimizedAffinity 5.66925478
REMARK minimizedRMSD -1
REMARK  0 active torsions:
REMARK  status: ('A' for Active; 'I' for Inactive)
ROOT
ATOM      1  C2' OXE d   1       3.304   0.786  -1.613  0.00  0.00     0.078 C 
ATOM      2  C1' OXE d   1       1.127  -0.856  -2.281  0.00  0.00     0.078 C 
ATOM      3  C1  OXE d   1       0.923   0.179  -1.203  0.00  0.00    -0.078 A 
ATOM      4  C2  OXE d   1       2.006   0.946  -0.850  0.00  0.00    -0.078 A 
ATOM      5  C3  OXE d   1       1.858   1.952   0.101  0.00  0.00     0.003 A 
ATOM      6  C4  OXE d   1       0.658   2.087   0.809  0.00  0.00    -0.002 A 
ATOM      7  C5  OXE d   1      -0.446   1.288   0.493  0.00  0.00    -0.002 A 
ATOM      8  C6  OXE d   1      -0.344   0.360  -0.537  0.00  0.00     0.003 A 
ENDROOT
TORSDOF 0
ENDMDL
