MODEL 1
REMARK minimizedAffinity 11.0571346
REMARK minimizedRMSD -1
REMARK  0 active torsions:
REMARK  status: ('A' for Active; 'I' for Inactive)
ROOT
ATOM      1  C2' OXE d   1       2.638   1.008  -0.948  0.00  0.00     0.078 C 
ATOM      2  C1' OXE d   1       2.521   1.829   1.734  0.00  0.00     0.078 C 
ATOM      3  C1  OXE d   1       1.221   1.696   0.981  0.00  0.00    -0.078 A 
ATOM      4  C2  OXE d   1       1.291   1.339  -0.344  0.00  0.00    -0.078 A 
ATOM      5  C3  OXE d   1       0.118   1.149  -1.070  0.00  0.00     0.003 A 
ATOM      6  C4  OXE d   1      -1.123   1.466  -0.506  0.00  0.00    -0.002 A 
ATOM      7  C5  OXE d   1      -1.214   1.870   0.830  0.00  0.00    -0.002 A 
ATOM      8  C6  OXE d   1      -0.058   1.948   1.599  0.00  0.00     0.003 A 
ENDROOT
TORSDOF 0
ENDMDL
