MODEL 1
REMARK minimizedAffinity 5.40906382
REMARK minimizedRMSD -1
REMARK  0 active torsions:
REMARK  status: ('A' for Active; 'I' for Inactive)
ROOT
ATOM      1  C2' OXE d   1      -0.868   1.026  -0.486  0.00  0.00     0.078 C 
ATOM      2  C1' OXE d   1       1.125  -0.851  -1.103  0.00  0.00     0.078 C 
ATOM      3  C1  OXE d   1      -0.284  -1.356  -0.918  0.00  0.00    -0.078 A 
ATOM      4  C2  OXE d   1      -1.245  -0.437  -0.570  0.00  0.00    -0.078 A 
ATOM      5  C3  OXE d   1      -2.570  -0.841  -0.441  0.00  0.00     0.003 A 
ATOM      6  C4  OXE d   1      -2.908  -2.198  -0.511  0.00  0.00    -0.002 A 
ATOM      7  C5  OXE d   1      -1.938  -3.156  -0.825  0.00  0.00    -0.002 A 
ATOM      8  C6  OXE d   1      -0.632  -2.747  -1.073  0.00  0.00     0.003 A 
ENDROOT
TORSDOF 0
ENDMDL
