MODEL 1
REMARK minimizedAffinity 11.9403381
REMARK minimizedRMSD -1
REMARK  0 active torsions:
REMARK  status: ('A' for Active; 'I' for Inactive)
ROOT
ATOM      1  C2' OXE d   1       2.452  -0.696  -1.128  0.00  0.00     0.078 C 
ATOM      2  C1' OXE d   1       0.300   0.925  -0.341  0.00  0.00     0.078 C 
ATOM      3  C1  OXE d   1       1.170   1.412  -1.473  0.00  0.00    -0.078 A 
ATOM      4  C2  OXE d   1       2.249   0.634  -1.820  0.00  0.00    -0.078 A 
ATOM      5  C3  OXE d   1       3.052   1.009  -2.894  0.00  0.00     0.003 A 
ATOM      6  C4  OXE d   1       2.863   2.246  -3.522  0.00  0.00    -0.002 A 
ATOM      7  C5  OXE d   1       1.794   3.072  -3.157  0.00  0.00    -0.002 A 
ATOM      8  C6  OXE d   1       0.915   2.650  -2.165  0.00  0.00     0.003 A 
ENDROOT
TORSDOF 0
ENDMDL
