MODEL 1
REMARK minimizedAffinity -4.49648905
REMARK minimizedRMSD -1
REMARK  0 active torsions:
REMARK  status: ('A' for Active; 'I' for Inactive)
ROOT
ATOM      1  C2' OXE d   1       2.831   0.065  -0.428  0.00  0.00     0.078 C 
ATOM      2  C1' OXE d   1       1.188  -2.173  -0.843  0.00  0.00     0.078 C 
ATOM      3  C1  OXE d   1       0.518  -0.847  -0.584  0.00  0.00    -0.078 A 
ATOM      4  C2  OXE d   1       1.330   0.233  -0.335  0.00  0.00    -0.078 A 
ATOM      5  C3  OXE d   1       0.764   1.491  -0.144  0.00  0.00     0.003 A 
ATOM      6  C4  OXE d   1      -0.625   1.636  -0.050  0.00  0.00    -0.002 A 
ATOM      7  C5  OXE d   1      -1.469   0.541  -0.260  0.00  0.00    -0.002 A 
ATOM      8  C6  OXE d   1      -0.916  -0.697  -0.569  0.00  0.00     0.003 A 
ENDROOT
TORSDOF 0
ENDMDL
