MODEL 1
REMARK minimizedAffinity 4.52279329
REMARK minimizedRMSD -1
REMARK  0 active torsions:
REMARK  status: ('A' for Active; 'I' for Inactive)
ROOT
ATOM      1  C2' OXE d   1      -0.765  -2.224  -0.798  0.00  0.00     0.078 C 
ATOM      2  C1' OXE d   1       1.165  -3.575   0.727  0.00  0.00     0.078 C 
ATOM      3  C1  OXE d   1       1.617  -2.389  -0.087  0.00  0.00    -0.078 A 
ATOM      4  C2  OXE d   1       0.675  -1.762  -0.867  0.00  0.00    -0.078 A 
ATOM      5  C3  OXE d   1       1.026  -0.629  -1.595  0.00  0.00     0.003 A 
ATOM      6  C4  OXE d   1       2.362  -0.215  -1.661  0.00  0.00    -0.002 A 
ATOM      7  C5  OXE d   1       3.344  -0.863  -0.906  0.00  0.00    -0.002 A 
ATOM      8  C6  OXE d   1       2.982  -1.923  -0.082  0.00  0.00     0.003 A 
ENDROOT
TORSDOF 0
ENDMDL
