MODEL 1
REMARK minimizedAffinity 4.40262222
REMARK minimizedRMSD -1
REMARK  0 active torsions:
REMARK  status: ('A' for Active; 'I' for Inactive)
ROOT
ATOM      1  C2' OXE d   1       2.725  -1.494  -1.329  0.00  0.00     0.078 C 
ATOM      2  C1' OXE d   1       0.470  -0.014  -0.551  0.00  0.00     0.078 C 
ATOM      3  C1  OXE d   1       1.288   0.505  -1.708  0.00  0.00    -0.078 A 
ATOM      4  C2  OXE d   1       2.416  -0.201  -2.052  0.00  0.00    -0.078 A 
ATOM      5  C3  OXE d   1       3.175   0.204  -3.146  0.00  0.00     0.003 A 
ATOM      6  C4  OXE d   1       2.888   1.407  -3.802  0.00  0.00    -0.002 A 
ATOM      7  C5  OXE d   1       1.767   2.162  -3.442  0.00  0.00    -0.002 A 
ATOM      8  C6  OXE d   1       0.934   1.704  -2.427  0.00  0.00     0.003 A 
ENDROOT
TORSDOF 0
ENDMDL
