MODEL 1
REMARK minimizedAffinity 3.08060193
REMARK minimizedRMSD -1
REMARK  0 active torsions:
REMARK  status: ('A' for Active; 'I' for Inactive)
ROOT
ATOM      1  C2' OXE d   1       0.006   0.511  -0.516  0.00  0.00     0.078 C 
ATOM      2  C1' OXE d   1       2.162  -1.110  -1.295  0.00  0.00     0.078 C 
ATOM      3  C1  OXE d   1       2.015   0.236  -1.962  0.00  0.00    -0.078 A 
ATOM      4  C2  OXE d   1       0.931   1.002  -1.608  0.00  0.00    -0.078 A 
ATOM      5  C3  OXE d   1       0.779   2.274  -2.152  0.00  0.00     0.003 A 
ATOM      6  C4  OXE d   1       1.634   2.717  -3.169  0.00  0.00    -0.002 A 
ATOM      7  C5  OXE d   1       2.721   1.935  -3.573  0.00  0.00    -0.002 A 
ATOM      8  C6  OXE d   1       2.950   0.713  -2.950  0.00  0.00     0.003 A 
ENDROOT
TORSDOF 0
ENDMDL
