MODEL 1
REMARK minimizedAffinity 6.99502039
REMARK minimizedRMSD -1
REMARK  3 active torsions:
REMARK  status: ('A' for Active; 'I' for Inactive)
REMARK    1  A    between atoms: C3'_2  and  C2'_3 
REMARK    2  A    between atoms: C2'_3  and  C1'_4 
REMARK    3  A    between atoms: C1'_4  and  C1_5 
ROOT
ATOM      1  C1  N4B d   1       1.173   0.083  -1.054  0.00  0.00    -0.075 A 
ATOM      2  C2  N4B d   1       0.279  -0.961  -1.379  0.00  0.00     0.002 A 
ATOM      3  C3  N4B d   1      -1.000  -0.669  -1.783  0.00  0.00     0.002 A 
ATOM      4  C4  N4B d   1      -1.413   0.654  -1.851  0.00  0.00    -0.004 A 
ATOM      5  C5  N4B d   1      -0.536   1.657  -1.560  0.00  0.00     0.002 A 
ATOM      6  C6  N4B d   1       0.754   1.378  -1.156  0.00  0.00     0.002 A 
ENDROOT
BRANCH   1   7
ATOM      7  C1' N4B d   1       2.555  -0.190  -0.526  0.00  0.00     0.057 C 
BRANCH   7   8
ATOM      8  C2' N4B d   1       2.630   0.254   0.932  0.00  0.00     0.009 C 
BRANCH   8   9
ATOM      9  C3' N4B d   1       3.822   1.160   1.190  0.00  0.00     0.004 C 
ATOM     10  C4' N4B d   1       3.431   2.485   1.771  0.00  0.00     0.003 C 
ENDBRANCH   8   9
ENDBRANCH   7   8
ENDBRANCH   1   7
TORSDOF 3
ENDMDL
