MODEL 1
REMARK minimizedAffinity 6.57398748
REMARK minimizedRMSD -1
REMARK  3 active torsions:
REMARK  status: ('A' for Active; 'I' for Inactive)
REMARK    1  A    between atoms: C3'_2  and  C2'_3 
REMARK    2  A    between atoms: C2'_3  and  C1'_4 
REMARK    3  A    between atoms: C1'_4  and  C1_5 
ROOT
ATOM      1  C1  N4B d   1       1.312   0.961  -0.131  0.00  0.00    -0.075 A 
ATOM      2  C2  N4B d   1       0.676   0.115  -1.066  0.00  0.00     0.002 A 
ATOM      3  C3  N4B d   1      -0.391   0.578  -1.796  0.00  0.00     0.002 A 
ATOM      4  C4  N4B d   1      -0.851   1.871  -1.595  0.00  0.00    -0.004 A 
ATOM      5  C5  N4B d   1      -0.215   2.690  -0.708  0.00  0.00     0.002 A 
ATOM      6  C6  N4B d   1       0.862   2.239   0.029  0.00  0.00     0.002 A 
ENDROOT
BRANCH   1   7
ATOM      7  C1' N4B d   1       2.429   0.473   0.751  0.00  0.00     0.057 C 
BRANCH   7   8
ATOM      8  C2' N4B d   1       2.965   1.641   1.572  0.00  0.00     0.009 C 
BRANCH   8   9
ATOM      9  C3' N4B d   1       4.304   2.135   1.051  0.00  0.00     0.004 C 
ATOM     10  C4' N4B d   1       4.580   3.562   1.420  0.00  0.00     0.003 C 
ENDBRANCH   8   9
ENDBRANCH   7   8
ENDBRANCH   1   7
TORSDOF 3
ENDMDL
