MODEL 1
REMARK minimizedAffinity 9.88486385
REMARK minimizedRMSD -1
REMARK  3 active torsions:
REMARK  status: ('A' for Active; 'I' for Inactive)
REMARK    1  A    between atoms: C3'_2  and  C2'_3 
REMARK    2  A    between atoms: C2'_3  and  C1'_4 
REMARK    3  A    between atoms: C1'_4  and  C1_5 
ROOT
ATOM      1  C1  N4B d   1       2.892   0.451   0.479  0.00  0.00    -0.075 A 
ATOM      2  C2  N4B d   1       3.715   0.573  -0.662  0.00  0.00     0.002 A 
ATOM      3  C3  N4B d   1       3.211   0.283  -1.906  0.00  0.00     0.002 A 
ATOM      4  C4  N4B d   1       1.899  -0.146  -2.032  0.00  0.00    -0.004 A 
ATOM      5  C5  N4B d   1       1.102  -0.236  -0.928  0.00  0.00     0.002 A 
ATOM      6  C6  N4B d   1       1.594   0.055   0.329  0.00  0.00     0.002 A 
ENDROOT
BRANCH   1   7
ATOM      7  C1' N4B d   1       3.423   0.673   1.869  0.00  0.00     0.057 C 
BRANCH   7   8
ATOM      8  C2' N4B d   1       2.283   0.518   2.871  0.00  0.00     0.009 C 
BRANCH   8   9
ATOM      9  C3' N4B d   1       1.941   1.833   3.551  0.00  0.00     0.004 C 
ATOM     10  C4' N4B d   1       1.131   1.648   4.799  0.00  0.00     0.003 C 
ENDBRANCH   8   9
ENDBRANCH   7   8
ENDBRANCH   1   7
TORSDOF 3
ENDMDL
