MODEL 1
REMARK minimizedAffinity 4.32734156
REMARK minimizedRMSD -1
REMARK  3 active torsions:
REMARK  status: ('A' for Active; 'I' for Inactive)
REMARK    1  A    between atoms: C3'_2  and  C2'_3 
REMARK    2  A    between atoms: C2'_3  and  C1'_4 
REMARK    3  A    between atoms: C1'_4  and  C1_5 
ROOT
ATOM      1  C1  N4B d   1       1.695   0.537  -1.029  0.00  0.00    -0.075 A 
ATOM      2  C2  N4B d   1       1.218  -0.680  -1.562  0.00  0.00     0.002 A 
ATOM      3  C3  N4B d   1      -0.077  -0.773  -2.009  0.00  0.00     0.002 A 
ATOM      4  C4  N4B d   1      -0.916   0.327  -1.917  0.00  0.00    -0.004 A 
ATOM      5  C5  N4B d   1      -0.440   1.507  -1.424  0.00  0.00     0.002 A 
ATOM      6  C6  N4B d   1       0.861   1.616  -0.974  0.00  0.00     0.002 A 
ENDROOT
BRANCH   1   7
ATOM      7  C1' N4B d   1       3.077   0.663  -0.448  0.00  0.00     0.057 C 
BRANCH   7   8
ATOM      8  C2' N4B d   1       2.990   0.579   1.073  0.00  0.00     0.009 C 
BRANCH   8   9
ATOM      9  C3' N4B d   1       2.569  -0.803   1.543  0.00  0.00     0.004 C 
ATOM     10  C4' N4B d   1       2.395  -0.883   3.030  0.00  0.00     0.003 C 
ENDBRANCH   8   9
ENDBRANCH   7   8
ENDBRANCH   1   7
TORSDOF 3
ENDMDL
