MODEL 1
REMARK minimizedAffinity 5.41679764
REMARK minimizedRMSD -1
REMARK  0 active torsions:
REMARK  status: ('A' for Active; 'I' for Inactive)
ROOT
ATOM      1  N1  IND d   1      -1.719  -3.203  -1.186  0.00  0.00    -0.196 N 
ATOM      2  C2  IND d   1      -1.734  -2.356  -2.259  0.00  0.00     0.054 A 
ATOM      3  C3  IND d   1      -2.053  -1.103  -1.865  0.00  0.00    -0.031 A 
ATOM      4  C4  IND d   1      -2.493  -0.196   0.504  0.00  0.00     0.051 A 
ATOM      5  C5  IND d   1      -2.628  -0.597   1.803  0.00  0.00    -0.031 A 
ATOM      6  C6  IND d   1      -2.462  -1.914   2.180  0.00  0.00     0.015 A 
ATOM      7  C7  IND d   1      -2.141  -2.881   1.270  0.00  0.00    -0.016 A 
ATOM      8  C8  IND d   1      -2.009  -2.478  -0.051  0.00  0.00    -0.047 A 
ATOM      9  C9  IND d   1      -2.219  -1.151  -0.447  0.00  0.00    -0.096 A 
ATOM     10  HN1 IND d   1      -1.557  -4.047  -1.215  0.00  0.00     0.298 HD
ENDROOT
TORSDOF 0
ENDMDL
