MODEL 1
REMARK minimizedAffinity 4.89257765
REMARK minimizedRMSD -1
REMARK  0 active torsions:
REMARK  status: ('A' for Active; 'I' for Inactive)
ROOT
ATOM      1  N1  IND d   1       1.018  -5.082   5.898  0.00  0.00    -0.196 N 
ATOM      2  C2  IND d   1      -0.002  -5.991   5.927  0.00  0.00     0.054 A 
ATOM      3  C3  IND d   1      -1.194  -5.358   6.000  0.00  0.00    -0.031 A 
ATOM      4  C4  IND d   1      -1.711  -2.837   5.978  0.00  0.00     0.051 A 
ATOM      5  C5  IND d   1      -1.104  -1.612   5.999  0.00  0.00    -0.031 A 
ATOM      6  C6  IND d   1       0.269  -1.479   5.983  0.00  0.00     0.015 A 
ATOM      7  C7  IND d   1       1.090  -2.570   5.935  0.00  0.00    -0.016 A 
ATOM      8  C8  IND d   1       0.477  -3.815   5.922  0.00  0.00    -0.047 A 
ATOM      9  C9  IND d   1      -0.915  -3.957   5.981  0.00  0.00    -0.096 A 
ATOM     10  HN1 IND d   1       1.857  -5.269   5.870  0.00  0.00     0.298 HD
ENDROOT
TORSDOF 0
ENDMDL
