MODEL 1
REMARK minimizedAffinity 8.87215805
REMARK minimizedRMSD -1
REMARK  0 active torsions:
REMARK  status: ('A' for Active; 'I' for Inactive)
ROOT
ATOM      1  N1  IND d   1      -4.532  -0.311   1.431  0.00  0.00    -0.196 N 
ATOM      2  C2  IND d   1      -4.834   0.477   0.356  0.00  0.00     0.054 A 
ATOM      3  C3  IND d   1      -4.114   0.098  -0.723  0.00  0.00    -0.031 A 
ATOM      4  C4  IND d   1      -2.456  -1.855  -0.979  0.00  0.00     0.051 A 
ATOM      5  C5  IND d   1      -1.827  -2.834  -0.263  0.00  0.00    -0.031 A 
ATOM      6  C6  IND d   1      -2.074  -3.029   1.081  0.00  0.00     0.015 A 
ATOM      7  C7  IND d   1      -2.973  -2.255   1.759  0.00  0.00    -0.016 A 
ATOM      8  C8  IND d   1      -3.608  -1.254   1.037  0.00  0.00    -0.047 A 
ATOM      9  C9  IND d   1      -3.329  -1.025  -0.317  0.00  0.00    -0.096 A 
ATOM     10  HN1 IND d   1      -4.863  -0.232   2.221  0.00  0.00     0.298 HD
ENDROOT
TORSDOF 0
ENDMDL
