MODEL 1
REMARK minimizedAffinity 11.9257088
REMARK minimizedRMSD -1
REMARK  0 active torsions:
REMARK  status: ('A' for Active; 'I' for Inactive)
ROOT
ATOM      1  N1  IND d   1       6.000   1.490   2.255  0.00  0.00    -0.196 N 
ATOM      2  C2  IND d   1       5.278   0.611   3.014  0.00  0.00     0.054 A 
ATOM      3  C3  IND d   1       4.291   0.054   2.277  0.00  0.00    -0.031 A 
ATOM      4  C4  IND d   1       3.741   0.361  -0.219  0.00  0.00     0.051 A 
ATOM      5  C5  IND d   1       4.098   1.089  -1.319  0.00  0.00    -0.031 A 
ATOM      6  C6  IND d   1       5.130   2.004  -1.284  0.00  0.00     0.015 A 
ATOM      7  C7  IND d   1       5.854   2.219  -0.145  0.00  0.00    -0.016 A 
ATOM      8  C8  IND d   1       5.489   1.486   0.976  0.00  0.00    -0.047 A 
ATOM      9  C9  IND d   1       4.415   0.587   0.958  0.00  0.00    -0.096 A 
ATOM     10  HN1 IND d   1       6.661   1.965   2.531  0.00  0.00     0.298 HD
ENDROOT
TORSDOF 0
ENDMDL
