MODEL 1
REMARK minimizedAffinity 17.9715042
REMARK minimizedRMSD -1
REMARK  0 active torsions:
REMARK  status: ('A' for Active; 'I' for Inactive)
ROOT
ATOM      1  N1  IND d   1      -5.818  -1.420   0.001  0.00  0.00    -0.196 N 
ATOM      2  C2  IND d   1      -5.999  -1.549  -1.348  0.00  0.00     0.054 A 
ATOM      3  C3  IND d   1      -4.931  -1.057  -2.015  0.00  0.00    -0.031 A 
ATOM      4  C4  IND d   1      -2.733  -0.083  -1.093  0.00  0.00     0.051 A 
ATOM      5  C5  IND d   1      -2.119   0.274   0.075  0.00  0.00    -0.031 A 
ATOM      6  C6  IND d   1      -2.718   0.078   1.303  0.00  0.00     0.015 A 
ATOM      7  C7  IND d   1      -3.954  -0.495   1.409  0.00  0.00    -0.016 A 
ATOM      8  C8  IND d   1      -4.583  -0.852   0.225  0.00  0.00    -0.047 A 
ATOM      9  C9  IND d   1      -3.998  -0.617  -1.026  0.00  0.00    -0.096 A 
ATOM     10  HN1 IND d   1      -6.381  -1.653   0.607  0.00  0.00     0.298 HD
ENDROOT
TORSDOF 0
ENDMDL
