MODEL 1
REMARK minimizedAffinity 8.44502449
REMARK minimizedRMSD -1
REMARK  0 active torsions:
REMARK  status: ('A' for Active; 'I' for Inactive)
ROOT
ATOM      1  N1  IND d   1      -0.487  -0.756  -1.068  0.00  0.00    -0.196 N 
ATOM      2  C2  IND d   1      -0.594  -1.345  -2.297  0.00  0.00     0.054 A 
ATOM      3  C3  IND d   1      -1.888  -1.388  -2.687  0.00  0.00    -0.031 A 
ATOM      4  C4  IND d   1      -3.982  -0.460  -1.512  0.00  0.00     0.051 A 
ATOM      5  C5  IND d   1      -4.392   0.131  -0.350  0.00  0.00    -0.031 A 
ATOM      6  C6  IND d   1      -3.504   0.466   0.651  0.00  0.00     0.015 A 
ATOM      7  C7  IND d   1      -2.164   0.231   0.522  0.00  0.00    -0.016 A 
ATOM      8  C8  IND d   1      -1.745  -0.375  -0.653  0.00  0.00    -0.047 A 
ATOM      9  C9  IND d   1      -2.647  -0.755  -1.655  0.00  0.00    -0.096 A 
ATOM     10  HN1 IND d   1       0.243  -0.642  -0.627  0.00  0.00     0.298 HD
ENDROOT
TORSDOF 0
ENDMDL
