MODEL 1
REMARK minimizedAffinity 21.1318512
REMARK minimizedRMSD -1
REMARK  0 active torsions:
REMARK  status: ('A' for Active; 'I' for Inactive)
ROOT
ATOM      1  N1  IND d   1       0.003  -0.247   5.999  0.00  0.00    -0.196 N 
ATOM      2  C2  IND d   1      -0.161  -1.498   5.472  0.00  0.00     0.054 A 
ATOM      3  C3  IND d   1      -0.089  -1.454   4.123  0.00  0.00    -0.031 A 
ATOM      4  C4  IND d   1       0.393   0.546   2.575  0.00  0.00     0.051 A 
ATOM      5  C5  IND d   1       0.575   1.901   2.591  0.00  0.00    -0.031 A 
ATOM      6  C6  IND d   1       0.579   2.623   3.766  0.00  0.00     0.015 A 
ATOM      7  C7  IND d   1       0.411   2.013   4.977  0.00  0.00    -0.016 A 
ATOM      8  C8  IND d   1       0.218   0.639   4.965  0.00  0.00    -0.047 A 
ATOM      9  C9  IND d   1       0.171  -0.094   3.772  0.00  0.00    -0.096 A 
ATOM     10  HN1 IND d   1      -0.024  -0.046   6.834  0.00  0.00     0.298 HD
ENDROOT
TORSDOF 0
ENDMDL
