MODEL 1
REMARK minimizedAffinity 15.2269907
REMARK minimizedRMSD -1
REMARK  0 active torsions:
REMARK  status: ('A' for Active; 'I' for Inactive)
ROOT
ATOM      1  N1  IND d   1       4.088   0.038   2.143  0.00  0.00    -0.196 N 
ATOM      2  C2  IND d   1       5.093   0.474   2.961  0.00  0.00     0.054 A 
ATOM      3  C3  IND d   1       6.000   1.185   2.254  0.00  0.00    -0.031 A 
ATOM      4  C4  IND d   1       5.981   1.845  -0.235  0.00  0.00     0.051 A 
ATOM      5  C5  IND d   1       5.287   1.649  -1.396  0.00  0.00    -0.031 A 
ATOM      6  C6  IND d   1       4.133   0.893  -1.437  0.00  0.00     0.015 A 
ATOM      7  C7  IND d   1       3.622   0.312  -0.311  0.00  0.00    -0.016 A 
ATOM      8  C8  IND d   1       4.328   0.503   0.868  0.00  0.00    -0.047 A 
ATOM      9  C9  IND d   1       5.522   1.233   0.908  0.00  0.00    -0.096 A 
ATOM     10  HN1 IND d   1       3.419  -0.445   2.384  0.00  0.00     0.298 HD
ENDROOT
TORSDOF 0
ENDMDL
