MODEL 1
REMARK minimizedAffinity 11.3151474
REMARK minimizedRMSD -1
REMARK  0 active torsions:
REMARK  status: ('A' for Active; 'I' for Inactive)
ROOT
ATOM      1  N1  IND d   1      -1.264  -2.750  -2.472  0.00  0.00    -0.196 N 
ATOM      2  C2  IND d   1      -1.595  -1.581  -1.846  0.00  0.00     0.054 A 
ATOM      3  C3  IND d   1      -1.713  -1.777  -0.514  0.00  0.00    -0.031 A 
ATOM      4  C4  IND d   1      -1.307  -3.911   0.867  0.00  0.00     0.051 A 
ATOM      5  C5  IND d   1      -1.023  -5.242   0.735  0.00  0.00    -0.031 A 
ATOM      6  C6  IND d   1      -0.797  -5.821  -0.497  0.00  0.00     0.015 A 
ATOM      7  C7  IND d   1      -0.837  -5.085  -1.647  0.00  0.00    -0.016 A 
ATOM      8  C8  IND d   1      -1.132  -3.735  -1.518  0.00  0.00    -0.047 A 
ATOM      9  C9  IND d   1      -1.403  -3.151  -0.274  0.00  0.00    -0.096 A 
ATOM     10  HN1 IND d   1      -1.157  -2.853  -3.319  0.00  0.00     0.298 HD
ENDROOT
TORSDOF 0
ENDMDL
