MODEL 1
REMARK minimizedAffinity 5.29258537
REMARK minimizedRMSD -1
REMARK  1 active torsions:
REMARK  status: ('A' for Active; 'I' for Inactive)
REMARK    1  A    between atoms: C1_2  and  C2_3 
ROOT
ATOM      1  C2  UNL d   1      -2.270   0.198  -3.511  0.00  0.00    -0.073 A 
ATOM      2  C3  UNL d   1      -1.963   1.207  -4.431  0.00  0.00    -0.002 A 
ATOM      3  C4  UNL d   1      -2.957   1.735  -5.257  0.00  0.00     0.004 A 
ATOM      4  C5  UNL d   1      -4.267   1.265  -5.166  0.00  0.00    -0.004 A 
ATOM      5  C6  UNL d   1      -4.596   0.265  -4.245  0.00  0.00    -0.075 A 
ATOM      6  C7  UNL d   1      -6.000  -0.253  -4.137  0.00  0.00     0.076 C 
ATOM      7  C8  UNL d   1      -3.592  -0.261  -3.421  0.00  0.00     0.001 A 
ENDROOT
BRANCH   1   8
ATOM      8  C1  UNL d   1      -1.201  -0.370  -2.613  0.00  0.00     0.053 C 
ATOM      9  C   UNL d   1      -0.619   0.683  -1.684  0.00  0.00     0.018 C 
ENDBRANCH   1   8
TORSDOF 1
ENDMDL
