MODEL 1
REMARK minimizedAffinity 6.99296665
REMARK minimizedRMSD -1
REMARK  1 active torsions:
REMARK  status: ('A' for Active; 'I' for Inactive)
REMARK    1  A    between atoms: C1_2  and  C2_3 
ROOT
ATOM      1  C2  UNL d   1      -1.752   0.507  -2.249  0.00  0.00    -0.073 A 
ATOM      2  C3  UNL d   1      -2.778  -0.148  -1.559  0.00  0.00    -0.002 A 
ATOM      3  C4  UNL d   1      -3.973  -0.465  -2.208  0.00  0.00     0.004 A 
ATOM      4  C5  UNL d   1      -4.151  -0.137  -3.551  0.00  0.00    -0.004 A 
ATOM      5  C6  UNL d   1      -3.133   0.508  -4.261  0.00  0.00    -0.075 A 
ATOM      6  C7  UNL d   1      -3.309   0.870  -5.706  0.00  0.00     0.076 C 
ATOM      7  C8  UNL d   1      -1.937   0.825  -3.602  0.00  0.00     0.001 A 
ENDROOT
BRANCH   1   8
ATOM      8  C1  UNL d   1      -0.458   0.846  -1.555  0.00  0.00     0.053 C 
ATOM      9  C   UNL d   1      -0.649   1.049  -0.061  0.00  0.00     0.018 C 
ENDBRANCH   1   8
TORSDOF 1
ENDMDL
