MODEL 1
REMARK minimizedAffinity -0.900093377
REMARK minimizedRMSD -1
REMARK  1 active torsions:
REMARK  status: ('A' for Active; 'I' for Inactive)
REMARK    1  A    between atoms: C1_2  and  C2_3 
ROOT
ATOM      1  C2  UNL d   1       4.783   1.940  -0.571  0.00  0.00    -0.073 A 
ATOM      2  C3  UNL d   1       5.271   1.879   0.740  0.00  0.00    -0.002 A 
ATOM      3  C4  UNL d   1       5.879   2.993   1.318  0.00  0.00     0.004 A 
ATOM      4  C5  UNL d   1       6.000   4.181   0.596  0.00  0.00    -0.004 A 
ATOM      5  C6  UNL d   1       5.508   4.265  -0.710  0.00  0.00    -0.075 A 
ATOM      6  C7  UNL d   1       5.632   5.534  -1.501  0.00  0.00     0.076 C 
ATOM      7  C8  UNL d   1       4.901   3.141  -1.285  0.00  0.00     0.001 A 
ENDROOT
BRANCH   1   8
ATOM      8  C1  UNL d   1       4.119   0.741  -1.197  0.00  0.00     0.053 C 
ATOM      9  C   UNL d   1       4.400  -0.536  -0.421  0.00  0.00     0.018 C 
ENDBRANCH   1   8
TORSDOF 1
ENDMDL
