MODEL 1
REMARK minimizedAffinity 14.9577217
REMARK minimizedRMSD -1
REMARK  1 active torsions:
REMARK  status: ('A' for Active; 'I' for Inactive)
REMARK    1  A    between atoms: C1_2  and  C2_3 
ROOT
ATOM      1  C2  UNL d   1      -4.868   2.574  -4.049  0.00  0.00    -0.073 A 
ATOM      2  C3  UNL d   1      -3.543   2.602  -4.499  0.00  0.00    -0.002 A 
ATOM      3  C4  UNL d   1      -3.011   1.513  -5.192  0.00  0.00     0.004 A 
ATOM      4  C5  UNL d   1      -3.799   0.391  -5.448  0.00  0.00    -0.004 A 
ATOM      5  C6  UNL d   1      -5.129   0.349  -5.016  0.00  0.00    -0.075 A 
ATOM      6  C7  UNL d   1      -5.989  -0.851  -5.281  0.00  0.00     0.076 C 
ATOM      7  C8  UNL d   1      -5.655   1.445  -4.319  0.00  0.00     0.001 A 
ENDROOT
BRANCH   1   8
ATOM      8  C1  UNL d   1      -5.449   3.750  -3.307  0.00  0.00     0.053 C 
ATOM      9  C   UNL d   1      -5.997   4.807  -4.252  0.00  0.00     0.018 C 
ENDBRANCH   1   8
TORSDOF 1
ENDMDL
