MODEL 1
REMARK minimizedAffinity 9.77394962
REMARK minimizedRMSD -1
REMARK  1 active torsions:
REMARK  status: ('A' for Active; 'I' for Inactive)
REMARK    1  A    between atoms: C1_2  and  C2_3 
ROOT
ATOM      1  C2  UNL d   1       4.504   0.638  -1.192  0.00  0.00    -0.073 A 
ATOM      2  C3  UNL d   1       3.261   0.003  -1.293  0.00  0.00    -0.002 A 
ATOM      3  C4  UNL d   1       2.911  -1.007  -0.396  0.00  0.00     0.004 A 
ATOM      4  C5  UNL d   1       3.795  -1.387   0.613  0.00  0.00    -0.004 A 
ATOM      5  C6  UNL d   1       5.037  -0.757   0.738  0.00  0.00    -0.075 A 
ATOM      6  C7  UNL d   1       6.000  -1.156   1.817  0.00  0.00     0.076 C 
ATOM      7  C8  UNL d   1       5.383   0.255  -0.168  0.00  0.00     0.001 A 
ENDROOT
BRANCH   1   8
ATOM      8  C1  UNL d   1       4.885   1.734  -2.154  0.00  0.00     0.053 C 
ATOM      9  C   UNL d   1       4.889   3.101  -1.488  0.00  0.00     0.018 C 
ENDBRANCH   1   8
TORSDOF 1
ENDMDL
