MODEL 1
REMARK minimizedAffinity 5.92636538
REMARK minimizedRMSD -1
REMARK  1 active torsions:
REMARK  status: ('A' for Active; 'I' for Inactive)
REMARK    1  A    between atoms: C1_2  and  C2_3 
ROOT
ATOM      1  C2  UNL d   1       3.819  -1.078  -0.569  0.00  0.00    -0.073 A 
ATOM      2  C3  UNL d   1       4.948  -1.495   0.146  0.00  0.00    -0.002 A 
ATOM      3  C4  UNL d   1       6.000  -0.608   0.381  0.00  0.00     0.004 A 
ATOM      4  C5  UNL d   1       5.931   0.704  -0.089  0.00  0.00    -0.004 A 
ATOM      5  C6  UNL d   1       4.805   1.142  -0.794  0.00  0.00    -0.075 A 
ATOM      6  C7  UNL d   1       4.717   2.549  -1.308  0.00  0.00     0.076 C 
ATOM      7  C8  UNL d   1       3.755   0.245  -1.029  0.00  0.00     0.001 A 
ENDROOT
BRANCH   1   8
ATOM      8  C1  UNL d   1       2.678  -2.030  -0.820  0.00  0.00     0.053 C 
ATOM      9  C   UNL d   1       2.807  -2.733  -2.161  0.00  0.00     0.018 C 
ENDBRANCH   1   8
TORSDOF 1
ENDMDL
