MODEL 1
REMARK minimizedAffinity 13.1288595
REMARK minimizedRMSD -1
REMARK  1 active torsions:
REMARK  status: ('A' for Active; 'I' for Inactive)
REMARK    1  A    between atoms: C1_2  and  C2_3 
ROOT
ATOM      1  C2  UNL d   1       1.973   0.420   0.488  0.00  0.00    -0.073 A 
ATOM      2  C3  UNL d   1       1.302   0.772   1.665  0.00  0.00    -0.002 A 
ATOM      3  C4  UNL d   1      -0.048   1.124   1.629  0.00  0.00     0.004 A 
ATOM      4  C5  UNL d   1      -0.742   1.121   0.419  0.00  0.00    -0.004 A 
ATOM      5  C6  UNL d   1      -0.092   0.761  -0.766  0.00  0.00    -0.075 A 
ATOM      6  C7  UNL d   1      -0.824   0.756  -2.076  0.00  0.00     0.076 C 
ATOM      7  C8  UNL d   1       1.264   0.412  -0.722  0.00  0.00     0.001 A 
ENDROOT
BRANCH   1   8
ATOM      8  C1  UNL d   1       3.428   0.033   0.523  0.00  0.00     0.053 C 
ATOM      9  C   UNL d   1       4.135   0.353  -0.784  0.00  0.00     0.018 C 
ENDBRANCH   1   8
TORSDOF 1
ENDMDL
