MODEL 1
REMARK minimizedAffinity -3.78323317
REMARK minimizedRMSD -1
REMARK  0 active torsions:
REMARK  status: ('A' for Active; 'I' for Inactive)
ROOT
ATOM      1  C   UNL d   1       0.578  -1.211   2.052  0.00  0.00     0.020 A 
ATOM      2  C1  UNL d   1      -0.419  -0.237   2.097  0.00  0.00     0.020 A 
ATOM      3  C2  UNL d   1      -0.774   0.453   0.937  0.00  0.00     0.034 A 
ATOM      4  C3  UNL d   1      -0.132   0.171  -0.274  0.00  0.00     0.017 A 
ATOM      5  C4  UNL d   1       0.868  -0.806  -0.319  0.00  0.00     0.017 A 
ATOM      6  C5  UNL d   1       1.220  -1.495   0.846  0.00  0.00     0.034 A 
ATOM      7 Cl   UNL d   1       1.706  -1.209  -1.777  0.00  0.00    -0.070 Cl
ATOM      8 Cl1  UNL d   1      -0.622   1.064  -1.670  0.00  0.00    -0.070 Cl
ENDROOT
TORSDOF 0
ENDMDL
