MODEL 1
REMARK minimizedAffinity 4.10133553
REMARK minimizedRMSD -1
REMARK  0 active torsions:
REMARK  status: ('A' for Active; 'I' for Inactive)
ROOT
ATOM      1  C   UNL d   1      -0.513  -0.297   3.183  0.00  0.00     0.020 A 
ATOM      2  C1  UNL d   1      -1.619   0.305   2.583  0.00  0.00     0.020 A 
ATOM      3  C2  UNL d   1      -1.670   0.445   1.195  0.00  0.00     0.034 A 
ATOM      4  C3  UNL d   1      -0.614  -0.016   0.401  0.00  0.00     0.017 A 
ATOM      5  C4  UNL d   1       0.496  -0.620   1.004  0.00  0.00     0.017 A 
ATOM      6  C5  UNL d   1       0.542  -0.758   2.394  0.00  0.00     0.034 A 
ATOM      7 Cl   UNL d   1       1.838  -1.214   0.090  0.00  0.00    -0.070 Cl
ATOM      8 Cl1  UNL d   1      -0.744   0.190  -1.309  0.00  0.00    -0.070 Cl
ENDROOT
TORSDOF 0
ENDMDL
