MODEL 1
REMARK minimizedAffinity -1.87714851
REMARK minimizedRMSD -1
REMARK  0 active torsions:
REMARK  status: ('A' for Active; 'I' for Inactive)
ROOT
ATOM      1  C   UNL d   1      -0.788   0.888  -0.008  0.00  0.00     0.020 A 
ATOM      2  C1  UNL d   1      -0.659   0.707  -1.384  0.00  0.00     0.020 A 
ATOM      3  C2  UNL d   1       0.397  -0.053  -1.892  0.00  0.00     0.034 A 
ATOM      4  C3  UNL d   1       1.327  -0.635  -1.024  0.00  0.00     0.017 A 
ATOM      5  C4  UNL d   1       1.196  -0.454   0.358  0.00  0.00     0.017 A 
ATOM      6  C5  UNL d   1       0.137   0.308   0.861  0.00  0.00     0.034 A 
ATOM      7 Cl   UNL d   1       2.304  -1.141   1.492  0.00  0.00    -0.070 Cl
ATOM      8 Cl1  UNL d   1       2.607  -1.563  -1.722  0.00  0.00    -0.070 Cl
ENDROOT
TORSDOF 0
ENDMDL
