MODEL 1
REMARK minimizedAffinity -4.06622028
REMARK minimizedRMSD -1
REMARK  0 active torsions:
REMARK  status: ('A' for Active; 'I' for Inactive)
ROOT
ATOM      1  C   UNL d   1       1.805  -1.794   2.176  0.00  0.00     0.020 A 
ATOM      2  C1  UNL d   1       2.423  -1.574   0.946  0.00  0.00     0.020 A 
ATOM      3  C2  UNL d   1       1.724  -0.938  -0.082  0.00  0.00     0.034 A 
ATOM      4  C3  UNL d   1       0.403  -0.520   0.118  0.00  0.00     0.017 A 
ATOM      5  C4  UNL d   1      -0.216  -0.742   1.353  0.00  0.00     0.017 A 
ATOM      6  C5  UNL d   1       0.488  -1.379   2.379  0.00  0.00     0.034 A 
ATOM      7 Cl   UNL d   1      -1.843  -0.255   1.675  0.00  0.00    -0.070 Cl
ATOM      8 Cl1  UNL d   1      -0.401   0.260  -1.198  0.00  0.00    -0.070 Cl
ENDROOT
TORSDOF 0
ENDMDL
