MODEL 1
REMARK minimizedAffinity -3.35778141
REMARK minimizedRMSD -1
REMARK  0 active torsions:
REMARK  status: ('A' for Active; 'I' for Inactive)
ROOT
ATOM      1  C   UNL d   1       1.355  -0.621   2.662  0.00  0.00     0.020 A 
ATOM      2  C1  UNL d   1       2.117  -0.434   1.509  0.00  0.00     0.020 A 
ATOM      3  C2  UNL d   1       1.492  -0.112   0.303  0.00  0.00     0.034 A 
ATOM      4  C3  UNL d   1       0.100   0.024   0.247  0.00  0.00     0.017 A 
ATOM      5  C4  UNL d   1      -0.664  -0.164   1.404  0.00  0.00     0.017 A 
ATOM      6  C5  UNL d   1      -0.033  -0.486   2.609  0.00  0.00     0.034 A 
ATOM      7 Cl   UNL d   1      -2.386  -0.013   1.412  0.00  0.00    -0.070 Cl
ATOM      8 Cl1  UNL d   1      -0.607   0.425  -1.278  0.00  0.00    -0.070 Cl
ENDROOT
TORSDOF 0
ENDMDL
