MODEL 1
REMARK minimizedAffinity 0.269470066
REMARK minimizedRMSD -1
REMARK  0 active torsions:
REMARK  status: ('A' for Active; 'I' for Inactive)
ROOT
ATOM      1  C   UNL d   1      -1.750   0.518  -0.325  0.00  0.00     0.020 A 
ATOM      2  C1  UNL d   1      -0.747   0.854  -1.233  0.00  0.00     0.020 A 
ATOM      3  C2  UNL d   1       0.570   0.453  -1.000  0.00  0.00     0.034 A 
ATOM      4  C3  UNL d   1       0.888  -0.286   0.145  0.00  0.00     0.017 A 
ATOM      5  C4  UNL d   1      -0.119  -0.623   1.057  0.00  0.00     0.017 A 
ATOM      6  C5  UNL d   1      -1.436  -0.219   0.818  0.00  0.00     0.034 A 
ATOM      7 Cl   UNL d   1       0.196  -1.533   2.492  0.00  0.00    -0.070 Cl
ATOM      8 Cl1  UNL d   1       2.538  -0.749   0.371  0.00  0.00    -0.070 Cl
ENDROOT
TORSDOF 0
ENDMDL
