MODEL 1
REMARK minimizedAffinity 0.970724821
REMARK minimizedRMSD -1
REMARK  1 active torsions:
REMARK  status: ('A' for Active; 'I' for Inactive)
REMARK    1  A    between atoms: C1_2  and  C2_3 
ROOT
ATOM      1  C2  UNL d   1      -2.451  -1.344  -0.767  0.00  0.00    -0.076 A 
ATOM      2  C3  UNL d   1      -2.852   0.003  -0.728  0.00  0.00     0.004 A 
ATOM      3  C4  UNL d   1      -3.296   0.653  -1.878  0.00  0.00    -0.003 A 
ATOM      4  C5  UNL d   1      -3.348  -0.034  -3.086  0.00  0.00     0.000 A 
ATOM      5  C6  UNL d   1      -2.971  -1.375  -3.140  0.00  0.00     0.000 A 
ATOM      6  C7  UNL d   1      -2.535  -2.050  -1.986  0.00  0.00    -0.073 A 
ATOM      7  C8  UNL d   1      -2.135  -3.495  -2.103  0.00  0.00     0.078 C 
ENDROOT
BRANCH   1   8
ATOM      8  C1  UNL d   1      -1.952  -1.989   0.507  0.00  0.00     0.053 C 
ATOM      9  C   UNL d   1      -1.351  -0.980   1.474  0.00  0.00     0.018 C 
ENDBRANCH   1   8
TORSDOF 1
ENDMDL
