MODEL 1
REMARK minimizedAffinity 9.48577976
REMARK minimizedRMSD -1
REMARK  1 active torsions:
REMARK  status: ('A' for Active; 'I' for Inactive)
REMARK    1  A    between atoms: C1_2  and  C2_3 
ROOT
ATOM      1  C2  UNL d   1      -3.103  -1.104  -0.886  0.00  0.00    -0.076 A 
ATOM      2  C3  UNL d   1      -3.710  -2.218  -1.492  0.00  0.00     0.004 A 
ATOM      3  C4  UNL d   1      -3.445  -3.511  -1.044  0.00  0.00    -0.003 A 
ATOM      4  C5  UNL d   1      -2.569  -3.711   0.017  0.00  0.00     0.000 A 
ATOM      5  C6  UNL d   1      -1.972  -2.617   0.641  0.00  0.00     0.000 A 
ATOM      6  C7  UNL d   1      -2.241  -1.305   0.213  0.00  0.00    -0.073 A 
ATOM      7  C8  UNL d   1      -1.564  -0.162   0.918  0.00  0.00     0.078 C 
ENDROOT
BRANCH   1   8
ATOM      8  C1  UNL d   1      -3.407   0.273  -1.433  0.00  0.00     0.053 C 
ATOM      9  C   UNL d   1      -2.917   0.454  -2.861  0.00  0.00     0.018 C 
ENDBRANCH   1   8
TORSDOF 1
ENDMDL
