MODEL 1
REMARK minimizedAffinity 9.42591
REMARK minimizedRMSD -1
REMARK  1 active torsions:
REMARK  status: ('A' for Active; 'I' for Inactive)
REMARK    1  A    between atoms: C1_2  and  C2_3 
ROOT
ATOM      1  C2  UNL d   1      -0.738  -0.253   1.039  0.00  0.00    -0.076 A 
ATOM      2  C3  UNL d   1      -1.331  -1.526   1.106  0.00  0.00     0.004 A 
ATOM      3  C4  UNL d   1      -2.473  -1.825   0.365  0.00  0.00    -0.003 A 
ATOM      4  C5  UNL d   1      -3.040  -0.856  -0.456  0.00  0.00     0.000 A 
ATOM      5  C6  UNL d   1      -2.454   0.406  -0.548  0.00  0.00     0.000 A 
ATOM      6  C7  UNL d   1      -1.293   0.719   0.180  0.00  0.00    -0.073 A 
ATOM      7  C8  UNL d   1      -0.708   2.098   0.048  0.00  0.00     0.078 C 
ENDROOT
BRANCH   1   8
ATOM      8  C1  UNL d   1       0.484   0.022   1.886  0.00  0.00     0.053 C 
ATOM      9  C   UNL d   1       1.578  -1.016   1.686  0.00  0.00     0.018 C 
ENDBRANCH   1   8
TORSDOF 1
ENDMDL
