MODEL 1
REMARK minimizedAffinity 2.4515841
REMARK minimizedRMSD -1
REMARK  1 active torsions:
REMARK  status: ('A' for Active; 'I' for Inactive)
REMARK    1  A    between atoms: C1_2  and  C2_3 
ROOT
ATOM      1  C2  UNL d   1      -3.129  -1.845  -1.048  0.00  0.00    -0.076 A 
ATOM      2  C3  UNL d   1      -1.850  -2.412  -1.187  0.00  0.00     0.004 A 
ATOM      3  C4  UNL d   1      -1.694  -3.763  -1.495  0.00  0.00    -0.003 A 
ATOM      4  C5  UNL d   1      -2.814  -4.568  -1.670  0.00  0.00     0.000 A 
ATOM      5  C6  UNL d   1      -4.090  -4.018  -1.553  0.00  0.00     0.000 A 
ATOM      6  C7  UNL d   1      -4.265  -2.655  -1.259  0.00  0.00    -0.073 A 
ATOM      7  C8  UNL d   1      -5.665  -2.117  -1.138  0.00  0.00     0.078 C 
ENDROOT
BRANCH   1   8
ATOM      8  C1  UNL d   1      -3.237  -0.381  -0.686  0.00  0.00     0.053 C 
ATOM      9  C   UNL d   1      -2.206   0.040   0.350  0.00  0.00     0.018 C 
ENDBRANCH   1   8
TORSDOF 1
ENDMDL
