MODEL 1
REMARK minimizedAffinity 4.08902979
REMARK minimizedRMSD -1
REMARK  1 active torsions:
REMARK  status: ('A' for Active; 'I' for Inactive)
REMARK    1  A    between atoms: C1_2  and  C2_3 
ROOT
ATOM      1  C2  UNL d   1       0.623  -2.060   1.228  0.00  0.00    -0.076 A 
ATOM      2  C3  UNL d   1       0.974  -0.743   1.573  0.00  0.00     0.004 A 
ATOM      3  C4  UNL d   1       0.008   0.259   1.652  0.00  0.00    -0.003 A 
ATOM      4  C5  UNL d   1      -1.324  -0.039   1.389  0.00  0.00     0.000 A 
ATOM      5  C6  UNL d   1      -1.693  -1.344   1.064  0.00  0.00     0.000 A 
ATOM      6  C7  UNL d   1      -0.734  -2.370   0.995  0.00  0.00    -0.073 A 
ATOM      7  C8  UNL d   1      -1.187  -3.758   0.633  0.00  0.00     0.078 C 
ENDROOT
BRANCH   1   8
ATOM      8  C1  UNL d   1       1.716  -3.100   1.131  0.00  0.00     0.053 C 
ATOM      9  C   UNL d   1       1.794  -3.981   2.368  0.00  0.00     0.018 C 
ENDBRANCH   1   8
TORSDOF 1
ENDMDL
