MODEL 1
REMARK minimizedAffinity -0.394908607
REMARK minimizedRMSD -1
REMARK  2 active torsions:
REMARK  status: ('A' for Active; 'I' for Inactive)
REMARK    1  A    between atoms: C1_2  and  C2_3 
REMARK    2  A    between atoms: C2_3  and  C3_4 
ROOT
ATOM      1  C3  UNL d   1       1.776  -0.742  -0.394  0.00  0.00    -0.075 A 
ATOM      2  C4  UNL d   1       2.860  -1.574  -0.707  0.00  0.00     0.002 A 
ATOM      3  C5  UNL d   1       3.880  -1.122  -1.546  0.00  0.00     0.002 A 
ATOM      4  C6  UNL d   1       3.823   0.159  -2.089  0.00  0.00    -0.004 A 
ATOM      5  C7  UNL d   1       2.742   0.988  -1.798  0.00  0.00     0.002 A 
ATOM      6  C8  UNL d   1       1.723   0.541  -0.956  0.00  0.00     0.002 A 
ENDROOT
BRANCH   1   7
ATOM      7  C2  UNL d   1       0.684  -1.213   0.536  0.00  0.00     0.056 C 
BRANCH   7   8
ATOM      8  C1  UNL d   1       0.377  -0.241   1.681  0.00  0.00     0.007 C 
ATOM      9  C   UNL d   1       1.587   0.571   2.120  0.00  0.00     0.009 C 
ENDBRANCH   7   8
ENDBRANCH   1   7
TORSDOF 2
ENDMDL
