MODEL 1
REMARK minimizedAffinity 0.110762104
REMARK minimizedRMSD -1
REMARK  2 active torsions:
REMARK  status: ('A' for Active; 'I' for Inactive)
REMARK    1  A    between atoms: C1_2  and  C2_3 
REMARK    2  A    between atoms: C2_3  and  C3_4 
ROOT
ATOM      1  C3  UNL d   1       2.447  -0.836  -0.451  0.00  0.00    -0.075 A 
ATOM      2  C4  UNL d   1       2.694   0.523  -0.206  0.00  0.00     0.002 A 
ATOM      3  C5  UNL d   1       1.795   1.282   0.543  0.00  0.00     0.002 A 
ATOM      4  C6  UNL d   1       0.635   0.698   1.048  0.00  0.00    -0.004 A 
ATOM      5  C7  UNL d   1       0.372  -0.647   0.797  0.00  0.00     0.002 A 
ATOM      6  C8  UNL d   1       1.271  -1.411   0.051  0.00  0.00     0.002 A 
ENDROOT
BRANCH   1   7
ATOM      7  C2  UNL d   1       3.430  -1.671  -1.236  0.00  0.00     0.056 C 
BRANCH   7   8
ATOM      8  C1  UNL d   1       4.892  -1.252  -1.049  0.00  0.00     0.007 C 
ATOM      9  C   UNL d   1       5.617  -1.000  -2.364  0.00  0.00     0.009 C 
ENDBRANCH   7   8
ENDBRANCH   1   7
TORSDOF 2
ENDMDL
