MODEL 1
REMARK minimizedAffinity -1.01768136
REMARK minimizedRMSD -1
REMARK  2 active torsions:
REMARK  status: ('A' for Active; 'I' for Inactive)
REMARK    1  A    between atoms: C1_2  and  C2_3 
REMARK    2  A    between atoms: C2_3  and  C3_4 
ROOT
ATOM      1  C3  UNL d   1       4.304  -0.480  -1.463  0.00  0.00    -0.075 A 
ATOM      2  C4  UNL d   1       3.800   0.828  -1.420  0.00  0.00     0.002 A 
ATOM      3  C5  UNL d   1       2.499   1.072  -0.977  0.00  0.00     0.002 A 
ATOM      4  C6  UNL d   1       1.685   0.013  -0.582  0.00  0.00    -0.004 A 
ATOM      5  C7  UNL d   1       2.169  -1.292  -0.636  0.00  0.00     0.002 A 
ATOM      6  C8  UNL d   1       3.471  -1.539  -1.074  0.00  0.00     0.002 A 
ENDROOT
BRANCH   1   7
ATOM      7  C2  UNL d   1       5.720  -0.748  -1.913  0.00  0.00     0.056 C 
BRANCH   7   8
ATOM      8  C1  UNL d   1       5.968  -0.457  -3.397  0.00  0.00     0.007 C 
ATOM      9  C   UNL d   1       5.993   1.031  -3.721  0.00  0.00     0.009 C 
ENDBRANCH   7   8
ENDBRANCH   1   7
TORSDOF 2
ENDMDL
