MODEL 1
REMARK minimizedAffinity -1.34947848
REMARK minimizedRMSD -1
REMARK  2 active torsions:
REMARK  status: ('A' for Active; 'I' for Inactive)
REMARK    1  A    between atoms: C1_2  and  C2_3 
REMARK    2  A    between atoms: C2_3  and  C3_4 
ROOT
ATOM      1  C3  UNL d   1       3.069  -0.785  -0.880  0.00  0.00    -0.075 A 
ATOM      2  C4  UNL d   1       2.198  -1.804  -0.468  0.00  0.00     0.002 A 
ATOM      3  C5  UNL d   1       1.135  -1.522   0.392  0.00  0.00     0.002 A 
ATOM      4  C6  UNL d   1       0.937  -0.224   0.857  0.00  0.00    -0.004 A 
ATOM      5  C7  UNL d   1       1.807   0.792   0.468  0.00  0.00     0.002 A 
ATOM      6  C8  UNL d   1       2.868   0.514  -0.395  0.00  0.00     0.002 A 
ENDROOT
BRANCH   1   7
ATOM      7  C2  UNL d   1       4.203  -1.078  -1.833  0.00  0.00     0.056 C 
BRANCH   7   8
ATOM      8  C1  UNL d   1       5.016   0.158  -2.233  0.00  0.00     0.007 C 
ATOM      9  C   UNL d   1       5.991  -0.107  -3.373  0.00  0.00     0.009 C 
ENDBRANCH   7   8
ENDBRANCH   1   7
TORSDOF 2
ENDMDL
