MODEL 1
REMARK minimizedAffinity -0.795279264
REMARK minimizedRMSD -1
REMARK  2 active torsions:
REMARK  status: ('A' for Active; 'I' for Inactive)
REMARK    1  A    between atoms: C1_2  and  C2_3 
REMARK    2  A    between atoms: C2_3  and  C3_4 
ROOT
ATOM      1  C3  UNL d   1       0.281  -0.466   1.521  0.00  0.00    -0.075 A 
ATOM      2  C4  UNL d   1       1.118   0.658   1.482  0.00  0.00     0.002 A 
ATOM      3  C5  UNL d   1       2.098   0.778   0.496  0.00  0.00     0.002 A 
ATOM      4  C6  UNL d   1       2.258  -0.226  -0.456  0.00  0.00    -0.004 A 
ATOM      5  C7  UNL d   1       1.443  -1.355  -0.417  0.00  0.00     0.002 A 
ATOM      6  C8  UNL d   1       0.459  -1.476   0.566  0.00  0.00     0.002 A 
ENDROOT
BRANCH   1   7
ATOM      7  C2  UNL d   1      -0.800  -0.588   2.568  0.00  0.00     0.056 C 
BRANCH   7   8
ATOM      8  C1  UNL d   1      -1.840  -1.673   2.268  0.00  0.00     0.007 C 
ATOM      9  C   UNL d   1      -3.247  -1.296   2.713  0.00  0.00     0.009 C 
ENDBRANCH   7   8
ENDBRANCH   1   7
TORSDOF 2
ENDMDL
