MODEL 1
REMARK minimizedAffinity -2.20626187
REMARK minimizedRMSD -1
REMARK  2 active torsions:
REMARK  status: ('A' for Active; 'I' for Inactive)
REMARK    1  A    between atoms: C1_2  and  C2_3 
REMARK    2  A    between atoms: C2_3  and  C3_4 
ROOT
ATOM      1  C3  UNL d   1       2.803  -0.599  -1.234  0.00  0.00    -0.075 A 
ATOM      2  C4  UNL d   1       2.601   0.735  -0.853  0.00  0.00     0.002 A 
ATOM      3  C5  UNL d   1       1.828   1.043   0.266  0.00  0.00     0.002 A 
ATOM      4  C6  UNL d   1       1.239   0.024   1.012  0.00  0.00    -0.004 A 
ATOM      5  C7  UNL d   1       1.419  -1.304   0.633  0.00  0.00     0.002 A 
ATOM      6  C8  UNL d   1       2.196  -1.616  -0.484  0.00  0.00     0.002 A 
ENDROOT
BRANCH   1   7
ATOM      7  C2  UNL d   1       3.664  -0.941  -2.427  0.00  0.00     0.056 C 
BRANCH   7   8
ATOM      8  C1  UNL d   1       4.857   0.000  -2.625  0.00  0.00     0.007 C 
ATOM      9  C   UNL d   1       5.986  -0.625  -3.433  0.00  0.00     0.009 C 
ENDBRANCH   7   8
ENDBRANCH   1   7
TORSDOF 2
ENDMDL
