MODEL 1
REMARK minimizedAffinity 0.777828693
REMARK minimizedRMSD -1
REMARK  2 active torsions:
REMARK  status: ('A' for Active; 'I' for Inactive)
REMARK    1  A    between atoms: C1_2  and  C2_3 
REMARK    2  A    between atoms: C2_3  and  C3_4 
ROOT
ATOM      1  C3  UNL d   1       0.476  -0.782   1.344  0.00  0.00    -0.075 A 
ATOM      2  C4  UNL d   1       0.932   0.499   1.689  0.00  0.00     0.002 A 
ATOM      3  C5  UNL d   1       1.912   1.132   0.924  0.00  0.00     0.002 A 
ATOM      4  C6  UNL d   1       2.455   0.490  -0.187  0.00  0.00    -0.004 A 
ATOM      5  C7  UNL d   1       2.022  -0.789  -0.529  0.00  0.00     0.002 A 
ATOM      6  C8  UNL d   1       1.039  -1.423   0.233  0.00  0.00     0.002 A 
ENDROOT
BRANCH   1   7
ATOM      7  C2  UNL d   1      -0.605  -1.460   2.151  0.00  0.00     0.056 C 
BRANCH   7   8
ATOM      8  C1  UNL d   1      -1.932  -0.694   2.184  0.00  0.00     0.007 C 
ATOM      9  C   UNL d   1      -3.147  -1.589   1.986  0.00  0.00     0.009 C 
ENDBRANCH   7   8
ENDBRANCH   1   7
TORSDOF 2
ENDMDL
