MODEL 1
REMARK minimizedAffinity -0.764648259
REMARK minimizedRMSD -1
REMARK  2 active torsions:
REMARK  status: ('A' for Active; 'I' for Inactive)
REMARK    1  A    between atoms: C1_2  and  C2_3 
REMARK    2  A    between atoms: C2_3  and  C3_4 
ROOT
ATOM      1  C3  UNL d   1       2.718  -0.708  -1.107  0.00  0.00    -0.075 A 
ATOM      2  C4  UNL d   1       2.320   0.636  -1.063  0.00  0.00     0.002 A 
ATOM      3  C5  UNL d   1       1.398   1.070  -0.110  0.00  0.00     0.002 A 
ATOM      4  C6  UNL d   1       0.855   0.167   0.801  0.00  0.00    -0.004 A 
ATOM      5  C7  UNL d   1       1.230  -1.174   0.755  0.00  0.00     0.002 A 
ATOM      6  C8  UNL d   1       2.156  -1.611  -0.194  0.00  0.00     0.002 A 
ENDROOT
BRANCH   1   7
ATOM      7  C2  UNL d   1       3.738  -1.179  -2.117  0.00  0.00     0.056 C 
BRANCH   7   8
ATOM      8  C1  UNL d   1       4.580  -0.052  -2.724  0.00  0.00     0.007 C 
ATOM      9  C   UNL d   1       6.000  -0.483  -3.069  0.00  0.00     0.009 C 
ENDBRANCH   7   8
ENDBRANCH   1   7
TORSDOF 2
ENDMDL
