MODEL 1
REMARK minimizedAffinity 1.15900493
REMARK minimizedRMSD -1
REMARK  2 active torsions:
REMARK  status: ('A' for Active; 'I' for Inactive)
REMARK    1  A    between atoms: C1_2  and  C2_3 
REMARK    2  A    between atoms: C2_3  and  C3_4 
ROOT
ATOM      1  C3  UNL d   1       0.631  -0.780   1.165  0.00  0.00    -0.075 A 
ATOM      2  C4  UNL d   1       1.774  -1.464   0.727  0.00  0.00     0.002 A 
ATOM      3  C5  UNL d   1       2.806  -0.781   0.084  0.00  0.00     0.002 A 
ATOM      4  C6  UNL d   1       2.704   0.591  -0.139  0.00  0.00    -0.004 A 
ATOM      5  C7  UNL d   1       1.566   1.278   0.277  0.00  0.00     0.002 A 
ATOM      6  C8  UNL d   1       0.534   0.597   0.925  0.00  0.00     0.002 A 
ENDROOT
BRANCH   1   7
ATOM      7  C2  UNL d   1      -0.476  -1.509   1.888  0.00  0.00     0.056 C 
BRANCH   7   8
ATOM      8  C1  UNL d   1      -1.697  -0.637   2.201  0.00  0.00     0.007 C 
ATOM      9  C   UNL d   1      -3.015  -1.393   2.103  0.00  0.00     0.009 C 
ENDBRANCH   7   8
ENDBRANCH   1   7
TORSDOF 2
ENDMDL
