MODEL 1
REMARK minimizedAffinity 0.652449608
REMARK minimizedRMSD -1
REMARK  2 active torsions:
REMARK  status: ('A' for Active; 'I' for Inactive)
REMARK    1  A    between atoms: C1_2  and  C2_3 
REMARK    2  A    between atoms: C2_3  and  C3_4 
ROOT
ATOM      1  C3  UNL d   1       2.478   0.400  -0.151  0.00  0.00    -0.075 A 
ATOM      2  C4  UNL d   1       2.840  -0.926  -0.425  0.00  0.00     0.002 A 
ATOM      3  C5  UNL d   1       3.811  -1.212  -1.385  0.00  0.00     0.002 A 
ATOM      4  C6  UNL d   1       4.424  -0.178  -2.089  0.00  0.00    -0.004 A 
ATOM      5  C7  UNL d   1       4.060   1.143  -1.837  0.00  0.00     0.002 A 
ATOM      6  C8  UNL d   1       3.091   1.432  -0.874  0.00  0.00     0.002 A 
ENDROOT
BRANCH   1   7
ATOM      7  C2  UNL d   1       1.448   0.718   0.907  0.00  0.00     0.056 C 
BRANCH   7   8
ATOM      8  C1  UNL d   1       0.696  -0.509   1.433  0.00  0.00     0.007 C 
ATOM      9  C   UNL d   1      -0.118  -0.222   2.688  0.00  0.00     0.009 C 
ENDBRANCH   7   8
ENDBRANCH   1   7
TORSDOF 2
ENDMDL
