MODEL 1
REMARK minimizedAffinity -2.93840551
REMARK minimizedRMSD -1
REMARK  2 active torsions:
REMARK  status: ('A' for Active; 'I' for Inactive)
REMARK    1  A    between atoms: C1_2  and  C2_3 
REMARK    2  A    between atoms: C2_3  and  C3_4 
ROOT
ATOM      1  C3  UNL d   1      -0.821  -0.882   2.055  0.00  0.00    -0.075 A 
ATOM      2  C4  UNL d   1      -1.298  -2.134   1.640  0.00  0.00     0.002 A 
ATOM      3  C5  UNL d   1      -2.633  -2.294   1.267  0.00  0.00     0.002 A 
ATOM      4  C6  UNL d   1      -3.508  -1.211   1.314  0.00  0.00    -0.004 A 
ATOM      5  C7  UNL d   1      -3.048   0.033   1.741  0.00  0.00     0.002 A 
ATOM      6  C8  UNL d   1      -1.712   0.197   2.110  0.00  0.00     0.002 A 
ENDROOT
BRANCH   1   7
ATOM      7  C2  UNL d   1       0.630  -0.695   2.432  0.00  0.00     0.056 C 
BRANCH   7   8
ATOM      8  C1  UNL d   1       1.611  -1.456   1.533  0.00  0.00     0.007 C 
ATOM      9  C   UNL d   1       2.878  -0.669   1.226  0.00  0.00     0.009 C 
ENDBRANCH   7   8
ENDBRANCH   1   7
TORSDOF 2
ENDMDL
