MODEL 1
REMARK minimizedAffinity -4.52056503
REMARK minimizedRMSD -1
REMARK  2 active torsions:
REMARK  status: ('A' for Active; 'I' for Inactive)
REMARK    1  A    between atoms: C1_2  and  C2_3 
REMARK    2  A    between atoms: C2_3  and  C3_4 
ROOT
ATOM      1  C3  UNL d   1       2.794  -0.427  -1.266  0.00  0.00    -0.075 A 
ATOM      2  C4  UNL d   1       2.325   0.881  -1.080  0.00  0.00     0.002 A 
ATOM      3  C5  UNL d   1       1.367   1.158  -0.105  0.00  0.00     0.002 A 
ATOM      4  C6  UNL d   1       0.859   0.132   0.688  0.00  0.00    -0.004 A 
ATOM      5  C7  UNL d   1       1.305  -1.174   0.501  0.00  0.00     0.002 A 
ATOM      6  C8  UNL d   1       2.267  -1.454  -0.472  0.00  0.00     0.002 A 
ENDROOT
BRANCH   1   7
ATOM      7  C2  UNL d   1       3.852  -0.729  -2.300  0.00  0.00     0.056 C 
BRANCH   7   8
ATOM      8  C1  UNL d   1       4.721   0.476  -2.674  0.00  0.00     0.007 C 
ATOM      9  C   UNL d   1       5.999   0.091  -3.408  0.00  0.00     0.009 C 
ENDBRANCH   7   8
ENDBRANCH   1   7
TORSDOF 2
ENDMDL
