MODEL 1
REMARK minimizedAffinity -4.98872519
REMARK minimizedRMSD -1
REMARK  3 active torsions:
REMARK  status: ('A' for Active; 'I' for Inactive)
REMARK    1  A    between atoms: C3'_2  and  C2'_3 
REMARK    2  A    between atoms: C2'_3  and  C1'_4 
REMARK    3  A    between atoms: C1'_4  and  C1_5 
ROOT
ATOM      1  C1  N4B d   1       0.243  -0.240   0.024  0.00  0.00    -0.075 A 
ATOM      2  C2  N4B d   1       1.275   0.688  -0.237  0.00  0.00     0.002 A 
ATOM      3  C3  N4B d   1       1.438   1.781   0.579  0.00  0.00     0.002 A 
ATOM      4  C4  N4B d   1       0.573   1.976   1.645  0.00  0.00    -0.004 A 
ATOM      5  C5  N4B d   1      -0.406   1.062   1.905  0.00  0.00     0.002 A 
ATOM      6  C6  N4B d   1      -0.579  -0.043   1.096  0.00  0.00     0.002 A 
ENDROOT
BRANCH   1   7
ATOM      7  C1' N4B d   1      -0.028  -1.404  -0.890  0.00  0.00     0.057 C 
BRANCH   7   8
ATOM      8  C2' N4B d   1      -1.459  -1.887  -0.674  0.00  0.00     0.009 C 
BRANCH   8   9
ATOM      9  C3' N4B d   1      -2.296  -1.768  -1.936  0.00  0.00     0.004 C 
ATOM     10  C4' N4B d   1      -3.749  -1.531  -1.649  0.00  0.00     0.003 C 
ENDBRANCH   8   9
ENDBRANCH   7   8
ENDBRANCH   1   7
TORSDOF 3
ENDMDL
