MODEL 1
REMARK minimizedAffinity -2.83652687
REMARK minimizedRMSD -1
REMARK  3 active torsions:
REMARK  status: ('A' for Active; 'I' for Inactive)
REMARK    1  A    between atoms: C3'_2  and  C2'_3 
REMARK    2  A    between atoms: C2'_3  and  C1'_4 
REMARK    3  A    between atoms: C1'_4  and  C1_5 
ROOT
ATOM      1  C1  N4B d   1      -0.399   0.326   0.072  0.00  0.00    -0.075 A 
ATOM      2  C2  N4B d   1       0.208   1.421  -0.582  0.00  0.00     0.002 A 
ATOM      3  C3  N4B d   1       0.795   2.420   0.155  0.00  0.00     0.002 A 
ATOM      4  C4  N4B d   1       0.772   2.356   1.540  0.00  0.00    -0.004 A 
ATOM      5  C5  N4B d   1       0.207   1.282   2.163  0.00  0.00     0.002 A 
ATOM      6  C6  N4B d   1      -0.384   0.269   1.436  0.00  0.00     0.002 A 
ENDROOT
BRANCH   1   7
ATOM      7  C1' N4B d   1      -1.129  -0.747  -0.688  0.00  0.00     0.057 C 
BRANCH   7   8
ATOM      8  C2' N4B d   1      -1.463  -0.232  -2.085  0.00  0.00     0.009 C 
BRANCH   8   9
ATOM      9  C3' N4B d   1      -2.589  -1.024  -2.728  0.00  0.00     0.004 C 
ATOM     10  C4' N4B d   1      -3.440  -1.743  -1.725  0.00  0.00     0.003 C 
ENDBRANCH   8   9
ENDBRANCH   7   8
ENDBRANCH   1   7
TORSDOF 3
ENDMDL
