MODEL 1
REMARK minimizedAffinity -3.95480251
REMARK minimizedRMSD -1
REMARK  3 active torsions:
REMARK  status: ('A' for Active; 'I' for Inactive)
REMARK    1  A    between atoms: C3'_2  and  C2'_3 
REMARK    2  A    between atoms: C2'_3  and  C1'_4 
REMARK    3  A    between atoms: C1'_4  and  C1_5 
ROOT
ATOM      1  C1  N4B d   1      -0.337  -0.088   0.563  0.00  0.00    -0.075 A 
ATOM      2  C2  N4B d   1      -0.718   0.405   1.830  0.00  0.00     0.002 A 
ATOM      3  C3  N4B d   1       0.033   1.378   2.443  0.00  0.00     0.002 A 
ATOM      4  C4  N4B d   1       1.174   1.858   1.818  0.00  0.00    -0.004 A 
ATOM      5  C5  N4B d   1       1.521   1.395   0.583  0.00  0.00     0.002 A 
ATOM      6  C6  N4B d   1       0.774   0.420  -0.046  0.00  0.00     0.002 A 
ENDROOT
BRANCH   1   7
ATOM      7  C1' N4B d   1      -1.078  -1.212  -0.107  0.00  0.00     0.057 C 
BRANCH   7   8
ATOM      8  C2' N4B d   1      -1.462  -0.787  -1.521  0.00  0.00     0.009 C 
BRANCH   8   9
ATOM      9  C3' N4B d   1      -2.654  -1.568  -2.046  0.00  0.00     0.004 C 
ATOM     10  C4' N4B d   1      -3.021  -1.194  -3.451  0.00  0.00     0.003 C 
ENDBRANCH   8   9
ENDBRANCH   7   8
ENDBRANCH   1   7
TORSDOF 3
ENDMDL
