MODEL 1
REMARK minimizedAffinity -2.48858833
REMARK minimizedRMSD -1
REMARK  3 active torsions:
REMARK  status: ('A' for Active; 'I' for Inactive)
REMARK    1  A    between atoms: C3'_2  and  C2'_3 
REMARK    2  A    between atoms: C2'_3  and  C1'_4 
REMARK    3  A    between atoms: C1'_4  and  C1_5 
ROOT
ATOM      1  C1  N4B d   1      -0.622  -1.563  -1.457  0.00  0.00    -0.075 A 
ATOM      2  C2  N4B d   1      -0.222  -1.225  -2.769  0.00  0.00     0.002 A 
ATOM      3  C3  N4B d   1      -1.083  -1.417  -3.821  0.00  0.00     0.002 A 
ATOM      4  C4  N4B d   1      -2.337  -1.963  -3.590  0.00  0.00    -0.004 A 
ATOM      5  C5  N4B d   1      -2.726  -2.263  -2.317  0.00  0.00     0.002 A 
ATOM      6  C6  N4B d   1      -1.872  -2.071  -1.250  0.00  0.00     0.002 A 
ENDROOT
BRANCH   1   7
ATOM      7  C1' N4B d   1       0.315  -1.451  -0.287  0.00  0.00     0.057 C 
BRANCH   7   8
ATOM      8  C2' N4B d   1       0.556   0.024   0.022  0.00  0.00     0.009 C 
BRANCH   8   9
ATOM      9  C3' N4B d   1      -0.197   0.475   1.263  0.00  0.00     0.004 C 
ATOM     10  C4' N4B d   1       0.554   1.501   2.057  0.00  0.00     0.003 C 
ENDBRANCH   8   9
ENDBRANCH   7   8
ENDBRANCH   1   7
TORSDOF 3
ENDMDL
