MODEL 1
REMARK minimizedAffinity -4.09059381
REMARK minimizedRMSD -1
REMARK  3 active torsions:
REMARK  status: ('A' for Active; 'I' for Inactive)
REMARK    1  A    between atoms: C3'_2  and  C2'_3 
REMARK    2  A    between atoms: C2'_3  and  C1'_4 
REMARK    3  A    between atoms: C1'_4  and  C1_5 
ROOT
ATOM      1  C1  N4B d   1      -3.727  -1.960  -1.788  0.00  0.00    -0.075 A 
ATOM      2  C2  N4B d   1      -2.498  -2.006  -1.093  0.00  0.00     0.002 A 
ATOM      3  C3  N4B d   1      -1.344  -1.590  -1.711  0.00  0.00     0.002 A 
ATOM      4  C4  N4B d   1      -1.391  -1.145  -3.023  0.00  0.00    -0.004 A 
ATOM      5  C5  N4B d   1      -2.586  -1.080  -3.679  0.00  0.00     0.002 A 
ATOM      6  C6  N4B d   1      -3.754  -1.491  -3.069  0.00  0.00     0.002 A 
ENDROOT
BRANCH   1   7
ATOM      7  C1' N4B d   1      -5.001  -2.484  -1.184  0.00  0.00     0.057 C 
BRANCH   7   8
ATOM      8  C2' N4B d   1      -4.672  -3.242   0.100  0.00  0.00     0.009 C 
BRANCH   8   9
ATOM      9  C3' N4B d   1      -5.447  -4.544   0.205  0.00  0.00     0.004 C 
ATOM     10  C4' N4B d   1      -4.796  -5.669  -0.542  0.00  0.00     0.003 C 
ENDBRANCH   8   9
ENDBRANCH   7   8
ENDBRANCH   1   7
TORSDOF 3
ENDMDL
