MODEL 1
REMARK minimizedAffinity -2.69881582
REMARK minimizedRMSD -1
REMARK  3 active torsions:
REMARK  status: ('A' for Active; 'I' for Inactive)
REMARK    1  A    between atoms: C3'_2  and  C2'_3 
REMARK    2  A    between atoms: C2'_3  and  C1'_4 
REMARK    3  A    between atoms: C1'_4  and  C1_5 
ROOT
ATOM      1  C1  N4B d   1       0.053  -0.015   0.070  0.00  0.00    -0.075 A 
ATOM      2  C2  N4B d   1       0.612   1.282   0.030  0.00  0.00     0.002 A 
ATOM      3  C3  N4B d   1       0.581   2.078   1.148  0.00  0.00     0.002 A 
ATOM      4  C4  N4B d   1      -0.017   1.608   2.308  0.00  0.00    -0.004 A 
ATOM      5  C5  N4B d   1      -0.532   0.345   2.346  0.00  0.00     0.002 A 
ATOM      6  C6  N4B d   1      -0.505  -0.467   1.231  0.00  0.00     0.002 A 
ENDROOT
BRANCH   1   7
ATOM      7  C1' N4B d   1      -0.014  -0.889  -1.152  0.00  0.00     0.057 C 
BRANCH   7   8
ATOM      8  C2' N4B d   1      -1.458  -1.329  -1.375  0.00  0.00     0.009 C 
BRANCH   8   9
ATOM      9  C3' N4B d   1      -1.865  -1.224  -2.835  0.00  0.00     0.004 C 
ATOM     10  C4' N4B d   1      -3.341  -1.390  -3.040  0.00  0.00     0.003 C 
ENDBRANCH   8   9
ENDBRANCH   7   8
ENDBRANCH   1   7
TORSDOF 3
ENDMDL
