MODEL 1
REMARK minimizedAffinity 14.4135027
REMARK minimizedRMSD -1
REMARK  0 active torsions:
REMARK  status: ('A' for Active; 'I' for Inactive)
ROOT
ATOM      1  C   UNL d   1      -3.694   2.703  -3.746  0.00  0.00     0.124 A 
ATOM      2  C1  UNL d   1      -4.596   2.224  -4.686  0.00  0.00     0.062 A 
ATOM      3  C2  UNL d   1      -4.546   0.892  -5.089  0.00  0.00     0.162 A 
ATOM      4  C3  UNL d   1      -3.591   0.030  -4.551  0.00  0.00    -0.034 A 
ATOM      5  C4  UNL d   1      -2.687   0.519  -3.606  0.00  0.00     0.162 A 
ATOM      6  C5  UNL d   1      -2.741   1.850  -3.207  0.00  0.00     0.062 A 
ATOM      7  F   UNL d   1      -1.869   2.311  -2.299  0.00  0.00    -0.097 F 
ATOM      8  F1  UNL d   1      -1.756  -0.283  -3.069  0.00  0.00    -0.096 F 
ATOM      9  I   UNL d   1      -3.513  -1.962  -5.151  0.00  0.00    -0.060 I 
ATOM     10  F2  UNL d   1      -5.430   0.457  -5.999  0.00  0.00    -0.096 F 
ATOM     11  F3  UNL d   1      -5.517   3.046  -5.209  0.00  0.00    -0.097 F 
ATOM     12  F4  UNL d   1      -3.744   3.985  -3.361  0.00  0.00    -0.092 F 
ENDROOT
TORSDOF 0
ENDMDL
