MODEL 1
REMARK minimizedAffinity 33.7845726
REMARK minimizedRMSD -1
REMARK  0 active torsions:
REMARK  status: ('A' for Active; 'I' for Inactive)
ROOT
ATOM      1  C   UNL d   1       0.850  -2.093  -0.972  0.00  0.00     0.124 A 
ATOM      2  C1  UNL d   1       0.532  -0.742  -0.976  0.00  0.00     0.062 A 
ATOM      3  C2  UNL d   1       1.513   0.208  -0.705  0.00  0.00     0.162 A 
ATOM      4  C3  UNL d   1       2.821  -0.190  -0.428  0.00  0.00    -0.034 A 
ATOM      5  C4  UNL d   1       3.132  -1.551  -0.424  0.00  0.00     0.162 A 
ATOM      6  C5  UNL d   1       2.148  -2.496  -0.696  0.00  0.00     0.062 A 
ATOM      7  F   UNL d   1       2.457  -3.801  -0.691  0.00  0.00    -0.097 F 
ATOM      8  F1  UNL d   1       4.379  -1.968  -0.162  0.00  0.00    -0.096 F 
ATOM      9  I   UNL d   1       4.290   1.227  -0.022  0.00  0.00    -0.060 I 
ATOM     10  F2  UNL d   1       1.178   1.507  -0.716  0.00  0.00    -0.096 F 
ATOM     11  F3  UNL d   1      -0.722  -0.350  -1.241  0.00  0.00    -0.097 F 
ATOM     12  F4  UNL d   1      -0.096  -3.005  -1.232  0.00  0.00    -0.092 F 
ENDROOT
TORSDOF 0
ENDMDL
