MODEL 1
REMARK minimizedAffinity 0.754557192
REMARK minimizedRMSD -1
REMARK  0 active torsions:
REMARK  status: ('A' for Active; 'I' for Inactive)
ROOT
ATOM      1  C   UNL d   1      -0.594  -1.050  -2.238  0.00  0.00     0.124 A 
ATOM      2  C1  UNL d   1      -1.308  -0.668  -1.110  0.00  0.00     0.062 A 
ATOM      3  C2  UNL d   1      -0.757   0.235  -0.206  0.00  0.00     0.162 A 
ATOM      4  C3  UNL d   1       0.515   0.764  -0.425  0.00  0.00    -0.034 A 
ATOM      5  C4  UNL d   1       1.227   0.374  -1.561  0.00  0.00     0.162 A 
ATOM      6  C5  UNL d   1       0.672  -0.529  -2.462  0.00  0.00     0.062 A 
ATOM      7  F   UNL d   1       1.363  -0.897  -3.551  0.00  0.00    -0.097 F 
ATOM      8  F1  UNL d   1       2.452   0.862  -1.803  0.00  0.00    -0.096 F 
ATOM      9  I   UNL d   1       1.342   2.114   0.925  0.00  0.00    -0.060 I 
ATOM     10  F2  UNL d   1      -1.470   0.587   0.875  0.00  0.00    -0.096 F 
ATOM     11  F3  UNL d   1      -2.532  -1.171  -0.891  0.00  0.00    -0.097 F 
ATOM     12  F4  UNL d   1      -1.126  -1.920  -3.106  0.00  0.00    -0.092 F 
ENDROOT
TORSDOF 0
ENDMDL
