MODEL 1
REMARK minimizedAffinity 25.121851
REMARK minimizedRMSD -1
REMARK  0 active torsions:
REMARK  status: ('A' for Active; 'I' for Inactive)
ROOT
ATOM      1  C   UNL d   1       1.321  -0.121  -0.822  0.00  0.00     0.124 A 
ATOM      2  C1  UNL d   1       2.585  -0.564  -0.459  0.00  0.00     0.062 A 
ATOM      3  C2  UNL d   1       2.939  -1.898  -0.641  0.00  0.00     0.162 A 
ATOM      4  C3  UNL d   1       2.027  -2.799  -1.190  0.00  0.00    -0.034 A 
ATOM      5  C4  UNL d   1       0.757  -2.347  -1.552  0.00  0.00     0.162 A 
ATOM      6  C5  UNL d   1       0.408  -1.013  -1.368  0.00  0.00     0.062 A 
ATOM      7  F   UNL d   1      -0.814  -0.587  -1.719  0.00  0.00    -0.097 F 
ATOM      8  F1  UNL d   1      -0.144  -3.187  -2.082  0.00  0.00    -0.096 F 
ATOM      9  I   UNL d   1       2.553  -4.794  -1.464  0.00  0.00    -0.060 I 
ATOM     10  F2  UNL d   1       4.168  -2.297  -0.282  0.00  0.00    -0.096 F 
ATOM     11  F3  UNL d   1       3.469   0.295   0.069  0.00  0.00    -0.097 F 
ATOM     12  F4  UNL d   1       0.983   1.162  -0.645  0.00  0.00    -0.092 F 
ENDROOT
TORSDOF 0
ENDMDL
