MODEL 1
REMARK minimizedAffinity 18.4778175
REMARK minimizedRMSD -1
REMARK  0 active torsions:
REMARK  status: ('A' for Active; 'I' for Inactive)
ROOT
ATOM      1  C   UNL d   1       0.617  -1.979  -1.385  0.00  0.00     0.124 A 
ATOM      2  C1  UNL d   1       1.858  -2.442  -0.971  0.00  0.00     0.062 A 
ATOM      3  C2  UNL d   1       2.884  -1.543  -0.696  0.00  0.00     0.162 A 
ATOM      4  C3  UNL d   1       2.674  -0.171  -0.832  0.00  0.00    -0.034 A 
ATOM      5  C4  UNL d   1       1.423   0.287  -1.250  0.00  0.00     0.162 A 
ATOM      6  C5  UNL d   1       0.400  -0.615  -1.524  0.00  0.00     0.062 A 
ATOM      7  F   UNL d   1      -0.798  -0.166  -1.923  0.00  0.00    -0.097 F 
ATOM      8  F1  UNL d   1       1.186   1.600  -1.392  0.00  0.00    -0.096 F 
ATOM      9  I   UNL d   1       4.206   1.177  -0.422  0.00  0.00    -0.060 I 
ATOM     10  F2  UNL d   1       4.074  -2.018  -0.298  0.00  0.00    -0.096 F 
ATOM     11  F3  UNL d   1       2.070  -3.759  -0.837  0.00  0.00    -0.097 F 
ATOM     12  F4  UNL d   1      -0.369  -2.846  -1.650  0.00  0.00    -0.092 F 
ENDROOT
TORSDOF 0
ENDMDL
