MODEL 1
REMARK minimizedAffinity 12.1942644
REMARK minimizedRMSD -1
REMARK  0 active torsions:
REMARK  status: ('A' for Active; 'I' for Inactive)
ROOT
ATOM      1  C   UNL d   1       1.809  -3.572  -1.672  0.00  0.00     0.124 A 
ATOM      2  C1  UNL d   1       3.177  -3.352  -1.594  0.00  0.00     0.062 A 
ATOM      3  C2  UNL d   1       3.665  -2.126  -1.151  0.00  0.00     0.162 A 
ATOM      4  C3  UNL d   1       2.783  -1.110  -0.781  0.00  0.00    -0.034 A 
ATOM      5  C4  UNL d   1       1.408  -1.339  -0.863  0.00  0.00     0.162 A 
ATOM      6  C5  UNL d   1       0.926  -2.566  -1.307  0.00  0.00     0.062 A 
ATOM      7  F   UNL d   1      -0.396  -2.777  -1.381  0.00  0.00    -0.097 F 
ATOM      8  F1  UNL d   1       0.533  -0.384  -0.515  0.00  0.00    -0.096 F 
ATOM      9  I   UNL d   1       3.508   0.725  -0.118  0.00  0.00    -0.060 I 
ATOM     10  F2  UNL d   1       4.992  -1.941  -1.086  0.00  0.00    -0.096 F 
ATOM     11  F3  UNL d   1       4.032  -4.322  -1.948  0.00  0.00    -0.097 F 
ATOM     12  F4  UNL d   1       1.343  -4.752  -2.100  0.00  0.00    -0.092 F 
ENDROOT
TORSDOF 0
ENDMDL
