MODEL 1
REMARK minimizedAffinity 10.1007948
REMARK minimizedRMSD -1
REMARK  0 active torsions:
REMARK  status: ('A' for Active; 'I' for Inactive)
ROOT
ATOM      1  C   UNL d   1       2.161   1.007  -0.586  0.00  0.00     0.124 A 
ATOM      2  C1  UNL d   1       1.288   0.009  -0.174  0.00  0.00     0.062 A 
ATOM      3  C2  UNL d   1       0.425   0.231   0.894  0.00  0.00     0.162 A 
ATOM      4  C3  UNL d   1       0.428   1.457   1.559  0.00  0.00    -0.034 A 
ATOM      5  C4  UNL d   1       1.310   2.456   1.140  0.00  0.00     0.162 A 
ATOM      6  C5  UNL d   1       2.171   2.229   0.072  0.00  0.00     0.062 A 
ATOM      7  F   UNL d   1       3.013   3.194  -0.324  0.00  0.00    -0.097 F 
ATOM      8  F1  UNL d   1       1.339   3.646   1.757  0.00  0.00    -0.096 F 
ATOM      9  I   UNL d   1      -0.862   1.793   3.157  0.00  0.00    -0.060 I 
ATOM     10  F2  UNL d   1      -0.408  -0.751   1.270  0.00  0.00    -0.096 F 
ATOM     11  F3  UNL d   1       1.278  -1.173  -0.807  0.00  0.00    -0.097 F 
ATOM     12  F4  UNL d   1       2.992   0.790  -1.613  0.00  0.00    -0.092 F 
ENDROOT
TORSDOF 0
ENDMDL
