MODEL 1
REMARK minimizedAffinity 4.60480118
REMARK minimizedRMSD -1
REMARK  0 active torsions:
REMARK  status: ('A' for Active; 'I' for Inactive)
ROOT
ATOM      1  C   UNL d   1       1.189   0.592  -2.645  0.00  0.00     0.124 A 
ATOM      2  C1  UNL d   1       1.705   1.189  -1.503  0.00  0.00     0.062 A 
ATOM      3  C2  UNL d   1       1.168   0.891  -0.254  0.00  0.00     0.162 A 
ATOM      4  C3  UNL d   1       0.109  -0.010  -0.140  0.00  0.00    -0.034 A 
ATOM      5  C4  UNL d   1      -0.405  -0.605  -1.293  0.00  0.00     0.162 A 
ATOM      6  C5  UNL d   1       0.135  -0.304  -2.539  0.00  0.00     0.062 A 
ATOM      7  F   UNL d   1      -0.365  -0.881  -3.641  0.00  0.00    -0.097 F 
ATOM      8  F1  UNL d   1      -1.424  -1.475  -1.219  0.00  0.00    -0.096 F 
ATOM      9  I   UNL d   1      -0.697  -0.458   1.726  0.00  0.00    -0.060 I 
ATOM     10  F2  UNL d   1       1.687   1.482   0.833  0.00  0.00    -0.096 F 
ATOM     11  F3  UNL d   1       2.723   2.055  -1.602  0.00  0.00    -0.097 F 
ATOM     12  F4  UNL d   1       1.707   0.881  -3.845  0.00  0.00    -0.092 F 
ENDROOT
TORSDOF 0
ENDMDL
