MODEL 1
REMARK minimizedAffinity 12.4489117
REMARK minimizedRMSD -1
REMARK  0 active torsions:
REMARK  status: ('A' for Active; 'I' for Inactive)
ROOT
ATOM      1  C   UNL d   1       1.185   0.558  -1.250  0.00  0.00     0.124 A 
ATOM      2  C1  UNL d   1       0.369  -0.347  -1.915  0.00  0.00     0.062 A 
ATOM      3  C2  UNL d   1       0.554  -1.715  -1.741  0.00  0.00     0.162 A 
ATOM      4  C3  UNL d   1       1.559  -2.188  -0.898  0.00  0.00    -0.034 A 
ATOM      5  C4  UNL d   1       2.377  -1.272  -0.233  0.00  0.00     0.162 A 
ATOM      6  C5  UNL d   1       2.188   0.095  -0.411  0.00  0.00     0.062 A 
ATOM      7  F   UNL d   1       2.978   0.968   0.232  0.00  0.00    -0.097 F 
ATOM      8  F1  UNL d   1       3.353  -1.692   0.585  0.00  0.00    -0.096 F 
ATOM      9  I   UNL d   1       1.839  -4.233  -0.635  0.00  0.00    -0.060 I 
ATOM     10  F2  UNL d   1      -0.250  -2.566  -2.396  0.00  0.00    -0.096 F 
ATOM     11  F3  UNL d   1      -0.600   0.098  -2.727  0.00  0.00    -0.097 F 
ATOM     12  F4  UNL d   1       1.006   1.874  -1.420  0.00  0.00    -0.092 F 
ENDROOT
TORSDOF 0
ENDMDL
