MODEL 1
REMARK minimizedAffinity 11.4621391
REMARK minimizedRMSD -1
REMARK  0 active torsions:
REMARK  status: ('A' for Active; 'I' for Inactive)
ROOT
ATOM      1  C   UNL d   1       1.349  -0.447  -2.742  0.00  0.00     0.124 A 
ATOM      2  C1  UNL d   1       1.178  -1.327  -1.682  0.00  0.00     0.062 A 
ATOM      3  C2  UNL d   1       1.119  -0.848  -0.377  0.00  0.00     0.162 A 
ATOM      4  C3  UNL d   1       1.231   0.519  -0.123  0.00  0.00    -0.034 A 
ATOM      5  C4  UNL d   1       1.404   1.398  -1.194  0.00  0.00     0.162 A 
ATOM      6  C5  UNL d   1       1.462   0.914  -2.497  0.00  0.00     0.062 A 
ATOM      7  F   UNL d   1       1.627   1.766  -3.519  0.00  0.00    -0.097 F 
ATOM      8  F1  UNL d   1       1.515   2.718  -0.985  0.00  0.00    -0.096 F 
ATOM      9  I   UNL d   1       1.144   1.239   1.828  0.00  0.00    -0.060 I 
ATOM     10  F2  UNL d   1       0.953  -1.722   0.627  0.00  0.00    -0.096 F 
ATOM     11  F3  UNL d   1       1.069  -2.643  -1.917  0.00  0.00    -0.097 F 
ATOM     12  F4  UNL d   1       1.406  -0.911  -3.997  0.00  0.00    -0.092 F 
ENDROOT
TORSDOF 0
ENDMDL
