MODEL 1
REMARK minimizedAffinity 25.075592
REMARK minimizedRMSD -1
REMARK  0 active torsions:
REMARK  status: ('A' for Active; 'I' for Inactive)
ROOT
ATOM      1  C   UNL d   1       1.224  -0.165  -0.349  0.00  0.00     0.124 A 
ATOM      2  C1  UNL d   1       0.338  -1.164  -0.728  0.00  0.00     0.062 A 
ATOM      3  C2  UNL d   1       0.816  -2.391  -1.176  0.00  0.00     0.162 A 
ATOM      4  C3  UNL d   1       2.189  -2.627  -1.248  0.00  0.00    -0.034 A 
ATOM      5  C4  UNL d   1       3.074  -1.617  -0.866  0.00  0.00     0.162 A 
ATOM      6  C5  UNL d   1       2.591  -0.392  -0.419  0.00  0.00     0.062 A 
ATOM      7  F   UNL d   1       3.448   0.572  -0.053  0.00  0.00    -0.097 F 
ATOM      8  F1  UNL d   1       4.401  -1.811  -0.922  0.00  0.00    -0.096 F 
ATOM      9  I   UNL d   1       2.910  -4.462  -1.918  0.00  0.00    -0.060 I 
ATOM     10  F2  UNL d   1      -0.063  -3.338  -1.536  0.00  0.00    -0.096 F 
ATOM     11  F3  UNL d   1      -0.984  -0.946  -0.663  0.00  0.00    -0.097 F 
ATOM     12  F4  UNL d   1       0.760   1.016   0.081  0.00  0.00    -0.092 F 
ENDROOT
TORSDOF 0
ENDMDL
