MODEL 1
REMARK minimizedAffinity 17.9195042
REMARK minimizedRMSD -1
REMARK  0 active torsions:
REMARK  status: ('A' for Active; 'I' for Inactive)
ROOT
ATOM      1  C   UNL d   1      -2.729  -4.783  -4.293  0.00  0.00     0.124 A 
ATOM      2  C1  UNL d   1      -2.570  -3.686  -3.458  0.00  0.00     0.062 A 
ATOM      3  C2  UNL d   1      -3.501  -2.652  -3.475  0.00  0.00     0.162 A 
ATOM      4  C3  UNL d   1      -4.603  -2.711  -4.329  0.00  0.00    -0.034 A 
ATOM      5  C4  UNL d   1      -4.756  -3.817  -5.166  0.00  0.00     0.162 A 
ATOM      6  C5  UNL d   1      -3.822  -4.848  -5.146  0.00  0.00     0.062 A 
ATOM      7  F   UNL d   1      -3.978  -5.907  -5.953  0.00  0.00    -0.097 F 
ATOM      8  F1  UNL d   1      -5.803  -3.906  -6.000  0.00  0.00    -0.096 F 
ATOM      9  I   UNL d   1      -5.998  -1.167  -4.357  0.00  0.00    -0.060 I 
ATOM     10  F2  UNL d   1      -3.322  -1.604  -2.657  0.00  0.00    -0.096 F 
ATOM     11  F3  UNL d   1      -1.514  -3.620  -2.634  0.00  0.00    -0.097 F 
ATOM     12  F4  UNL d   1      -1.830  -5.776  -4.276  0.00  0.00    -0.092 F 
ENDROOT
TORSDOF 0
ENDMDL
