MODEL 1
REMARK minimizedAffinity 4.70375967
REMARK minimizedRMSD -1
REMARK  0 active torsions:
REMARK  status: ('A' for Active; 'I' for Inactive)
ROOT
ATOM      1  C   UNL d   1       1.954   2.628   0.855  0.00  0.00     0.124 A 
ATOM      2  C1  UNL d   1       1.181   1.844   1.701  0.00  0.00     0.062 A 
ATOM      3  C2  UNL d   1       0.677   0.625   1.258  0.00  0.00     0.162 A 
ATOM      4  C3  UNL d   1       0.944   0.181  -0.037  0.00  0.00    -0.034 A 
ATOM      5  C4  UNL d   1       1.721   0.975  -0.882  0.00  0.00     0.162 A 
ATOM      6  C5  UNL d   1       2.223   2.193  -0.435  0.00  0.00     0.062 A 
ATOM      7  F   UNL d   1       2.969   2.950  -1.253  0.00  0.00    -0.097 F 
ATOM      8  F1  UNL d   1       1.997   0.579  -2.133  0.00  0.00    -0.096 F 
ATOM      9  I   UNL d   1       0.192  -1.642  -0.703  0.00  0.00    -0.060 I 
ATOM     10  F2  UNL d   1      -0.067  -0.112   2.097  0.00  0.00    -0.096 F 
ATOM     11  F3  UNL d   1       0.919   2.262   2.947  0.00  0.00    -0.097 F 
ATOM     12  F4  UNL d   1       2.437   3.801   1.283  0.00  0.00    -0.092 F 
ENDROOT
TORSDOF 0
ENDMDL
