MODEL 1
REMARK minimizedAffinity 17.9266529
REMARK minimizedRMSD -1
REMARK  0 active torsions:
REMARK  status: ('A' for Active; 'I' for Inactive)
ROOT
ATOM      1  C   UNL d   1      -0.893  -3.366   1.605  0.00  0.00     0.124 A 
ATOM      2  C1  UNL d   1      -1.743  -4.447   1.420  0.00  0.00     0.062 A 
ATOM      3  C2  UNL d   1      -1.964  -4.954   0.143  0.00  0.00     0.162 A 
ATOM      4  C3  UNL d   1      -1.333  -4.380  -0.961  0.00  0.00    -0.034 A 
ATOM      5  C4  UNL d   1      -0.480  -3.292  -0.767  0.00  0.00     0.162 A 
ATOM      6  C5  UNL d   1      -0.262  -2.789   0.512  0.00  0.00     0.062 A 
ATOM      7  F   UNL d   1       0.559  -1.744   0.688  0.00  0.00    -0.097 F 
ATOM      8  F1  UNL d   1       0.143  -2.716  -1.806  0.00  0.00    -0.096 F 
ATOM      9  I   UNL d   1      -1.661  -5.134  -2.872  0.00  0.00    -0.060 I 
ATOM     10  F2  UNL d   1      -2.791  -5.999  -0.006  0.00  0.00    -0.096 F 
ATOM     11  F3  UNL d   1      -2.354  -5.006   2.475  0.00  0.00    -0.097 F 
ATOM     12  F4  UNL d   1      -0.683  -2.880   2.835  0.00  0.00    -0.092 F 
ENDROOT
TORSDOF 0
ENDMDL
