MODEL 1
REMARK minimizedAffinity 11.8437967
REMARK minimizedRMSD -1
REMARK  0 active torsions:
REMARK  status: ('A' for Active; 'I' for Inactive)
ROOT
ATOM      1  C   UNL d   1       1.017  -0.061  -2.709  0.00  0.00     0.124 A 
ATOM      2  C1  UNL d   1       0.689  -0.983  -1.725  0.00  0.00     0.062 A 
ATOM      3  C2  UNL d   1       0.733  -0.619  -0.382  0.00  0.00     0.162 A 
ATOM      4  C3  UNL d   1       1.106   0.674  -0.016  0.00  0.00    -0.034 A 
ATOM      5  C4  UNL d   1       1.435   1.596  -1.011  0.00  0.00     0.162 A 
ATOM      6  C5  UNL d   1       1.390   1.227  -2.352  0.00  0.00     0.062 A 
ATOM      7  F   UNL d   1       1.707   2.119  -3.301  0.00  0.00    -0.097 F 
ATOM      8  F1  UNL d   1       1.798   2.847  -0.694  0.00  0.00    -0.096 F 
ATOM      9  I   UNL d   1       1.173   1.222   1.991  0.00  0.00    -0.060 I 
ATOM     10  F2  UNL d   1       0.411  -1.531   0.548  0.00  0.00    -0.096 F 
ATOM     11  F3  UNL d   1       0.330  -2.229  -2.068  0.00  0.00    -0.097 F 
ATOM     12  F4  UNL d   1       0.975  -0.415  -4.000  0.00  0.00    -0.092 F 
ENDROOT
TORSDOF 0
ENDMDL
