MODEL 1
REMARK minimizedAffinity 18.098299
REMARK minimizedRMSD -1
REMARK  0 active torsions:
REMARK  status: ('A' for Active; 'I' for Inactive)
ROOT
ATOM      1  C   UNL d   1       0.141  -0.461  -1.679  0.00  0.00     0.124 A 
ATOM      2  C1  UNL d   1      -0.300  -1.522  -2.459  0.00  0.00     0.062 A 
ATOM      3  C2  UNL d   1       0.466  -2.680  -2.562  0.00  0.00     0.162 A 
ATOM      4  C3  UNL d   1       1.679  -2.784  -1.882  0.00  0.00    -0.034 A 
ATOM      5  C4  UNL d   1       2.116  -1.713  -1.101  0.00  0.00     0.162 A 
ATOM      6  C5  UNL d   1       1.348  -0.558  -1.001  0.00  0.00     0.062 A 
ATOM      7  F   UNL d   1       1.775   0.466  -0.247  0.00  0.00    -0.097 F 
ATOM      8  F1  UNL d   1       3.278  -1.780  -0.434  0.00  0.00    -0.096 F 
ATOM      9  I   UNL d   1       2.826  -4.514  -2.034  0.00  0.00    -0.060 I 
ATOM     10  F2  UNL d   1       0.015  -3.689  -3.322  0.00  0.00    -0.096 F 
ATOM     11  F3  UNL d   1      -1.465  -1.431  -3.116  0.00  0.00    -0.097 F 
ATOM     12  F4  UNL d   1      -0.597   0.652  -1.583  0.00  0.00    -0.092 F 
ENDROOT
TORSDOF 0
ENDMDL
