MODEL 1
REMARK minimizedAffinity 20.699007
REMARK minimizedRMSD -1
REMARK  0 active torsions:
REMARK  status: ('A' for Active; 'I' for Inactive)
ROOT
ATOM      1  C   UNL d   1       1.421  -2.886  -0.925  0.00  0.00     0.124 A 
ATOM      2  C1  UNL d   1       0.164  -2.709  -1.485  0.00  0.00     0.062 A 
ATOM      3  C2  UNL d   1      -0.304  -3.595  -2.451  0.00  0.00     0.162 A 
ATOM      4  C3  UNL d   1       0.487  -4.667  -2.864  0.00  0.00    -0.034 A 
ATOM      5  C4  UNL d   1       1.751  -4.838  -2.297  0.00  0.00     0.162 A 
ATOM      6  C5  UNL d   1       2.214  -3.950  -1.331  0.00  0.00     0.062 A 
ATOM      7  F   UNL d   1       3.429  -4.123  -0.792  0.00  0.00    -0.097 F 
ATOM      8  F1  UNL d   1       2.538  -5.859  -2.671  0.00  0.00    -0.096 F 
ATOM      9  I   UNL d   1      -0.208  -5.994  -4.308  0.00  0.00    -0.060 I 
ATOM     10  F2  UNL d   1      -1.523  -3.399  -2.975  0.00  0.00    -0.096 F 
ATOM     11  F3  UNL d   1      -0.604  -1.681  -1.094  0.00  0.00    -0.097 F 
ATOM     12  F4  UNL d   1       1.869  -2.031   0.004  0.00  0.00    -0.092 F 
ENDROOT
TORSDOF 0
ENDMDL
