MODEL 1
REMARK minimizedAffinity 18.9896526
REMARK minimizedRMSD -1
REMARK  0 active torsions:
REMARK  status: ('A' for Active; 'I' for Inactive)
ROOT
ATOM      1  C   UNL d   1       0.482  -1.821  -2.279  0.00  0.00     0.124 A 
ATOM      2  C1  UNL d   1      -0.237  -0.675  -2.590  0.00  0.00     0.062 A 
ATOM      3  C2  UNL d   1       0.087   0.539  -1.990  0.00  0.00     0.162 A 
ATOM      4  C3  UNL d   1       1.136   0.613  -1.074  0.00  0.00    -0.034 A 
ATOM      5  C4  UNL d   1       1.853  -0.544  -0.765  0.00  0.00     0.162 A 
ATOM      6  C5  UNL d   1       1.526  -1.754  -1.367  0.00  0.00     0.062 A 
ATOM      7  F   UNL d   1       2.221  -2.861  -1.065  0.00  0.00    -0.097 F 
ATOM      8  F1  UNL d   1       2.868  -0.508   0.112  0.00  0.00    -0.096 F 
ATOM      9  I   UNL d   1       1.623   2.426  -0.175  0.00  0.00    -0.060 I 
ATOM     10  F2  UNL d   1      -0.625   1.630  -2.309  0.00  0.00    -0.096 F 
ATOM     11  F3  UNL d   1      -1.247  -0.737  -3.470  0.00  0.00    -0.097 F 
ATOM     12  F4  UNL d   1       0.168  -2.988  -2.857  0.00  0.00    -0.092 F 
ENDROOT
TORSDOF 0
ENDMDL
