MODEL 1
REMARK minimizedAffinity -5.441082
REMARK minimizedRMSD -1
REMARK  0 active torsions:
REMARK  status: ('A' for Active; 'I' for Inactive)
ROOT
ATOM      1  C2' OXE d   1       2.812   1.043  -0.161  0.00  0.00     0.078 C 
ATOM      2  C1' OXE d   1       0.938   3.131  -0.241  0.00  0.00     0.078 C 
ATOM      3  C1  OXE d   1       0.456   1.769   0.192  0.00  0.00    -0.078 A 
ATOM      4  C2  OXE d   1       1.369   0.743   0.183  0.00  0.00    -0.078 A 
ATOM      5  C3  OXE d   1       0.990  -0.521   0.625  0.00  0.00     0.003 A 
ATOM      6  C4  OXE d   1      -0.349  -0.793   0.932  0.00  0.00    -0.002 A 
ATOM      7  C5  OXE d   1      -1.304   0.229   0.909  0.00  0.00    -0.002 A 
ATOM      8  C6  OXE d   1      -0.910   1.522   0.583  0.00  0.00     0.003 A 
ENDROOT
TORSDOF 0
ENDMDL
