MODEL 1
REMARK minimizedAffinity -0.0446998365
REMARK minimizedRMSD -1
REMARK  0 active torsions:
REMARK  status: ('A' for Active; 'I' for Inactive)
ROOT
ATOM      1  C2' OXE d   1       0.350  -1.449  -0.212  0.00  0.00     0.078 C 
ATOM      2  C1' OXE d   1       2.674   0.043   0.289  0.00  0.00     0.078 C 
ATOM      3  C1  OXE d   1       1.344   0.731   0.470  0.00  0.00    -0.078 A 
ATOM      4  C2  OXE d   1       0.213   0.007   0.178  0.00  0.00    -0.078 A 
ATOM      5  C3  OXE d   1      -1.041   0.575   0.381  0.00  0.00     0.003 A 
ATOM      6  C4  OXE d   1      -1.159   1.926   0.732  0.00  0.00    -0.002 A 
ATOM      7  C5  OXE d   1      -0.019   2.692   0.996  0.00  0.00    -0.002 A 
ATOM      8  C6  OXE d   1       1.236   2.099   0.911  0.00  0.00     0.003 A 
ENDROOT
TORSDOF 0
ENDMDL
