MODEL 1
REMARK minimizedAffinity -2.4535675
REMARK minimizedRMSD -1
REMARK  0 active torsions:
REMARK  status: ('A' for Active; 'I' for Inactive)
ROOT
ATOM      1  C2' OXE d   1       1.667  -1.699   0.833  0.00  0.00     0.078 C 
ATOM      2  C1' OXE d   1       0.195  -2.688  -1.343  0.00  0.00     0.078 C 
ATOM      3  C1  OXE d   1      -0.260  -1.394  -0.716  0.00  0.00    -0.078 A 
ATOM      4  C2  OXE d   1       0.438  -0.942   0.378  0.00  0.00    -0.078 A 
ATOM      5  C3  OXE d   1       0.094   0.275   0.960  0.00  0.00     0.003 A 
ATOM      6  C4  OXE d   1      -1.050   0.964   0.540  0.00  0.00    -0.002 A 
ATOM      7  C5  OXE d   1      -1.799   0.500  -0.547  0.00  0.00    -0.002 A 
ATOM      8  C6  OXE d   1      -1.393  -0.653  -1.211  0.00  0.00     0.003 A 
ENDROOT
TORSDOF 0
ENDMDL
