MODEL 1
REMARK minimizedAffinity -2.44421268
REMARK minimizedRMSD -1
REMARK  0 active torsions:
REMARK  status: ('A' for Active; 'I' for Inactive)
ROOT
ATOM      1  C2' OXE d   1      -2.048   1.050   0.435  0.00  0.00     0.078 C 
ATOM      2  C1' OXE d   1       0.236   2.591   0.970  0.00  0.00     0.078 C 
ATOM      3  C1  OXE d   1       0.437   1.149   0.579  0.00  0.00    -0.078 A 
ATOM      4  C2  OXE d   1      -0.688   0.389   0.364  0.00  0.00    -0.078 A 
ATOM      5  C3  OXE d   1      -0.558  -0.932  -0.052  0.00  0.00     0.003 A 
ATOM      6  C4  OXE d   1       0.703  -1.538  -0.106  0.00  0.00    -0.002 A 
ATOM      7  C5  OXE d   1       1.860  -0.794   0.148  0.00  0.00    -0.002 A 
ATOM      8  C6  OXE d   1       1.747   0.559   0.449  0.00  0.00     0.003 A 
ENDROOT
TORSDOF 0
ENDMDL
