MODEL 1
REMARK minimizedAffinity -3.6065309
REMARK minimizedRMSD -1
REMARK  0 active torsions:
REMARK  status: ('A' for Active; 'I' for Inactive)
ROOT
ATOM      1  C2' OXE d   1       0.222  -1.426   0.007  0.00  0.00     0.078 C 
ATOM      2  C1' OXE d   1       2.177   0.588  -0.042  0.00  0.00     0.078 C 
ATOM      3  C1  OXE d   1       0.747   1.001   0.204  0.00  0.00    -0.078 A 
ATOM      4  C2  OXE d   1      -0.209   0.014   0.180  0.00  0.00    -0.078 A 
ATOM      5  C3  OXE d   1      -1.535   0.333   0.455  0.00  0.00     0.003 A 
ATOM      6  C4  OXE d   1      -1.927   1.669   0.604  0.00  0.00    -0.002 A 
ATOM      7  C5  OXE d   1      -0.975   2.693   0.592  0.00  0.00    -0.002 A 
ATOM      8  C6  OXE d   1       0.369   2.373   0.436  0.00  0.00     0.003 A 
ENDROOT
TORSDOF 0
ENDMDL
