MODEL 1
REMARK minimizedAffinity -1.11938727
REMARK minimizedRMSD -1
REMARK  0 active torsions:
REMARK  status: ('A' for Active; 'I' for Inactive)
ROOT
ATOM      1  C2' OXE d   1       0.279  -1.410  -0.069  0.00  0.00     0.078 C 
ATOM      2  C1' OXE d   1      -1.773   0.450   0.393  0.00  0.00     0.078 C 
ATOM      3  C1  OXE d   1      -0.348   0.920   0.552  0.00  0.00    -0.078 A 
ATOM      4  C2  OXE d   1       0.648  -0.009   0.370  0.00  0.00    -0.078 A 
ATOM      5  C3  OXE d   1       1.980   0.384   0.451  0.00  0.00     0.003 A 
ATOM      6  C4  OXE d   1       2.313   1.679   0.868  0.00  0.00    -0.002 A 
ATOM      7  C5  OXE d   1       1.313   2.630   1.097  0.00  0.00    -0.002 A 
ATOM      8  C6  OXE d   1      -0.018   2.279   0.903  0.00  0.00     0.003 A 
ENDROOT
TORSDOF 0
ENDMDL
