MODEL 1
REMARK minimizedAffinity -4.45518303
REMARK minimizedRMSD -1
REMARK  0 active torsions:
REMARK  status: ('A' for Active; 'I' for Inactive)
ROOT
ATOM      1  C2' OXE d   1       0.178  -3.079  -0.995  0.00  0.00     0.078 C 
ATOM      2  C1' OXE d   1      -1.384  -3.569  -3.275  0.00  0.00     0.078 C 
ATOM      3  C1  OXE d   1      -1.953  -3.961  -1.935  0.00  0.00    -0.078 A 
ATOM      4  C2  OXE d   1      -1.163  -3.760  -0.829  0.00  0.00    -0.078 A 
ATOM      5  C3  OXE d   1      -1.661  -4.053   0.437  0.00  0.00     0.003 A 
ATOM      6  C4  OXE d   1      -2.899  -4.692   0.581  0.00  0.00    -0.002 A 
ATOM      7  C5  OXE d   1      -3.703  -4.942  -0.536  0.00  0.00    -0.002 A 
ATOM      8  C6  OXE d   1      -3.264  -4.545  -1.794  0.00  0.00     0.003 A 
ENDROOT
TORSDOF 0
ENDMDL
