MODEL 1
REMARK minimizedAffinity -1.69353175
REMARK minimizedRMSD -1
REMARK  0 active torsions:
REMARK  status: ('A' for Active; 'I' for Inactive)
ROOT
ATOM      1  C2' OXE d   1       0.250   3.143   1.067  0.00  0.00     0.078 C 
ATOM      2  C1' OXE d   1       2.886   2.188   1.197  0.00  0.00     0.078 C 
ATOM      3  C1  OXE d   1       1.800   1.207   0.834  0.00  0.00    -0.078 A 
ATOM      4  C2  OXE d   1       0.507   1.672   0.818  0.00  0.00    -0.078 A 
ATOM      5  C3  OXE d   1      -0.527   0.823   0.437  0.00  0.00     0.003 A 
ATOM      6  C4  OXE d   1      -0.282  -0.538   0.218  0.00  0.00    -0.002 A 
ATOM      7  C5  OXE d   1       1.022  -1.042   0.267  0.00  0.00    -0.002 A 
ATOM      8  C6  OXE d   1       2.077  -0.176   0.531  0.00  0.00     0.003 A 
ENDROOT
TORSDOF 0
ENDMDL
