MODEL 1
REMARK minimizedAffinity -1.3767128
REMARK minimizedRMSD -1
REMARK  0 active torsions:
REMARK  status: ('A' for Active; 'I' for Inactive)
ROOT
ATOM      1  C2' OXE d   1      -0.478  -1.436  -0.380  0.00  0.00     0.078 C 
ATOM      2  C1' OXE d   1       1.917  -0.419   0.675  0.00  0.00     0.078 C 
ATOM      3  C1  OXE d   1       0.686   0.448   0.761  0.00  0.00    -0.078 A 
ATOM      4  C2  OXE d   1      -0.470  -0.038   0.201  0.00  0.00    -0.078 A 
ATOM      5  C3  OXE d   1      -1.648   0.698   0.301  0.00  0.00     0.003 A 
ATOM      6  C4  OXE d   1      -1.630   1.994   0.830  0.00  0.00    -0.002 A 
ATOM      7  C5  OXE d   1      -0.454   2.524   1.371  0.00  0.00    -0.002 A 
ATOM      8  C6  OXE d   1       0.700   1.749   1.383  0.00  0.00     0.003 A 
ENDROOT
TORSDOF 0
ENDMDL
