MODEL 1
REMARK minimizedAffinity -2.04301429
REMARK minimizedRMSD -1
REMARK  0 active torsions:
REMARK  status: ('A' for Active; 'I' for Inactive)
ROOT
ATOM      1  C2' OXE d   1      -0.170  -1.211   0.700  0.00  0.00     0.078 C 
ATOM      2  C1' OXE d   1      -0.622   0.366  -1.577  0.00  0.00     0.078 C 
ATOM      3  C1  OXE d   1      -0.746  -1.130  -1.722  0.00  0.00    -0.078 A 
ATOM      4  C2  OXE d   1      -0.477  -1.896  -0.614  0.00  0.00    -0.078 A 
ATOM      5  C3  OXE d   1      -0.630  -3.279  -0.678  0.00  0.00     0.003 A 
ATOM      6  C4  OXE d   1      -0.904  -3.905  -1.900  0.00  0.00    -0.002 A 
ATOM      7  C5  OXE d   1      -1.142  -3.145  -3.050  0.00  0.00    -0.002 A 
ATOM      8  C6  OXE d   1      -1.108  -1.757  -2.969  0.00  0.00     0.003 A 
ENDROOT
TORSDOF 0
ENDMDL
