MODEL 1
REMARK minimizedAffinity -3.41809225
REMARK minimizedRMSD -1
REMARK  0 active torsions:
REMARK  status: ('A' for Active; 'I' for Inactive)
ROOT
ATOM      1  C2' OXE d   1      -1.272   2.018   0.325  0.00  0.00     0.078 C 
ATOM      2  C1' OXE d   1       0.243  -0.245  -0.355  0.00  0.00     0.078 C 
ATOM      3  C1  OXE d   1       0.965   0.924   0.266  0.00  0.00    -0.078 A 
ATOM      4  C2  OXE d   1       0.223   2.045   0.553  0.00  0.00    -0.078 A 
ATOM      5  C3  OXE d   1       0.829   3.131   1.178  0.00  0.00     0.003 A 
ATOM      6  C4  OXE d   1       2.215   3.153   1.376  0.00  0.00    -0.002 A 
ATOM      7  C5  OXE d   1       2.996   2.037   1.054  0.00  0.00    -0.002 A 
ATOM      8  C6  OXE d   1       2.381   0.901   0.539  0.00  0.00     0.003 A 
ENDROOT
TORSDOF 0
ENDMDL
