MODEL 1
REMARK minimizedAffinity -3.89397049
REMARK minimizedRMSD -1
REMARK  0 active torsions:
REMARK  status: ('A' for Active; 'I' for Inactive)
ROOT
ATOM      1  C2' OXE d   1      -0.375  -2.556  -0.949  0.00  0.00     0.078 C 
ATOM      2  C1' OXE d   1       1.426  -1.074   0.612  0.00  0.00     0.078 C 
ATOM      3  C1  OXE d   1       0.099  -0.441   0.277  0.00  0.00    -0.078 A 
ATOM      4  C2  OXE d   1      -0.758  -1.154  -0.526  0.00  0.00    -0.078 A 
ATOM      5  C3  OXE d   1      -2.017  -0.639  -0.820  0.00  0.00     0.003 A 
ATOM      6  C4  OXE d   1      -2.358   0.662  -0.434  0.00  0.00    -0.002 A 
ATOM      7  C5  OXE d   1      -1.485   1.422   0.352  0.00  0.00    -0.002 A 
ATOM      8  C6  OXE d   1      -0.273   0.870   0.751  0.00  0.00     0.003 A 
ENDROOT
TORSDOF 0
ENDMDL
