MODEL 1
REMARK minimizedAffinity -0.742660522
REMARK minimizedRMSD -1
REMARK  0 active torsions:
REMARK  status: ('A' for Active; 'I' for Inactive)
ROOT
ATOM      1  C2' OXE d   1      -0.434  -0.899  -0.184  0.00  0.00     0.078 C 
ATOM      2  C1' OXE d   1      -2.272   1.201   0.116  0.00  0.00     0.078 C 
ATOM      3  C1  OXE d   1      -0.827   1.480   0.442  0.00  0.00    -0.078 A 
ATOM      4  C2  OXE d   1       0.058   0.434   0.338  0.00  0.00    -0.078 A 
ATOM      5  C3  OXE d   1       1.413   0.651   0.574  0.00  0.00     0.003 A 
ATOM      6  C4  OXE d   1       1.858   1.884   1.065  0.00  0.00    -0.002 A 
ATOM      7  C5  OXE d   1       0.967   2.952   1.217  0.00  0.00    -0.002 A 
ATOM      8  C6  OXE d   1      -0.368   2.779   0.870  0.00  0.00     0.003 A 
ENDROOT
TORSDOF 0
ENDMDL
