MODEL 1
REMARK minimizedAffinity -1.22729385
REMARK minimizedRMSD -1
REMARK  0 active torsions:
REMARK  status: ('A' for Active; 'I' for Inactive)
ROOT
ATOM      1  C2' OXE d   1       2.361  -0.693   0.530  0.00  0.00     0.078 C 
ATOM      2  C1' OXE d   1       0.045  -1.903  -0.497  0.00  0.00     0.078 C 
ATOM      3  C1  OXE d   1      -0.027  -0.441  -0.133  0.00  0.00    -0.078 A 
ATOM      4  C2  OXE d   1       1.097   0.131   0.412  0.00  0.00    -0.078 A 
ATOM      5  C3  OXE d   1       1.101   1.490   0.714  0.00  0.00     0.003 A 
ATOM      6  C4  OXE d   1      -0.075   2.243   0.612  0.00  0.00    -0.002 A 
ATOM      7  C5  OXE d   1      -1.242   1.670   0.096  0.00  0.00    -0.002 A 
ATOM      8  C6  OXE d   1      -1.223   0.343  -0.320  0.00  0.00     0.003 A 
ENDROOT
TORSDOF 0
ENDMDL
