MODEL 1
REMARK minimizedAffinity -5.34806919
REMARK minimizedRMSD -1
REMARK  0 active torsions:
REMARK  status: ('A' for Active; 'I' for Inactive)
ROOT
ATOM      1  C2' OXE d   1      -1.893   1.298   0.198  0.00  0.00     0.078 C 
ATOM      2  C1' OXE d   1       0.054   3.037  -0.834  0.00  0.00     0.078 C 
ATOM      3  C1  OXE d   1       0.512   1.699  -0.310  0.00  0.00    -0.078 A 
ATOM      4  C2  OXE d   1      -0.441   0.873   0.236  0.00  0.00    -0.078 A 
ATOM      5  C3  OXE d   1      -0.080  -0.394   0.684  0.00  0.00     0.003 A 
ATOM      6  C4  OXE d   1       1.266  -0.775   0.724  0.00  0.00    -0.002 A 
ATOM      7  C5  OXE d   1       2.258   0.066   0.209  0.00  0.00    -0.002 A 
ATOM      8  C6  OXE d   1       1.894   1.287  -0.349  0.00  0.00     0.003 A 
ENDROOT
TORSDOF 0
ENDMDL
