MODEL 1
REMARK minimizedAffinity -0.322339714
REMARK minimizedRMSD -1
REMARK  0 active torsions:
REMARK  status: ('A' for Active; 'I' for Inactive)
ROOT
ATOM      1  C2' OXE d   1       0.299  -0.809  -0.140  0.00  0.00     0.078 C 
ATOM      2  C1' OXE d   1      -1.462   1.246   0.605  0.00  0.00     0.078 C 
ATOM      3  C1  OXE d   1       0.017   1.490   0.776  0.00  0.00    -0.078 A 
ATOM      4  C2  OXE d   1       0.869   0.462   0.453  0.00  0.00    -0.078 A 
ATOM      5  C3  OXE d   1       2.245   0.654   0.540  0.00  0.00     0.003 A 
ATOM      6  C4  OXE d   1       2.763   1.828   1.099  0.00  0.00    -0.002 A 
ATOM      7  C5  OXE d   1       1.910   2.873   1.472  0.00  0.00    -0.002 A 
ATOM      8  C6  OXE d   1       0.540   2.737   1.278  0.00  0.00     0.003 A 
ENDROOT
TORSDOF 0
ENDMDL
