MODEL 1
REMARK minimizedAffinity -3.61241579
REMARK minimizedRMSD -1
REMARK  0 active torsions:
REMARK  status: ('A' for Active; 'I' for Inactive)
ROOT
ATOM      1  C2' OXE d   1       1.224  -1.798   0.651  0.00  0.00     0.078 C 
ATOM      2  C1' OXE d   1      -0.712  -2.244  -1.332  0.00  0.00     0.078 C 
ATOM      3  C1  OXE d   1      -0.497  -0.826  -0.865  0.00  0.00    -0.078 A 
ATOM      4  C2  OXE d   1       0.419  -0.623   0.139  0.00  0.00    -0.078 A 
ATOM      5  C3  OXE d   1       0.696   0.672   0.568  0.00  0.00     0.003 A 
ATOM      6  C4  OXE d   1      -0.060   1.751   0.096  0.00  0.00    -0.002 A 
ATOM      7  C5  OXE d   1      -1.026   1.561  -0.898  0.00  0.00    -0.002 A 
ATOM      8  C6  OXE d   1      -1.227   0.288  -1.418  0.00  0.00     0.003 A 
ENDROOT
TORSDOF 0
ENDMDL
