MODEL 1
REMARK minimizedAffinity -2.77808619
REMARK minimizedRMSD -1
REMARK  0 active torsions:
REMARK  status: ('A' for Active; 'I' for Inactive)
ROOT
ATOM      1  C   UNL d   1      -1.716  -0.026   0.466  0.00  0.00    -0.002 A 
ATOM      2  C1  UNL d   1      -1.086  -1.003  -0.291  0.00  0.00     0.010 A 
ATOM      3  C2  UNL d   1       0.306  -1.106  -0.302  0.00  0.00     0.041 A 
ATOM      4  C3  UNL d   1       1.062  -0.203   0.471  0.00  0.00    -0.075 A 
ATOM      5  S   UNL d   1       2.779  -0.140   0.613  0.00  0.00     0.015 SA
ATOM      6  C4  UNL d   1       2.717   1.185   1.683  0.00  0.00     0.022 A 
ATOM      7  C5  UNL d   1       1.426   1.583   1.936  0.00  0.00     0.026 A 
ATOM      8  C6  UNL d   1       0.451   0.789   1.242  0.00  0.00    -0.082 A 
ATOM      9  C7  UNL d   1      -0.963   0.869   1.231  0.00  0.00     0.045 A 
ENDROOT
TORSDOF 0
ENDMDL
