MODEL 1
REMARK minimizedAffinity 4.30816031
REMARK minimizedRMSD -1
REMARK  0 active torsions:
REMARK  status: ('A' for Active; 'I' for Inactive)
ROOT
ATOM      1  C   UNL d   1       0.084   1.531  -0.558  0.00  0.00    -0.002 A 
ATOM      2  C1  UNL d   1      -0.754   0.436  -0.712  0.00  0.00     0.010 A 
ATOM      3  C2  UNL d   1      -1.327  -0.183   0.401  0.00  0.00     0.041 A 
ATOM      4  C3  UNL d   1      -1.041   0.323   1.684  0.00  0.00    -0.075 A 
ATOM      5  S   UNL d   1      -1.630  -0.272   3.191  0.00  0.00     0.015 SA
ATOM      6  C4  UNL d   1      -0.783   0.914   4.075  0.00  0.00     0.022 A 
ATOM      7  C5  UNL d   1      -0.064   1.751   3.257  0.00  0.00     0.026 A 
ATOM      8  C6  UNL d   1      -0.201   1.426   1.865  0.00  0.00    -0.082 A 
ATOM      9  C7  UNL d   1       0.365   2.030   0.717  0.00  0.00     0.045 A 
ENDROOT
TORSDOF 0
ENDMDL
