MODEL 1
REMARK minimizedAffinity 1.02751267
REMARK minimizedRMSD -1
REMARK  0 active torsions:
REMARK  status: ('A' for Active; 'I' for Inactive)
ROOT
ATOM      1  C   UNL d   1      -2.081   0.133   2.124  0.00  0.00    -0.002 A 
ATOM      2  C1  UNL d   1      -2.208   0.032   0.746  0.00  0.00     0.010 A 
ATOM      3  C2  UNL d   1      -1.109   0.252  -0.087  0.00  0.00     0.041 A 
ATOM      4  C3  UNL d   1       0.133   0.576   0.496  0.00  0.00    -0.075 A 
ATOM      5  S   UNL d   1       1.616   0.887  -0.326  0.00  0.00     0.015 SA
ATOM      6  C4  UNL d   1       2.454   1.159   1.134  0.00  0.00     0.022 A 
ATOM      7  C5  UNL d   1       1.636   1.021   2.230  0.00  0.00     0.026 A 
ATOM      8  C6  UNL d   1       0.285   0.682   1.881  0.00  0.00    -0.082 A 
ATOM      9  C7  UNL d   1      -0.848   0.454   2.698  0.00  0.00     0.045 A 
ENDROOT
TORSDOF 0
ENDMDL
