MODEL 1
REMARK minimizedAffinity -4.06208038
REMARK minimizedRMSD -1
REMARK  0 active torsions:
REMARK  status: ('A' for Active; 'I' for Inactive)
ROOT
ATOM      1  C   UNL d   1      -1.009   1.072   3.938  0.00  0.00    -0.002 A 
ATOM      2  C1  UNL d   1       0.358   1.039   4.173  0.00  0.00     0.010 A 
ATOM      3  C2  UNL d   1       1.245   0.686   3.154  0.00  0.00     0.041 A 
ATOM      4  C3  UNL d   1       0.730   0.364   1.883  0.00  0.00    -0.075 A 
ATOM      5  S   UNL d   1       1.626  -0.096   0.484  0.00  0.00     0.015 SA
ATOM      6  C4  UNL d   1       0.215  -0.259  -0.458  0.00  0.00     0.022 A 
ATOM      7  C5  UNL d   1      -0.921   0.027   0.261  0.00  0.00     0.026 A 
ATOM      8  C6  UNL d   1      -0.643   0.391   1.622  0.00  0.00    -0.082 A 
ATOM      9  C7  UNL d   1      -1.517   0.753   2.676  0.00  0.00     0.045 A 
ENDROOT
TORSDOF 0
ENDMDL
