MODEL 1
REMARK minimizedAffinity 4.26672268
REMARK minimizedRMSD -1
REMARK  2 active torsions:
REMARK  status: ('A' for Active; 'I' for Inactive)
REMARK    1  A    between atoms: C1_2  and  C2_3 
REMARK    2  A    between atoms: C2_3  and  C3_4 
ROOT
ATOM      1  C3  UNL d   1       0.584   1.581   3.085  0.00  0.00    -0.075 A 
ATOM      2  C4  UNL d   1       1.790   0.881   2.944  0.00  0.00     0.002 A 
ATOM      3  C5  UNL d   1       2.060  -0.233   3.740  0.00  0.00     0.002 A 
ATOM      4  C6  UNL d   1       1.133  -0.653   4.692  0.00  0.00    -0.004 A 
ATOM      5  C7  UNL d   1      -0.062   0.045   4.851  0.00  0.00     0.002 A 
ATOM      6  C8  UNL d   1      -0.336   1.157   4.053  0.00  0.00     0.002 A 
ENDROOT
BRANCH   1   7
ATOM      7  C2  UNL d   1       0.273   2.769   2.206  0.00  0.00     0.056 C 
BRANCH   7   8
ATOM      8  C1  UNL d   1       0.260   2.450   0.707  0.00  0.00     0.007 C 
ATOM      9  C   UNL d   1       0.014   3.674  -0.165  0.00  0.00     0.009 C 
ENDBRANCH   7   8
ENDBRANCH   1   7
TORSDOF 2
ENDMDL
