MODEL 1
REMARK minimizedAffinity 2.41538
REMARK minimizedRMSD -1
REMARK  2 active torsions:
REMARK  status: ('A' for Active; 'I' for Inactive)
REMARK    1  A    between atoms: C1_2  and  C2_3 
REMARK    2  A    between atoms: C2_3  and  C3_4 
ROOT
ATOM      1  C3  UNL d   1      -1.330  -0.905   0.003  0.00  0.00    -0.075 A 
ATOM      2  C4  UNL d   1      -0.193  -1.406   0.654  0.00  0.00     0.002 A 
ATOM      3  C5  UNL d   1       0.955  -0.623   0.778  0.00  0.00     0.002 A 
ATOM      4  C6  UNL d   1       0.985   0.664   0.245  0.00  0.00    -0.004 A 
ATOM      5  C7  UNL d   1      -0.133   1.166  -0.418  0.00  0.00     0.002 A 
ATOM      6  C8  UNL d   1      -1.284   0.386  -0.539  0.00  0.00     0.002 A 
ENDROOT
BRANCH   1   7
ATOM      7  C2  UNL d   1      -2.585  -1.736  -0.108  0.00  0.00     0.056 C 
BRANCH   7   8
ATOM      8  C1  UNL d   1      -2.346  -3.245   0.003  0.00  0.00     0.007 C 
ATOM      9  C   UNL d   1      -2.049  -3.907  -1.336  0.00  0.00     0.009 C 
ENDBRANCH   7   8
ENDBRANCH   1   7
TORSDOF 2
ENDMDL
