MODEL 1
REMARK minimizedAffinity 3.73202372
REMARK minimizedRMSD -1
REMARK  2 active torsions:
REMARK  status: ('A' for Active; 'I' for Inactive)
REMARK    1  A    between atoms: C1_2  and  C2_3 
REMARK    2  A    between atoms: C2_3  and  C3_4 
ROOT
ATOM      1  C3  UNL d   1       0.535   0.734   1.447  0.00  0.00    -0.075 A 
ATOM      2  C4  UNL d   1       1.354   0.054   0.534  0.00  0.00     0.002 A 
ATOM      3  C5  UNL d   1       0.876  -0.283  -0.733  0.00  0.00     0.002 A 
ATOM      4  C6  UNL d   1      -0.427   0.047  -1.099  0.00  0.00    -0.004 A 
ATOM      5  C7  UNL d   1      -1.255   0.708  -0.194  0.00  0.00     0.002 A 
ATOM      6  C8  UNL d   1      -0.778   1.050   1.072  0.00  0.00     0.002 A 
ENDROOT
BRANCH   1   7
ATOM      7  C2  UNL d   1       1.056   1.128   2.808  0.00  0.00     0.056 C 
BRANCH   7   8
ATOM      8  C1  UNL d   1       1.042   2.638   3.069  0.00  0.00     0.007 C 
ATOM      9  C   UNL d   1       2.218   3.111   3.914  0.00  0.00     0.009 C 
ENDBRANCH   7   8
ENDBRANCH   1   7
TORSDOF 2
ENDMDL
