MODEL 1
REMARK minimizedAffinity 0.407867879
REMARK minimizedRMSD -1
REMARK  2 active torsions:
REMARK  status: ('A' for Active; 'I' for Inactive)
REMARK    1  A    between atoms: C1_2  and  C2_3 
REMARK    2  A    between atoms: C2_3  and  C3_4 
ROOT
ATOM      1  C3  UNL d   1       0.109  -0.851   0.776  0.00  0.00    -0.075 A 
ATOM      2  C4  UNL d   1       1.375  -0.553   0.254  0.00  0.00     0.002 A 
ATOM      3  C5  UNL d   1       2.460  -0.337   1.105  0.00  0.00     0.002 A 
ATOM      4  C6  UNL d   1       2.290  -0.406   2.486  0.00  0.00    -0.004 A 
ATOM      5  C7  UNL d   1       1.032  -0.686   3.016  0.00  0.00     0.002 A 
ATOM      6  C8  UNL d   1      -0.053  -0.907   2.167  0.00  0.00     0.002 A 
ENDROOT
BRANCH   1   7
ATOM      7  C2  UNL d   1      -1.062  -1.115  -0.140  0.00  0.00     0.056 C 
BRANCH   7   8
ATOM      8  C1  UNL d   1      -1.543  -2.571  -0.135  0.00  0.00     0.007 C 
ATOM      9  C   UNL d   1      -0.980  -3.392  -1.287  0.00  0.00     0.009 C 
ENDBRANCH   7   8
ENDBRANCH   1   7
TORSDOF 2
ENDMDL
