MODEL 1
REMARK minimizedAffinity 3.30705285
REMARK minimizedRMSD -1
REMARK  0 active torsions:
REMARK  status: ('A' for Active; 'I' for Inactive)
ROOT
ATOM      1  C   UNL d   1      -5.593   1.290  -5.709  0.00  0.00     0.020 A 
ATOM      2  C1  UNL d   1      -4.596   2.223  -5.993  0.00  0.00     0.020 A 
ATOM      3  C2  UNL d   1      -4.005   2.950  -4.958  0.00  0.00     0.034 A 
ATOM      4  C3  UNL d   1      -4.410   2.746  -3.634  0.00  0.00     0.017 A 
ATOM      5  C4  UNL d   1      -5.411   1.810  -3.350  0.00  0.00     0.017 A 
ATOM      6  C5  UNL d   1      -5.999   1.084  -4.390  0.00  0.00     0.034 A 
ATOM      7 Cl   UNL d   1      -5.963   1.503  -1.741  0.00  0.00    -0.070 Cl
ATOM      8 Cl1  UNL d   1      -3.636   3.680  -2.404  0.00  0.00    -0.070 Cl
ENDROOT
TORSDOF 0
ENDMDL
