MODEL 1
REMARK minimizedAffinity 4.64235067
REMARK minimizedRMSD -1
REMARK  0 active torsions:
REMARK  status: ('A' for Active; 'I' for Inactive)
ROOT
ATOM      1  C   UNL d   1      -0.024   3.474   0.597  0.00  0.00     0.020 A 
ATOM      2  C1  UNL d   1       1.250   3.918   0.248  0.00  0.00     0.020 A 
ATOM      3  C2  UNL d   1       1.429   4.696  -0.897  0.00  0.00     0.034 A 
ATOM      4  C3  UNL d   1       0.332   5.033  -1.698  0.00  0.00     0.017 A 
ATOM      5  C4  UNL d   1      -0.947   4.586  -1.347  0.00  0.00     0.017 A 
ATOM      6  C5  UNL d   1      -1.121   3.808  -0.199  0.00  0.00     0.034 A 
ATOM      7 Cl   UNL d   1      -2.350   4.961  -2.286  0.00  0.00    -0.070 Cl
ATOM      8 Cl1  UNL d   1       0.626   5.999  -3.100  0.00  0.00    -0.070 Cl
ENDROOT
TORSDOF 0
ENDMDL
