MODEL 1
REMARK minimizedAffinity 4.89757204
REMARK minimizedRMSD -1
REMARK  0 active torsions:
REMARK  status: ('A' for Active; 'I' for Inactive)
ROOT
ATOM      1  C   UNL d   1       0.402   5.854  -2.495  0.00  0.00     0.020 A 
ATOM      2  C1  UNL d   1      -0.796   5.179  -2.261  0.00  0.00     0.020 A 
ATOM      3  C2  UNL d   1      -0.855   4.179  -1.287  0.00  0.00     0.034 A 
ATOM      4  C3  UNL d   1       0.285   3.852  -0.544  0.00  0.00     0.017 A 
ATOM      5  C4  UNL d   1       1.486   4.530  -0.780  0.00  0.00     0.017 A 
ATOM      6  C5  UNL d   1       1.540   5.530  -1.756  0.00  0.00     0.034 A 
ATOM      7 Cl   UNL d   1       2.934   4.182   0.097  0.00  0.00    -0.070 Cl
ATOM      8 Cl1  UNL d   1       0.139   2.606   0.644  0.00  0.00    -0.070 Cl
ENDROOT
TORSDOF 0
ENDMDL
