MODEL 1
REMARK minimizedAffinity 5.90221977
REMARK minimizedRMSD -1
REMARK  0 active torsions:
REMARK  status: ('A' for Active; 'I' for Inactive)
ROOT
ATOM      1  C   UNL d   1      -1.257   4.916  -2.804  0.00  0.00     0.020 A 
ATOM      2  C1  UNL d   1      -0.350   5.975  -2.772  0.00  0.00     0.020 A 
ATOM      3  C2  UNL d   1       0.739   5.935  -1.898  0.00  0.00     0.034 A 
ATOM      4  C3  UNL d   1       0.923   4.834  -1.053  0.00  0.00     0.017 A 
ATOM      5  C4  UNL d   1       0.012   3.772  -1.086  0.00  0.00     0.017 A 
ATOM      6  C5  UNL d   1      -1.076   3.817  -1.963  0.00  0.00     0.034 A 
ATOM      7 Cl   UNL d   1       0.173   2.381  -0.074  0.00  0.00    -0.070 Cl
ATOM      8 Cl1  UNL d   1       2.292   4.852   0.002  0.00  0.00    -0.070 Cl
ENDROOT
TORSDOF 0
ENDMDL
