MODEL 1
REMARK minimizedAffinity 10.70928
REMARK minimizedRMSD -1
REMARK  0 active torsions:
REMARK  status: ('A' for Active; 'I' for Inactive)
ROOT
ATOM      1  C   UNL d   1       4.511  -4.244  -4.509  0.00  0.00     0.020 A 
ATOM      2  C1  UNL d   1       4.250  -5.566  -4.148  0.00  0.00     0.020 A 
ATOM      3  C2  UNL d   1       4.516  -6.000  -2.848  0.00  0.00     0.034 A 
ATOM      4  C3  UNL d   1       5.044  -5.112  -1.903  0.00  0.00     0.017 A 
ATOM      5  C4  UNL d   1       5.305  -3.786  -2.266  0.00  0.00     0.017 A 
ATOM      6  C5  UNL d   1       5.037  -3.356  -3.569  0.00  0.00     0.034 A 
ATOM      7 Cl   UNL d   1       5.955  -2.632  -1.156  0.00  0.00    -0.070 Cl
ATOM      8 Cl1  UNL d   1       5.347  -5.717  -0.313  0.00  0.00    -0.070 Cl
ENDROOT
TORSDOF 0
ENDMDL
