MODEL 1
REMARK minimizedAffinity 10.6502857
REMARK minimizedRMSD -1
REMARK  0 active torsions:
REMARK  status: ('A' for Active; 'I' for Inactive)
ROOT
ATOM      1  C   UNL d   1       4.642  -5.990  -0.870  0.00  0.00     0.020 A 
ATOM      2  C1  UNL d   1       5.434  -4.851  -0.736  0.00  0.00     0.020 A 
ATOM      3  C2  UNL d   1       4.836  -3.597  -0.599  0.00  0.00     0.034 A 
ATOM      4  C3  UNL d   1       3.441  -3.479  -0.596  0.00  0.00     0.017 A 
ATOM      5  C4  UNL d   1       2.647  -4.623  -0.730  0.00  0.00     0.017 A 
ATOM      6  C5  UNL d   1       3.251  -5.877  -0.867  0.00  0.00     0.034 A 
ATOM      7 Cl   UNL d   1       0.920  -4.558  -0.735  0.00  0.00    -0.070 Cl
ATOM      8 Cl1  UNL d   1       2.769  -1.897  -0.421  0.00  0.00    -0.070 Cl
ENDROOT
TORSDOF 0
ENDMDL
