MODEL 1
REMARK minimizedAffinity 8.56871986
REMARK minimizedRMSD -1
REMARK  0 active torsions:
REMARK  status: ('A' for Active; 'I' for Inactive)
ROOT
ATOM      1  C   UNL d   1       3.142   3.670   1.601  0.00  0.00     0.020 A 
ATOM      2  C1  UNL d   1       2.529   4.005   0.395  0.00  0.00     0.020 A 
ATOM      3  C2  UNL d   1       1.179   3.710   0.193  0.00  0.00     0.034 A 
ATOM      4  C3  UNL d   1       0.438   3.078   1.198  0.00  0.00     0.017 A 
ATOM      5  C4  UNL d   1       1.055   2.741   2.408  0.00  0.00     0.017 A 
ATOM      6  C5  UNL d   1       2.407   3.039   2.606  0.00  0.00     0.034 A 
ATOM      7 Cl   UNL d   1       0.206   1.960   3.695  0.00  0.00    -0.070 Cl
ATOM      8 Cl1  UNL d   1      -1.227   2.743   0.879  0.00  0.00    -0.070 Cl
ENDROOT
TORSDOF 0
ENDMDL
