MODEL 1
REMARK minimizedAffinity 12.847106
REMARK minimizedRMSD -1
REMARK  0 active torsions:
REMARK  status: ('A' for Active; 'I' for Inactive)
ROOT
ATOM      1  C   UNL d   1      -0.263   4.461  -1.242  0.00  0.00     0.020 A 
ATOM      2  C1  UNL d   1      -0.460   4.055   0.077  0.00  0.00     0.020 A 
ATOM      3  C2  UNL d   1      -0.460   2.695   0.395  0.00  0.00     0.034 A 
ATOM      4  C3  UNL d   1      -0.263   1.737  -0.606  0.00  0.00     0.017 A 
ATOM      5  C4  UNL d   1      -0.066   2.147  -1.930  0.00  0.00     0.017 A 
ATOM      6  C5  UNL d   1      -0.066   3.510  -2.243  0.00  0.00     0.034 A 
ATOM      7 Cl   UNL d   1       0.184   1.024  -3.220  0.00  0.00    -0.070 Cl
ATOM      8 Cl1  UNL d   1      -0.275   0.073  -0.141  0.00  0.00    -0.070 Cl
ENDROOT
TORSDOF 0
ENDMDL
