MODEL 1
REMARK minimizedAffinity 3.99351454
REMARK minimizedRMSD -1
REMARK  0 active torsions:
REMARK  status: ('A' for Active; 'I' for Inactive)
ROOT
ATOM      1  C   UNL d   1       0.501   3.390   1.499  0.00  0.00     0.020 A 
ATOM      2  C1  UNL d   1       1.721   3.439   0.826  0.00  0.00     0.020 A 
ATOM      3  C2  UNL d   1       1.763   3.824  -0.516  0.00  0.00     0.034 A 
ATOM      4  C3  UNL d   1       0.583   4.162  -1.189  0.00  0.00     0.017 A 
ATOM      5  C4  UNL d   1      -0.641   4.113  -0.512  0.00  0.00     0.017 A 
ATOM      6  C5  UNL d   1      -0.677   3.726   0.831  0.00  0.00     0.034 A 
ATOM      7 Cl   UNL d   1      -2.138   4.516  -1.275  0.00  0.00    -0.070 Cl
ATOM      8 Cl1  UNL d   1       0.710   4.630  -2.847  0.00  0.00    -0.070 Cl
ENDROOT
TORSDOF 0
ENDMDL
