MODEL 1
REMARK minimizedAffinity 12.191328
REMARK minimizedRMSD -1
REMARK  0 active torsions:
REMARK  status: ('A' for Active; 'I' for Inactive)
ROOT
ATOM      1  C   UNL d   1       4.976  -1.544  -0.252  0.00  0.00     0.020 A 
ATOM      2  C1  UNL d   1       5.997  -2.395  -0.672  0.00  0.00     0.020 A 
ATOM      3  C2  UNL d   1       5.698  -3.700  -1.069  0.00  0.00     0.034 A 
ATOM      4  C3  UNL d   1       4.376  -4.158  -1.047  0.00  0.00     0.017 A 
ATOM      5  C4  UNL d   1       3.351  -3.302  -0.626  0.00  0.00     0.017 A 
ATOM      6  C5  UNL d   1       3.656  -1.996  -0.229  0.00  0.00     0.034 A 
ATOM      7 Cl   UNL d   1       1.696  -3.794  -0.571  0.00  0.00    -0.070 Cl
ATOM      8 Cl1  UNL d   1       4.079  -5.783  -1.553  0.00  0.00    -0.070 Cl
ENDROOT
TORSDOF 0
ENDMDL
