MODEL 1
REMARK minimizedAffinity 9.02248192
REMARK minimizedRMSD -1
REMARK  0 active torsions:
REMARK  status: ('A' for Active; 'I' for Inactive)
ROOT
ATOM      1  C   UNL d   1       4.942  -4.562  -0.944  0.00  0.00     0.020 A 
ATOM      2  C1  UNL d   1       5.066  -3.174  -0.886  0.00  0.00     0.020 A 
ATOM      3  C2  UNL d   1       4.951  -2.413  -2.051  0.00  0.00     0.034 A 
ATOM      4  C3  UNL d   1       4.712  -3.039  -3.280  0.00  0.00     0.017 A 
ATOM      5  C4  UNL d   1       4.588  -4.432  -3.338  0.00  0.00     0.017 A 
ATOM      6  C5  UNL d   1       4.704  -5.189  -2.168  0.00  0.00     0.034 A 
ATOM      7 Cl   UNL d   1       4.293  -5.276  -4.817  0.00  0.00    -0.070 Cl
ATOM      8 Cl1  UNL d   1       4.581  -2.036  -4.681  0.00  0.00    -0.070 Cl
ENDROOT
TORSDOF 0
ENDMDL
