MODEL 1
REMARK minimizedAffinity 5.65453959
REMARK minimizedRMSD -1
REMARK  0 active torsions:
REMARK  status: ('A' for Active; 'I' for Inactive)
ROOT
ATOM      1  C   UNL d   1       1.316   0.292   3.372  0.00  0.00     0.020 A 
ATOM      2  C1  UNL d   1      -0.070   0.437   3.371  0.00  0.00     0.020 A 
ATOM      3  C2  UNL d   1      -0.858  -0.376   4.190  0.00  0.00     0.034 A 
ATOM      4  C3  UNL d   1      -0.259  -1.337   5.012  0.00  0.00     0.017 A 
ATOM      5  C4  UNL d   1       1.133  -1.482   5.012  0.00  0.00     0.017 A 
ATOM      6  C5  UNL d   1       1.917  -0.666   4.190  0.00  0.00     0.034 A 
ATOM      7 Cl   UNL d   1       1.944  -2.646   6.000  0.00  0.00    -0.070 Cl
ATOM      8 Cl1  UNL d   1      -1.294  -2.307   5.999  0.00  0.00    -0.070 Cl
ENDROOT
TORSDOF 0
ENDMDL
