MODEL 1
REMARK minimizedAffinity 23.4075947
REMARK minimizedRMSD -1
REMARK  0 active torsions:
REMARK  status: ('A' for Active; 'I' for Inactive)
ROOT
ATOM      1  C   UNL d   1      -1.616   0.653  -1.733  0.00  0.00     0.124 A 
ATOM      2  C1  UNL d   1      -1.120   1.701  -2.495  0.00  0.00     0.062 A 
ATOM      3  C2  UNL d   1      -1.956   2.385  -3.374  0.00  0.00     0.162 A 
ATOM      4  C3  UNL d   1      -3.297   2.022  -3.494  0.00  0.00    -0.034 A 
ATOM      5  C4  UNL d   1      -3.789   0.966  -2.725  0.00  0.00     0.162 A 
ATOM      6  C5  UNL d   1      -2.949   0.286  -1.848  0.00  0.00     0.062 A 
ATOM      7  F   UNL d   1      -3.430  -0.727  -1.113  0.00  0.00    -0.097 F 
ATOM      8  F1  UNL d   1      -5.073   0.591  -2.816  0.00  0.00    -0.096 F 
ATOM      9  I   UNL d   1      -4.551   3.041  -4.806  0.00  0.00    -0.060 I 
ATOM     10  F2  UNL d   1      -1.450   3.394  -4.098  0.00  0.00    -0.096 F 
ATOM     11  F3  UNL d   1       0.168   2.057  -2.386  0.00  0.00    -0.097 F 
ATOM     12  F4  UNL d   1      -0.809  -0.004  -0.889  0.00  0.00    -0.092 F 
ENDROOT
TORSDOF 0
ENDMDL
