MODEL 1
REMARK minimizedAffinity 16.2581844
REMARK minimizedRMSD -1
REMARK  0 active torsions:
REMARK  status: ('A' for Active; 'I' for Inactive)
ROOT
ATOM      1  C   UNL d   1       2.429  -2.400   0.861  0.00  0.00     0.124 A 
ATOM      2  C1  UNL d   1       3.782  -2.110   0.757  0.00  0.00     0.062 A 
ATOM      3  C2  UNL d   1       4.698  -3.125   0.493  0.00  0.00     0.162 A 
ATOM      4  C3  UNL d   1       4.263  -4.440   0.330  0.00  0.00    -0.034 A 
ATOM      5  C4  UNL d   1       2.900  -4.724   0.437  0.00  0.00     0.162 A 
ATOM      6  C5  UNL d   1       1.989  -3.707   0.700  0.00  0.00     0.062 A 
ATOM      7  F   UNL d   1       0.682  -3.989   0.800  0.00  0.00    -0.097 F 
ATOM      8  F1  UNL d   1       2.448  -5.978   0.285  0.00  0.00    -0.096 F 
ATOM      9  I   UNL d   1       5.629  -5.960  -0.065  0.00  0.00    -0.060 I 
ATOM     10  F2  UNL d   1       5.999  -2.815   0.398  0.00  0.00    -0.096 F 
ATOM     11  F3  UNL d   1       4.210  -0.849   0.912  0.00  0.00    -0.097 F 
ATOM     12  F4  UNL d   1       1.550  -1.422   1.115  0.00  0.00    -0.092 F 
ENDROOT
TORSDOF 0
ENDMDL
