MODEL 1
REMARK minimizedAffinity 16.2489853
REMARK minimizedRMSD -1
REMARK  0 active torsions:
REMARK  status: ('A' for Active; 'I' for Inactive)
ROOT
ATOM      1  C   UNL d   1      -3.911   1.464   4.616  0.00  0.00     0.124 A 
ATOM      2  C1  UNL d   1      -2.819   0.749   4.144  0.00  0.00     0.062 A 
ATOM      3  C2  UNL d   1      -2.758   0.365   2.808  0.00  0.00     0.162 A 
ATOM      4  C3  UNL d   1      -3.793   0.697   1.933  0.00  0.00    -0.034 A 
ATOM      5  C4  UNL d   1      -4.888   1.415   2.415  0.00  0.00     0.162 A 
ATOM      6  C5  UNL d   1      -4.944   1.797   3.752  0.00  0.00     0.062 A 
ATOM      7  F   UNL d   1      -6.000   2.488   4.206  0.00  0.00    -0.097 F 
ATOM      8  F1  UNL d   1      -5.900   1.751   1.601  0.00  0.00    -0.096 F 
ATOM      9  I   UNL d   1      -3.706   0.125  -0.066  0.00  0.00    -0.060 I 
ATOM     10  F2  UNL d   1      -1.691  -0.325   2.379  0.00  0.00    -0.096 F 
ATOM     11  F3  UNL d   1      -1.820   0.426   4.978  0.00  0.00    -0.097 F 
ATOM     12  F4  UNL d   1      -3.967   1.832   5.903  0.00  0.00    -0.092 F 
ENDROOT
TORSDOF 0
ENDMDL
