MODEL 1
REMARK minimizedAffinity 26.005949
REMARK minimizedRMSD -1
REMARK  0 active torsions:
REMARK  status: ('A' for Active; 'I' for Inactive)
ROOT
ATOM      1  C   UNL d   1       3.070  -3.349   0.385  0.00  0.00     0.124 A 
ATOM      2  C1  UNL d   1       2.821  -2.025   0.720  0.00  0.00     0.062 A 
ATOM      3  C2  UNL d   1       1.521  -1.602   0.981  0.00  0.00     0.162 A 
ATOM      4  C3  UNL d   1       0.460  -2.504   0.910  0.00  0.00    -0.034 A 
ATOM      5  C4  UNL d   1       0.718  -3.834   0.572  0.00  0.00     0.162 A 
ATOM      6  C5  UNL d   1       2.019  -4.252   0.311  0.00  0.00     0.062 A 
ATOM      7  F   UNL d   1       2.258  -5.531  -0.012  0.00  0.00    -0.097 F 
ATOM      8  F1  UNL d   1      -0.279  -4.728   0.495  0.00  0.00    -0.096 F 
ATOM      9  I   UNL d   1      -1.486  -1.876   1.301  0.00  0.00    -0.060 I 
ATOM     10  F2  UNL d   1       1.309  -0.317   1.303  0.00  0.00    -0.096 F 
ATOM     11  F3  UNL d   1       3.835  -1.151   0.791  0.00  0.00    -0.097 F 
ATOM     12  F4  UNL d   1       4.322  -3.753   0.133  0.00  0.00    -0.092 F 
ENDROOT
TORSDOF 0
ENDMDL
