MODEL 1
REMARK minimizedAffinity 22.3278904
REMARK minimizedRMSD -1
REMARK  0 active torsions:
REMARK  status: ('A' for Active; 'I' for Inactive)
ROOT
ATOM      1  C   UNL d   1       3.307  -2.374   0.678  0.00  0.00     0.124 A 
ATOM      2  C1  UNL d   1       2.899  -3.371   1.553  0.00  0.00     0.062 A 
ATOM      3  C2  UNL d   1       3.535  -3.529   2.781  0.00  0.00     0.162 A 
ATOM      4  C3  UNL d   1       4.587  -2.686   3.142  0.00  0.00    -0.034 A 
ATOM      5  C4  UNL d   1       4.992  -1.687   2.256  0.00  0.00     0.162 A 
ATOM      6  C5  UNL d   1       4.353  -1.533   1.030  0.00  0.00     0.062 A 
ATOM      7  F   UNL d   1       4.749  -0.569   0.186  0.00  0.00    -0.097 F 
ATOM      8  F1  UNL d   1       6.000  -0.859   2.572  0.00  0.00    -0.096 F 
ATOM      9  I   UNL d   1       5.541  -2.919   4.977  0.00  0.00    -0.060 I 
ATOM     10  F2  UNL d   1       3.119  -4.501   3.607  0.00  0.00    -0.096 F 
ATOM     11  F3  UNL d   1       1.889  -4.186   1.215  0.00  0.00    -0.097 F 
ATOM     12  F4  UNL d   1       2.694  -2.226  -0.503  0.00  0.00    -0.092 F 
ENDROOT
TORSDOF 0
ENDMDL
