MODEL 1
REMARK minimizedAffinity 20.7108421
REMARK minimizedRMSD -1
REMARK  0 active torsions:
REMARK  status: ('A' for Active; 'I' for Inactive)
ROOT
ATOM      1  C   UNL d   1       1.278  -2.456   0.678  0.00  0.00     0.124 A 
ATOM      2  C1  UNL d   1       2.054  -1.305   0.646  0.00  0.00     0.062 A 
ATOM      3  C2  UNL d   1       3.401  -1.379   0.305  0.00  0.00     0.162 A 
ATOM      4  C3  UNL d   1       3.982  -2.608  -0.008  0.00  0.00    -0.034 A 
ATOM      5  C4  UNL d   1       3.196  -3.761   0.027  0.00  0.00     0.162 A 
ATOM      6  C5  UNL d   1       1.849  -3.682   0.369  0.00  0.00     0.062 A 
ATOM      7  F   UNL d   1       1.101  -4.795   0.399  0.00  0.00    -0.097 F 
ATOM      8  F1  UNL d   1       3.722  -4.959  -0.268  0.00  0.00    -0.096 F 
ATOM      9  I   UNL d   1       5.996  -2.722  -0.518  0.00  0.00    -0.060 I 
ATOM     10  F2  UNL d   1       4.127  -0.251   0.282  0.00  0.00    -0.096 F 
ATOM     11  F3  UNL d   1       1.504  -0.120   0.945  0.00  0.00    -0.097 F 
ATOM     12  F4  UNL d   1      -0.018  -2.382   1.007  0.00  0.00    -0.092 F 
ENDROOT
TORSDOF 0
ENDMDL
