MODEL 1
REMARK minimizedAffinity 16.4606552
REMARK minimizedRMSD -1
REMARK  0 active torsions:
REMARK  status: ('A' for Active; 'I' for Inactive)
ROOT
ATOM      1  C   UNL d   1      -3.939  -0.476  -1.546  0.00  0.00     0.124 A 
ATOM      2  C1  UNL d   1      -2.924   0.466  -1.461  0.00  0.00     0.062 A 
ATOM      3  C2  UNL d   1      -1.879   0.290  -0.559  0.00  0.00     0.162 A 
ATOM      4  C3  UNL d   1      -1.843  -0.835   0.265  0.00  0.00    -0.034 A 
ATOM      5  C4  UNL d   1      -2.868  -1.779   0.174  0.00  0.00     0.162 A 
ATOM      6  C5  UNL d   1      -3.910  -1.597  -0.729  0.00  0.00     0.062 A 
ATOM      7  F   UNL d   1      -4.890  -2.509  -0.810  0.00  0.00    -0.097 F 
ATOM      8  F1  UNL d   1      -2.865  -2.872   0.951  0.00  0.00    -0.096 F 
ATOM      9  I   UNL d   1      -0.282  -1.103   1.616  0.00  0.00    -0.060 I 
ATOM     10  F2  UNL d   1      -0.911   1.216  -0.497  0.00  0.00    -0.096 F 
ATOM     11  F3  UNL d   1      -2.950   1.551  -2.249  0.00  0.00    -0.097 F 
ATOM     12  F4  UNL d   1      -4.944  -0.303  -2.415  0.00  0.00    -0.092 F 
ENDROOT
TORSDOF 0
ENDMDL
