MODEL 1
REMARK minimizedAffinity 14.1188946
REMARK minimizedRMSD -1
REMARK  0 active torsions:
REMARK  status: ('A' for Active; 'I' for Inactive)
ROOT
ATOM      1  C   UNL d   1      -3.037   1.276  -2.322  0.00  0.00     0.124 A 
ATOM      2  C1  UNL d   1      -3.660   1.796  -3.448  0.00  0.00     0.062 A 
ATOM      3  C2  UNL d   1      -4.506   0.996  -4.211  0.00  0.00     0.162 A 
ATOM      4  C3  UNL d   1      -4.735  -0.331  -3.850  0.00  0.00    -0.034 A 
ATOM      5  C4  UNL d   1      -4.104  -0.847  -2.716  0.00  0.00     0.162 A 
ATOM      6  C5  UNL d   1      -3.259  -0.044  -1.957  0.00  0.00     0.062 A 
ATOM      7  F   UNL d   1      -2.658  -0.548  -0.869  0.00  0.00    -0.097 F 
ATOM      8  F1  UNL d   1      -4.302  -2.119  -2.341  0.00  0.00    -0.096 F 
ATOM      9  I   UNL d   1      -6.000  -1.530  -4.988  0.00  0.00    -0.060 I 
ATOM     10  F2  UNL d   1      -5.095   1.525  -5.294  0.00  0.00    -0.096 F 
ATOM     11  F3  UNL d   1      -3.446   3.071  -3.803  0.00  0.00    -0.097 F 
ATOM     12  F4  UNL d   1      -2.223   2.047  -1.590  0.00  0.00    -0.092 F 
ENDROOT
TORSDOF 0
ENDMDL
