MODEL 1
REMARK minimizedAffinity 14.3130159
REMARK minimizedRMSD -1
REMARK  0 active torsions:
REMARK  status: ('A' for Active; 'I' for Inactive)
ROOT
ATOM      1  C   UNL d   1       1.500  -4.186   0.110  0.00  0.00     0.124 A 
ATOM      2  C1  UNL d   1       1.802  -2.844   0.300  0.00  0.00     0.062 A 
ATOM      3  C2  UNL d   1       0.922  -2.020   0.994  0.00  0.00     0.162 A 
ATOM      4  C3  UNL d   1      -0.269  -2.534   1.506  0.00  0.00    -0.034 A 
ATOM      5  C4  UNL d   1      -0.567  -3.884   1.310  0.00  0.00     0.162 A 
ATOM      6  C5  UNL d   1       0.316  -4.704   0.615  0.00  0.00     0.062 A 
ATOM      7  F   UNL d   1       0.023  -6.000   0.433  0.00  0.00    -0.097 F 
ATOM      8  F1  UNL d   1      -1.703  -4.412   1.789  0.00  0.00    -0.096 F 
ATOM      9  I   UNL d   1      -1.588  -1.305   2.545  0.00  0.00    -0.060 I 
ATOM     10  F2  UNL d   1       1.240  -0.728   1.162  0.00  0.00    -0.096 F 
ATOM     11  F3  UNL d   1       2.945  -2.341  -0.188  0.00  0.00    -0.097 F 
ATOM     12  F4  UNL d   1       2.349  -4.977  -0.559  0.00  0.00    -0.092 F 
ENDROOT
TORSDOF 0
ENDMDL
