MODEL 1
REMARK minimizedAffinity -1.37143421
REMARK minimizedRMSD -1
REMARK  0 active torsions:
REMARK  status: ('A' for Active; 'I' for Inactive)
ROOT
ATOM      1  C   UNL d   1       0.717  -1.121   4.326  0.00  0.00     0.077 C 
ATOM      2  C1  UNL d   1       0.150  -0.600   3.039  0.00  0.00    -0.074 A 
ATOM      3  C2  UNL d   1      -1.156  -0.103   2.977  0.00  0.00    -0.005 A 
ATOM      4  C3  UNL d   1      -1.666   0.386   1.774  0.00  0.00     0.006 A 
ATOM      5  C4  UNL d   1      -0.876   0.384   0.624  0.00  0.00    -0.005 A 
ATOM      6  C5  UNL d   1       0.432  -0.109   0.666  0.00  0.00    -0.074 A 
ATOM      7  C6  UNL d   1       1.297  -0.110  -0.559  0.00  0.00     0.077 C 
ATOM      8  C7  UNL d   1       0.939  -0.593   1.880  0.00  0.00    -0.001 A 
ENDROOT
TORSDOF 0
ENDMDL
