MODEL 1
REMARK minimizedAffinity 0.855687141
REMARK minimizedRMSD -1
REMARK  0 active torsions:
REMARK  status: ('A' for Active; 'I' for Inactive)
ROOT
ATOM      1  C   UNL d   1       1.092  -1.569   4.499  0.00  0.00     0.077 C 
ATOM      2  C1  UNL d   1       0.589  -1.020   3.197  0.00  0.00    -0.074 A 
ATOM      3  C2  UNL d   1       1.454  -0.832   2.114  0.00  0.00    -0.005 A 
ATOM      4  C3  UNL d   1       0.969  -0.329   0.907  0.00  0.00     0.006 A 
ATOM      5  C4  UNL d   1      -0.382  -0.009   0.770  0.00  0.00    -0.005 A 
ATOM      6  C5  UNL d   1      -1.262  -0.191   1.842  0.00  0.00    -0.074 A 
ATOM      7  C6  UNL d   1      -2.719   0.138   1.709  0.00  0.00     0.077 C 
ATOM      8  C7  UNL d   1      -0.769  -0.703   3.050  0.00  0.00    -0.001 A 
ENDROOT
TORSDOF 0
ENDMDL
