MODEL 1
REMARK minimizedAffinity -2.02366495
REMARK minimizedRMSD -1
REMARK  0 active torsions:
REMARK  status: ('A' for Active; 'I' for Inactive)
ROOT
ATOM      1  C   UNL d   1      -3.085  -1.546   4.085  0.00  0.00     0.077 C 
ATOM      2  C1  UNL d   1      -1.602  -1.494   3.866  0.00  0.00    -0.074 A 
ATOM      3  C2  UNL d   1      -0.716  -2.002   4.821  0.00  0.00    -0.005 A 
ATOM      4  C3  UNL d   1       0.660  -1.955   4.599  0.00  0.00     0.006 A 
ATOM      5  C4  UNL d   1       1.163  -1.401   3.422  0.00  0.00    -0.005 A 
ATOM      6  C5  UNL d   1       0.292  -0.889   2.455  0.00  0.00    -0.074 A 
ATOM      7  C6  UNL d   1       0.816  -0.299   1.179  0.00  0.00     0.077 C 
ATOM      8  C7  UNL d   1      -1.090  -0.946   2.682  0.00  0.00    -0.001 A 
ENDROOT
TORSDOF 0
ENDMDL
