MODEL 1
REMARK minimizedAffinity -1.96475446
REMARK minimizedRMSD -1
REMARK  0 active torsions:
REMARK  status: ('A' for Active; 'I' for Inactive)
ROOT
ATOM      1  C   UNL d   1      -3.332  -1.141  -1.495  0.00  0.00     0.077 C 
ATOM      2  C1  UNL d   1      -2.462  -0.702  -0.355  0.00  0.00    -0.074 A 
ATOM      3  C2  UNL d   1      -3.022  -0.188   0.819  0.00  0.00    -0.005 A 
ATOM      4  C3  UNL d   1      -2.200   0.207   1.875  0.00  0.00     0.006 A 
ATOM      5  C4  UNL d   1      -0.814   0.092   1.768  0.00  0.00    -0.005 A 
ATOM      6  C5  UNL d   1      -0.237  -0.422   0.602  0.00  0.00    -0.074 A 
ATOM      7  C6  UNL d   1       1.251  -0.562   0.474  0.00  0.00     0.077 C 
ATOM      8  C7  UNL d   1      -1.069  -0.823  -0.452  0.00  0.00    -0.001 A 
ENDROOT
TORSDOF 0
ENDMDL
