MODEL 1
REMARK minimizedAffinity -4.95435762
REMARK minimizedRMSD -1
REMARK  3 active torsions:
REMARK  status: ('A' for Active; 'I' for Inactive)
REMARK    1  A    between atoms: C3'_2  and  C2'_3 
REMARK    2  A    between atoms: C2'_3  and  C1'_4 
REMARK    3  A    between atoms: C1'_4  and  C1_5 
ROOT
ATOM      1  C1  N4B d   1      -0.440   0.383   0.403  0.00  0.00    -0.075 A 
ATOM      2  C2  N4B d   1      -1.567   0.723  -0.378  0.00  0.00     0.002 A 
ATOM      3  C3  N4B d   1      -2.596   1.441   0.179  0.00  0.00     0.002 A 
ATOM      4  C4  N4B d   1      -2.531   1.812   1.514  0.00  0.00    -0.004 A 
ATOM      5  C5  N4B d   1      -1.428   1.501   2.254  0.00  0.00     0.002 A 
ATOM      6  C6  N4B d   1      -0.384   0.783   1.707  0.00  0.00     0.002 A 
ENDROOT
BRANCH   1   7
ATOM      7  C1' N4B d   1       0.671  -0.475  -0.138  0.00  0.00     0.057 C 
BRANCH   7   8
ATOM      8  C2' N4B d   1       0.208  -1.137  -1.432  0.00  0.00     0.009 C 
BRANCH   8   9
ATOM      9  C3' N4B d   1       0.761  -2.544  -1.579  0.00  0.00     0.004 C 
ATOM     10  C4' N4B d   1      -0.271  -3.528  -2.045  0.00  0.00     0.003 C 
ENDBRANCH   8   9
ENDBRANCH   7   8
ENDBRANCH   1   7
TORSDOF 3
ENDMDL
