MODEL 1
REMARK minimizedAffinity -1.31879497
REMARK minimizedRMSD -1
REMARK  3 active torsions:
REMARK  status: ('A' for Active; 'I' for Inactive)
REMARK    1  A    between atoms: C3'_2  and  C2'_3 
REMARK    2  A    between atoms: C2'_3  and  C1'_4 
REMARK    3  A    between atoms: C1'_4  and  C1_5 
ROOT
ATOM      1  C1  N4B d   1       0.276  -0.020  -0.048  0.00  0.00    -0.075 A 
ATOM      2  C2  N4B d   1       0.223  -0.477   1.287  0.00  0.00     0.002 A 
ATOM      3  C3  N4B d   1      -0.520   0.206   2.218  0.00  0.00     0.002 A 
ATOM      4  C4  N4B d   1      -1.201   1.354   1.843  0.00  0.00    -0.004 A 
ATOM      5  C5  N4B d   1      -1.166   1.775   0.546  0.00  0.00     0.002 A 
ATOM      6  C6  N4B d   1      -0.426   1.096  -0.401  0.00  0.00     0.002 A 
ENDROOT
BRANCH   1   7
ATOM      7  C1' N4B d   1       1.145  -0.684  -1.082  0.00  0.00     0.057 C 
BRANCH   7   8
ATOM      8  C2' N4B d   1       1.227  -2.177  -0.782  0.00  0.00     0.009 C 
BRANCH   8   9
ATOM      9  C3' N4B d   1       1.173  -3.015  -2.048  0.00  0.00     0.004 C 
ATOM     10  C4' N4B d   1       0.195  -4.148  -1.954  0.00  0.00     0.003 C 
ENDBRANCH   8   9
ENDBRANCH   7   8
ENDBRANCH   1   7
TORSDOF 3
ENDMDL
