MODEL 1
REMARK minimizedAffinity -5.09756947
REMARK minimizedRMSD -1
REMARK  3 active torsions:
REMARK  status: ('A' for Active; 'I' for Inactive)
REMARK    1  A    between atoms: C3'_2  and  C2'_3 
REMARK    2  A    between atoms: C2'_3  and  C1'_4 
REMARK    3  A    between atoms: C1'_4  and  C1_5 
ROOT
ATOM      1  C1  N4B d   1       0.021  -0.793   0.240  0.00  0.00    -0.075 A 
ATOM      2  C2  N4B d   1      -0.429   0.330  -0.489  0.00  0.00     0.002 A 
ATOM      3  C3  N4B d   1      -1.130   1.326   0.147  0.00  0.00     0.002 A 
ATOM      4  C4  N4B d   1      -1.408   1.212   1.501  0.00  0.00    -0.004 A 
ATOM      5  C5  N4B d   1      -0.948   0.136   2.203  0.00  0.00     0.002 A 
ATOM      6  C6  N4B d   1      -0.239  -0.870   1.578  0.00  0.00     0.002 A 
ENDROOT
BRANCH   1   7
ATOM      7  C1' N4B d   1       0.716  -1.947  -0.428  0.00  0.00     0.057 C 
BRANCH   7   8
ATOM      8  C2' N4B d   1       0.895  -1.633  -1.911  0.00  0.00     0.009 C 
BRANCH   8   9
ATOM      9  C3' N4B d   1       0.306  -2.718  -2.796  0.00  0.00     0.004 C 
ATOM     10  C4' N4B d   1      -0.377  -3.799  -2.014  0.00  0.00     0.003 C 
ENDBRANCH   8   9
ENDBRANCH   7   8
ENDBRANCH   1   7
TORSDOF 3
ENDMDL
