MODEL 1
REMARK minimizedAffinity -4.90031576
REMARK minimizedRMSD -1
REMARK  3 active torsions:
REMARK  status: ('A' for Active; 'I' for Inactive)
REMARK    1  A    between atoms: C3'_2  and  C2'_3 
REMARK    2  A    between atoms: C2'_3  and  C1'_4 
REMARK    3  A    between atoms: C1'_4  and  C1_5 
ROOT
ATOM      1  C1  N4B d   1       0.109  -0.019   0.047  0.00  0.00    -0.075 A 
ATOM      2  C2  N4B d   1       0.058  -0.067   1.458  0.00  0.00     0.002 A 
ATOM      3  C3  N4B d   1      -0.855   0.701   2.138  0.00  0.00     0.002 A 
ATOM      4  C4  N4B d   1      -1.711   1.534   1.433  0.00  0.00    -0.004 A 
ATOM      5  C5  N4B d   1      -1.672   1.556   0.070  0.00  0.00     0.002 A 
ATOM      6  C6  N4B d   1      -0.762   0.787  -0.627  0.00  0.00     0.002 A 
ENDROOT
BRANCH   1   7
ATOM      7  C1' N4B d   1       1.148  -0.775  -0.736  0.00  0.00     0.057 C 
BRANCH   7   8
ATOM      8  C2' N4B d   1       0.461  -1.567  -1.844  0.00  0.00     0.009 C 
BRANCH   8   9
ATOM      9  C3' N4B d   1       0.947  -3.005  -1.899  0.00  0.00     0.004 C 
ATOM     10  C4' N4B d   1      -0.176  -3.995  -1.988  0.00  0.00     0.003 C 
ENDBRANCH   8   9
ENDBRANCH   7   8
ENDBRANCH   1   7
TORSDOF 3
ENDMDL
