MODEL 1
REMARK minimizedAffinity -4.63011312
REMARK minimizedRMSD -1
REMARK  3 active torsions:
REMARK  status: ('A' for Active; 'I' for Inactive)
REMARK    1  A    between atoms: C3'_2  and  C2'_3 
REMARK    2  A    between atoms: C2'_3  and  C1'_4 
REMARK    3  A    between atoms: C1'_4  and  C1_5 
ROOT
ATOM      1  C1  N4B d   1      -0.302   0.032   0.651  0.00  0.00    -0.075 A 
ATOM      2  C2  N4B d   1      -0.624   0.961  -0.363  0.00  0.00     0.002 A 
ATOM      3  C3  N4B d   1      -1.549   1.947  -0.122  0.00  0.00     0.002 A 
ATOM      4  C4  N4B d   1      -2.176   2.013   1.113  0.00  0.00    -0.004 A 
ATOM      5  C5  N4B d   1      -1.841   1.128   2.095  0.00  0.00     0.002 A 
ATOM      6  C6  N4B d   1      -0.910   0.134   1.869  0.00  0.00     0.002 A 
ENDROOT
BRANCH   1   7
ATOM      7  C1' N4B d   1       0.639  -1.115   0.407  0.00  0.00     0.057 C 
BRANCH   7   8
ATOM      8  C2' N4B d   1       0.693  -1.410  -1.089  0.00  0.00     0.009 C 
BRANCH   8   9
ATOM      9  C3' N4B d   1       0.254  -2.829  -1.405  0.00  0.00     0.004 C 
ATOM     10  C4' N4B d   1      -0.069  -3.028  -2.856  0.00  0.00     0.003 C 
ENDBRANCH   8   9
ENDBRANCH   7   8
ENDBRANCH   1   7
TORSDOF 3
ENDMDL
