MODEL 1
REMARK minimizedAffinity -2.51701188
REMARK minimizedRMSD -1
REMARK  0 active torsions:
REMARK  status: ('A' for Active; 'I' for Inactive)
ROOT
ATOM      1  C4' PXY d   1       0.394   3.710   0.753  0.00  0.00     0.077 C 
ATOM      2  C1' PXY d   1       0.297  -1.801  -0.988  0.00  0.00     0.077 C 
ATOM      3  C1  PXY d   1       0.311  -0.357  -0.525  0.00  0.00    -0.082 A 
ATOM      4  C2  PXY d   1       1.043   0.531  -1.177  0.00  0.00     0.003 A 
ATOM      5  C3  PXY d   1       1.092   1.835  -0.754  0.00  0.00     0.003 A 
ATOM      6  C4  PXY d   1       0.343   2.244   0.316  0.00  0.00    -0.082 A 
ATOM      7  C5  PXY d   1      -0.415   1.345   0.980  0.00  0.00     0.003 A 
ATOM      8  C6  PXY d   1      -0.419   0.019   0.559  0.00  0.00     0.003 A 
ENDROOT
TORSDOF 0
ENDMDL
