MODEL 1
REMARK minimizedAffinity -3.83524227
REMARK minimizedRMSD -1
REMARK  0 active torsions:
REMARK  status: ('A' for Active; 'I' for Inactive)
ROOT
ATOM      1  C4' PXY d   1      -1.963   0.336   2.382  0.00  0.00     0.077 C 
ATOM      2  C1' PXY d   1       1.136  -3.180  -1.001  0.00  0.00     0.077 C 
ATOM      3  C1  PXY d   1       0.331  -2.248  -0.117  0.00  0.00    -0.082 A 
ATOM      4  C2  PXY d   1      -0.344  -2.740   0.909  0.00  0.00     0.003 A 
ATOM      5  C3  PXY d   1      -1.103  -1.916   1.699  0.00  0.00     0.003 A 
ATOM      6  C4  PXY d   1      -1.129  -0.567   1.469  0.00  0.00    -0.082 A 
ATOM      7  C5  PXY d   1      -0.435  -0.055   0.430  0.00  0.00     0.003 A 
ATOM      8  C6  PXY d   1       0.297  -0.914  -0.385  0.00  0.00     0.003 A 
ENDROOT
TORSDOF 0
ENDMDL
