MODEL 1
REMARK minimizedAffinity -4.80230951
REMARK minimizedRMSD -1
REMARK  0 active torsions:
REMARK  status: ('A' for Active; 'I' for Inactive)
ROOT
ATOM      1  C4' PXY d   1      -0.057  -3.590   0.529  0.00  0.00     0.077 C 
ATOM      2  C1' PXY d   1       0.448   2.133  -0.106  0.00  0.00     0.077 C 
ATOM      3  C1  PXY d   1       0.314   0.631   0.047  0.00  0.00    -0.082 A 
ATOM      4  C2  PXY d   1      -0.126   0.126   1.189  0.00  0.00     0.003 A 
ATOM      5  C3  PXY d   1      -0.222  -1.231   1.356  0.00  0.00     0.003 A 
ATOM      6  C4  PXY d   1       0.085  -2.079   0.326  0.00  0.00    -0.082 A 
ATOM      7  C5  PXY d   1       0.524  -1.572  -0.845  0.00  0.00     0.003 A 
ATOM      8  C6  PXY d   1       0.654  -0.193  -0.981  0.00  0.00     0.003 A 
ENDROOT
TORSDOF 0
ENDMDL
