MODEL 1
REMARK minimizedAffinity -2.15878439
REMARK minimizedRMSD -1
REMARK  0 active torsions:
REMARK  status: ('A' for Active; 'I' for Inactive)
ROOT
ATOM      1  C4' PXY d   1      -1.209  -3.060   0.262  0.00  0.00     0.077 C 
ATOM      2  C1' PXY d   1       1.130   2.224   0.410  0.00  0.00     0.077 C 
ATOM      3  C1  PXY d   1       0.524   0.836   0.361  0.00  0.00    -0.082 A 
ATOM      4  C2  PXY d   1      -0.658   0.618   0.915  0.00  0.00     0.003 A 
ATOM      5  C3  PXY d   1      -1.206  -0.639   0.908  0.00  0.00     0.003 A 
ATOM      6  C4  PXY d   1      -0.563  -1.672   0.280  0.00  0.00    -0.082 A 
ATOM      7  C5  PXY d   1       0.638  -1.455  -0.298  0.00  0.00     0.003 A 
ATOM      8  C6  PXY d   1       1.196  -0.181  -0.244  0.00  0.00     0.003 A 
ENDROOT
TORSDOF 0
ENDMDL
