MODEL 1
REMARK minimizedAffinity -3.54264164
REMARK minimizedRMSD -1
REMARK  0 active torsions:
REMARK  status: ('A' for Active; 'I' for Inactive)
ROOT
ATOM      1  C4' PXY d   1       0.253  -3.692   0.809  0.00  0.00     0.077 C 
ATOM      2  C1' PXY d   1      -0.757   1.877  -0.369  0.00  0.00     0.077 C 
ATOM      3  C1  PXY d   1      -0.486   0.415  -0.072  0.00  0.00    -0.082 A 
ATOM      4  C2  PXY d   1      -1.263  -0.234   0.780  0.00  0.00     0.003 A 
ATOM      5  C3  PXY d   1      -1.013  -1.547   1.085  0.00  0.00     0.003 A 
ATOM      6  C4  PXY d   1       0.011  -2.218   0.471  0.00  0.00    -0.082 A 
ATOM      7  C5  PXY d   1       0.801  -1.566  -0.408  0.00  0.00     0.003 A 
ATOM      8  C6  PXY d   1       0.556  -0.222  -0.672  0.00  0.00     0.003 A 
ENDROOT
TORSDOF 0
ENDMDL
