MODEL 1
REMARK minimizedAffinity -4.71870375
REMARK minimizedRMSD -1
REMARK  0 active torsions:
REMARK  status: ('A' for Active; 'I' for Inactive)
ROOT
ATOM      1  C4' PXY d   1       0.325   1.845  -0.008  0.00  0.00     0.077 C 
ATOM      2  C1' PXY d   1      -0.123  -3.918  -0.064  0.00  0.00     0.077 C 
ATOM      3  C1  PXY d   1      -0.017  -2.406  -0.042  0.00  0.00    -0.082 A 
ATOM      4  C2  PXY d   1       0.664  -1.784  -0.992  0.00  0.00     0.003 A 
ATOM      5  C3  PXY d   1       0.797  -0.420  -0.969  0.00  0.00     0.003 A 
ATOM      6  C4  PXY d   1       0.183   0.320   0.005  0.00  0.00    -0.082 A 
ATOM      7  C5  PXY d   1      -0.522  -0.305   0.971  0.00  0.00     0.003 A 
ATOM      8  C6  PXY d   1      -0.611  -1.694   0.954  0.00  0.00     0.003 A 
ENDROOT
TORSDOF 0
ENDMDL
