MODEL 1
REMARK minimizedAffinity -4.8716054
REMARK minimizedRMSD -1
REMARK  0 active torsions:
REMARK  status: ('A' for Active; 'I' for Inactive)
ROOT
ATOM      1  C4' PXY d   1       0.271   2.452   0.119  0.00  0.00     0.077 C 
ATOM      2  C1' PXY d   1       0.304  -3.322   0.391  0.00  0.00     0.077 C 
ATOM      3  C1  PXY d   1       0.284  -1.807   0.327  0.00  0.00    -0.082 A 
ATOM      4  C2  PXY d   1       0.919  -1.186  -0.654  0.00  0.00     0.003 A 
ATOM      5  C3  PXY d   1       0.938   0.184  -0.709  0.00  0.00     0.003 A 
ATOM      6  C4  PXY d   1       0.256   0.925   0.218  0.00  0.00    -0.082 A 
ATOM      7  C5  PXY d   1      -0.404   0.298   1.216  0.00  0.00     0.003 A 
ATOM      8  C6  PXY d   1      -0.377  -1.092   1.278  0.00  0.00     0.003 A 
ENDROOT
TORSDOF 0
ENDMDL
