MODEL 1
REMARK minimizedAffinity -4.54357767
REMARK minimizedRMSD -1
REMARK  0 active torsions:
REMARK  status: ('A' for Active; 'I' for Inactive)
ROOT
ATOM      1  C4' PXY d   1      -0.515  -2.994   0.351  0.00  0.00     0.077 C 
ATOM      2  C1' PXY d   1       0.066   2.663  -0.684  0.00  0.00     0.077 C 
ATOM      3  C1  PXY d   1      -0.087   1.182  -0.400  0.00  0.00    -0.082 A 
ATOM      4  C2  PXY d   1       0.362   0.298  -1.276  0.00  0.00     0.003 A 
ATOM      5  C3  PXY d   1       0.203  -1.045  -1.050  0.00  0.00     0.003 A 
ATOM      6  C4  PXY d   1      -0.374  -1.489   0.110  0.00  0.00    -0.082 A 
ATOM      7  C5  PXY d   1      -0.824  -0.593   1.014  0.00  0.00     0.003 A 
ATOM      8  C6  PXY d   1      -0.691   0.766   0.747  0.00  0.00     0.003 A 
ENDROOT
TORSDOF 0
ENDMDL
