MODEL 1
REMARK minimizedAffinity -0.0833353177
REMARK minimizedRMSD -1
REMARK  0 active torsions:
REMARK  status: ('A' for Active; 'I' for Inactive)
ROOT
ATOM      1  C4' PXY d   1       0.595   3.684   1.039  0.00  0.00     0.077 C 
ATOM      2  C1' PXY d   1       0.171  -1.425  -1.633  0.00  0.00     0.077 C 
ATOM      3  C1  PXY d   1       0.285  -0.079  -0.944  0.00  0.00    -0.082 A 
ATOM      4  C2  PXY d   1       0.622  -0.025   0.334  0.00  0.00     0.003 A 
ATOM      5  C3  PXY d   1       0.698   1.181   0.981  0.00  0.00     0.003 A 
ATOM      6  C4  PXY d   1       0.478   2.348   0.300  0.00  0.00    -0.082 A 
ATOM      7  C5  PXY d   1       0.144   2.302  -1.007  0.00  0.00     0.003 A 
ATOM      8  C6  PXY d   1       0.032   1.065  -1.636  0.00  0.00     0.003 A 
ENDROOT
TORSDOF 0
ENDMDL
