MODEL 1
REMARK minimizedAffinity -3.4554286
REMARK minimizedRMSD -1
REMARK  0 active torsions:
REMARK  status: ('A' for Active; 'I' for Inactive)
ROOT
ATOM      1  C4' PXY d   1      -0.142   2.068   0.120  0.00  0.00     0.077 C 
ATOM      2  C1' PXY d   1       0.049  -3.708   0.224  0.00  0.00     0.077 C 
ATOM      3  C1  PXY d   1      -0.013  -2.194   0.202  0.00  0.00    -0.082 A 
ATOM      4  C2  PXY d   1       0.744  -1.520  -0.649  0.00  0.00     0.003 A 
ATOM      5  C3  PXY d   1       0.724  -0.149  -0.661  0.00  0.00     0.003 A 
ATOM      6  C4  PXY d   1      -0.119   0.538   0.171  0.00  0.00    -0.082 A 
ATOM      7  C5  PXY d   1      -0.903  -0.142   1.035  0.00  0.00     0.003 A 
ATOM      8  C6  PXY d   1      -0.837  -1.532   1.059  0.00  0.00     0.003 A 
ENDROOT
TORSDOF 0
ENDMDL
