MODEL 1
REMARK minimizedAffinity -5.44966602
REMARK minimizedRMSD -1
REMARK  0 active torsions:
REMARK  status: ('A' for Active; 'I' for Inactive)
ROOT
ATOM      1  C4' PXY d   1       0.204   2.993  -0.138  0.00  0.00     0.077 C 
ATOM      2  C1' PXY d   1      -0.395  -2.725   0.461  0.00  0.00     0.077 C 
ATOM      3  C1  PXY d   1      -0.230  -1.227   0.294  0.00  0.00    -0.082 A 
ATOM      4  C2  PXY d   1      -0.417  -0.429   1.332  0.00  0.00     0.003 A 
ATOM      5  C3  PXY d   1      -0.303   0.930   1.191  0.00  0.00     0.003 A 
ATOM      6  C4  PXY d   1       0.057   1.474  -0.013  0.00  0.00    -0.082 A 
ATOM      7  C5  PXY d   1       0.259   0.665  -1.074  0.00  0.00     0.003 A 
ATOM      8  C6  PXY d   1       0.099  -0.709  -0.920  0.00  0.00     0.003 A 
ENDROOT
TORSDOF 0
ENDMDL
