MODEL 1
REMARK minimizedAffinity -5.26454258
REMARK minimizedRMSD -1
REMARK  0 active torsions:
REMARK  status: ('A' for Active; 'I' for Inactive)
ROOT
ATOM      1  C4' PXY d   1       0.080  -3.858   0.302  0.00  0.00     0.077 C 
ATOM      2  C1' PXY d   1      -0.571   1.842  -0.408  0.00  0.00     0.077 C 
ATOM      3  C1  PXY d   1      -0.404   0.349  -0.209  0.00  0.00    -0.082 A 
ATOM      4  C2  PXY d   1       0.366  -0.339  -1.037  0.00  0.00     0.003 A 
ATOM      5  C3  PXY d   1       0.504  -1.695  -0.891  0.00  0.00     0.003 A 
ATOM      6  C4  PXY d   1      -0.111  -2.346   0.145  0.00  0.00    -0.082 A 
ATOM      7  C5  PXY d   1      -0.889  -1.650   1.000  0.00  0.00     0.003 A 
ATOM      8  C6  PXY d   1      -1.049  -0.281   0.810  0.00  0.00     0.003 A 
ENDROOT
TORSDOF 0
ENDMDL
