MODEL 1
REMARK minimizedAffinity -4.8617177
REMARK minimizedRMSD -1
REMARK  0 active torsions:
REMARK  status: ('A' for Active; 'I' for Inactive)
ROOT
ATOM      1  C4' PXY d   1      -0.537  -3.172   0.634  0.00  0.00     0.077 C 
ATOM      2  C1' PXY d   1      -0.091   2.540  -0.133  0.00  0.00     0.077 C 
ATOM      3  C1  PXY d   1      -0.213   1.044   0.080  0.00  0.00    -0.082 A 
ATOM      4  C2  PXY d   1       0.527   0.218  -0.642  0.00  0.00     0.003 A 
ATOM      5  C3  PXY d   1       0.407  -1.139  -0.485  0.00  0.00     0.003 A 
ATOM      6  C4  PXY d   1      -0.441  -1.654   0.459  0.00  0.00    -0.082 A 
ATOM      7  C5  PXY d   1      -1.191  -0.818   1.208  0.00  0.00     0.003 A 
ATOM      8  C6  PXY d   1      -1.084   0.555   1.004  0.00  0.00     0.003 A 
ENDROOT
TORSDOF 0
ENDMDL
