MODEL 1
REMARK minimizedAffinity -5.41982794
REMARK minimizedRMSD -1
REMARK  0 active torsions:
REMARK  status: ('A' for Active; 'I' for Inactive)
ROOT
ATOM      1  C4' PXY d   1      -0.094  -3.963  -1.278  0.00  0.00     0.077 C 
ATOM      2  C1' PXY d   1      -0.038   1.666   0.035  0.00  0.00     0.077 C 
ATOM      3  C1  PXY d   1      -0.051   0.187  -0.297  0.00  0.00    -0.082 A 
ATOM      4  C2  PXY d   1       0.290  -0.214  -1.511  0.00  0.00     0.003 A 
ATOM      5  C3  PXY d   1       0.253  -1.545  -1.837  0.00  0.00     0.003 A 
ATOM      6  C4  PXY d   1      -0.086  -2.480  -0.896  0.00  0.00    -0.082 A 
ATOM      7  C5  PXY d   1      -0.426  -2.080   0.348  0.00  0.00     0.003 A 
ATOM      8  C6  PXY d   1      -0.421  -0.720   0.647  0.00  0.00     0.003 A 
ENDROOT
TORSDOF 0
ENDMDL
