MODEL 1
REMARK minimizedAffinity -6.15018654
REMARK minimizedRMSD -1
REMARK  0 active torsions:
REMARK  status: ('A' for Active; 'I' for Inactive)
ROOT
ATOM      1  C4' PXY d   1      -0.067  -4.124   0.313  0.00  0.00     0.077 C 
ATOM      2  C1' PXY d   1       0.126   1.556  -0.741  0.00  0.00     0.077 C 
ATOM      3  C1  PXY d   1       0.076   0.064  -0.477  0.00  0.00    -0.082 A 
ATOM      4  C2  PXY d   1      -0.464  -0.384   0.644  0.00  0.00     0.003 A 
ATOM      5  C3  PXY d   1      -0.489  -1.729   0.913  0.00  0.00     0.003 A 
ATOM      6  C4  PXY d   1      -0.003  -2.627   0.000  0.00  0.00    -0.082 A 
ATOM      7  C5  PXY d   1       0.540  -2.178  -1.151  0.00  0.00     0.003 A 
ATOM      8  C6  PXY d   1       0.593  -0.807  -1.386  0.00  0.00     0.003 A 
ENDROOT
TORSDOF 0
ENDMDL
