MODEL 1
REMARK minimizedAffinity -1.95049095
REMARK minimizedRMSD -1
REMARK  0 active torsions:
REMARK  status: ('A' for Active; 'I' for Inactive)
ROOT
ATOM      1  C4' PXY d   1       1.578   2.761   0.097  0.00  0.00     0.077 C 
ATOM      2  C1' PXY d   1      -1.644  -2.016   0.556  0.00  0.00     0.077 C 
ATOM      3  C1  PXY d   1      -0.798  -0.766   0.423  0.00  0.00    -0.082 A 
ATOM      4  C2  PXY d   1      -0.157  -0.294   1.480  0.00  0.00     0.003 A 
ATOM      5  C3  PXY d   1       0.587   0.854   1.385  0.00  0.00     0.003 A 
ATOM      6  C4  PXY d   1       0.720   1.496   0.183  0.00  0.00    -0.082 A 
ATOM      7  C5  PXY d   1       0.077   1.015  -0.903  0.00  0.00     0.003 A 
ATOM      8  C6  PXY d   1      -0.706  -0.128  -0.776  0.00  0.00     0.003 A 
ENDROOT
TORSDOF 0
ENDMDL
