MODEL 1
REMARK minimizedAffinity -4.58559418
REMARK minimizedRMSD -1
REMARK  0 active torsions:
REMARK  status: ('A' for Active; 'I' for Inactive)
ROOT
ATOM      1  C4' PXY d   1       0.816  -3.444   0.940  0.00  0.00     0.077 C 
ATOM      2  C1' PXY d   1      -0.510   1.953  -0.651  0.00  0.00     0.077 C 
ATOM      3  C1  PXY d   1      -0.168   0.540  -0.223  0.00  0.00    -0.082 A 
ATOM      4  C2  PXY d   1       0.883  -0.068  -0.749  0.00  0.00     0.003 A 
ATOM      5  C3  PXY d   1       1.187  -1.357  -0.397  0.00  0.00     0.003 A 
ATOM      6  C4  PXY d   1       0.439  -2.014   0.544  0.00  0.00    -0.082 A 
ATOM      7  C5  PXY d   1      -0.629  -1.397   1.093  0.00  0.00     0.003 A 
ATOM      8  C6  PXY d   1      -0.945  -0.102   0.692  0.00  0.00     0.003 A 
ENDROOT
TORSDOF 0
ENDMDL
