MODEL 1
REMARK minimizedAffinity -3.83115578
REMARK minimizedRMSD -1
REMARK  0 active torsions:
REMARK  status: ('A' for Active; 'I' for Inactive)
ROOT
ATOM      1  C4' PXY d   1       0.258   2.376  -0.061  0.00  0.00     0.077 C 
ATOM      2  C1' PXY d   1       0.030  -3.400  -0.058  0.00  0.00     0.077 C 
ATOM      3  C1  PXY d   1       0.101  -1.886  -0.067  0.00  0.00    -0.082 A 
ATOM      4  C2  PXY d   1      -0.432  -1.201   0.932  0.00  0.00     0.003 A 
ATOM      5  C3  PXY d   1      -0.406   0.170   0.924  0.00  0.00     0.003 A 
ATOM      6  C4  PXY d   1       0.219   0.845  -0.090  0.00  0.00    -0.082 A 
ATOM      7  C5  PXY d   1       0.774   0.153  -1.107  0.00  0.00     0.003 A 
ATOM      8  C6  PXY d   1       0.701  -1.237  -1.101  0.00  0.00     0.003 A 
ENDROOT
TORSDOF 0
ENDMDL
