MODEL 1
REMARK minimizedAffinity -4.22506523
REMARK minimizedRMSD -1
REMARK  0 active torsions:
REMARK  status: ('A' for Active; 'I' for Inactive)
ROOT
ATOM      1  C4' PXY d   1       0.085   2.351  -0.144  0.00  0.00     0.077 C 
ATOM      2  C1' PXY d   1       0.113  -3.402   0.423  0.00  0.00     0.077 C 
ATOM      3  C1  PXY d   1       0.093  -1.893   0.278  0.00  0.00    -0.082 A 
ATOM      4  C2  PXY d   1       0.963  -1.301  -0.525  0.00  0.00     0.003 A 
ATOM      5  C3  PXY d   1       0.980   0.065  -0.643  0.00  0.00     0.003 A 
ATOM      6  C4  PXY d   1       0.062   0.829   0.026  0.00  0.00    -0.082 A 
ATOM      7  C5  PXY d   1      -0.835   0.233   0.839  0.00  0.00     0.003 A 
ATOM      8  C6  PXY d   1      -0.809  -1.152   0.977  0.00  0.00     0.003 A 
ENDROOT
TORSDOF 0
ENDMDL
