MODEL 1
REMARK minimizedAffinity -4.0611701
REMARK minimizedRMSD -1
REMARK  0 active torsions:
REMARK  status: ('A' for Active; 'I' for Inactive)
ROOT
ATOM      1  C4' PXY d   1       1.319   2.962   0.738  0.00  0.00     0.077 C 
ATOM      2  C1' PXY d   1      -0.871  -2.387   0.834  0.00  0.00     0.077 C 
ATOM      3  C1  PXY d   1      -0.289  -0.988   0.800  0.00  0.00    -0.082 A 
ATOM      4  C2  PXY d   1      -0.392  -0.210   1.865  0.00  0.00     0.003 A 
ATOM      5  C3  PXY d   1       0.101   1.069   1.839  0.00  0.00     0.003 A 
ATOM      6  C4  PXY d   1       0.754   1.539   0.731  0.00  0.00    -0.082 A 
ATOM      7  C5  PXY d   1       0.873   0.747  -0.356  0.00  0.00     0.003 A 
ATOM      8  C6  PXY d   1       0.329  -0.534  -0.325  0.00  0.00     0.003 A 
ENDROOT
TORSDOF 0
ENDMDL
