MODEL 1
REMARK minimizedAffinity -0.433047891
REMARK minimizedRMSD -1
REMARK  0 active torsions:
REMARK  status: ('A' for Active; 'I' for Inactive)
ROOT
ATOM      1  C1  BNZ d   1      -4.576   3.843   4.411  0.00  0.00     0.000 A 
ATOM      2  C2  BNZ d   1      -5.690   3.841   5.207  0.00  0.00     0.000 A 
ATOM      3  C3  BNZ d   1      -5.996   4.922   5.986  0.00  0.00     0.000 A 
ATOM      4  C4  BNZ d   1      -5.167   5.985   5.999  0.00  0.00     0.000 A 
ATOM      5  C5  BNZ d   1      -4.035   5.999   5.210  0.00  0.00     0.000 A 
ATOM      6  C6  BNZ d   1      -3.751   4.926   4.397  0.00  0.00     0.000 A 
ENDROOT
TORSDOF 0
ENDMDL
