MODEL 1
REMARK minimizedAffinity -0.0360946506
REMARK minimizedRMSD -1
REMARK  0 active torsions:
REMARK  status: ('A' for Active; 'I' for Inactive)
ROOT
ATOM      1  C1  BNZ d   1       3.348  -1.443  -1.240  0.00  0.00     0.000 A 
ATOM      2  C2  BNZ d   1       2.135  -1.637  -0.634  0.00  0.00     0.000 A 
ATOM      3  C3  BNZ d   1       1.405  -0.577  -0.175  0.00  0.00     0.000 A 
ATOM      4  C4  BNZ d   1       1.905   0.671  -0.286  0.00  0.00     0.000 A 
ATOM      5  C5  BNZ d   1       3.131   0.882  -0.886  0.00  0.00     0.000 A 
ATOM      6  C6  BNZ d   1       3.845  -0.184  -1.382  0.00  0.00     0.000 A 
ENDROOT
TORSDOF 0
ENDMDL
