MODEL 1
REMARK minimizedAffinity -0.574048638
REMARK minimizedRMSD -1
REMARK  0 active torsions:
REMARK  status: ('A' for Active; 'I' for Inactive)
ROOT
ATOM      1  C1  BNZ d   1       1.425   1.598   4.122  0.00  0.00     0.000 A 
ATOM      2  C2  BNZ d   1       1.758   1.041   5.328  0.00  0.00     0.000 A 
ATOM      3  C3  BNZ d   1       2.887   1.432   5.992  0.00  0.00     0.000 A 
ATOM      4  C4  BNZ d   1       3.701   2.349   5.431  0.00  0.00     0.000 A 
ATOM      5  C5  BNZ d   1       3.384   2.914   4.212  0.00  0.00     0.000 A 
ATOM      6  C6  BNZ d   1       2.227   2.546   3.565  0.00  0.00     0.000 A 
ENDROOT
TORSDOF 0
ENDMDL
