MODEL 1
REMARK minimizedAffinity -0.1434104
REMARK minimizedRMSD -1
REMARK  0 active torsions:
REMARK  status: ('A' for Active; 'I' for Inactive)
ROOT
ATOM      1  C1  BNZ d   1      -5.965   3.613   2.392  0.00  0.00     0.000 A 
ATOM      2  C2  BNZ d   1      -5.908   4.797   1.707  0.00  0.00     0.000 A 
ATOM      3  C3  BNZ d   1      -5.871   5.990   2.373  0.00  0.00     0.000 A 
ATOM      4  C4  BNZ d   1      -5.932   5.999   3.721  0.00  0.00     0.000 A 
ATOM      5  C5  BNZ d   1      -5.999   4.814   4.425  0.00  0.00     0.000 A 
ATOM      6  C6  BNZ d   1      -5.997   3.614   3.753  0.00  0.00     0.000 A 
ENDROOT
TORSDOF 0
ENDMDL
