MODEL 1
REMARK minimizedAffinity 8.03623486
REMARK minimizedRMSD -1
REMARK  0 active torsions:
REMARK  status: ('A' for Active; 'I' for Inactive)
ROOT
ATOM      1  C1  BNZ d   1      -2.093   1.424  -1.443  0.00  0.00     0.000 A 
ATOM      2  C2  BNZ d   1      -1.757   1.177  -2.747  0.00  0.00     0.000 A 
ATOM      3  C3  BNZ d   1      -2.220   0.063  -3.390  0.00  0.00     0.000 A 
ATOM      4  C4  BNZ d   1      -2.984  -0.821  -2.717  0.00  0.00     0.000 A 
ATOM      5  C5  BNZ d   1      -3.324  -0.591  -1.399  0.00  0.00     0.000 A 
ATOM      6  C6  BNZ d   1      -2.888   0.551  -0.767  0.00  0.00     0.000 A 
ENDROOT
TORSDOF 0
ENDMDL
