MODEL 1
REMARK minimizedAffinity 4.85637999
REMARK minimizedRMSD -1
REMARK  0 active torsions:
REMARK  status: ('A' for Active; 'I' for Inactive)
ROOT
ATOM      1  C1  BNZ d   1      -2.304  -0.224  -3.067  0.00  0.00     0.000 A 
ATOM      2  C2  BNZ d   1      -3.424  -0.625  -2.388  0.00  0.00     0.000 A 
ATOM      3  C3  BNZ d   1      -3.586  -0.324  -1.065  0.00  0.00     0.000 A 
ATOM      4  C4  BNZ d   1      -2.612   0.342  -0.412  0.00  0.00     0.000 A 
ATOM      5  C5  BNZ d   1      -1.472   0.745  -1.080  0.00  0.00     0.000 A 
ATOM      6  C6  BNZ d   1      -1.330   0.474  -2.422  0.00  0.00     0.000 A 
ENDROOT
TORSDOF 0
ENDMDL
