MODEL 1
REMARK minimizedAffinity 7.76859236
REMARK minimizedRMSD -1
REMARK  0 active torsions:
REMARK  status: ('A' for Active; 'I' for Inactive)
ROOT
ATOM      1  C1  BNZ d   1       3.440   0.083   0.264  0.00  0.00     0.000 A 
ATOM      2  C2  BNZ d   1       3.117   0.465  -1.011  0.00  0.00     0.000 A 
ATOM      3  C3  BNZ d   1       3.431   1.714  -1.468  0.00  0.00     0.000 A 
ATOM      4  C4  BNZ d   1       4.031   2.593  -0.639  0.00  0.00     0.000 A 
ATOM      5  C5  BNZ d   1       4.354   2.226   0.652  0.00  0.00     0.000 A 
ATOM      6  C6  BNZ d   1       4.072   0.955   1.097  0.00  0.00     0.000 A 
ENDROOT
TORSDOF 0
ENDMDL
