MODEL 1
REMARK minimizedAffinity 5.13664532
REMARK minimizedRMSD -1
REMARK  0 active torsions:
REMARK  status: ('A' for Active; 'I' for Inactive)
ROOT
ATOM      1  C1  BNZ d   1      -2.961   0.118  -0.035  0.00  0.00     0.000 A 
ATOM      2  C2  BNZ d   1      -1.868   0.062  -0.859  0.00  0.00     0.000 A 
ATOM      3  C3  BNZ d   1      -1.982   0.344  -2.192  0.00  0.00     0.000 A 
ATOM      4  C4  BNZ d   1      -3.192   0.641  -2.706  0.00  0.00     0.000 A 
ATOM      5  C5  BNZ d   1      -4.305   0.693  -1.890  0.00  0.00     0.000 A 
ATOM      6  C6  BNZ d   1      -4.180   0.447  -0.542  0.00  0.00     0.000 A 
ENDROOT
TORSDOF 0
ENDMDL
