MODEL 1
REMARK minimizedAffinity -1.03929758
REMARK minimizedRMSD -1
REMARK  1 active torsions:
REMARK  status: ('A' for Active; 'I' for Inactive)
REMARK    1  A    between atoms: C1_2  and  C2_3 
ROOT
ATOM      1  C2  UNL d   1       0.567  -0.632   0.473  0.00  0.00    -0.076 A 
ATOM      2  C3  UNL d   1       1.594  -0.870  -0.457  0.00  0.00     0.004 A 
ATOM      3  C4  UNL d   1       1.353  -0.790  -1.828  0.00  0.00    -0.003 A 
ATOM      4  C5  UNL d   1       0.081  -0.469  -2.290  0.00  0.00     0.000 A 
ATOM      5  C6  UNL d   1      -0.945  -0.213  -1.381  0.00  0.00     0.000 A 
ATOM      6  C7  UNL d   1      -0.715  -0.274   0.004  0.00  0.00    -0.073 A 
ATOM      7  C8  UNL d   1      -1.859   0.007   0.939  0.00  0.00     0.078 C 
ENDROOT
BRANCH   1   8
ATOM      8  C1  UNL d   1       0.881  -0.761   1.946  0.00  0.00     0.053 C 
ATOM      9  C   UNL d   1       2.154  -0.025   2.337  0.00  0.00     0.018 C 
ENDBRANCH   1   8
TORSDOF 1
ENDMDL
