MODEL 1
REMARK minimizedAffinity -3.66459203
REMARK minimizedRMSD -1
REMARK  1 active torsions:
REMARK  status: ('A' for Active; 'I' for Inactive)
REMARK    1  A    between atoms: C1_2  and  C2_3 
ROOT
ATOM      1  C2  UNL d   1      -0.067   0.257  -0.027  0.00  0.00    -0.076 A 
ATOM      2  C3  UNL d   1       1.202   0.731   0.350  0.00  0.00     0.004 A 
ATOM      3  C4  UNL d   1       1.771   0.365   1.568  0.00  0.00    -0.003 A 
ATOM      4  C5  UNL d   1       1.082  -0.483   2.429  0.00  0.00     0.000 A 
ATOM      5  C6  UNL d   1      -0.169  -0.977   2.063  0.00  0.00     0.000 A 
ATOM      6  C7  UNL d   1      -0.751  -0.630   0.831  0.00  0.00    -0.073 A 
ATOM      7  C8  UNL d   1      -2.106  -1.188   0.491  0.00  0.00     0.078 C 
ENDROOT
BRANCH   1   8
ATOM      8  C1  UNL d   1      -0.646   0.710  -1.348  0.00  0.00     0.053 C 
ATOM      9  C   UNL d   1       0.317   1.583  -2.138  0.00  0.00     0.018 C 
ENDBRANCH   1   8
TORSDOF 1
ENDMDL
