MODEL 1
REMARK minimizedAffinity -5.37033463
REMARK minimizedRMSD -1
REMARK  1 active torsions:
REMARK  status: ('A' for Active; 'I' for Inactive)
REMARK    1  A    between atoms: C1_2  and  C2_3 
ROOT
ATOM      1  C2  UNL d   1       0.073  -0.758   0.384  0.00  0.00    -0.076 A 
ATOM      2  C3  UNL d   1       0.011  -0.603   1.779  0.00  0.00     0.004 A 
ATOM      3  C4  UNL d   1       0.993  -1.146   2.606  0.00  0.00    -0.003 A 
ATOM      4  C5  UNL d   1       2.053  -1.854   2.050  0.00  0.00     0.000 A 
ATOM      5  C6  UNL d   1       2.140  -2.002   0.666  0.00  0.00     0.000 A 
ATOM      6  C7  UNL d   1       1.167  -1.446  -0.182  0.00  0.00    -0.073 A 
ATOM      7  C8  UNL d   1       1.308  -1.642  -1.667  0.00  0.00     0.078 C 
ENDROOT
BRANCH   1   8
ATOM      8  C1  UNL d   1      -1.035  -0.169  -0.461  0.00  0.00     0.053 C 
ATOM      9  C   UNL d   1      -0.779   1.285  -0.827  0.00  0.00     0.018 C 
ENDBRANCH   1   8
TORSDOF 1
ENDMDL
