MODEL 1
REMARK minimizedAffinity -4.17412949
REMARK minimizedRMSD -1
REMARK  1 active torsions:
REMARK  status: ('A' for Active; 'I' for Inactive)
REMARK    1  A    between atoms: C1_2  and  C2_3 
ROOT
ATOM      1  C2  UNL d   1       1.180  -1.857   1.137  0.00  0.00    -0.076 A 
ATOM      2  C3  UNL d   1       0.250  -1.461   2.114  0.00  0.00     0.004 A 
ATOM      3  C4  UNL d   1      -0.786  -0.582   1.804  0.00  0.00    -0.003 A 
ATOM      4  C5  UNL d   1      -0.910  -0.084   0.512  0.00  0.00     0.000 A 
ATOM      5  C6  UNL d   1      -0.007  -0.480  -0.475  0.00  0.00     0.000 A 
ATOM      6  C7  UNL d   1       1.033  -1.379  -0.183  0.00  0.00    -0.073 A 
ATOM      7  C8  UNL d   1       1.982  -1.767  -1.284  0.00  0.00     0.078 C 
ENDROOT
BRANCH   1   8
ATOM      8  C1  UNL d   1       2.298  -2.792   1.537  0.00  0.00     0.053 C 
ATOM      9  C   UNL d   1       2.974  -2.370   2.833  0.00  0.00     0.018 C 
ENDBRANCH   1   8
TORSDOF 1
ENDMDL
