MODEL 1
REMARK minimizedAffinity -4.35582829
REMARK minimizedRMSD -1
REMARK  1 active torsions:
REMARK  status: ('A' for Active; 'I' for Inactive)
REMARK    1  A    between atoms: C1_2  and  C2_3 
ROOT
ATOM      1  C2  UNL d   1       0.671  -1.037   0.906  0.00  0.00    -0.076 A 
ATOM      2  C3  UNL d   1       1.748  -1.577   0.182  0.00  0.00     0.004 A 
ATOM      3  C4  UNL d   1       1.727  -1.616  -1.211  0.00  0.00    -0.003 A 
ATOM      4  C5  UNL d   1       0.630  -1.115  -1.903  0.00  0.00     0.000 A 
ATOM      5  C6  UNL d   1      -0.440  -0.560  -1.201  0.00  0.00     0.000 A 
ATOM      6  C7  UNL d   1      -0.428  -0.499   0.203  0.00  0.00    -0.073 A 
ATOM      7  C8  UNL d   1      -1.611   0.105   0.909  0.00  0.00     0.078 C 
ENDROOT
BRANCH   1   8
ATOM      8  C1  UNL d   1       0.737  -1.047   2.417  0.00  0.00     0.053 C 
ATOM      9  C   UNL d   1       1.865  -0.181   2.956  0.00  0.00     0.018 C 
ENDBRANCH   1   8
TORSDOF 1
ENDMDL
