MODEL 1
REMARK minimizedAffinity -5.30316782
REMARK minimizedRMSD -1
REMARK  1 active torsions:
REMARK  status: ('A' for Active; 'I' for Inactive)
REMARK    1  A    between atoms: C1_2  and  C2_3 
ROOT
ATOM      1  C2  UNL d   1       0.291  -0.092   0.067  0.00  0.00    -0.076 A 
ATOM      2  C3  UNL d   1       1.657  -0.425   0.053  0.00  0.00     0.004 A 
ATOM      3  C4  UNL d   1       2.315  -0.803   1.221  0.00  0.00    -0.003 A 
ATOM      4  C5  UNL d   1       1.618  -0.855   2.424  0.00  0.00     0.000 A 
ATOM      5  C6  UNL d   1       0.259  -0.544   2.453  0.00  0.00     0.000 A 
ATOM      6  C7  UNL d   1      -0.424  -0.177   1.281  0.00  0.00    -0.073 A 
ATOM      7  C8  UNL d   1      -1.888   0.153   1.371  0.00  0.00     0.078 C 
ENDROOT
BRANCH   1   8
ATOM      8  C1  UNL d   1      -0.363   0.338  -1.227  0.00  0.00     0.053 C 
ATOM      9  C   UNL d   1      -0.030  -0.591  -2.385  0.00  0.00     0.018 C 
ENDBRANCH   1   8
TORSDOF 1
ENDMDL
