MODEL 1
REMARK minimizedAffinity -3.50906873
REMARK minimizedRMSD -1
REMARK  1 active torsions:
REMARK  status: ('A' for Active; 'I' for Inactive)
REMARK    1  A    between atoms: C1_2  and  C2_3 
ROOT
ATOM      1  C2  UNL d   1      -5.951   3.263  -2.590  0.00  0.00    -0.077 A 
ATOM      2  C3  UNL d   1      -5.993   1.892  -2.881  0.00  0.00     0.002 A 
ATOM      3  C4  UNL d   1      -6.000   1.452  -4.206  0.00  0.00     0.002 A 
ATOM      4  C5  UNL d   1      -5.961   2.375  -5.249  0.00  0.00    -0.004 A 
ATOM      5  C6  UNL d   1      -5.921   3.740  -4.970  0.00  0.00     0.002 A 
ATOM      6  C7  UNL d   1      -5.915   4.182  -3.646  0.00  0.00     0.002 A 
ENDROOT
BRANCH   1   7
ATOM      7  C1  UNL d   1      -5.894   3.739  -1.162  0.00  0.00     0.055 C 
ATOM      8  C   UNL d   1      -5.813   2.569  -0.191  0.00  0.00     0.019 C 
ENDBRANCH   1   7
TORSDOF 1
ENDMDL
