MODEL 1
REMARK minimizedAffinity 2.4542532
REMARK minimizedRMSD -1
REMARK  1 active torsions:
REMARK  status: ('A' for Active; 'I' for Inactive)
REMARK    1  A    between atoms: C1_2  and  C2_3 
ROOT
ATOM      1  C2  UNL d   1      -5.997   2.564  -1.990  0.00  0.00    -0.077 A 
ATOM      2  C3  UNL d   1      -5.999   1.338  -2.670  0.00  0.00     0.002 A 
ATOM      3  C4  UNL d   1      -6.000   1.305  -4.066  0.00  0.00     0.002 A 
ATOM      4  C5  UNL d   1      -5.995   2.493  -4.793  0.00  0.00    -0.004 A 
ATOM      5  C6  UNL d   1      -5.995   3.718  -4.125  0.00  0.00     0.002 A 
ATOM      6  C7  UNL d   1      -5.995   3.753  -2.730  0.00  0.00     0.002 A 
ENDROOT
BRANCH   1   7
ATOM      7  C1  UNL d   1      -5.947   2.601  -0.485  0.00  0.00     0.055 C 
ATOM      8  C   UNL d   1      -5.638   1.228   0.093  0.00  0.00     0.019 C 
ENDBRANCH   1   7
TORSDOF 1
ENDMDL
