MODEL 1
REMARK minimizedAffinity 8.1962347
REMARK minimizedRMSD -1
REMARK  1 active torsions:
REMARK  status: ('A' for Active; 'I' for Inactive)
REMARK    1  A    between atoms: C1_2  and  C2_3 
ROOT
ATOM      1  C2  UNL d   1      -0.460  -3.191  -1.540  0.00  0.00    -0.077 A 
ATOM      2  C3  UNL d   1      -0.125  -2.026  -0.837  0.00  0.00     0.002 A 
ATOM      3  C4  UNL d   1       1.018  -1.988  -0.035  0.00  0.00     0.002 A 
ATOM      4  C5  UNL d   1       1.836  -3.111   0.067  0.00  0.00    -0.004 A 
ATOM      5  C6  UNL d   1       1.510  -4.276  -0.626  0.00  0.00     0.002 A 
ATOM      6  C7  UNL d   1       0.368  -4.316  -1.427  0.00  0.00     0.002 A 
ENDROOT
BRANCH   1   7
ATOM      7  C1  UNL d   1      -1.664  -3.218  -2.444  0.00  0.00     0.055 C 
ATOM      8  C   UNL d   1      -1.275  -2.959  -3.893  0.00  0.00     0.019 C 
ENDBRANCH   1   7
TORSDOF 1
ENDMDL
