MODEL 1
REMARK minimizedAffinity 3.5390811
REMARK minimizedRMSD -1
REMARK  1 active torsions:
REMARK  status: ('A' for Active; 'I' for Inactive)
REMARK    1  A    between atoms: C1_2  and  C2_3 
ROOT
ATOM      1  C2  UNL d   1      -4.559   1.085   2.011  0.00  0.00    -0.077 A 
ATOM      2  C3  UNL d   1      -5.522   1.366   2.991  0.00  0.00     0.002 A 
ATOM      3  C4  UNL d   1      -5.998   0.351   3.824  0.00  0.00     0.002 A 
ATOM      4  C5  UNL d   1      -5.514  -0.948   3.688  0.00  0.00    -0.004 A 
ATOM      5  C6  UNL d   1      -4.558  -1.238   2.716  0.00  0.00     0.002 A 
ATOM      6  C7  UNL d   1      -4.082  -0.225   1.882  0.00  0.00     0.002 A 
ENDROOT
BRANCH   1   7
ATOM      7  C1  UNL d   1      -4.007   2.188   1.145  0.00  0.00     0.055 C 
ATOM      8  C   UNL d   1      -2.571   2.521   1.520  0.00  0.00     0.019 C 
ENDBRANCH   1   7
TORSDOF 1
ENDMDL
