MODEL 1
REMARK minimizedAffinity 5.75233269
REMARK minimizedRMSD -1
REMARK  1 active torsions:
REMARK  status: ('A' for Active; 'I' for Inactive)
REMARK    1  A    between atoms: C1_2  and  C2_3 
ROOT
ATOM      1  C2  UNL d   1      -0.081  -3.622  -1.249  0.00  0.00    -0.077 A 
ATOM      2  C3  UNL d   1      -0.237  -2.256  -0.973  0.00  0.00     0.002 A 
ATOM      3  C4  UNL d   1       0.613  -1.617  -0.068  0.00  0.00     0.002 A 
ATOM      4  C5  UNL d   1       1.627  -2.334   0.564  0.00  0.00    -0.004 A 
ATOM      5  C6  UNL d   1       1.789  -3.693   0.297  0.00  0.00     0.002 A 
ATOM      6  C7  UNL d   1       0.940  -4.334  -0.606  0.00  0.00     0.002 A 
ENDROOT
BRANCH   1   7
ATOM      7  C1  UNL d   1      -0.965  -4.302  -2.262  0.00  0.00     0.055 C 
ATOM      8  C   UNL d   1      -0.874  -3.622  -3.621  0.00  0.00     0.019 C 
ENDBRANCH   1   7
TORSDOF 1
ENDMDL
