MODEL 1
REMARK minimizedAffinity 2.2317152
REMARK minimizedRMSD -1
REMARK  1 active torsions:
REMARK  status: ('A' for Active; 'I' for Inactive)
REMARK    1  A    between atoms: C1_2  and  C2_3 
ROOT
ATOM      1  C2  UNL d   1      -5.970   1.304  -4.429  0.00  0.00    -0.077 A 
ATOM      2  C3  UNL d   1      -5.866   2.538  -5.086  0.00  0.00     0.002 A 
ATOM      3  C4  UNL d   1      -5.793   3.724  -4.354  0.00  0.00     0.002 A 
ATOM      4  C5  UNL d   1      -5.819   3.688  -2.961  0.00  0.00    -0.004 A 
ATOM      5  C6  UNL d   1      -5.925   2.466  -2.298  0.00  0.00     0.002 A 
ATOM      6  C7  UNL d   1      -5.999   1.279  -3.029  0.00  0.00     0.002 A 
ENDROOT
BRANCH   1   7
ATOM      7  C1  UNL d   1      -5.999   0.020  -5.216  0.00  0.00     0.055 C 
ATOM      8  C   UNL d   1      -4.645  -0.275  -5.844  0.00  0.00     0.019 C 
ENDBRANCH   1   7
TORSDOF 1
ENDMDL
