MODEL 1
REMARK minimizedAffinity -0.182307452
REMARK minimizedRMSD -1
REMARK  1 active torsions:
REMARK  status: ('A' for Active; 'I' for Inactive)
REMARK    1  A    between atoms: C1_2  and  C2_3 
ROOT
ATOM      1  C2  UNL d   1      -5.985   2.862  -3.225  0.00  0.00    -0.077 A 
ATOM      2  C3  UNL d   1      -5.990   1.465  -3.342  0.00  0.00     0.002 A 
ATOM      3  C4  UNL d   1      -5.999   0.862  -4.602  0.00  0.00     0.002 A 
ATOM      4  C5  UNL d   1      -5.999   1.648  -5.752  0.00  0.00    -0.004 A 
ATOM      5  C6  UNL d   1      -5.996   3.038  -5.646  0.00  0.00     0.002 A 
ATOM      6  C7  UNL d   1      -5.988   3.642  -4.388  0.00  0.00     0.002 A 
ENDROOT
BRANCH   1   7
ATOM      7  C1  UNL d   1      -5.925   3.513  -1.868  0.00  0.00     0.055 C 
ATOM      8  C   UNL d   1      -5.634   2.494  -0.776  0.00  0.00     0.019 C 
ENDBRANCH   1   7
TORSDOF 1
ENDMDL
