MODEL 1
REMARK minimizedAffinity 0.0145372562
REMARK minimizedRMSD -1
REMARK  0 active torsions:
REMARK  status: ('A' for Active; 'I' for Inactive)
ROOT
ATOM      1  N1  IND d   1       1.706  -2.472  -0.821  0.00  0.00    -0.196 N 
ATOM      2  C2  IND d   1       1.899  -2.209  -2.149  0.00  0.00     0.054 A 
ATOM      3  C3  IND d   1       1.815  -0.880  -2.382  0.00  0.00    -0.031 A 
ATOM      4  C4  IND d   1       1.470   1.053  -0.717  0.00  0.00     0.051 A 
ATOM      5  C5  IND d   1       1.209   1.307   0.600  0.00  0.00    -0.031 A 
ATOM      6  C6  IND d   1       1.101   0.294   1.530  0.00  0.00     0.015 A 
ATOM      7  C7  IND d   1       1.262  -1.016   1.178  0.00  0.00    -0.016 A 
ATOM      8  C8  IND d   1       1.520  -1.278  -0.160  0.00  0.00    -0.047 A 
ATOM      9  C9  IND d   1       1.589  -0.257  -1.116  0.00  0.00    -0.096 A 
ATOM     10  HN1 IND d   1       1.702  -3.253  -0.460  0.00  0.00     0.298 HD
ENDROOT
TORSDOF 0
ENDMDL
