MODEL 1
REMARK minimizedAffinity -1.76342714
REMARK minimizedRMSD -1
REMARK  0 active torsions:
REMARK  status: ('A' for Active; 'I' for Inactive)
ROOT
ATOM      1  N1  IND d   1      -2.719   4.185  -5.606  0.00  0.00    -0.196 N 
ATOM      2  C2  IND d   1      -1.581   3.957  -4.883  0.00  0.00     0.054 A 
ATOM      3  C3  IND d   1      -1.886   3.396  -3.691  0.00  0.00    -0.031 A 
ATOM      4  C4  IND d   1      -4.175   2.671  -2.762  0.00  0.00     0.051 A 
ATOM      5  C5  IND d   1      -5.512   2.707  -3.043  0.00  0.00    -0.031 A 
ATOM      6  C6  IND d   1      -5.996   3.246  -4.217  0.00  0.00     0.015 A 
ATOM      7  C7  IND d   1      -5.156   3.761  -5.164  0.00  0.00    -0.016 A 
ATOM      8  C8  IND d   1      -3.798   3.733  -4.879  0.00  0.00    -0.047 A 
ATOM      9  C9  IND d   1      -3.304   3.226  -3.671  0.00  0.00    -0.096 A 
ATOM     10  HN1 IND d   1      -2.754   4.549  -6.384  0.00  0.00     0.298 HD
ENDROOT
TORSDOF 0
ENDMDL
