MODEL 1
REMARK minimizedAffinity 1.0345726
REMARK minimizedRMSD -1
REMARK  0 active torsions:
REMARK  status: ('A' for Active; 'I' for Inactive)
ROOT
ATOM      1  N1  IND d   1       3.227   0.440  -1.377  0.00  0.00    -0.196 N 
ATOM      2  C2  IND d   1       3.646  -0.772  -1.849  0.00  0.00     0.054 A 
ATOM      3  C3  IND d   1       2.956  -1.772  -1.257  0.00  0.00    -0.031 A 
ATOM      4  C4  IND d   1       1.024  -1.644   0.439  0.00  0.00     0.051 A 
ATOM      5  C5  IND d   1       0.313  -0.756   1.197  0.00  0.00    -0.031 A 
ATOM      6  C6  IND d   1       0.540   0.603   1.133  0.00  0.00     0.015 A 
ATOM      7  C7  IND d   1       1.483   1.129   0.295  0.00  0.00    -0.016 A 
ATOM      8  C8  IND d   1       2.211   0.230  -0.471  0.00  0.00    -0.047 A 
ATOM      9  C9  IND d   1       2.014  -1.154  -0.378  0.00  0.00    -0.096 A 
ATOM     10  HN1 IND d   1       3.544   1.205  -1.608  0.00  0.00     0.298 HD
ENDROOT
TORSDOF 0
ENDMDL
