MODEL 1
REMARK minimizedAffinity 7.67395401
REMARK minimizedRMSD -1
REMARK  0 active torsions:
REMARK  status: ('A' for Active; 'I' for Inactive)
ROOT
ATOM      1  N1  IND d   1      -0.903   0.062   2.901  0.00  0.00    -0.196 N 
ATOM      2  C2  IND d   1      -1.844  -0.922   2.776  0.00  0.00     0.054 A 
ATOM      3  C3  IND d   1      -1.426  -1.864   1.901  0.00  0.00    -0.031 A 
ATOM      4  C4  IND d   1       0.809  -2.044   0.635  0.00  0.00     0.051 A 
ATOM      5  C5  IND d   1       1.970  -1.364   0.399  0.00  0.00    -0.031 A 
ATOM      6  C6  IND d   1       2.240  -0.151   0.998  0.00  0.00     0.015 A 
ATOM      7  C7  IND d   1       1.359   0.425   1.869  0.00  0.00    -0.016 A 
ATOM      8  C8  IND d   1       0.175  -0.260   2.107  0.00  0.00    -0.047 A 
ATOM      9  C9  IND d   1      -0.122  -1.471   1.468  0.00  0.00    -0.096 A 
ATOM     10  HN1 IND d   1      -0.974   0.764   3.393  0.00  0.00     0.298 HD
ENDROOT
TORSDOF 0
ENDMDL
