MODEL 1
REMARK minimizedAffinity 3.60344553
REMARK minimizedRMSD -1
REMARK  0 active torsions:
REMARK  status: ('A' for Active; 'I' for Inactive)
ROOT
ATOM      1  N1  IND d   1       3.099   1.499  -1.003  0.00  0.00    -0.196 N 
ATOM      2  C2  IND d   1       3.705   0.849  -2.042  0.00  0.00     0.054 A 
ATOM      3  C3  IND d   1       3.500  -0.484  -1.946  0.00  0.00    -0.031 A 
ATOM      4  C4  IND d   1       2.116  -1.806  -0.224  0.00  0.00     0.051 A 
ATOM      5  C5  IND d   1       1.406  -1.653   0.934  0.00  0.00    -0.031 A 
ATOM      6  C6  IND d   1       1.218  -0.416   1.515  0.00  0.00     0.015 A 
ATOM      7  C7  IND d   1       1.726   0.721   0.952  0.00  0.00    -0.016 A 
ATOM      8  C8  IND d   1       2.453   0.568  -0.220  0.00  0.00    -0.047 A 
ATOM      9  C9  IND d   1       2.684  -0.690  -0.792  0.00  0.00    -0.096 A 
ATOM     10  HN1 IND d   1       3.118   2.347  -0.863  0.00  0.00     0.298 HD
ENDROOT
TORSDOF 0
ENDMDL
