MODEL 1
REMARK minimizedAffinity 4.92740488
REMARK minimizedRMSD -1
REMARK  0 active torsions:
REMARK  status: ('A' for Active; 'I' for Inactive)
ROOT
ATOM      1  N1  IND d   1       0.768  -2.116   1.150  0.00  0.00    -0.196 N 
ATOM      2  C2  IND d   1       0.069  -1.241   1.935  0.00  0.00     0.054 A 
ATOM      3  C3  IND d   1       0.466   0.028   1.693  0.00  0.00    -0.031 A 
ATOM      4  C4  IND d   1       2.173   0.909  -0.021  0.00  0.00     0.051 A 
ATOM      5  C5  IND d   1       3.093   0.487  -0.939  0.00  0.00    -0.031 A 
ATOM      6  C6  IND d   1       3.287  -0.851  -1.216  0.00  0.00     0.015 A 
ATOM      7  C7  IND d   1       2.556  -1.820  -0.590  0.00  0.00    -0.016 A 
ATOM      8  C8  IND d   1       1.627  -1.396   0.349  0.00  0.00    -0.047 A 
ATOM      9  C9  IND d   1       1.455  -0.042   0.665  0.00  0.00    -0.096 A 
ATOM     10  HN1 IND d   1       0.684  -2.972   1.156  0.00  0.00     0.298 HD
ENDROOT
TORSDOF 0
ENDMDL
