MODEL 1
REMARK minimizedAffinity 6.87554359
REMARK minimizedRMSD -1
REMARK  0 active torsions:
REMARK  status: ('A' for Active; 'I' for Inactive)
ROOT
ATOM      1  N1  IND d   1       1.370  -2.160   0.171  0.00  0.00    -0.196 N 
ATOM      2  C2  IND d   1       0.302  -1.738   0.913  0.00  0.00     0.054 A 
ATOM      3  C3  IND d   1       0.310  -0.391   1.023  0.00  0.00    -0.031 A 
ATOM      4  C4  IND d   1       1.920   1.327  -0.019  0.00  0.00     0.051 A 
ATOM      5  C5  IND d   1       3.073   1.419  -0.747  0.00  0.00    -0.031 A 
ATOM      6  C6  IND d   1       3.728   0.300  -1.219  0.00  0.00     0.015 A 
ATOM      7  C7  IND d   1       3.247  -0.958  -0.988  0.00  0.00    -0.016 A 
ATOM      8  C8  IND d   1       2.081  -1.055  -0.243  0.00  0.00    -0.047 A 
ATOM      9  C9  IND d   1       1.434   0.075   0.275  0.00  0.00    -0.096 A 
ATOM     10  HN1 IND d   1       1.564  -2.979  -0.008  0.00  0.00     0.298 HD
ENDROOT
TORSDOF 0
ENDMDL
