MODEL 1
REMARK minimizedAffinity 3.41148186
REMARK minimizedRMSD -1
REMARK  0 active torsions:
REMARK  status: ('A' for Active; 'I' for Inactive)
ROOT
ATOM      1  N1  IND d   1      -0.475   0.020   2.175  0.00  0.00    -0.196 N 
ATOM      2  C2  IND d   1      -1.115  -1.187   2.191  0.00  0.00     0.054 A 
ATOM      3  C3  IND d   1      -0.548  -2.032   1.301  0.00  0.00    -0.031 A 
ATOM      4  C4  IND d   1       1.503  -1.676  -0.214  0.00  0.00     0.051 A 
ATOM      5  C5  IND d   1       2.400  -0.723  -0.606  0.00  0.00    -0.031 A 
ATOM      6  C6  IND d   1       2.386   0.552  -0.078  0.00  0.00     0.015 A 
ATOM      7  C7  IND d   1       1.477   0.919   0.873  0.00  0.00    -0.016 A 
ATOM      8  C8  IND d   1       0.561  -0.044   1.269  0.00  0.00    -0.047 A 
ATOM      9  C9  IND d   1       0.543  -1.327   0.706  0.00  0.00    -0.096 A 
ATOM     10  HN1 IND d   1      -0.684   0.705   2.651  0.00  0.00     0.298 HD
ENDROOT
TORSDOF 0
ENDMDL
