MODEL 1
REMARK minimizedAffinity -1.40200055
REMARK minimizedRMSD -1
REMARK  0 active torsions:
REMARK  status: ('A' for Active; 'I' for Inactive)
ROOT
ATOM      1  N1  IND d   1       0.128  -2.383   1.639  0.00  0.00    -0.196 N 
ATOM      2  C2  IND d   1      -0.554  -1.591   2.520  0.00  0.00     0.054 A 
ATOM      3  C3  IND d   1      -0.332  -0.285   2.248  0.00  0.00    -0.031 A 
ATOM      4  C4  IND d   1       1.034   0.779   0.343  0.00  0.00     0.051 A 
ATOM      5  C5  IND d   1       1.869   0.462  -0.691  0.00  0.00    -0.031 A 
ATOM      6  C6  IND d   1       2.170  -0.846  -1.010  0.00  0.00     0.015 A 
ATOM      7  C7  IND d   1       1.636  -1.891  -0.310  0.00  0.00    -0.016 A 
ATOM      8  C8  IND d   1       0.794  -1.572   0.746  0.00  0.00    -0.047 A 
ATOM      9  C9  IND d   1       0.518  -0.246   1.101  0.00  0.00    -0.096 A 
ATOM     10  HN1 IND d   1       0.140  -3.242   1.643  0.00  0.00     0.298 HD
ENDROOT
TORSDOF 0
ENDMDL
