MODEL 1
REMARK minimizedAffinity 1.84969449
REMARK minimizedRMSD -1
REMARK  0 active torsions:
REMARK  status: ('A' for Active; 'I' for Inactive)
ROOT
ATOM      1  N1  IND d   1       3.177  -0.531  -1.490  0.00  0.00    -0.196 N 
ATOM      2  C2  IND d   1       3.158  -1.874  -1.748  0.00  0.00     0.054 A 
ATOM      3  C3  IND d   1       2.196  -2.479  -1.015  0.00  0.00    -0.031 A 
ATOM      4  C4  IND d   1       0.473  -1.447   0.594  0.00  0.00     0.051 A 
ATOM      5  C5  IND d   1       0.120  -0.264   1.181  0.00  0.00    -0.031 A 
ATOM      6  C6  IND d   1       0.780   0.915   0.899  0.00  0.00     0.015 A 
ATOM      7  C7  IND d   1       1.815   0.956   0.008  0.00  0.00    -0.016 A 
ATOM      8  C8  IND d   1       2.180  -0.244  -0.584  0.00  0.00    -0.047 A 
ATOM      9  C9  IND d   1       1.542  -1.451  -0.271  0.00  0.00    -0.096 A 
ATOM     10  HN1 IND d   1       3.721   0.038  -1.836  0.00  0.00     0.298 HD
ENDROOT
TORSDOF 0
ENDMDL
