MODEL 1
REMARK minimizedAffinity 3.86856842
REMARK minimizedRMSD -1
REMARK  0 active torsions:
REMARK  status: ('A' for Active; 'I' for Inactive)
ROOT
ATOM      1  N1  IND d   1       0.303   0.455   2.594  0.00  0.00    -0.196 N 
ATOM      2  C2  IND d   1      -0.265  -0.757   2.872  0.00  0.00     0.054 A 
ATOM      3  C3  IND d   1      -0.015  -1.633   1.873  0.00  0.00    -0.031 A 
ATOM      4  C4  IND d   1       1.388  -1.322  -0.263  0.00  0.00     0.051 A 
ATOM      5  C5  IND d   1       2.075  -0.378  -0.972  0.00  0.00    -0.031 A 
ATOM      6  C6  IND d   1       2.212   0.918  -0.518  0.00  0.00     0.015 A 
ATOM      7  C7  IND d   1       1.673   1.317   0.672  0.00  0.00    -0.016 A 
ATOM      8  C8  IND d   1       0.969   0.362   1.392  0.00  0.00    -0.047 A 
ATOM      9  C9  IND d   1       0.791  -0.944   0.916  0.00  0.00    -0.096 A 
ATOM     10  HN1 IND d   1       0.252   1.158   3.088  0.00  0.00     0.298 HD
ENDROOT
TORSDOF 0
ENDMDL
