MODEL 1
REMARK minimizedAffinity 5.21792793
REMARK minimizedRMSD -1
REMARK  0 active torsions:
REMARK  status: ('A' for Active; 'I' for Inactive)
ROOT
ATOM      1  N1  IND d   1       2.086   0.370  -0.293  0.00  0.00    -0.196 N 
ATOM      2  C2  IND d   1       2.252  -0.644  -1.195  0.00  0.00     0.054 A 
ATOM      3  C3  IND d   1       1.514  -1.718  -0.836  0.00  0.00    -0.031 A 
ATOM      4  C4  IND d   1      -0.117  -1.996   1.137  0.00  0.00     0.051 A 
ATOM      5  C5  IND d   1      -0.575  -1.357   2.254  0.00  0.00    -0.031 A 
ATOM      6  C6  IND d   1      -0.163  -0.082   2.585  0.00  0.00     0.015 A 
ATOM      7  C7  IND d   1       0.718   0.608   1.801  0.00  0.00    -0.016 A 
ATOM      8  C8  IND d   1       1.190  -0.041   0.669  0.00  0.00    -0.047 A 
ATOM      9  C9  IND d   1       0.808  -1.351   0.351  0.00  0.00    -0.096 A 
ATOM     10  HN1 IND d   1       2.476   1.136  -0.322  0.00  0.00     0.298 HD
ENDROOT
TORSDOF 0
ENDMDL
