MODEL 1
REMARK minimizedAffinity -2.88574862
REMARK minimizedRMSD -1
REMARK  0 active torsions:
REMARK  status: ('A' for Active; 'I' for Inactive)
ROOT
ATOM      1  N1  IND d   1      -0.260  -0.017   1.830  0.00  0.00    -0.196 N 
ATOM      2  C2  IND d   1      -0.773  -1.278   1.959  0.00  0.00     0.054 A 
ATOM      3  C3  IND d   1      -0.218  -2.107   1.046  0.00  0.00    -0.031 A 
ATOM      4  C4  IND d   1       1.624  -1.632  -0.688  0.00  0.00     0.051 A 
ATOM      5  C5  IND d   1       2.378  -0.617  -1.208  0.00  0.00    -0.031 A 
ATOM      6  C6  IND d   1       2.292   0.674  -0.730  0.00  0.00     0.015 A 
ATOM      7  C7  IND d   1       1.452   0.999   0.297  0.00  0.00    -0.016 A 
ATOM      8  C8  IND d   1       0.680  -0.027   0.823  0.00  0.00    -0.047 A 
ATOM      9  C9  IND d   1       0.732  -1.331   0.314  0.00  0.00    -0.096 A 
ATOM     10  HN1 IND d   1      -0.487   0.667   2.299  0.00  0.00     0.298 HD
ENDROOT
TORSDOF 0
ENDMDL
