MODEL 1
REMARK minimizedAffinity 8.63598728
REMARK minimizedRMSD -1
REMARK  0 active torsions:
REMARK  status: ('A' for Active; 'I' for Inactive)
ROOT
ATOM      1  N1  IND d   1      -1.879   4.682  -3.101  0.00  0.00    -0.196 N 
ATOM      2  C2  IND d   1      -0.674   5.285  -2.873  0.00  0.00     0.054 A 
ATOM      3  C3  IND d   1       0.336   4.410  -3.077  0.00  0.00    -0.031 A 
ATOM      4  C4  IND d   1       0.247   1.968  -3.884  0.00  0.00     0.051 A 
ATOM      5  C5  IND d   1      -0.631   0.965  -4.187  0.00  0.00    -0.031 A 
ATOM      6  C6  IND d   1      -1.997   1.154  -4.145  0.00  0.00     0.015 A 
ATOM      7  C7  IND d   1      -2.539   2.362  -3.808  0.00  0.00    -0.016 A 
ATOM      8  C8  IND d   1      -1.651   3.381  -3.493  0.00  0.00    -0.047 A 
ATOM      9  C9  IND d   1      -0.264   3.183  -3.493  0.00  0.00    -0.096 A 
ATOM     10  HN1 IND d   1      -2.650   5.052  -3.013  0.00  0.00     0.298 HD
ENDROOT
TORSDOF 0
ENDMDL
