MODEL 1
REMARK minimizedAffinity 9.31816292
REMARK minimizedRMSD -1
REMARK  0 active torsions:
REMARK  status: ('A' for Active; 'I' for Inactive)
ROOT
ATOM      1  N1  IND d   1      -0.049   4.978  -3.018  0.00  0.00    -0.196 N 
ATOM      2  C2  IND d   1      -1.177   5.563  -2.513  0.00  0.00     0.054 A 
ATOM      3  C3  IND d   1      -2.224   4.711  -2.591  0.00  0.00    -0.031 A 
ATOM      4  C4  IND d   1      -2.291   2.274  -3.418  0.00  0.00     0.051 A 
ATOM      5  C5  IND d   1      -1.516   1.315  -4.008  0.00  0.00    -0.031 A 
ATOM      6  C6  IND d   1      -0.186   1.531  -4.301  0.00  0.00     0.015 A 
ATOM      7  C7  IND d   1       0.426   2.716  -4.004  0.00  0.00    -0.016 A 
ATOM      8  C8  IND d   1      -0.359   3.695  -3.412  0.00  0.00    -0.047 A 
ATOM      9  C9  IND d   1      -1.721   3.496  -3.150  0.00  0.00    -0.096 A 
ATOM     10  HN1 IND d   1       0.724   5.349  -3.080  0.00  0.00     0.298 HD
ENDROOT
TORSDOF 0
ENDMDL
