MODEL 1
REMARK minimizedAffinity 4.48471022
REMARK minimizedRMSD -1
REMARK  0 active torsions:
REMARK  status: ('A' for Active; 'I' for Inactive)
ROOT
ATOM      1  N1  IND d   1      -1.188   0.782  -5.250  0.00  0.00    -0.196 N 
ATOM      2  C2  IND d   1       0.072   0.833  -5.777  0.00  0.00     0.054 A 
ATOM      3  C3  IND d   1       0.708   1.953  -5.366  0.00  0.00    -0.031 A 
ATOM      4  C4  IND d   1      -0.090   3.787  -3.745  0.00  0.00     0.051 A 
ATOM      5  C5  IND d   1      -1.184   4.195  -3.035  0.00  0.00    -0.031 A 
ATOM      6  C6  IND d   1      -2.358   3.470  -3.023  0.00  0.00     0.015 A 
ATOM      7  C7  IND d   1      -2.479   2.299  -3.717  0.00  0.00    -0.016 A 
ATOM      8  C8  IND d   1      -1.372   1.885  -4.445  0.00  0.00    -0.047 A 
ATOM      9  C9  IND d   1      -0.192   2.639  -4.494  0.00  0.00    -0.096 A 
ATOM     10  HN1 IND d   1      -1.769   0.164  -5.396  0.00  0.00     0.298 HD
ENDROOT
TORSDOF 0
ENDMDL
