MODEL 1
REMARK minimizedAffinity 6.67837381
REMARK minimizedRMSD -1
REMARK  0 active torsions:
REMARK  status: ('A' for Active; 'I' for Inactive)
ROOT
ATOM      1  N1  IND d   1       2.261  -1.793  -0.853  0.00  0.00    -0.196 N 
ATOM      2  C2  IND d   1       1.049  -2.349  -0.555  0.00  0.00     0.054 A 
ATOM      3  C3  IND d   1       0.410  -1.613   0.382  0.00  0.00    -0.031 A 
ATOM      4  C4  IND d   1       1.125   0.598   1.491  0.00  0.00     0.051 A 
ATOM      5  C5  IND d   1       2.170   1.476   1.568  0.00  0.00    -0.031 A 
ATOM      6  C6  IND d   1       3.320   1.307   0.826  0.00  0.00     0.015 A 
ATOM      7  C7  IND d   1       3.465   0.256  -0.035  0.00  0.00    -0.016 A 
ATOM      8  C8  IND d   1       2.410  -0.642  -0.110  0.00  0.00    -0.047 A 
ATOM      9  C9  IND d   1       1.257  -0.499   0.673  0.00  0.00    -0.096 A 
ATOM     10  HN1 IND d   1       2.835  -2.109  -1.409  0.00  0.00     0.298 HD
ENDROOT
TORSDOF 0
ENDMDL
