MODEL 1
REMARK minimizedAffinity 3.40458822
REMARK minimizedRMSD -1
REMARK  0 active torsions:
REMARK  status: ('A' for Active; 'I' for Inactive)
ROOT
ATOM      1  N1  IND d   1       3.378  -0.739  -1.713  0.00  0.00    -0.196 N 
ATOM      2  C2  IND d   1       3.258  -2.076  -1.969  0.00  0.00     0.054 A 
ATOM      3  C3  IND d   1       2.241  -2.603  -1.250  0.00  0.00    -0.031 A 
ATOM      4  C4  IND d   1       0.578  -1.435   0.330  0.00  0.00     0.051 A 
ATOM      5  C5  IND d   1       0.309  -0.226   0.909  0.00  0.00    -0.031 A 
ATOM      6  C6  IND d   1       1.064   0.896   0.636  0.00  0.00     0.015 A 
ATOM      7  C7  IND d   1       2.112   0.855  -0.239  0.00  0.00    -0.016 A 
ATOM      8  C8  IND d   1       2.392  -0.372  -0.823  0.00  0.00    -0.047 A 
ATOM      9  C9  IND d   1       1.656  -1.525  -0.518  0.00  0.00    -0.096 A 
ATOM     10  HN1 IND d   1       3.970  -0.215  -2.051  0.00  0.00     0.298 HD
ENDROOT
TORSDOF 0
ENDMDL
