MODEL 1
REMARK minimizedAffinity -0.164141119
REMARK minimizedRMSD -1
REMARK  0 active torsions:
REMARK  status: ('A' for Active; 'I' for Inactive)
ROOT
ATOM      1  N1  IND d   1       1.624  -1.999   0.310  0.00  0.00    -0.196 N 
ATOM      2  C2  IND d   1       0.784  -1.286   1.119  0.00  0.00     0.054 A 
ATOM      3  C3  IND d   1       0.915   0.039   0.881  0.00  0.00    -0.031 A 
ATOM      4  C4  IND d   1       2.373   1.252  -0.860  0.00  0.00     0.051 A 
ATOM      5  C5  IND d   1       3.337   1.027  -1.802  0.00  0.00    -0.031 A 
ATOM      6  C6  IND d   1       3.787  -0.244  -2.096  0.00  0.00     0.015 A 
ATOM      7  C7  IND d   1       3.278  -1.343  -1.464  0.00  0.00    -0.016 A 
ATOM      8  C8  IND d   1       2.304  -1.118  -0.502  0.00  0.00    -0.047 A 
ATOM      9  C9  IND d   1       1.874   0.173  -0.169  0.00  0.00    -0.096 A 
ATOM     10  HN1 IND d   1       1.713  -2.854   0.309  0.00  0.00     0.298 HD
ENDROOT
TORSDOF 0
ENDMDL
