MODEL 1
REMARK minimizedAffinity -3.29776597
REMARK minimizedRMSD -1
REMARK  0 active torsions:
REMARK  status: ('A' for Active; 'I' for Inactive)
ROOT
ATOM      1  C4' PXY d   1      -0.410  -0.652   0.846  0.00  0.00     0.077 C 
ATOM      2  C1' PXY d   1       3.881  -4.306  -0.438  0.00  0.00     0.077 C 
ATOM      3  C1  PXY d   1       2.764  -3.340  -0.096  0.00  0.00    -0.082 A 
ATOM      4  C2  PXY d   1       1.535  -3.797   0.083  0.00  0.00     0.003 A 
ATOM      5  C3  PXY d   1       0.508  -2.932   0.360  0.00  0.00     0.003 A 
ATOM      6  C4  PXY d   1       0.750  -1.593   0.509  0.00  0.00    -0.082 A 
ATOM      7  C5  PXY d   1       2.003  -1.120   0.339  0.00  0.00     0.003 A 
ATOM      8  C6  PXY d   1       3.025  -2.009   0.016  0.00  0.00     0.003 A 
ENDROOT
TORSDOF 0
ENDMDL
