MODEL 1
REMARK minimizedAffinity 5.48724794
REMARK minimizedRMSD -1
REMARK  0 active torsions:
REMARK  status: ('A' for Active; 'I' for Inactive)
ROOT
ATOM      1  C4' PXY d   1       3.830  -4.204  -0.613  0.00  0.00     0.077 C 
ATOM      2  C1' PXY d   1      -0.930  -1.191   0.684  0.00  0.00     0.077 C 
ATOM      3  C1  PXY d   1       0.311  -1.992   0.343  0.00  0.00    -0.082 A 
ATOM      4  C2  PXY d   1       1.495  -1.573   0.759  0.00  0.00     0.003 A 
ATOM      5  C3  PXY d   1       2.631  -2.268   0.432  0.00  0.00     0.003 A 
ATOM      6  C4  PXY d   1       2.549  -3.433  -0.284  0.00  0.00    -0.082 A 
ATOM      7  C5  PXY d   1       1.343  -3.872  -0.703  0.00  0.00     0.003 A 
ATOM      8  C6  PXY d   1       0.207  -3.130  -0.396  0.00  0.00     0.003 A 
ENDROOT
TORSDOF 0
ENDMDL
