MODEL 1
REMARK minimizedAffinity 1.81022298
REMARK minimizedRMSD -1
REMARK  0 active torsions:
REMARK  status: ('A' for Active; 'I' for Inactive)
ROOT
ATOM      1  C4' PXY d   1       4.062  -0.936   2.206  0.00  0.00     0.077 C 
ATOM      2  C1' PXY d   1      -1.498  -0.632   0.652  0.00  0.00     0.077 C 
ATOM      3  C1  PXY d   1      -0.043  -0.704   1.070  0.00  0.00    -0.082 A 
ATOM      4  C2  PXY d   1       0.884  -0.986   0.168  0.00  0.00     0.003 A 
ATOM      5  C3  PXY d   1       2.201  -1.087   0.534  0.00  0.00     0.003 A 
ATOM      6  C4  PXY d   1       2.581  -0.844   1.827  0.00  0.00    -0.082 A 
ATOM      7  C5  PXY d   1       1.643  -0.545   2.751  0.00  0.00     0.003 A 
ATOM      8  C6  PXY d   1       0.306  -0.488   2.367  0.00  0.00     0.003 A 
ENDROOT
TORSDOF 0
ENDMDL
