MODEL 1
REMARK minimizedAffinity -0.797393441
REMARK minimizedRMSD -1
REMARK  0 active torsions:
REMARK  status: ('A' for Active; 'I' for Inactive)
ROOT
ATOM      1  C4' PXY d   1       5.956   4.485  -2.195  0.00  0.00     0.077 C 
ATOM      2  C1' PXY d   1       2.973   6.000   2.519  0.00  0.00     0.077 C 
ATOM      3  C1  PXY d   1       3.765   5.610   1.287  0.00  0.00    -0.082 A 
ATOM      4  C2  PXY d   1       3.127   5.257   0.183  0.00  0.00     0.003 A 
ATOM      5  C3  PXY d   1       3.828   4.871  -0.930  0.00  0.00     0.003 A 
ATOM      6  C4  PXY d   1       5.197   4.896  -0.930  0.00  0.00    -0.082 A 
ATOM      7  C5  PXY d   1       5.856   5.265   0.189  0.00  0.00     0.003 A 
ATOM      8  C6  PXY d   1       5.126   5.614   1.322  0.00  0.00     0.003 A 
ENDROOT
TORSDOF 0
ENDMDL
