MODEL 1
REMARK minimizedAffinity 1.43916714
REMARK minimizedRMSD -1
REMARK  0 active torsions:
REMARK  status: ('A' for Active; 'I' for Inactive)
ROOT
ATOM      1  C4' PXY d   1       2.964   1.303   2.154  0.00  0.00     0.077 C 
ATOM      2  C1' PXY d   1       0.217  -3.337   0.071  0.00  0.00     0.077 C 
ATOM      3  C1  PXY d   1       0.949  -2.126   0.615  0.00  0.00    -0.082 A 
ATOM      4  C2  PXY d   1       0.337  -1.320   1.467  0.00  0.00     0.003 A 
ATOM      5  C3  PXY d   1       0.973  -0.203   1.944  0.00  0.00     0.003 A 
ATOM      6  C4  PXY d   1       2.267   0.063   1.587  0.00  0.00    -0.082 A 
ATOM      7  C5  PXY d   1       2.903  -0.761   0.726  0.00  0.00     0.003 A 
ATOM      8  C6  PXY d   1       2.225  -1.867   0.221  0.00  0.00     0.003 A 
ENDROOT
TORSDOF 0
ENDMDL
