MODEL 1
REMARK minimizedAffinity 0.562196553
REMARK minimizedRMSD -1
REMARK  0 active torsions:
REMARK  status: ('A' for Active; 'I' for Inactive)
ROOT
ATOM      1  C4' PXY d   1      -2.157  -2.995   0.746  0.00  0.00     0.077 C 
ATOM      2  C1' PXY d   1       2.984  -0.374   0.402  0.00  0.00     0.077 C 
ATOM      3  C1  PXY d   1       1.639  -1.069   0.482  0.00  0.00    -0.082 A 
ATOM      4  C2  PXY d   1       0.609  -0.440   1.025  0.00  0.00     0.003 A 
ATOM      5  C3  PXY d   1      -0.606  -1.066   1.134  0.00  0.00     0.003 A 
ATOM      6  C4  PXY d   1      -0.783  -2.329   0.635  0.00  0.00    -0.082 A 
ATOM      7  C5  PXY d   1       0.261  -2.973   0.070  0.00  0.00     0.003 A 
ATOM      8  C6  PXY d   1       1.496  -2.336   0.006  0.00  0.00     0.003 A 
ENDROOT
TORSDOF 0
ENDMDL
