MODEL 1
REMARK minimizedAffinity 0.670890868
REMARK minimizedRMSD -1
REMARK  0 active torsions:
REMARK  status: ('A' for Active; 'I' for Inactive)
ROOT
ATOM      1  C4' PXY d   1       4.729   4.188  -2.185  0.00  0.00     0.077 C 
ATOM      2  C1' PXY d   1       4.490   5.997   3.300  0.00  0.00     0.077 C 
ATOM      3  C1  PXY d   1       4.560   5.533   1.859  0.00  0.00    -0.082 A 
ATOM      4  C2  PXY d   1       3.650   4.689   1.399  0.00  0.00     0.003 A 
ATOM      5  C3  PXY d   1       3.717   4.235   0.107  0.00  0.00     0.003 A 
ATOM      6  C4  PXY d   1       4.693   4.690  -0.739  0.00  0.00    -0.082 A 
ATOM      7  C5  PXY d   1       5.618   5.559  -0.280  0.00  0.00     0.003 A 
ATOM      8  C6  PXY d   1       5.558   5.976   1.047  0.00  0.00     0.003 A 
ENDROOT
TORSDOF 0
ENDMDL
