MODEL 1
REMARK minimizedAffinity -0.261874408
REMARK minimizedRMSD -1
REMARK  0 active torsions:
REMARK  status: ('A' for Active; 'I' for Inactive)
ROOT
ATOM      1  C4' PXY d   1      -0.611  -0.814   0.451  0.00  0.00     0.077 C 
ATOM      2  C1' PXY d   1       3.716  -4.624   0.026  0.00  0.00     0.077 C 
ATOM      3  C1  PXY d   1       2.588  -3.618   0.147  0.00  0.00    -0.082 A 
ATOM      4  C2  PXY d   1       1.358  -3.971  -0.188  0.00  0.00     0.003 A 
ATOM      5  C3  PXY d   1       0.331  -3.065  -0.116  0.00  0.00     0.003 A 
ATOM      6  C4  PXY d   1       0.557  -1.799   0.355  0.00  0.00    -0.082 A 
ATOM      7  C5  PXY d   1       1.808  -1.434   0.708  0.00  0.00     0.003 A 
ATOM      8  C6  PXY d   1       2.843  -2.357   0.588  0.00  0.00     0.003 A 
ENDROOT
TORSDOF 0
ENDMDL
