MODEL 1
REMARK minimizedAffinity 4.48852444
REMARK minimizedRMSD -1
REMARK  0 active torsions:
REMARK  status: ('A' for Active; 'I' for Inactive)
ROOT
ATOM      1  C4' PXY d   1       2.413  -4.822   0.011  0.00  0.00     0.077 C 
ATOM      2  C1' PXY d   1      -0.444   0.093   1.055  0.00  0.00     0.077 C 
ATOM      3  C1  PXY d   1       0.297  -1.202   0.790  0.00  0.00    -0.082 A 
ATOM      4  C2  PXY d   1       1.536  -1.163   0.327  0.00  0.00     0.003 A 
ATOM      5  C3  PXY d   1       2.210  -2.325   0.052  0.00  0.00     0.003 A 
ATOM      6  C4  PXY d   1       1.629  -3.539   0.302  0.00  0.00    -0.082 A 
ATOM      7  C5  PXY d   1       0.369  -3.587   0.785  0.00  0.00     0.003 A 
ATOM      8  C6  PXY d   1      -0.313  -2.396   1.019  0.00  0.00     0.003 A 
ENDROOT
TORSDOF 0
ENDMDL
