MODEL 1
REMARK minimizedAffinity -3.7576251
REMARK minimizedRMSD -1
REMARK  0 active torsions:
REMARK  status: ('A' for Active; 'I' for Inactive)
ROOT
ATOM      1  C4' PXY d   1      -1.174  -0.083   1.269  0.00  0.00     0.077 C 
ATOM      2  C1' PXY d   1       3.826  -2.772   0.179  0.00  0.00     0.077 C 
ATOM      3  C1  PXY d   1       2.508  -2.076   0.457  0.00  0.00    -0.082 A 
ATOM      4  C2  PXY d   1       2.505  -0.802   0.818  0.00  0.00     0.003 A 
ATOM      5  C3  PXY d   1       1.325  -0.166   1.104  0.00  0.00     0.003 A 
ATOM      6  C4  PXY d   1       0.132  -0.824   0.969  0.00  0.00    -0.082 A 
ATOM      7  C5  PXY d   1       0.126  -2.120   0.591  0.00  0.00     0.003 A 
ATOM      8  C6  PXY d   1       1.338  -2.760   0.345  0.00  0.00     0.003 A 
ENDROOT
TORSDOF 0
ENDMDL
