MODEL 1
REMARK minimizedAffinity -5.7899332
REMARK minimizedRMSD -1
REMARK  0 active torsions:
REMARK  status: ('A' for Active; 'I' for Inactive)
ROOT
ATOM      1  C4' PXY d   1       1.037  -3.690   0.461  0.00  0.00     0.077 C 
ATOM      2  C1' PXY d   1      -2.473   0.834   1.250  0.00  0.00     0.077 C 
ATOM      3  C1  PXY d   1      -1.563  -0.360   1.044  0.00  0.00    -0.082 A 
ATOM      4  C2  PXY d   1      -0.287  -0.278   1.385  0.00  0.00     0.003 A 
ATOM      5  C3  PXY d   1       0.557  -1.338   1.176  0.00  0.00     0.003 A 
ATOM      6  C4  PXY d   1       0.079  -2.513   0.660  0.00  0.00    -0.082 A 
ATOM      7  C5  PXY d   1      -1.223  -2.608   0.319  0.00  0.00     0.003 A 
ATOM      8  C6  PXY d   1      -2.055  -1.507   0.502  0.00  0.00     0.003 A 
ENDROOT
TORSDOF 0
ENDMDL
