MODEL 1
REMARK minimizedAffinity -2.70025778
REMARK minimizedRMSD -1
REMARK  0 active torsions:
REMARK  status: ('A' for Active; 'I' for Inactive)
ROOT
ATOM      1  C4' PXY d   1      -0.478  -0.769   1.229  0.00  0.00     0.077 C 
ATOM      2  C1' PXY d   1       4.088  -3.894  -0.443  0.00  0.00     0.077 C 
ATOM      3  C1  PXY d   1       2.883  -3.085  -0.008  0.00  0.00    -0.082 A 
ATOM      4  C2  PXY d   1       2.951  -1.763  -0.001  0.00  0.00     0.003 A 
ATOM      5  C3  PXY d   1       1.881  -1.016   0.420  0.00  0.00     0.003 A 
ATOM      6  C4  PXY d   1       0.712  -1.627   0.788  0.00  0.00    -0.082 A 
ATOM      7  C5  PXY d   1       0.631  -2.974   0.774  0.00  0.00     0.003 A 
ATOM      8  C6  PXY d   1       1.742  -3.716   0.382  0.00  0.00     0.003 A 
ENDROOT
TORSDOF 0
ENDMDL
