MODEL 1
REMARK minimizedAffinity -3.60490894
REMARK minimizedRMSD -1
REMARK  0 active torsions:
REMARK  status: ('A' for Active; 'I' for Inactive)
ROOT
ATOM      1  C4' PXY d   1       3.392  -4.068  -0.547  0.00  0.00     0.077 C 
ATOM      2  C1' PXY d   1      -0.719  -0.384   1.165  0.00  0.00     0.077 C 
ATOM      3  C1  PXY d   1       0.353  -1.360   0.722  0.00  0.00    -0.082 A 
ATOM      4  C2  PXY d   1       1.563  -0.913   0.429  0.00  0.00     0.003 A 
ATOM      5  C3  PXY d   1       2.536  -1.778  -0.004  0.00  0.00     0.003 A 
ATOM      6  C4  PXY d   1       2.282  -3.120  -0.087  0.00  0.00    -0.082 A 
ATOM      7  C5  PXY d   1       1.052  -3.585   0.221  0.00  0.00     0.003 A 
ATOM      8  C6  PXY d   1       0.067  -2.686   0.619  0.00  0.00     0.003 A 
ENDROOT
TORSDOF 0
ENDMDL
