MODEL 1
REMARK minimizedAffinity 0.590760708
REMARK minimizedRMSD -1
REMARK  0 active torsions:
REMARK  status: ('A' for Active; 'I' for Inactive)
ROOT
ATOM      1  C4' PXY d   1       1.904  -4.172   0.457  0.00  0.00     0.077 C 
ATOM      2  C1' PXY d   1      -0.745   0.788   1.797  0.00  0.00     0.077 C 
ATOM      3  C1  PXY d   1      -0.062  -0.519   1.447  0.00  0.00    -0.082 A 
ATOM      4  C2  PXY d   1       1.240  -0.650   1.644  0.00  0.00     0.003 A 
ATOM      5  C3  PXY d   1       1.880  -1.814   1.303  0.00  0.00     0.003 A 
ATOM      6  C4  PXY d   1       1.171  -2.874   0.805  0.00  0.00    -0.082 A 
ATOM      7  C5  PXY d   1      -0.160  -2.752   0.611  0.00  0.00     0.003 A 
ATOM      8  C6  PXY d   1      -0.783  -1.548   0.925  0.00  0.00     0.003 A 
ENDROOT
TORSDOF 0
ENDMDL
