MODEL 1
REMARK minimizedAffinity 3.01792479
REMARK minimizedRMSD -1
REMARK  0 active torsions:
REMARK  status: ('A' for Active; 'I' for Inactive)
ROOT
ATOM      1  C4' PXY d   1       4.714   6.000   2.476  0.00  0.00     0.077 C 
ATOM      2  C1' PXY d   1       3.823   2.207  -1.794  0.00  0.00     0.077 C 
ATOM      3  C1  PXY d   1       4.044   3.201  -0.671  0.00  0.00    -0.082 A 
ATOM      4  C2  PXY d   1       5.062   4.043  -0.734  0.00  0.00     0.003 A 
ATOM      5  C3  PXY d   1       5.296   4.927   0.288  0.00  0.00     0.003 A 
ATOM      6  C4  PXY d   1       4.447   4.985   1.361  0.00  0.00    -0.082 A 
ATOM      7  C5  PXY d   1       3.400   4.136   1.427  0.00  0.00     0.003 A 
ATOM      8  C6  PXY d   1       3.204   3.219   0.399  0.00  0.00     0.003 A 
ENDROOT
TORSDOF 0
ENDMDL
