MODEL 1
REMARK minimizedAffinity -5.34761763
REMARK minimizedRMSD -1
REMARK  0 active torsions:
REMARK  status: ('A' for Active; 'I' for Inactive)
ROOT
ATOM      1  C4' PXY d   1      -0.432  -0.875   0.870  0.00  0.00     0.077 C 
ATOM      2  C1' PXY d   1       3.472  -4.988  -0.251  0.00  0.00     0.077 C 
ATOM      3  C1  PXY d   1       2.458  -3.901   0.048  0.00  0.00    -0.082 A 
ATOM      4  C2  PXY d   1       1.181  -4.220   0.188  0.00  0.00     0.003 A 
ATOM      5  C3  PXY d   1       0.246  -3.246   0.427  0.00  0.00     0.003 A 
ATOM      6  C4  PXY d   1       0.629  -1.940   0.577  0.00  0.00    -0.082 A 
ATOM      7  C5  PXY d   1       1.931  -1.609   0.446  0.00  0.00     0.003 A 
ATOM      8  C6  PXY d   1       2.859  -2.606   0.162  0.00  0.00     0.003 A 
ENDROOT
TORSDOF 0
ENDMDL
