MODEL 1
REMARK minimizedAffinity 4.5358119
REMARK minimizedRMSD -1
REMARK  0 active torsions:
REMARK  status: ('A' for Active; 'I' for Inactive)
ROOT
ATOM      1  C4' PXY d   1       1.913  -4.334   0.245  0.00  0.00     0.077 C 
ATOM      2  C1' PXY d   1      -0.806   0.587   1.589  0.00  0.00     0.077 C 
ATOM      3  C1  PXY d   1      -0.085  -0.697   1.228  0.00  0.00    -0.082 A 
ATOM      4  C2  PXY d   1      -0.682  -1.860   1.429  0.00  0.00     0.003 A 
ATOM      5  C3  PXY d   1      -0.033  -3.032   1.138  0.00  0.00     0.003 A 
ATOM      6  C4  PXY d   1       1.220  -3.012   0.586  0.00  0.00    -0.082 A 
ATOM      7  C5  PXY d   1       1.832  -1.828   0.369  0.00  0.00     0.003 A 
ATOM      8  C6  PXY d   1       1.172  -0.651   0.709  0.00  0.00     0.003 A 
ENDROOT
TORSDOF 0
ENDMDL
