MODEL 1
REMARK minimizedAffinity 2.47219133
REMARK minimizedRMSD -1
REMARK  0 active torsions:
REMARK  status: ('A' for Active; 'I' for Inactive)
ROOT
ATOM      1  C4' PXY d   1       2.512  -3.953  -0.749  0.00  0.00     0.077 C 
ATOM      2  C1' PXY d   1      -1.070   0.087   1.315  0.00  0.00     0.077 C 
ATOM      3  C1  PXY d   1      -0.123  -0.963   0.769  0.00  0.00    -0.082 A 
ATOM      4  C2  PXY d   1      -0.584  -2.166   0.466  0.00  0.00     0.003 A 
ATOM      5  C3  PXY d   1       0.266  -3.137   0.002  0.00  0.00     0.003 A 
ATOM      6  C4  PXY d   1       1.590  -2.859  -0.204  0.00  0.00    -0.082 A 
ATOM      7  C5  PXY d   1       2.066  -1.631   0.093  0.00  0.00     0.003 A 
ATOM      8  C6  PXY d   1       1.196  -0.672   0.602  0.00  0.00     0.003 A 
ENDROOT
TORSDOF 0
ENDMDL
