MODEL 1
REMARK minimizedAffinity 1.17286229
REMARK minimizedRMSD -1
REMARK  0 active torsions:
REMARK  status: ('A' for Active; 'I' for Inactive)
ROOT
ATOM      1  C4' PXY d   1       3.257  -4.225  -0.406  0.00  0.00     0.077 C 
ATOM      2  C1' PXY d   1      -0.462  -0.058   1.084  0.00  0.00     0.077 C 
ATOM      3  C1  PXY d   1       0.521  -1.142   0.688  0.00  0.00    -0.082 A 
ATOM      4  C2  PXY d   1       0.093  -2.382   0.517  0.00  0.00     0.003 A 
ATOM      5  C3  PXY d   1       0.975  -3.381   0.190  0.00  0.00     0.003 A 
ATOM      6  C4  PXY d   1       2.298  -3.097  -0.016  0.00  0.00    -0.082 A 
ATOM      7  C5  PXY d   1       2.740  -1.832   0.146  0.00  0.00     0.003 A 
ATOM      8  C6  PXY d   1       1.837  -0.840   0.519  0.00  0.00     0.003 A 
ENDROOT
TORSDOF 0
ENDMDL
