MODEL 1
REMARK minimizedAffinity 13.9663897
REMARK minimizedRMSD -1
REMARK  2 active torsions:
REMARK  status: ('A' for Active; 'I' for Inactive)
REMARK    1  A    between atoms: C1_2  and  C2_3 
REMARK    2  A    between atoms: C2_3  and  C3_4 
ROOT
ATOM      1  C3  UNL d   1      -3.548  -0.468   4.261  0.00  0.00    -0.075 A 
ATOM      2  C4  UNL d   1      -3.273  -0.106   5.588  0.00  0.00     0.002 A 
ATOM      3  C5  UNL d   1      -3.390   1.222   5.998  0.00  0.00     0.002 A 
ATOM      4  C6  UNL d   1      -3.773   2.205   5.088  0.00  0.00    -0.004 A 
ATOM      5  C7  UNL d   1      -4.032   1.859   3.763  0.00  0.00     0.002 A 
ATOM      6  C8  UNL d   1      -3.920   0.530   3.351  0.00  0.00     0.002 A 
ENDROOT
BRANCH   1   7
ATOM      7  C2  UNL d   1      -3.451  -1.908   3.817  0.00  0.00     0.056 C 
BRANCH   7   8
ATOM      8  C1  UNL d   1      -4.101  -2.903   4.785  0.00  0.00     0.007 C 
ATOM      9  C   UNL d   1      -3.306  -4.192   4.944  0.00  0.00     0.009 C 
ENDBRANCH   7   8
ENDBRANCH   1   7
TORSDOF 2
ENDMDL
