MODEL 1
REMARK minimizedAffinity 16.4671402
REMARK minimizedRMSD -1
REMARK  2 active torsions:
REMARK  status: ('A' for Active; 'I' for Inactive)
REMARK    1  A    between atoms: C1_2  and  C2_3 
REMARK    2  A    between atoms: C2_3  and  C3_4 
ROOT
ATOM      1  C3  UNL d   1      -3.673   0.667   4.247  0.00  0.00    -0.075 A 
ATOM      2  C4  UNL d   1      -3.587   1.341   5.473  0.00  0.00     0.002 A 
ATOM      3  C5  UNL d   1      -4.169   2.599   5.633  0.00  0.00     0.002 A 
ATOM      4  C6  UNL d   1      -4.834   3.202   4.568  0.00  0.00    -0.004 A 
ATOM      5  C7  UNL d   1      -4.912   2.548   3.340  0.00  0.00     0.002 A 
ATOM      6  C8  UNL d   1      -4.334   1.288   3.179  0.00  0.00     0.002 A 
ENDROOT
BRANCH   1   7
ATOM      7  C2  UNL d   1      -3.071  -0.707   4.077  0.00  0.00     0.056 C 
BRANCH   7   8
ATOM      8  C1  UNL d   1      -3.428  -1.688   5.199  0.00  0.00     0.007 C 
ATOM      9  C   UNL d   1      -3.945  -3.025   4.686  0.00  0.00     0.009 C 
ENDBRANCH   7   8
ENDBRANCH   1   7
TORSDOF 2
ENDMDL
