MODEL 1
REMARK minimizedAffinity 13.5695381
REMARK minimizedRMSD -1
REMARK  2 active torsions:
REMARK  status: ('A' for Active; 'I' for Inactive)
REMARK    1  A    between atoms: C1_2  and  C2_3 
REMARK    2  A    between atoms: C2_3  and  C3_4 
ROOT
ATOM      1  C3  UNL d   1       1.419  -2.031  -2.337  0.00  0.00    -0.075 A 
ATOM      2  C4  UNL d   1       1.613  -0.658  -2.548  0.00  0.00     0.002 A 
ATOM      3  C5  UNL d   1       2.292   0.115  -1.606  0.00  0.00     0.002 A 
ATOM      4  C6  UNL d   1       2.776  -0.471  -0.439  0.00  0.00    -0.004 A 
ATOM      5  C7  UNL d   1       2.575  -1.831  -0.211  0.00  0.00     0.002 A 
ATOM      6  C8  UNL d   1       1.900  -2.607  -1.154  0.00  0.00     0.002 A 
ENDROOT
BRANCH   1   7
ATOM      7  C2  UNL d   1       0.711  -2.879  -3.367  0.00  0.00     0.056 C 
BRANCH   7   8
ATOM      8  C1  UNL d   1      -0.755  -3.173  -3.030  0.00  0.00     0.007 C 
ATOM      9  C   UNL d   1      -1.734  -2.282  -3.783  0.00  0.00     0.009 C 
ENDBRANCH   7   8
ENDBRANCH   1   7
TORSDOF 2
ENDMDL
