MODEL 1
REMARK minimizedAffinity 16.6185074
REMARK minimizedRMSD -1
REMARK  2 active torsions:
REMARK  status: ('A' for Active; 'I' for Inactive)
REMARK    1  A    between atoms: C1_2  and  C2_3 
REMARK    2  A    between atoms: C2_3  and  C3_4 
ROOT
ATOM      1  C3  UNL d   1      -3.276   1.638   3.602  0.00  0.00    -0.075 A 
ATOM      2  C4  UNL d   1      -4.345   2.523   3.405  0.00  0.00     0.002 A 
ATOM      3  C5  UNL d   1      -5.041   3.047   4.494  0.00  0.00     0.002 A 
ATOM      4  C6  UNL d   1      -4.685   2.687   5.792  0.00  0.00    -0.004 A 
ATOM      5  C7  UNL d   1      -3.634   1.795   5.999  0.00  0.00     0.002 A 
ATOM      6  C8  UNL d   1      -2.933   1.272   4.911  0.00  0.00     0.002 A 
ENDROOT
BRANCH   1   7
ATOM      7  C2  UNL d   1      -2.499   1.090   2.429  0.00  0.00     0.056 C 
BRANCH   7   8
ATOM      8  C1  UNL d   1      -1.125   1.738   2.232  0.00  0.00     0.007 C 
ATOM      9  C   UNL d   1       0.005   0.962   2.894  0.00  0.00     0.009 C 
ENDBRANCH   7   8
ENDBRANCH   1   7
TORSDOF 2
ENDMDL
