MODEL 1
REMARK minimizedAffinity 14.3451786
REMARK minimizedRMSD -1
REMARK  2 active torsions:
REMARK  status: ('A' for Active; 'I' for Inactive)
REMARK    1  A    between atoms: C1_2  and  C2_3 
REMARK    2  A    between atoms: C2_3  and  C3_4 
ROOT
ATOM      1  C3  UNL d   1      -4.146   1.123   3.932  0.00  0.00    -0.075 A 
ATOM      2  C4  UNL d   1      -5.251   1.785   3.377  0.00  0.00     0.002 A 
ATOM      3  C5  UNL d   1      -5.959   2.728   4.123  0.00  0.00     0.002 A 
ATOM      4  C6  UNL d   1      -5.580   3.012   5.433  0.00  0.00    -0.004 A 
ATOM      5  C7  UNL d   1      -4.495   2.347   6.000  0.00  0.00     0.002 A 
ATOM      6  C8  UNL d   1      -3.781   1.407   5.254  0.00  0.00     0.002 A 
ENDROOT
BRANCH   1   7
ATOM      7  C2  UNL d   1      -3.357   0.124   3.120  0.00  0.00     0.056 C 
BRANCH   7   8
ATOM      8  C1  UNL d   1      -2.329   0.758   2.178  0.00  0.00     0.007 C 
ATOM      9  C   UNL d   1      -1.503   1.853   2.841  0.00  0.00     0.009 C 
ENDBRANCH   7   8
ENDBRANCH   1   7
TORSDOF 2
ENDMDL
