MODEL 1
REMARK minimizedAffinity 4.29976034
REMARK minimizedRMSD -1
REMARK  2 active torsions:
REMARK  status: ('A' for Active; 'I' for Inactive)
REMARK    1  A    between atoms: C1_2  and  C2_3 
REMARK    2  A    between atoms: C2_3  and  C3_4 
ROOT
ATOM      1  C3  UNL d   1      -3.211   2.037   3.662  0.00  0.00    -0.075 A 
ATOM      2  C4  UNL d   1      -4.252   2.923   3.349  0.00  0.00     0.002 A 
ATOM      3  C5  UNL d   1      -5.096   3.405   4.350  0.00  0.00     0.002 A 
ATOM      4  C6  UNL d   1      -4.917   3.000   5.671  0.00  0.00    -0.004 A 
ATOM      5  C7  UNL d   1      -3.896   2.108   5.991  0.00  0.00     0.002 A 
ATOM      6  C8  UNL d   1      -3.047   1.627   4.992  0.00  0.00     0.002 A 
ENDROOT
BRANCH   1   7
ATOM      7  C2  UNL d   1      -2.275   1.534   2.588  0.00  0.00     0.056 C 
BRANCH   7   8
ATOM      8  C1  UNL d   1      -0.869   2.140   2.652  0.00  0.00     0.007 C 
ATOM      9  C   UNL d   1       0.200   1.134   3.057  0.00  0.00     0.009 C 
ENDBRANCH   7   8
ENDBRANCH   1   7
TORSDOF 2
ENDMDL
