MODEL 1
REMARK minimizedAffinity 4.17503357
REMARK minimizedRMSD -1
REMARK  2 active torsions:
REMARK  status: ('A' for Active; 'I' for Inactive)
REMARK    1  A    between atoms: C1_2  and  C2_3 
REMARK    2  A    between atoms: C2_3  and  C3_4 
ROOT
ATOM      1  C3  UNL d   1       2.294  -1.686  -1.666  0.00  0.00    -0.075 A 
ATOM      2  C4  UNL d   1       1.757  -2.223  -2.845  0.00  0.00     0.002 A 
ATOM      3  C5  UNL d   1       1.378  -3.565  -2.904  0.00  0.00     0.002 A 
ATOM      4  C6  UNL d   1       1.541  -4.387  -1.792  0.00  0.00    -0.004 A 
ATOM      5  C7  UNL d   1       2.089  -3.869  -0.621  0.00  0.00     0.002 A 
ATOM      6  C8  UNL d   1       2.464  -2.526  -0.557  0.00  0.00     0.002 A 
ENDROOT
BRANCH   1   7
ATOM      7  C2  UNL d   1       2.678  -0.228  -1.586  0.00  0.00     0.056 C 
BRANCH   7   8
ATOM      8  C1  UNL d   1       3.177   0.210  -0.205  0.00  0.00     0.007 C 
ATOM      9  C   UNL d   1       4.342   1.189  -0.271  0.00  0.00     0.009 C 
ENDBRANCH   7   8
ENDBRANCH   1   7
TORSDOF 2
ENDMDL
