MODEL 1
REMARK minimizedAffinity 16.5567951
REMARK minimizedRMSD -1
REMARK  2 active torsions:
REMARK  status: ('A' for Active; 'I' for Inactive)
REMARK    1  A    between atoms: C1_2  and  C2_3 
REMARK    2  A    between atoms: C2_3  and  C3_4 
ROOT
ATOM      1  C3  UNL d   1      -3.300   1.481   2.693  0.00  0.00    -0.075 A 
ATOM      2  C4  UNL d   1      -4.083   0.342   2.459  0.00  0.00     0.002 A 
ATOM      3  C5  UNL d   1      -5.427   0.317   2.835  0.00  0.00     0.002 A 
ATOM      4  C6  UNL d   1      -5.999   1.423   3.458  0.00  0.00    -0.004 A 
ATOM      5  C7  UNL d   1      -5.226   2.554   3.711  0.00  0.00     0.002 A 
ATOM      6  C8  UNL d   1      -3.883   2.584   3.332  0.00  0.00     0.002 A 
ENDROOT
BRANCH   1   7
ATOM      7  C2  UNL d   1      -1.853   1.526   2.262  0.00  0.00     0.056 C 
BRANCH   7   8
ATOM      8  C1  UNL d   1      -0.872   1.831   3.399  0.00  0.00     0.007 C 
ATOM      9  C   UNL d   1       0.472   1.134   3.236  0.00  0.00     0.009 C 
ENDBRANCH   7   8
ENDBRANCH   1   7
TORSDOF 2
ENDMDL
