MODEL 1
REMARK minimizedAffinity 11.744422
REMARK minimizedRMSD -1
REMARK  2 active torsions:
REMARK  status: ('A' for Active; 'I' for Inactive)
REMARK    1  A    between atoms: C1_2  and  C2_3 
REMARK    2  A    between atoms: C2_3  and  C3_4 
ROOT
ATOM      1  C3  UNL d   1       2.098  -1.241  -1.073  0.00  0.00    -0.075 A 
ATOM      2  C4  UNL d   1       1.457  -1.599  -2.269  0.00  0.00     0.002 A 
ATOM      3  C5  UNL d   1       1.200  -2.939  -2.561  0.00  0.00     0.002 A 
ATOM      4  C6  UNL d   1       1.588  -3.937  -1.669  0.00  0.00    -0.004 A 
ATOM      5  C7  UNL d   1       2.240  -3.594  -0.486  0.00  0.00     0.002 A 
ATOM      6  C8  UNL d   1       2.495  -2.254  -0.189  0.00  0.00     0.002 A 
ENDROOT
BRANCH   1   7
ATOM      7  C2  UNL d   1       2.352   0.209  -0.738  0.00  0.00     0.056 C 
BRANCH   7   8
ATOM      8  C1  UNL d   1       2.899   0.435   0.676  0.00  0.00     0.007 C 
ATOM      9  C   UNL d   1       3.978   1.508   0.738  0.00  0.00     0.009 C 
ENDBRANCH   7   8
ENDBRANCH   1   7
TORSDOF 2
ENDMDL
