MODEL 1
REMARK minimizedAffinity 17.7769203
REMARK minimizedRMSD -1
REMARK  2 active torsions:
REMARK  status: ('A' for Active; 'I' for Inactive)
REMARK    1  A    between atoms: C1_2  and  C2_3 
REMARK    2  A    between atoms: C2_3  and  C3_4 
ROOT
ATOM      1  C3  UNL d   1      -3.567   0.110   3.786  0.00  0.00    -0.075 A 
ATOM      2  C4  UNL d   1      -3.401  -0.041   5.170  0.00  0.00     0.002 A 
ATOM      3  C5  UNL d   1      -3.691  -1.256   5.791  0.00  0.00     0.002 A 
ATOM      4  C6  UNL d   1      -4.160  -2.331   5.038  0.00  0.00    -0.004 A 
ATOM      5  C7  UNL d   1      -4.345  -2.187   3.665  0.00  0.00     0.002 A 
ATOM      6  C8  UNL d   1      -4.051  -0.974   3.041  0.00  0.00     0.002 A 
ENDROOT
BRANCH   1   7
ATOM      7  C2  UNL d   1      -3.226   1.413   3.104  0.00  0.00     0.056 C 
BRANCH   7   8
ATOM      8  C1  UNL d   1      -1.969   1.350   2.229  0.00  0.00     0.007 C 
ATOM      9  C   UNL d   1      -0.729   1.902   2.919  0.00  0.00     0.009 C 
ENDBRANCH   7   8
ENDBRANCH   1   7
TORSDOF 2
ENDMDL
