MODEL 1
REMARK minimizedAffinity 17.9059544
REMARK minimizedRMSD -1
REMARK  2 active torsions:
REMARK  status: ('A' for Active; 'I' for Inactive)
REMARK    1  A    between atoms: C1_2  and  C2_3 
REMARK    2  A    between atoms: C2_3  and  C3_4 
ROOT
ATOM      1  C3  UNL d   1      -4.630  -0.124   3.358  0.00  0.00    -0.075 A 
ATOM      2  C4  UNL d   1      -5.615  -0.867   2.691  0.00  0.00     0.002 A 
ATOM      3  C5  UNL d   1      -5.650  -2.257   2.802  0.00  0.00     0.002 A 
ATOM      4  C6  UNL d   1      -4.696  -2.922   3.570  0.00  0.00    -0.004 A 
ATOM      5  C7  UNL d   1      -3.704  -2.195   4.223  0.00  0.00     0.002 A 
ATOM      6  C8  UNL d   1      -3.669  -0.803   4.118  0.00  0.00     0.002 A 
ENDROOT
BRANCH   1   7
ATOM      7  C2  UNL d   1      -4.605   1.383   3.266  0.00  0.00     0.056 C 
BRANCH   7   8
ATOM      8  C1  UNL d   1      -5.879   2.061   3.781  0.00  0.00     0.007 C 
ATOM      9  C   UNL d   1      -5.991   3.523   3.369  0.00  0.00     0.009 C 
ENDBRANCH   7   8
ENDBRANCH   1   7
TORSDOF 2
ENDMDL
