MODEL 1
REMARK minimizedAffinity 10.7250776
REMARK minimizedRMSD -1
REMARK  2 active torsions:
REMARK  status: ('A' for Active; 'I' for Inactive)
REMARK    1  A    between atoms: C1_2  and  C2_3 
REMARK    2  A    between atoms: C2_3  and  C3_4 
ROOT
ATOM      1  C3  UNL d   1      -2.455   4.571  -4.881  0.00  0.00    -0.075 A 
ATOM      2  C4  UNL d   1      -2.049   3.827  -5.999  0.00  0.00     0.002 A 
ATOM      3  C5  UNL d   1      -1.523   2.544  -5.842  0.00  0.00     0.002 A 
ATOM      4  C6  UNL d   1      -1.386   1.995  -4.570  0.00  0.00    -0.004 A 
ATOM      5  C7  UNL d   1      -1.770   2.732  -3.451  0.00  0.00     0.002 A 
ATOM      6  C8  UNL d   1      -2.301   4.014  -3.605  0.00  0.00     0.002 A 
ENDROOT
BRANCH   1   7
ATOM      7  C2  UNL d   1      -3.052   5.948  -5.046  0.00  0.00     0.056 C 
BRANCH   7   8
ATOM      8  C1  UNL d   1      -4.258   5.996  -5.991  0.00  0.00     0.007 C 
ATOM      9  C   UNL d   1      -5.072   4.709  -5.991  0.00  0.00     0.009 C 
ENDBRANCH   7   8
ENDBRANCH   1   7
TORSDOF 2
ENDMDL
