MODEL 1
REMARK minimizedAffinity 9.19499397
REMARK minimizedRMSD -1
REMARK  2 active torsions:
REMARK  status: ('A' for Active; 'I' for Inactive)
REMARK    1  A    between atoms: C1_2  and  C2_3 
REMARK    2  A    between atoms: C2_3  and  C3_4 
ROOT
ATOM      1  C3  UNL d   1       2.430  -0.652  -1.005  0.00  0.00    -0.075 A 
ATOM      2  C4  UNL d   1       1.495  -1.039  -1.976  0.00  0.00     0.002 A 
ATOM      3  C5  UNL d   1       0.996  -2.342  -2.000  0.00  0.00     0.002 A 
ATOM      4  C6  UNL d   1       1.432  -3.274  -1.061  0.00  0.00    -0.004 A 
ATOM      5  C7  UNL d   1       2.373  -2.905  -0.102  0.00  0.00     0.002 A 
ATOM      6  C8  UNL d   1       2.870  -1.601  -0.074  0.00  0.00     0.002 A 
ENDROOT
BRANCH   1   7
ATOM      7  C2  UNL d   1       2.952   0.765  -0.956  0.00  0.00     0.056 C 
BRANCH   7   8
ATOM      8  C1  UNL d   1       4.038   0.993   0.100  0.00  0.00     0.007 C 
ATOM      9  C   UNL d   1       5.153   1.914  -0.376  0.00  0.00     0.009 C 
ENDBRANCH   7   8
ENDBRANCH   1   7
TORSDOF 2
ENDMDL
