MODEL 1
REMARK minimizedAffinity 17.5395641
REMARK minimizedRMSD -1
REMARK  2 active torsions:
REMARK  status: ('A' for Active; 'I' for Inactive)
REMARK    1  A    between atoms: C1_2  and  C2_3 
REMARK    2  A    between atoms: C2_3  and  C3_4 
ROOT
ATOM      1  C3  UNL d   1      -4.470  -1.164   3.201  0.00  0.00    -0.075 A 
ATOM      2  C4  UNL d   1      -3.648  -1.536   4.275  0.00  0.00     0.002 A 
ATOM      3  C5  UNL d   1      -3.993  -2.614   5.090  0.00  0.00     0.002 A 
ATOM      4  C6  UNL d   1      -5.167  -3.325   4.850  0.00  0.00    -0.004 A 
ATOM      5  C7  UNL d   1      -5.999  -2.954   3.797  0.00  0.00     0.002 A 
ATOM      6  C8  UNL d   1      -5.654  -1.878   2.976  0.00  0.00     0.002 A 
ENDROOT
BRANCH   1   7
ATOM      7  C2  UNL d   1      -4.087  -0.017   2.297  0.00  0.00     0.056 C 
BRANCH   7   8
ATOM      8  C1  UNL d   1      -3.073   0.952   2.914  0.00  0.00     0.007 C 
ATOM      9  C   UNL d   1      -1.776   1.048   2.122  0.00  0.00     0.009 C 
ENDBRANCH   7   8
ENDBRANCH   1   7
TORSDOF 2
ENDMDL
