MODEL 1
REMARK minimizedAffinity 12.0112963
REMARK minimizedRMSD -1
REMARK  2 active torsions:
REMARK  status: ('A' for Active; 'I' for Inactive)
REMARK    1  A    between atoms: C1_2  and  C2_3 
REMARK    2  A    between atoms: C2_3  and  C3_4 
ROOT
ATOM      1  C3  UNL d   1      -4.610  -1.044   3.187  0.00  0.00    -0.075 A 
ATOM      2  C4  UNL d   1      -4.105  -1.370   4.454  0.00  0.00     0.002 A 
ATOM      3  C5  UNL d   1      -4.534  -2.522   5.113  0.00  0.00     0.002 A 
ATOM      4  C6  UNL d   1      -5.479  -3.357   4.519  0.00  0.00    -0.004 A 
ATOM      5  C7  UNL d   1      -5.999  -3.035   3.268  0.00  0.00     0.002 A 
ATOM      6  C8  UNL d   1      -5.569  -1.884   2.604  0.00  0.00     0.002 A 
ENDROOT
BRANCH   1   7
ATOM      7  C2  UNL d   1      -4.128   0.186   2.456  0.00  0.00     0.056 C 
BRANCH   7   8
ATOM      8  C1  UNL d   1      -3.439   1.217   3.356  0.00  0.00     0.007 C 
ATOM      9  C   UNL d   1      -2.233   1.876   2.700  0.00  0.00     0.009 C 
ENDBRANCH   7   8
ENDBRANCH   1   7
TORSDOF 2
ENDMDL
