MODEL 1
REMARK minimizedAffinity 15.4437494
REMARK minimizedRMSD -1
REMARK  2 active torsions:
REMARK  status: ('A' for Active; 'I' for Inactive)
REMARK    1  A    between atoms: C1_2  and  C2_3 
REMARK    2  A    between atoms: C2_3  and  C3_4 
ROOT
ATOM      1  C3  UNL d   1      -0.874   1.085   2.107  0.00  0.00    -0.075 A 
ATOM      2  C4  UNL d   1      -0.293   2.183   2.758  0.00  0.00     0.002 A 
ATOM      3  C5  UNL d   1       1.089   2.374   2.729  0.00  0.00     0.002 A 
ATOM      4  C6  UNL d   1       1.907   1.467   2.059  0.00  0.00    -0.004 A 
ATOM      5  C7  UNL d   1       1.342   0.364   1.422  0.00  0.00     0.002 A 
ATOM      6  C8  UNL d   1      -0.040   0.173   1.446  0.00  0.00     0.002 A 
ENDROOT
BRANCH   1   7
ATOM      7  C2  UNL d   1      -2.371   0.889   2.109  0.00  0.00     0.056 C 
BRANCH   7   8
ATOM      8  C1  UNL d   1      -2.933   0.400   3.448  0.00  0.00     0.007 C 
ATOM      9  C   UNL d   1      -3.295  -1.080   3.443  0.00  0.00     0.009 C 
ENDBRANCH   7   8
ENDBRANCH   1   7
TORSDOF 2
ENDMDL
