MODEL 1
REMARK minimizedAffinity 8.05326653
REMARK minimizedRMSD -1
REMARK  0 active torsions:
REMARK  status: ('A' for Active; 'I' for Inactive)
ROOT
ATOM      1  C4' PXY d   1      -2.150   4.229  -1.289  0.00  0.00     0.077 C 
ATOM      2  C1' PXY d   1      -5.622   2.708   3.075  0.00  0.00     0.077 C 
ATOM      3  C1  PXY d   1      -4.701   3.106   1.938  0.00  0.00    -0.082 A 
ATOM      4  C2  PXY d   1      -5.171   3.837   0.940  0.00  0.00     0.003 A 
ATOM      5  C3  PXY d   1      -4.361   4.178  -0.111  0.00  0.00     0.003 A 
ATOM      6  C4  PXY d   1      -3.041   3.812  -0.116  0.00  0.00    -0.082 A 
ATOM      7  C5  PXY d   1      -2.551   3.075   0.903  0.00  0.00     0.003 A 
ATOM      8  C6  PXY d   1      -3.401   2.704   1.941  0.00  0.00     0.003 A 
ENDROOT
TORSDOF 0
ENDMDL
