MODEL 1
REMARK minimizedAffinity 1.86560619
REMARK minimizedRMSD -1
REMARK  0 active torsions:
REMARK  status: ('A' for Active; 'I' for Inactive)
ROOT
ATOM      1  C4' PXY d   1       1.030  -0.834   1.636  0.00  0.00     0.077 C 
ATOM      2  C1' PXY d   1       4.598  -2.806   5.734  0.00  0.00     0.077 C 
ATOM      3  C1  PXY d   1       3.654  -2.298   4.662  0.00  0.00    -0.082 A 
ATOM      4  C2  PXY d   1       4.133  -1.600   3.646  0.00  0.00     0.003 A 
ATOM      5  C3  PXY d   1       3.289  -1.106   2.685  0.00  0.00     0.003 A 
ATOM      6  C4  PXY d   1       1.947  -1.375   2.736  0.00  0.00    -0.082 A 
ATOM      7  C5  PXY d   1       1.452  -2.096   3.764  0.00  0.00     0.003 A 
ATOM      8  C6  PXY d   1       2.320  -2.553   4.752  0.00  0.00     0.003 A 
ENDROOT
TORSDOF 0
ENDMDL
