MODEL 1
REMARK minimizedAffinity 13.6501999
REMARK minimizedRMSD -1
REMARK  0 active torsions:
REMARK  status: ('A' for Active; 'I' for Inactive)
ROOT
ATOM      1  C4' PXY d   1       3.452   2.034   4.107  0.00  0.00     0.077 C 
ATOM      2  C1' PXY d   1       1.012   3.010  -1.041  0.00  0.00     0.077 C 
ATOM      3  C1  PXY d   1       1.657   2.743   0.305  0.00  0.00    -0.082 A 
ATOM      4  C2  PXY d   1       1.138   3.280   1.397  0.00  0.00     0.003 A 
ATOM      5  C3  PXY d   1       1.728   3.075   2.618  0.00  0.00     0.003 A 
ATOM      6  C4  PXY d   1       2.828   2.268   2.729  0.00  0.00    -0.082 A 
ATOM      7  C5  PXY d   1       3.357   1.708   1.621  0.00  0.00     0.003 A 
ATOM      8  C6  PXY d   1       2.768   1.962   0.385  0.00  0.00     0.003 A 
ENDROOT
TORSDOF 0
ENDMDL
