MODEL 1
REMARK minimizedAffinity 16.8415337
REMARK minimizedRMSD -1
REMARK  0 active torsions:
REMARK  status: ('A' for Active; 'I' for Inactive)
ROOT
ATOM      1  C4' PXY d   1       5.993  -2.571  -4.846  0.00  0.00     0.077 C 
ATOM      2  C1' PXY d   1       4.336   2.953  -5.238  0.00  0.00     0.077 C 
ATOM      3  C1  PXY d   1       4.767   1.505  -5.123  0.00  0.00    -0.082 A 
ATOM      4  C2  PXY d   1       5.623   1.005  -6.000  0.00  0.00     0.003 A 
ATOM      5  C3  PXY d   1       6.000  -0.311  -5.929  0.00  0.00     0.003 A 
ATOM      6  C4  PXY d   1       5.537  -1.111  -4.918  0.00  0.00    -0.082 A 
ATOM      7  C5  PXY d   1       4.672  -0.606  -4.013  0.00  0.00     0.003 A 
ATOM      8  C6  PXY d   1       4.270   0.722  -4.127  0.00  0.00     0.003 A 
ENDROOT
TORSDOF 0
ENDMDL
