MODEL 1
REMARK minimizedAffinity 10.5777788
REMARK minimizedRMSD -1
REMARK  0 active torsions:
REMARK  status: ('A' for Active; 'I' for Inactive)
ROOT
ATOM      1  C4' PXY d   1       5.657  -3.081  -5.153  0.00  0.00     0.077 C 
ATOM      2  C1' PXY d   1       4.128   2.471  -4.656  0.00  0.00     0.077 C 
ATOM      3  C1  PXY d   1       4.528   1.014  -4.774  0.00  0.00    -0.082 A 
ATOM      4  C2  PXY d   1       5.243   0.613  -5.812  0.00  0.00     0.003 A 
ATOM      5  C3  PXY d   1       5.586  -0.707  -5.950  0.00  0.00     0.003 A 
ATOM      6  C4  PXY d   1       5.238  -1.618  -4.989  0.00  0.00    -0.082 A 
ATOM      7  C5  PXY d   1       4.517  -1.215  -3.921  0.00  0.00     0.003 A 
ATOM      8  C6  PXY d   1       4.144   0.122  -3.820  0.00  0.00     0.003 A 
ENDROOT
TORSDOF 0
ENDMDL
