MODEL 1
REMARK minimizedAffinity 16.3197384
REMARK minimizedRMSD -1
REMARK  0 active torsions:
REMARK  status: ('A' for Active; 'I' for Inactive)
ROOT
ATOM      1  C4' PXY d   1       1.440  -0.978   1.142  0.00  0.00     0.077 C 
ATOM      2  C1' PXY d   1      -1.404   1.179  -3.405  0.00  0.00     0.077 C 
ATOM      3  C1  PXY d   1      -0.658   0.625  -2.207  0.00  0.00    -0.082 A 
ATOM      4  C2  PXY d   1       0.043  -0.490  -2.332  0.00  0.00     0.003 A 
ATOM      5  C3  PXY d   1       0.698  -1.022  -1.251  0.00  0.00     0.003 A 
ATOM      6  C4  PXY d   1       0.678  -0.377  -0.043  0.00  0.00    -0.082 A 
ATOM      7  C5  PXY d   1      -0.025   0.767   0.089  0.00  0.00     0.003 A 
ATOM      8  C6  PXY d   1      -0.717   1.268  -1.010  0.00  0.00     0.003 A 
ENDROOT
TORSDOF 0
ENDMDL
