MODEL 1
REMARK minimizedAffinity 9.78101158
REMARK minimizedRMSD -1
REMARK  0 active torsions:
REMARK  status: ('A' for Active; 'I' for Inactive)
ROOT
ATOM      1  C4' PXY d   1       1.262  -3.331   5.996  0.00  0.00     0.077 C 
ATOM      2  C1' PXY d   1       2.511  -0.624   1.043  0.00  0.00     0.077 C 
ATOM      3  C1  PXY d   1       2.180  -1.323   2.347  0.00  0.00    -0.082 A 
ATOM      4  C2  PXY d   1       2.768  -2.470   2.643  0.00  0.00     0.003 A 
ATOM      5  C3  PXY d   1       2.457  -3.131   3.803  0.00  0.00     0.003 A 
ATOM      6  C4  PXY d   1       1.573  -2.586   4.695  0.00  0.00    -0.082 A 
ATOM      7  C5  PXY d   1       0.976  -1.410   4.406  0.00  0.00     0.003 A 
ATOM      8  C6  PXY d   1       1.275  -0.775   3.204  0.00  0.00     0.003 A 
ENDROOT
TORSDOF 0
ENDMDL
