MODEL 1
REMARK minimizedAffinity 0.26335755
REMARK minimizedRMSD -1
REMARK  0 active torsions:
REMARK  status: ('A' for Active; 'I' for Inactive)
ROOT
ATOM      1  C4' PXY d   1       6.000  -3.758   6.000  0.00  0.00     0.077 C 
ATOM      2  C1' PXY d   1       2.440  -0.359   2.969  0.00  0.00     0.077 C 
ATOM      3  C1  PXY d   1       3.383  -1.248   3.756  0.00  0.00    -0.082 A 
ATOM      4  C2  PXY d   1       2.891  -2.209   4.520  0.00  0.00     0.003 A 
ATOM      5  C3  PXY d   1       3.728  -3.002   5.263  0.00  0.00     0.003 A 
ATOM      6  C4  PXY d   1       5.086  -2.843   5.181  0.00  0.00    -0.082 A 
ATOM      7  C5  PXY d   1       5.596  -1.871   4.395  0.00  0.00     0.003 A 
ATOM      8  C6  PXY d   1       4.727  -1.051   3.681  0.00  0.00     0.003 A 
ENDROOT
TORSDOF 0
ENDMDL
