MODEL 1
REMARK minimizedAffinity 4.42759991
REMARK minimizedRMSD -1
REMARK  0 active torsions:
REMARK  status: ('A' for Active; 'I' for Inactive)
ROOT
ATOM      1  C4' PXY d   1       2.953   3.119   4.003  0.00  0.00     0.077 C 
ATOM      2  C1' PXY d   1       1.974  -2.431   2.718  0.00  0.00     0.077 C 
ATOM      3  C1  PXY d   1       2.240  -0.975   3.046  0.00  0.00    -0.082 A 
ATOM      4  C2  PXY d   1       1.875  -0.493   4.223  0.00  0.00     0.003 A 
ATOM      5  C3  PXY d   1       2.079   0.829   4.524  0.00  0.00     0.003 A 
ATOM      6  C4  PXY d   1       2.712   1.653   3.632  0.00  0.00    -0.082 A 
ATOM      7  C5  PXY d   1       3.098   1.165   2.434  0.00  0.00     0.003 A 
ATOM      8  C6  PXY d   1       2.844  -0.169   2.131  0.00  0.00     0.003 A 
ENDROOT
TORSDOF 0
ENDMDL
