MODEL 1
REMARK minimizedAffinity -0.969962478
REMARK minimizedRMSD -1
REMARK  0 active torsions:
REMARK  status: ('A' for Active; 'I' for Inactive)
ROOT
ATOM      1  C   UNL d   1      -0.410  -2.855   0.754  0.00  0.00     0.077 C 
ATOM      2  C1  UNL d   1       0.059  -1.448   0.525  0.00  0.00    -0.074 A 
ATOM      3  C2  UNL d   1      -0.156  -0.454   1.485  0.00  0.00    -0.005 A 
ATOM      4  C3  UNL d   1       0.294   0.847   1.263  0.00  0.00     0.006 A 
ATOM      5  C4  UNL d   1       0.962   1.167   0.080  0.00  0.00    -0.005 A 
ATOM      6  C5  UNL d   1       1.187   0.186  -0.891  0.00  0.00    -0.074 A 
ATOM      7  C6  UNL d   1       1.912   0.510  -2.163  0.00  0.00     0.077 C 
ATOM      8  C7  UNL d   1       0.738  -1.121  -0.657  0.00  0.00    -0.001 A 
ENDROOT
TORSDOF 0
ENDMDL
