MODEL 1
REMARK minimizedAffinity -3.54277253
REMARK minimizedRMSD -1
REMARK  0 active torsions:
REMARK  status: ('A' for Active; 'I' for Inactive)
ROOT
ATOM      1  C   UNL d   1       1.488   0.236  -2.562  0.00  0.00     0.077 C 
ATOM      2  C1  UNL d   1       1.020  -0.490  -1.336  0.00  0.00    -0.074 A 
ATOM      3  C2  UNL d   1       1.021  -1.887  -1.283  0.00  0.00    -0.005 A 
ATOM      4  C3  UNL d   1       0.593  -2.548  -0.132  0.00  0.00     0.006 A 
ATOM      5  C4  UNL d   1       0.159  -1.819   0.976  0.00  0.00    -0.005 A 
ATOM      6  C5  UNL d   1       0.152  -0.421   0.942  0.00  0.00    -0.074 A 
ATOM      7  C6  UNL d   1      -0.301   0.377   2.128  0.00  0.00     0.077 C 
ATOM      8  C7  UNL d   1       0.591   0.235  -0.215  0.00  0.00    -0.001 A 
ENDROOT
TORSDOF 0
ENDMDL
