MODEL 1
REMARK minimizedAffinity 0.541305184
REMARK minimizedRMSD -1
REMARK  0 active torsions:
REMARK  status: ('A' for Active; 'I' for Inactive)
ROOT
ATOM      1  C   UNL d   1       0.612  -2.576  -0.391  0.00  0.00     0.077 C 
ATOM      2  C1  UNL d   1       0.418  -1.156   0.050  0.00  0.00    -0.074 A 
ATOM      3  C2  UNL d   1       1.182  -0.122  -0.501  0.00  0.00    -0.005 A 
ATOM      4  C3  UNL d   1       0.983   1.196  -0.088  0.00  0.00     0.006 A 
ATOM      5  C4  UNL d   1       0.020   1.492   0.878  0.00  0.00    -0.005 A 
ATOM      6  C5  UNL d   1      -0.754   0.471   1.438  0.00  0.00    -0.074 A 
ATOM      7  C6  UNL d   1      -1.800   0.774   2.470  0.00  0.00     0.077 C 
ATOM      8  C7  UNL d   1      -0.553  -0.849   1.013  0.00  0.00    -0.001 A 
ENDROOT
TORSDOF 0
ENDMDL
