MODEL 1
REMARK minimizedAffinity -1.67929566
REMARK minimizedRMSD -1
REMARK  0 active torsions:
REMARK  status: ('A' for Active; 'I' for Inactive)
ROOT
ATOM      1  C   UNL d   1      -2.671   0.360  -1.092  0.00  0.00     0.077 C 
ATOM      2  C1  UNL d   1      -1.220   0.702  -0.926  0.00  0.00    -0.074 A 
ATOM      3  C2  UNL d   1      -0.823   1.998  -0.580  0.00  0.00    -0.005 A 
ATOM      4  C3  UNL d   1       0.530   2.299  -0.419  0.00  0.00     0.006 A 
ATOM      5  C4  UNL d   1       1.496   1.310  -0.602  0.00  0.00    -0.005 A 
ATOM      6  C5  UNL d   1       1.118   0.009  -0.946  0.00  0.00    -0.074 A 
ATOM      7  C6  UNL d   1       2.144  -1.069  -1.137  0.00  0.00     0.077 C 
ATOM      8  C7  UNL d   1      -0.243  -0.288  -1.100  0.00  0.00    -0.001 A 
ENDROOT
TORSDOF 0
ENDMDL
