MODEL 1
REMARK minimizedAffinity -3.71125221
REMARK minimizedRMSD -1
REMARK  0 active torsions:
REMARK  status: ('A' for Active; 'I' for Inactive)
ROOT
ATOM      1  C   UNL d   1      -3.058   0.111  -6.000  0.00  0.00     0.077 C 
ATOM      2  C1  UNL d   1      -3.738  -1.226  -5.991  0.00  0.00    -0.074 A 
ATOM      3  C2  UNL d   1      -5.133  -1.323  -5.995  0.00  0.00    -0.005 A 
ATOM      4  C3  UNL d   1      -5.751  -2.573  -5.997  0.00  0.00     0.006 A 
ATOM      5  C4  UNL d   1      -4.982  -3.737  -5.995  0.00  0.00    -0.005 A 
ATOM      6  C5  UNL d   1      -3.586  -3.660  -5.992  0.00  0.00    -0.074 A 
ATOM      7  C6  UNL d   1      -2.744  -4.902  -6.000  0.00  0.00     0.077 C 
ATOM      8  C7  UNL d   1      -2.972  -2.400  -5.997  0.00  0.00    -0.001 A 
ENDROOT
TORSDOF 0
ENDMDL
