MODEL 1
REMARK minimizedAffinity 4.99671221
REMARK minimizedRMSD -1
REMARK  0 active torsions:
REMARK  status: ('A' for Active; 'I' for Inactive)
ROOT
ATOM      1  C   UNL d   1      -5.242   5.306  -5.985  0.00  0.00     0.077 C 
ATOM      2  C1  UNL d   1      -4.348   4.102  -5.997  0.00  0.00    -0.074 A 
ATOM      3  C2  UNL d   1      -2.956   4.241  -5.998  0.00  0.00    -0.005 A 
ATOM      4  C3  UNL d   1      -2.137   3.112  -6.000  0.00  0.00     0.006 A 
ATOM      5  C4  UNL d   1      -2.700   1.835  -5.999  0.00  0.00    -0.005 A 
ATOM      6  C5  UNL d   1      -4.090   1.677  -5.997  0.00  0.00    -0.074 A 
ATOM      7  C6  UNL d   1      -4.712   0.312  -5.987  0.00  0.00     0.077 C 
ATOM      8  C7  UNL d   1      -4.906   2.816  -5.989  0.00  0.00    -0.001 A 
ENDROOT
TORSDOF 0
ENDMDL
