MODEL 1
REMARK minimizedAffinity 1.00370741
REMARK minimizedRMSD -1
REMARK  0 active torsions:
REMARK  status: ('A' for Active; 'I' for Inactive)
ROOT
ATOM      1  C   UNL d   1       1.873  -3.024  -2.347  0.00  0.00     0.077 C 
ATOM      2  C1  UNL d   1       1.234  -1.679  -2.170  0.00  0.00    -0.074 A 
ATOM      3  C2  UNL d   1       0.694  -0.990  -3.260  0.00  0.00    -0.005 A 
ATOM      4  C3  UNL d   1       0.094   0.256  -3.078  0.00  0.00     0.006 A 
ATOM      5  C4  UNL d   1       0.028   0.824  -1.805  0.00  0.00    -0.005 A 
ATOM      6  C5  UNL d   1       0.562   0.150  -0.703  0.00  0.00    -0.074 A 
ATOM      7  C6  UNL d   1       0.491   0.742   0.674  0.00  0.00     0.077 C 
ATOM      8  C7  UNL d   1       1.157  -1.105  -0.893  0.00  0.00    -0.001 A 
ENDROOT
TORSDOF 0
ENDMDL
