MODEL 1
REMARK minimizedAffinity 3.91677785
REMARK minimizedRMSD -1
REMARK  0 active torsions:
REMARK  status: ('A' for Active; 'I' for Inactive)
ROOT
ATOM      1  C   UNL d   1      -2.300   0.552  -5.974  0.00  0.00     0.077 C 
ATOM      2  C1  UNL d   1      -3.236  -0.620  -5.975  0.00  0.00    -0.074 A 
ATOM      3  C2  UNL d   1      -4.622  -0.432  -5.989  0.00  0.00    -0.005 A 
ATOM      4  C3  UNL d   1      -5.481  -1.531  -6.000  0.00  0.00     0.006 A 
ATOM      5  C4  UNL d   1      -4.963  -2.827  -5.997  0.00  0.00    -0.005 A 
ATOM      6  C5  UNL d   1      -3.580  -3.034  -5.985  0.00  0.00    -0.074 A 
ATOM      7  C6  UNL d   1      -3.008  -4.420  -5.992  0.00  0.00     0.077 C 
ATOM      8  C7  UNL d   1      -2.724  -1.925  -5.981  0.00  0.00    -0.001 A 
ENDROOT
TORSDOF 0
ENDMDL
