MODEL 1
REMARK minimizedAffinity 8.09937286
REMARK minimizedRMSD -1
REMARK  0 active torsions:
REMARK  status: ('A' for Active; 'I' for Inactive)
ROOT
ATOM      1  C   UNL d   1      -4.719  -0.583  -5.982  0.00  0.00     0.077 C 
ATOM      2  C1  UNL d   1      -4.735   0.916  -5.994  0.00  0.00    -0.074 A 
ATOM      3  C2  UNL d   1      -5.943   1.622  -5.991  0.00  0.00    -0.005 A 
ATOM      4  C3  UNL d   1      -5.943   3.016  -5.993  0.00  0.00     0.006 A 
ATOM      5  C4  UNL d   1      -4.737   3.719  -5.997  0.00  0.00    -0.005 A 
ATOM      6  C5  UNL d   1      -3.519   3.031  -5.999  0.00  0.00    -0.074 A 
ATOM      7  C6  UNL d   1      -2.214   3.770  -5.994  0.00  0.00     0.077 C 
ATOM      8  C7  UNL d   1      -3.528   1.629  -5.990  0.00  0.00    -0.001 A 
ENDROOT
TORSDOF 0
ENDMDL
