MODEL 1
REMARK minimizedAffinity -2.29564834
REMARK minimizedRMSD -1
REMARK  0 active torsions:
REMARK  status: ('A' for Active; 'I' for Inactive)
ROOT
ATOM      1  C   UNL d   1      -3.038   5.607  -5.990  0.00  0.00     0.077 C 
ATOM      2  C1  UNL d   1      -3.831   4.335  -5.985  0.00  0.00    -0.074 A 
ATOM      3  C2  UNL d   1      -5.230   4.360  -5.992  0.00  0.00    -0.005 A 
ATOM      4  C3  UNL d   1      -5.954   3.168  -5.997  0.00  0.00     0.006 A 
ATOM      5  C4  UNL d   1      -5.289   1.941  -5.995  0.00  0.00    -0.005 A 
ATOM      6  C5  UNL d   1      -3.891   1.897  -5.989  0.00  0.00    -0.074 A 
ATOM      7  C6  UNL d   1      -3.161   0.587  -5.997  0.00  0.00     0.077 C 
ATOM      8  C7  UNL d   1      -3.170   3.099  -5.991  0.00  0.00    -0.001 A 
ENDROOT
TORSDOF 0
ENDMDL
