MODEL 1
REMARK minimizedAffinity 6.47558308
REMARK minimizedRMSD -1
REMARK  0 active torsions:
REMARK  status: ('A' for Active; 'I' for Inactive)
ROOT
ATOM      1  C   UNL d   1       1.377   6.000  -2.136  0.00  0.00     0.077 C 
ATOM      2  C1  UNL d   1       1.357   5.185  -0.877  0.00  0.00    -0.074 A 
ATOM      3  C2  UNL d   1       1.429   5.799   0.378  0.00  0.00    -0.005 A 
ATOM      4  C3  UNL d   1       1.401   5.029   1.540  0.00  0.00     0.006 A 
ATOM      5  C4  UNL d   1       1.300   3.640   1.461  0.00  0.00    -0.005 A 
ATOM      6  C5  UNL d   1       1.226   3.008   0.215  0.00  0.00    -0.074 A 
ATOM      7  C6  UNL d   1       1.108   1.517   0.112  0.00  0.00     0.077 C 
ATOM      8  C7  UNL d   1       1.249   3.790  -0.949  0.00  0.00    -0.001 A 
ENDROOT
TORSDOF 0
ENDMDL
