MODEL 1
REMARK minimizedAffinity 17.2929745
REMARK minimizedRMSD -1
REMARK  0 active torsions:
REMARK  status: ('A' for Active; 'I' for Inactive)
ROOT
ATOM      1  C   UNL d   1       1.007   2.971   1.051  0.00  0.00     0.077 C 
ATOM      2  C1  UNL d   1       0.744   3.941  -0.061  0.00  0.00    -0.074 A 
ATOM      3  C2  UNL d   1       1.511   5.103  -0.199  0.00  0.00    -0.005 A 
ATOM      4  C3  UNL d   1       1.261   5.991  -1.244  0.00  0.00     0.006 A 
ATOM      5  C4  UNL d   1       0.243   5.728  -2.162  0.00  0.00    -0.005 A 
ATOM      6  C5  UNL d   1      -0.534   4.572  -2.041  0.00  0.00    -0.074 A 
ATOM      7  C6  UNL d   1      -1.625   4.269  -3.024  0.00  0.00     0.077 C 
ATOM      8  C7  UNL d   1      -0.272   3.680  -0.992  0.00  0.00    -0.001 A 
ENDROOT
TORSDOF 0
ENDMDL
