MODEL 1
REMARK minimizedAffinity 10.5552654
REMARK minimizedRMSD -1
REMARK  0 active torsions:
REMARK  status: ('A' for Active; 'I' for Inactive)
ROOT
ATOM      1  C   UNL d   1      -2.215   1.478   5.829  0.00  0.00     0.077 C 
ATOM      2  C1  UNL d   1      -3.008   1.759   4.588  0.00  0.00    -0.074 A 
ATOM      3  C2  UNL d   1      -4.098   0.957   4.235  0.00  0.00    -0.005 A 
ATOM      4  C3  UNL d   1      -4.832   1.236   3.082  0.00  0.00     0.006 A 
ATOM      5  C4  UNL d   1      -4.484   2.317   2.272  0.00  0.00    -0.005 A 
ATOM      6  C5  UNL d   1      -3.398   3.130   2.609  0.00  0.00    -0.074 A 
ATOM      7  C6  UNL d   1      -3.016   4.302   1.754  0.00  0.00     0.077 C 
ATOM      8  C7  UNL d   1      -2.669   2.848   3.773  0.00  0.00    -0.001 A 
ENDROOT
TORSDOF 0
ENDMDL
