MODEL 1
REMARK minimizedAffinity 6.2768755
REMARK minimizedRMSD -1
REMARK  0 active torsions:
REMARK  status: ('A' for Active; 'I' for Inactive)
ROOT
ATOM      1  C   UNL d   1      -4.901   0.755   2.340  0.00  0.00     0.077 C 
ATOM      2  C1  UNL d   1      -3.820   1.554   3.005  0.00  0.00    -0.074 A 
ATOM      3  C2  UNL d   1      -3.458   2.815   2.521  0.00  0.00    -0.005 A 
ATOM      4  C3  UNL d   1      -2.457   3.551   3.156  0.00  0.00     0.006 A 
ATOM      5  C4  UNL d   1      -1.808   3.033   4.278  0.00  0.00    -0.005 A 
ATOM      6  C5  UNL d   1      -2.157   1.774   4.776  0.00  0.00    -0.074 A 
ATOM      7  C6  UNL d   1      -1.478   1.207   5.987  0.00  0.00     0.077 C 
ATOM      8  C7  UNL d   1      -3.169   1.044   4.137  0.00  0.00    -0.001 A 
ENDROOT
TORSDOF 0
ENDMDL
