MODEL 1
REMARK minimizedAffinity 4.37134314
REMARK minimizedRMSD -1
REMARK  0 active torsions:
REMARK  status: ('A' for Active; 'I' for Inactive)
ROOT
ATOM      1  C   UNL d   1      -2.210   1.528   5.908  0.00  0.00     0.077 C 
ATOM      2  C1  UNL d   1      -2.914   1.415   4.588  0.00  0.00    -0.074 A 
ATOM      3  C2  UNL d   1      -2.810   2.428   3.629  0.00  0.00    -0.005 A 
ATOM      4  C3  UNL d   1      -3.463   2.304   2.402  0.00  0.00     0.006 A 
ATOM      5  C4  UNL d   1      -4.225   1.169   2.123  0.00  0.00    -0.005 A 
ATOM      6  C5  UNL d   1      -4.339   0.146   3.070  0.00  0.00    -0.074 A 
ATOM      7  C6  UNL d   1      -5.146  -1.085   2.782  0.00  0.00     0.077 C 
ATOM      8  C7  UNL d   1      -3.675   0.274   4.297  0.00  0.00    -0.001 A 
ENDROOT
TORSDOF 0
ENDMDL
