MODEL 1
REMARK minimizedAffinity 18.5219765
REMARK minimizedRMSD -1
REMARK  0 active torsions:
REMARK  status: ('A' for Active; 'I' for Inactive)
ROOT
ATOM      1  C   UNL d   1      -2.596   1.176   5.990  0.00  0.00     0.077 C 
ATOM      2  C1  UNL d   1      -2.981   1.672   4.629  0.00  0.00    -0.074 A 
ATOM      3  C2  UNL d   1      -3.774   0.895   3.778  0.00  0.00    -0.005 A 
ATOM      4  C3  UNL d   1      -4.132   1.374   2.518  0.00  0.00     0.006 A 
ATOM      5  C4  UNL d   1      -3.702   2.633   2.096  0.00  0.00    -0.005 A 
ATOM      6  C5  UNL d   1      -2.910   3.424   2.934  0.00  0.00    -0.074 A 
ATOM      7  C6  UNL d   1      -2.448   4.784   2.500  0.00  0.00     0.077 C 
ATOM      8  C7  UNL d   1      -2.560   2.939   4.201  0.00  0.00    -0.001 A 
ENDROOT
TORSDOF 0
ENDMDL
