MODEL 1
REMARK minimizedAffinity -1.94374347
REMARK minimizedRMSD -1
REMARK  0 active torsions:
REMARK  status: ('A' for Active; 'I' for Inactive)
ROOT
ATOM      1  C   UNL d   1      -0.371   0.220   2.434  0.00  0.00     0.077 C 
ATOM      2  C1  UNL d   1       0.412   0.319   1.159  0.00  0.00    -0.074 A 
ATOM      3  C2  UNL d   1       0.315   1.450   0.341  0.00  0.00    -0.005 A 
ATOM      4  C3  UNL d   1       1.056   1.531  -0.837  0.00  0.00     0.006 A 
ATOM      5  C4  UNL d   1       1.901   0.485  -1.210  0.00  0.00    -0.005 A 
ATOM      6  C5  UNL d   1       2.012  -0.653  -0.404  0.00  0.00    -0.074 A 
ATOM      7  C6  UNL d   1       2.923  -1.782  -0.785  0.00  0.00     0.077 C 
ATOM      8  C7  UNL d   1       1.269  -0.725   0.782  0.00  0.00    -0.001 A 
ENDROOT
TORSDOF 0
ENDMDL
