MODEL 1
REMARK minimizedAffinity -5.84011173
REMARK minimizedRMSD -1
REMARK  2 active torsions:
REMARK  status: ('A' for Active; 'I' for Inactive)
REMARK    1  A    between atoms: C1_2  and  C2_3 
REMARK    2  A    between atoms: C2_3  and  C3_4 
ROOT
ATOM      1  C3  UNL d   1      -0.477  -0.420   0.481  0.00  0.00    -0.075 A 
ATOM      2  C4  UNL d   1      -1.599  -0.246  -0.342  0.00  0.00     0.002 A 
ATOM      3  C5  UNL d   1      -2.823  -0.822  -0.002  0.00  0.00     0.002 A 
ATOM      4  C6  UNL d   1      -2.940  -1.584   1.158  0.00  0.00    -0.004 A 
ATOM      5  C7  UNL d   1      -1.828  -1.777   1.975  0.00  0.00     0.002 A 
ATOM      6  C8  UNL d   1      -0.603  -1.198   1.639  0.00  0.00     0.002 A 
ENDROOT
BRANCH   1   7
ATOM      7  C2  UNL d   1       0.843   0.225   0.134  0.00  0.00     0.056 C 
BRANCH   7   8
ATOM      8  C1  UNL d   1       1.485   0.996   1.292  0.00  0.00     0.007 C 
ATOM      9  C   UNL d   1       2.104   2.319   0.863  0.00  0.00     0.009 C 
ENDBRANCH   7   8
ENDBRANCH   1   7
TORSDOF 2
ENDMDL
