MODEL 1
REMARK minimizedAffinity -5.01086426
REMARK minimizedRMSD -1
REMARK  2 active torsions:
REMARK  status: ('A' for Active; 'I' for Inactive)
REMARK    1  A    between atoms: C1_2  and  C2_3 
REMARK    2  A    between atoms: C2_3  and  C3_4 
ROOT
ATOM      1  C3  UNL d   1      -0.892  -0.530  -0.150  0.00  0.00    -0.075 A 
ATOM      2  C4  UNL d   1      -0.852  -1.492   0.869  0.00  0.00     0.002 A 
ATOM      3  C5  UNL d   1      -1.883  -2.423   1.004  0.00  0.00     0.002 A 
ATOM      4  C6  UNL d   1      -2.968  -2.398   0.130  0.00  0.00    -0.004 A 
ATOM      5  C7  UNL d   1      -3.025  -1.436  -0.875  0.00  0.00     0.002 A 
ATOM      6  C8  UNL d   1      -1.994  -0.505  -1.016  0.00  0.00     0.002 A 
ENDROOT
BRANCH   1   7
ATOM      7  C2  UNL d   1       0.234   0.462  -0.320  0.00  0.00     0.056 C 
BRANCH   7   8
ATOM      8  C1  UNL d   1       1.529   0.064   0.395  0.00  0.00     0.007 C 
ATOM      9  C   UNL d   1       2.441   1.248   0.689  0.00  0.00     0.009 C 
ENDBRANCH   7   8
ENDBRANCH   1   7
TORSDOF 2
ENDMDL
