MODEL 1
REMARK minimizedAffinity -5.70758104
REMARK minimizedRMSD -1
REMARK  2 active torsions:
REMARK  status: ('A' for Active; 'I' for Inactive)
REMARK    1  A    between atoms: C1_2  and  C2_3 
REMARK    2  A    between atoms: C2_3  and  C3_4 
ROOT
ATOM      1  C3  UNL d   1       0.440   0.322  -0.012  0.00  0.00    -0.075 A 
ATOM      2  C4  UNL d   1      -0.393   0.359  -1.140  0.00  0.00     0.002 A 
ATOM      3  C5  UNL d   1      -1.608  -0.327  -1.147  0.00  0.00     0.002 A 
ATOM      4  C6  UNL d   1      -2.000  -1.065  -0.033  0.00  0.00    -0.004 A 
ATOM      5  C7  UNL d   1      -1.174  -1.123   1.087  0.00  0.00     0.002 A 
ATOM      6  C8  UNL d   1       0.040  -0.434   1.098  0.00  0.00     0.002 A 
ENDROOT
BRANCH   1   7
ATOM      7  C2  UNL d   1       1.742   1.086   0.013  0.00  0.00     0.056 C 
BRANCH   7   8
ATOM      8  C1  UNL d   1       1.863   2.074   1.179  0.00  0.00     0.007 C 
ATOM      9  C   UNL d   1       1.924   3.528   0.730  0.00  0.00     0.009 C 
ENDBRANCH   7   8
ENDBRANCH   1   7
TORSDOF 2
ENDMDL
