MODEL 1
REMARK minimizedAffinity -5.23034
REMARK minimizedRMSD -1
REMARK  2 active torsions:
REMARK  status: ('A' for Active; 'I' for Inactive)
REMARK    1  A    between atoms: C1_2  and  C2_3 
REMARK    2  A    between atoms: C2_3  and  C3_4 
ROOT
ATOM      1  C3  UNL d   1      -0.634  -0.405  -0.135  0.00  0.00    -0.075 A 
ATOM      2  C4  UNL d   1      -0.464  -1.385   0.854  0.00  0.00     0.002 A 
ATOM      3  C5  UNL d   1      -1.551  -2.134   1.304  0.00  0.00     0.002 A 
ATOM      4  C6  UNL d   1      -2.822  -1.907   0.780  0.00  0.00    -0.004 A 
ATOM      5  C7  UNL d   1      -3.006  -0.925  -0.190  0.00  0.00     0.002 A 
ATOM      6  C8  UNL d   1      -1.919  -0.177  -0.646  0.00  0.00     0.002 A 
ENDROOT
BRANCH   1   7
ATOM      7  C2  UNL d   1       0.543   0.389  -0.647  0.00  0.00     0.056 C 
BRANCH   7   8
ATOM      8  C1  UNL d   1       1.771   0.346   0.269  0.00  0.00     0.007 C 
ATOM      9  C   UNL d   1       2.385   1.718   0.514  0.00  0.00     0.009 C 
ENDBRANCH   7   8
ENDBRANCH   1   7
TORSDOF 2
ENDMDL
