MODEL 1
REMARK minimizedAffinity -5.87607145
REMARK minimizedRMSD -1
REMARK  2 active torsions:
REMARK  status: ('A' for Active; 'I' for Inactive)
REMARK    1  A    between atoms: C1_2  and  C2_3 
REMARK    2  A    between atoms: C2_3  and  C3_4 
ROOT
ATOM      1  C3  UNL d   1      -1.005  -0.457   0.032  0.00  0.00    -0.075 A 
ATOM      2  C4  UNL d   1      -2.280  -0.306  -0.531  0.00  0.00     0.002 A 
ATOM      3  C5  UNL d   1      -3.403  -0.832   0.108  0.00  0.00     0.002 A 
ATOM      4  C6  UNL d   1      -3.265  -1.522   1.310  0.00  0.00    -0.004 A 
ATOM      5  C7  UNL d   1      -2.000  -1.692   1.870  0.00  0.00     0.002 A 
ATOM      6  C8  UNL d   1      -0.875  -1.163   1.235  0.00  0.00     0.002 A 
ENDROOT
BRANCH   1   7
ATOM      7  C2  UNL d   1       0.211   0.136  -0.640  0.00  0.00     0.056 C 
BRANCH   7   8
ATOM      8  C1  UNL d   1       1.454   0.188   0.254  0.00  0.00     0.007 C 
ATOM      9  C   UNL d   1       1.571   1.485   1.044  0.00  0.00     0.009 C 
ENDBRANCH   7   8
ENDBRANCH   1   7
TORSDOF 2
ENDMDL
