MODEL 1
REMARK minimizedAffinity -3.70516396
REMARK minimizedRMSD -1
REMARK  2 active torsions:
REMARK  status: ('A' for Active; 'I' for Inactive)
REMARK    1  A    between atoms: C1_2  and  C2_3 
REMARK    2  A    between atoms: C2_3  and  C3_4 
ROOT
ATOM      1  C3  UNL d   1      -1.080  -0.641   0.042  0.00  0.00    -0.075 A 
ATOM      2  C4  UNL d   1      -2.326  -0.874  -0.558  0.00  0.00     0.002 A 
ATOM      3  C5  UNL d   1      -3.282  -1.665   0.080  0.00  0.00     0.002 A 
ATOM      4  C6  UNL d   1      -3.002  -2.240   1.318  0.00  0.00    -0.004 A 
ATOM      5  C7  UNL d   1      -1.761  -2.028   1.915  0.00  0.00     0.002 A 
ATOM      6  C8  UNL d   1      -0.804  -1.233   1.282  0.00  0.00     0.002 A 
ENDROOT
BRANCH   1   7
ATOM      7  C2  UNL d   1      -0.052   0.239  -0.629  0.00  0.00     0.056 C 
BRANCH   7   8
ATOM      8  C1  UNL d   1       1.347   0.147  -0.009  0.00  0.00     0.007 C 
ATOM      9  C   UNL d   1       1.928   1.505   0.364  0.00  0.00     0.009 C 
ENDBRANCH   7   8
ENDBRANCH   1   7
TORSDOF 2
ENDMDL
