MODEL 1
REMARK minimizedAffinity 0.893624425
REMARK minimizedRMSD -1
REMARK  2 active torsions:
REMARK  status: ('A' for Active; 'I' for Inactive)
REMARK    1  A    between atoms: C1_2  and  C2_3 
REMARK    2  A    between atoms: C2_3  and  C3_4 
ROOT
ATOM      1  C3  UNL d   1       0.511  -0.612  -0.584  0.00  0.00    -0.075 A 
ATOM      2  C4  UNL d   1       0.696   0.738  -0.252  0.00  0.00     0.002 A 
ATOM      3  C5  UNL d   1       0.108   1.743  -1.021  0.00  0.00     0.002 A 
ATOM      4  C6  UNL d   1      -0.662   1.413  -2.134  0.00  0.00    -0.004 A 
ATOM      5  C7  UNL d   1      -0.839   0.075  -2.482  0.00  0.00     0.002 A 
ATOM      6  C8  UNL d   1      -0.255  -0.933  -1.712  0.00  0.00     0.002 A 
ENDROOT
BRANCH   1   7
ATOM      7  C2  UNL d   1       1.121  -1.705   0.261  0.00  0.00     0.056 C 
BRANCH   7   8
ATOM      8  C1  UNL d   1       0.148  -2.332   1.266  0.00  0.00     0.007 C 
ATOM      9  C   UNL d   1       0.680  -2.337   2.693  0.00  0.00     0.009 C 
ENDBRANCH   7   8
ENDBRANCH   1   7
TORSDOF 2
ENDMDL
