MODEL 1
REMARK minimizedAffinity -3.56775808
REMARK minimizedRMSD -1
REMARK  2 active torsions:
REMARK  status: ('A' for Active; 'I' for Inactive)
REMARK    1  A    between atoms: C1_2  and  C2_3 
REMARK    2  A    between atoms: C2_3  and  C3_4 
ROOT
ATOM      1  C3  UNL d   1      -0.194  -0.305   0.206  0.00  0.00    -0.075 A 
ATOM      2  C4  UNL d   1      -1.276  -0.062  -0.653  0.00  0.00     0.002 A 
ATOM      3  C5  UNL d   1      -2.470  -0.767  -0.504  0.00  0.00     0.002 A 
ATOM      4  C6  UNL d   1      -2.595  -1.729   0.497  0.00  0.00    -0.004 A 
ATOM      5  C7  UNL d   1      -1.521  -1.990   1.345  0.00  0.00     0.002 A 
ATOM      6  C8  UNL d   1      -0.326  -1.283   1.201  0.00  0.00     0.002 A 
ENDROOT
BRANCH   1   7
ATOM      7  C2  UNL d   1       1.092   0.476   0.069  0.00  0.00     0.056 C 
BRANCH   7   8
ATOM      8  C1  UNL d   1       1.343   1.469   1.208  0.00  0.00     0.007 C 
ATOM      9  C   UNL d   1       2.328   2.570   0.838  0.00  0.00     0.009 C 
ENDBRANCH   7   8
ENDBRANCH   1   7
TORSDOF 2
ENDMDL
