MODEL 1
REMARK minimizedAffinity -1.00148869
REMARK minimizedRMSD -1
REMARK  2 active torsions:
REMARK  status: ('A' for Active; 'I' for Inactive)
REMARK    1  A    between atoms: C1_2  and  C2_3 
REMARK    2  A    between atoms: C2_3  and  C3_4 
ROOT
ATOM      1  C3  UNL d   1       1.414   1.269   0.558  0.00  0.00    -0.075 A 
ATOM      2  C4  UNL d   1       1.099   1.905   1.767  0.00  0.00     0.002 A 
ATOM      3  C5  UNL d   1       1.763   3.072   2.149  0.00  0.00     0.002 A 
ATOM      4  C6  UNL d   1       2.756   3.610   1.333  0.00  0.00    -0.004 A 
ATOM      5  C7  UNL d   1       3.089   2.977   0.137  0.00  0.00     0.002 A 
ATOM      6  C8  UNL d   1       2.423   1.812  -0.249  0.00  0.00     0.002 A 
ENDROOT
BRANCH   1   7
ATOM      7  C2  UNL d   1       0.678   0.024   0.125  0.00  0.00     0.056 C 
BRANCH   7   8
ATOM      8  C1  UNL d   1      -0.233  -0.569   1.205  0.00  0.00     0.007 C 
ATOM      9  C   UNL d   1       0.333  -1.831   1.843  0.00  0.00     0.009 C 
ENDBRANCH   7   8
ENDBRANCH   1   7
TORSDOF 2
ENDMDL
