MODEL 1
REMARK minimizedAffinity -6.30148458
REMARK minimizedRMSD -1
REMARK  2 active torsions:
REMARK  status: ('A' for Active; 'I' for Inactive)
REMARK    1  A    between atoms: C1_2  and  C2_3 
REMARK    2  A    between atoms: C2_3  and  C3_4 
ROOT
ATOM      1  C3  UNL d   1      -0.849  -0.819   0.273  0.00  0.00    -0.075 A 
ATOM      2  C4  UNL d   1      -2.117  -0.243   0.109  0.00  0.00     0.002 A 
ATOM      3  C5  UNL d   1      -3.267  -0.944   0.473  0.00  0.00     0.002 A 
ATOM      4  C6  UNL d   1      -3.165  -2.233   0.993  0.00  0.00    -0.004 A 
ATOM      5  C7  UNL d   1      -1.912  -2.822   1.144  0.00  0.00     0.002 A 
ATOM      6  C8  UNL d   1      -0.759  -2.120   0.785  0.00  0.00     0.002 A 
ENDROOT
BRANCH   1   7
ATOM      7  C2  UNL d   1       0.401  -0.054  -0.091  0.00  0.00     0.056 C 
BRANCH   7   8
ATOM      8  C1  UNL d   1       0.364   1.425   0.307  0.00  0.00     0.007 C 
ATOM      9  C   UNL d   1       1.735   1.988   0.654  0.00  0.00     0.009 C 
ENDBRANCH   7   8
ENDBRANCH   1   7
TORSDOF 2
ENDMDL
