MODEL 1
REMARK minimizedAffinity -4.99084711
REMARK minimizedRMSD -1
REMARK  2 active torsions:
REMARK  status: ('A' for Active; 'I' for Inactive)
REMARK    1  A    between atoms: C1_2  and  C2_3 
REMARK    2  A    between atoms: C2_3  and  C3_4 
ROOT
ATOM      1  C3  UNL d   1      -0.922  -0.435   0.384  0.00  0.00    -0.075 A 
ATOM      2  C4  UNL d   1      -1.979  -0.062  -0.458  0.00  0.00     0.002 A 
ATOM      3  C5  UNL d   1      -3.135  -0.840  -0.532  0.00  0.00     0.002 A 
ATOM      4  C6  UNL d   1      -3.244  -2.003   0.227  0.00  0.00    -0.004 A 
ATOM      5  C7  UNL d   1      -2.193  -2.392   1.055  0.00  0.00     0.002 A 
ATOM      6  C8  UNL d   1      -1.037  -1.613   1.133  0.00  0.00     0.002 A 
ENDROOT
BRANCH   1   7
ATOM      7  C2  UNL d   1       0.319   0.419   0.490  0.00  0.00     0.056 C 
BRANCH   7   8
ATOM      8  C1  UNL d   1       1.347   0.165  -0.617  0.00  0.00     0.007 C 
ATOM      9  C   UNL d   1       0.750   0.230  -2.017  0.00  0.00     0.009 C 
ENDBRANCH   7   8
ENDBRANCH   1   7
TORSDOF 2
ENDMDL
