MODEL 1
REMARK minimizedAffinity -3.53695989
REMARK minimizedRMSD -1
REMARK  2 active torsions:
REMARK  status: ('A' for Active; 'I' for Inactive)
REMARK    1  A    between atoms: C1_2  and  C2_3 
REMARK    2  A    between atoms: C2_3  and  C3_4 
ROOT
ATOM      1  C3  UNL d   1      -1.683  -1.502  -0.607  0.00  0.00    -0.075 A 
ATOM      2  C4  UNL d   1      -1.873  -0.867  -1.843  0.00  0.00     0.002 A 
ATOM      3  C5  UNL d   1      -0.985   0.117  -2.278  0.00  0.00     0.002 A 
ATOM      4  C6  UNL d   1       0.097   0.485  -1.481  0.00  0.00    -0.004 A 
ATOM      5  C7  UNL d   1       0.287  -0.128  -0.244  0.00  0.00     0.002 A 
ATOM      6  C8  UNL d   1      -0.598  -1.116   0.192  0.00  0.00     0.002 A 
ENDROOT
BRANCH   1   7
ATOM      7  C2  UNL d   1      -2.624  -2.588  -0.144  0.00  0.00     0.056 C 
BRANCH   7   8
ATOM      8  C1  UNL d   1      -1.982  -3.607   0.804  0.00  0.00     0.007 C 
ATOM      9  C   UNL d   1      -1.863  -4.999   0.198  0.00  0.00     0.009 C 
ENDBRANCH   7   8
ENDBRANCH   1   7
TORSDOF 2
ENDMDL
