MODEL 1
REMARK minimizedAffinity -3.40769744
REMARK minimizedRMSD -1
REMARK  2 active torsions:
REMARK  status: ('A' for Active; 'I' for Inactive)
REMARK    1  A    between atoms: C1_2  and  C2_3 
REMARK    2  A    between atoms: C2_3  and  C3_4 
ROOT
ATOM      1  C3  UNL d   1      -0.031  -0.374   0.219  0.00  0.00    -0.075 A 
ATOM      2  C4  UNL d   1      -0.033  -1.357   1.218  0.00  0.00     0.002 A 
ATOM      3  C5  UNL d   1      -1.080  -2.275   1.307  0.00  0.00     0.002 A 
ATOM      4  C6  UNL d   1      -2.141  -2.214   0.406  0.00  0.00    -0.004 A 
ATOM      5  C7  UNL d   1      -2.158  -1.231  -0.581  0.00  0.00     0.002 A 
ATOM      6  C8  UNL d   1      -1.109  -0.315  -0.675  0.00  0.00     0.002 A 
ENDROOT
BRANCH   1   7
ATOM      7  C2  UNL d   1       1.114   0.604   0.099  0.00  0.00     0.056 C 
BRANCH   7   8
ATOM      8  C1  UNL d   1       1.247   1.557   1.291  0.00  0.00     0.007 C 
ATOM      9  C   UNL d   1       2.166   2.739   1.015  0.00  0.00     0.009 C 
ENDBRANCH   7   8
ENDBRANCH   1   7
TORSDOF 2
ENDMDL
