MODEL 1
REMARK minimizedAffinity -3.34930897
REMARK minimizedRMSD -1
REMARK  2 active torsions:
REMARK  status: ('A' for Active; 'I' for Inactive)
REMARK    1  A    between atoms: C1_2  and  C2_3 
REMARK    2  A    between atoms: C2_3  and  C3_4 
ROOT
ATOM      1  C3  UNL d   1       0.887   0.007   0.306  0.00  0.00    -0.075 A 
ATOM      2  C4  UNL d   1       0.132  -0.652   1.288  0.00  0.00     0.002 A 
ATOM      3  C5  UNL d   1      -1.214  -0.945   1.068  0.00  0.00     0.002 A 
ATOM      4  C6  UNL d   1      -1.824  -0.575  -0.129  0.00  0.00    -0.004 A 
ATOM      5  C7  UNL d   1      -1.088   0.095  -1.104  0.00  0.00     0.002 A 
ATOM      6  C8  UNL d   1       0.260   0.386  -0.888  0.00  0.00     0.002 A 
ENDROOT
BRANCH   1   7
ATOM      7  C2  UNL d   1       2.352   0.301   0.526  0.00  0.00     0.056 C 
BRANCH   7   8
ATOM      8  C1  UNL d   1       2.690   1.795   0.558  0.00  0.00     0.007 C 
ATOM      9  C   UNL d   1       2.633   2.394   1.957  0.00  0.00     0.009 C 
ENDBRANCH   7   8
ENDBRANCH   1   7
TORSDOF 2
ENDMDL
