MODEL 1
REMARK minimizedAffinity -2.84977913
REMARK minimizedRMSD -1
REMARK  2 active torsions:
REMARK  status: ('A' for Active; 'I' for Inactive)
REMARK    1  A    between atoms: C1_2  and  C2_3 
REMARK    2  A    between atoms: C2_3  and  C3_4 
ROOT
ATOM      1  C3  UNL d   1      -1.620  -0.736  -0.190  0.00  0.00    -0.075 A 
ATOM      2  C4  UNL d   1      -1.187  -1.658   0.774  0.00  0.00     0.002 A 
ATOM      3  C5  UNL d   1       0.084  -1.548   1.340  0.00  0.00     0.002 A 
ATOM      4  C6  UNL d   1       0.939  -0.523   0.943  0.00  0.00    -0.004 A 
ATOM      5  C7  UNL d   1       0.526   0.390  -0.026  0.00  0.00     0.002 A 
ATOM      6  C8  UNL d   1      -0.746   0.284  -0.591  0.00  0.00     0.002 A 
ENDROOT
BRANCH   1   7
ATOM      7  C2  UNL d   1      -3.004  -0.832  -0.785  0.00  0.00     0.056 C 
BRANCH   7   8
ATOM      8  C1  UNL d   1      -3.625  -2.231  -0.698  0.00  0.00     0.007 C 
ATOM      9  C   UNL d   1      -3.131  -3.176  -1.785  0.00  0.00     0.009 C 
ENDBRANCH   7   8
ENDBRANCH   1   7
TORSDOF 2
ENDMDL
