MODEL 1
REMARK minimizedAffinity -3.62675595
REMARK minimizedRMSD -1
REMARK  0 active torsions:
REMARK  status: ('A' for Active; 'I' for Inactive)
ROOT
ATOM      1  C   UNL d   1      -1.784  -2.308   0.884  0.00  0.00     0.023 A 
ATOM      2  C1  UNL d   1      -2.257  -1.018   0.643  0.00  0.00     0.003 A 
ATOM      3  C2  UNL d   1      -1.374  -0.012   0.246  0.00  0.00     0.048 A 
ATOM      4  C3  UNL d   1      -0.019  -0.303   0.090  0.00  0.00     0.023 A 
ATOM      5  C4  UNL d   1       0.459  -1.592   0.329  0.00  0.00     0.048 A 
ATOM      6  C5  UNL d   1      -0.428  -2.595   0.727  0.00  0.00     0.003 A 
ATOM      7  I   UNL d   1       1.296   1.193  -0.501  0.00  0.00    -0.146 I 
ENDROOT
TORSDOF 0
ENDMDL
