MODEL 1
REMARK minimizedAffinity -2.87949181
REMARK minimizedRMSD -1
REMARK  0 active torsions:
REMARK  status: ('A' for Active; 'I' for Inactive)
ROOT
ATOM      1  C   UNL d   1      -1.279  -2.676   1.557  0.00  0.00     0.023 A 
ATOM      2  C1  UNL d   1       0.089  -2.477   1.745  0.00  0.00     0.003 A 
ATOM      3  C2  UNL d   1       0.725  -1.385   1.152  0.00  0.00     0.048 A 
ATOM      4  C3  UNL d   1      -0.013  -0.495   0.372  0.00  0.00     0.023 A 
ATOM      5  C4  UNL d   1      -1.382  -0.689   0.182  0.00  0.00     0.048 A 
ATOM      6  C5  UNL d   1      -2.013  -1.783   0.777  0.00  0.00     0.003 A 
ATOM      7  I   UNL d   1       0.931   1.132  -0.512  0.00  0.00    -0.146 I 
ENDROOT
TORSDOF 0
ENDMDL
