MODEL 1
REMARK minimizedAffinity -5.0571661
REMARK minimizedRMSD -1
REMARK  0 active torsions:
REMARK  status: ('A' for Active; 'I' for Inactive)
ROOT
ATOM      1  C   UNL d   1      -1.975  -2.445   1.854  0.00  0.00     0.023 A 
ATOM      2  C1  UNL d   1      -0.709  -2.688   1.322  0.00  0.00     0.003 A 
ATOM      3  C2  UNL d   1       0.018  -1.645   0.743  0.00  0.00     0.048 A 
ATOM      4  C3  UNL d   1      -0.527  -0.362   0.701  0.00  0.00     0.023 A 
ATOM      5  C4  UNL d   1      -1.793  -0.114   1.234  0.00  0.00     0.048 A 
ATOM      6  C5  UNL d   1      -2.517  -1.160   1.811  0.00  0.00     0.003 A 
ATOM      7  I   UNL d   1       0.553   1.191  -0.160  0.00  0.00    -0.146 I 
ENDROOT
TORSDOF 0
ENDMDL
