MODEL 1
REMARK minimizedAffinity -3.96082711
REMARK minimizedRMSD -1
REMARK  0 active torsions:
REMARK  status: ('A' for Active; 'I' for Inactive)
ROOT
ATOM      1  C   UNL d   1      -0.669  -2.455   0.878  0.00  0.00     0.023 A 
ATOM      2  C1  UNL d   1       0.620  -1.955   1.067  0.00  0.00     0.003 A 
ATOM      3  C2  UNL d   1       0.994  -0.745   0.478  0.00  0.00     0.048 A 
ATOM      4  C3  UNL d   1       0.075  -0.041  -0.298  0.00  0.00     0.023 A 
ATOM      5  C4  UNL d   1      -1.215  -0.536  -0.490  0.00  0.00     0.048 A 
ATOM      6  C5  UNL d   1      -1.585  -1.746   0.101  0.00  0.00     0.003 A 
ATOM      7  I   UNL d   1       0.631   1.760  -1.176  0.00  0.00    -0.146 I 
ENDROOT
TORSDOF 0
ENDMDL
