MODEL 1
REMARK minimizedAffinity -2.32082009
REMARK minimizedRMSD -1
REMARK  0 active torsions:
REMARK  status: ('A' for Active; 'I' for Inactive)
ROOT
ATOM      1  C   UNL d   1       0.527   1.157  -0.537  0.00  0.00     0.023 A 
ATOM      2  C1  UNL d   1       1.187  -0.071  -0.593  0.00  0.00     0.003 A 
ATOM      3  C2  UNL d   1       0.607  -1.204  -0.018  0.00  0.00     0.048 A 
ATOM      4  C3  UNL d   1      -0.634  -1.103   0.609  0.00  0.00     0.023 A 
ATOM      5  C4  UNL d   1      -1.299   0.123   0.667  0.00  0.00     0.048 A 
ATOM      6  C5  UNL d   1      -0.714   1.254   0.092  0.00  0.00     0.003 A 
ATOM      7  I   UNL d   1      -1.499  -2.788   1.465  0.00  0.00    -0.146 I 
ENDROOT
TORSDOF 0
ENDMDL
