MODEL 1
REMARK minimizedAffinity -3.56321979
REMARK minimizedRMSD -1
REMARK  0 active torsions:
REMARK  status: ('A' for Active; 'I' for Inactive)
ROOT
ATOM      1  C   UNL d   1      -1.480  -2.254   1.087  0.00  0.00     0.023 A 
ATOM      2  C1  UNL d   1      -0.161  -1.940   1.413  0.00  0.00     0.003 A 
ATOM      3  C2  UNL d   1       0.462  -0.838   0.824  0.00  0.00     0.048 A 
ATOM      4  C3  UNL d   1      -0.241  -0.053  -0.089  0.00  0.00     0.023 A 
ATOM      5  C4  UNL d   1      -1.561  -0.362  -0.418  0.00  0.00     0.048 A 
ATOM      6  C5  UNL d   1      -2.180  -1.466   0.173  0.00  0.00     0.003 A 
ATOM      7  I   UNL d   1       0.684   1.589  -0.967  0.00  0.00    -0.146 I 
ENDROOT
TORSDOF 0
ENDMDL
