MODEL 1
REMARK minimizedAffinity -1.82167959
REMARK minimizedRMSD -1
REMARK  0 active torsions:
REMARK  status: ('A' for Active; 'I' for Inactive)
ROOT
ATOM      1  C   UNL d   1      -1.269  -2.127   1.195  0.00  0.00     0.023 A 
ATOM      2  C1  UNL d   1      -1.896  -1.034   0.597  0.00  0.00     0.003 A 
ATOM      3  C2  UNL d   1      -1.135  -0.056  -0.046  0.00  0.00     0.048 A 
ATOM      4  C3  UNL d   1       0.254  -0.177  -0.087  0.00  0.00     0.023 A 
ATOM      5  C4  UNL d   1       0.886  -1.269   0.510  0.00  0.00     0.048 A 
ATOM      6  C5  UNL d   1       0.120  -2.244   1.152  0.00  0.00     0.003 A 
ATOM      7  I   UNL d   1       1.390   1.277  -1.043  0.00  0.00    -0.146 I 
ENDROOT
TORSDOF 0
ENDMDL
