MODEL 1
REMARK minimizedAffinity -4.74405146
REMARK minimizedRMSD -1
REMARK  0 active torsions:
REMARK  status: ('A' for Active; 'I' for Inactive)
ROOT
ATOM      1  C   UNL d   1      -2.439  -2.155   1.785  0.00  0.00     0.023 A 
ATOM      2  C1  UNL d   1      -1.339  -2.633   1.073  0.00  0.00     0.003 A 
ATOM      3  C2  UNL d   1      -0.488  -1.740   0.418  0.00  0.00     0.048 A 
ATOM      4  C3  UNL d   1      -0.743  -0.370   0.481  0.00  0.00     0.023 A 
ATOM      5  C4  UNL d   1      -1.842   0.112   1.193  0.00  0.00     0.048 A 
ATOM      6  C5  UNL d   1      -2.691  -0.785   1.845  0.00  0.00     0.003 A 
ATOM      7  I   UNL d   1       0.522   0.961  -0.493  0.00  0.00    -0.146 I 
ENDROOT
TORSDOF 0
ENDMDL
