MODEL 1
REMARK minimizedAffinity -2.61010051
REMARK minimizedRMSD -1
REMARK  0 active torsions:
REMARK  status: ('A' for Active; 'I' for Inactive)
ROOT
ATOM      1  C   UNL d   1      -1.244  -2.464   1.370  0.00  0.00     0.023 A 
ATOM      2  C1  UNL d   1       0.117  -2.534   1.076  0.00  0.00     0.003 A 
ATOM      3  C2  UNL d   1       0.757  -1.456   0.460  0.00  0.00     0.048 A 
ATOM      4  C3  UNL d   1       0.028  -0.310   0.143  0.00  0.00     0.023 A 
ATOM      5  C4  UNL d   1      -1.334  -0.235   0.437  0.00  0.00     0.048 A 
ATOM      6  C5  UNL d   1      -1.969  -1.316   1.051  0.00  0.00     0.003 A 
ATOM      7  I   UNL d   1       0.978   1.297  -0.772  0.00  0.00    -0.146 I 
ENDROOT
TORSDOF 0
ENDMDL
