MODEL 1
REMARK minimizedAffinity 1.21092141
REMARK minimizedRMSD -1
REMARK  0 active torsions:
REMARK  status: ('A' for Active; 'I' for Inactive)
ROOT
ATOM      1  C   UNL d   1      -0.615  -0.182   0.139  0.00  0.00     0.023 A 
ATOM      2  C1  UNL d   1      -0.832   1.195   0.091  0.00  0.00     0.003 A 
ATOM      3  C2  UNL d   1      -0.031   2.002  -0.721  0.00  0.00     0.048 A 
ATOM      4  C3  UNL d   1       0.985   1.424  -1.482  0.00  0.00     0.023 A 
ATOM      5  C4  UNL d   1       1.204   0.046  -1.438  0.00  0.00     0.048 A 
ATOM      6  C5  UNL d   1       0.401  -0.756  -0.625  0.00  0.00     0.003 A 
ATOM      7  I   UNL d   1       2.178   2.621  -2.691  0.00  0.00    -0.146 I 
ENDROOT
TORSDOF 0
ENDMDL
