MODEL 1
REMARK minimizedAffinity -2.41300154
REMARK minimizedRMSD -1
REMARK  0 active torsions:
REMARK  status: ('A' for Active; 'I' for Inactive)
ROOT
ATOM      1  C   UNL d   1       1.741   2.549  -3.926  0.00  0.00     0.023 A 
ATOM      2  C1  UNL d   1       0.394   2.200  -3.819  0.00  0.00     0.003 A 
ATOM      3  C2  UNL d   1      -0.067   1.530  -2.684  0.00  0.00     0.048 A 
ATOM      4  C3  UNL d   1       0.824   1.213  -1.659  0.00  0.00     0.023 A 
ATOM      5  C4  UNL d   1       2.172   1.561  -1.761  0.00  0.00     0.048 A 
ATOM      6  C5  UNL d   1       2.628   2.229  -2.898  0.00  0.00     0.003 A 
ATOM      7  I   UNL d   1       0.140   0.216   0.032  0.00  0.00    -0.146 I 
ENDROOT
TORSDOF 0
ENDMDL
