MODEL 1
REMARK minimizedAffinity -1.99299741
REMARK minimizedRMSD -1
REMARK  0 active torsions:
REMARK  status: ('A' for Active; 'I' for Inactive)
ROOT
ATOM      1  C   UNL d   1       1.491   1.574   0.560  0.00  0.00     0.023 A 
ATOM      2  C1  UNL d   1       0.105   1.541   0.717  0.00  0.00     0.003 A 
ATOM      3  C2  UNL d   1      -0.541   0.330   0.971  0.00  0.00     0.048 A 
ATOM      4  C3  UNL d   1       0.205  -0.845   1.069  0.00  0.00     0.023 A 
ATOM      5  C4  UNL d   1       1.592  -0.816   0.913  0.00  0.00     0.048 A 
ATOM      6  C5  UNL d   1       2.233   0.397   0.658  0.00  0.00     0.003 A 
ATOM      7  I   UNL d   1      -0.755  -2.649   1.448  0.00  0.00    -0.146 I 
ENDROOT
TORSDOF 0
ENDMDL
