MODEL 1
REMARK minimizedAffinity -1.33527935
REMARK minimizedRMSD -1
REMARK  0 active torsions:
REMARK  status: ('A' for Active; 'I' for Inactive)
ROOT
ATOM      1  C   UNL d   1       2.285   2.728  -3.273  0.00  0.00     0.023 A 
ATOM      2  C1  UNL d   1       2.823   2.072  -2.166  0.00  0.00     0.003 A 
ATOM      3  C2  UNL d   1       1.977   1.510  -1.207  0.00  0.00     0.048 A 
ATOM      4  C3  UNL d   1       0.595   1.607  -1.362  0.00  0.00     0.023 A 
ATOM      5  C4  UNL d   1       0.052   2.262  -2.469  0.00  0.00     0.048 A 
ATOM      6  C5  UNL d   1       0.901   2.823  -3.424  0.00  0.00     0.003 A 
ATOM      7  I   UNL d   1      -0.666   0.771   0.064  0.00  0.00    -0.146 I 
ENDROOT
TORSDOF 0
ENDMDL
