MODEL 1
REMARK minimizedAffinity -4.86904621
REMARK minimizedRMSD -1
REMARK  0 active torsions:
REMARK  status: ('A' for Active; 'I' for Inactive)
ROOT
ATOM      1  C   UNL d   1      -1.293  -2.464   1.968  0.00  0.00     0.023 A 
ATOM      2  C1  UNL d   1      -2.124  -1.501   1.393  0.00  0.00     0.003 A 
ATOM      3  C2  UNL d   1      -1.583  -0.514   0.567  0.00  0.00     0.048 A 
ATOM      4  C3  UNL d   1      -0.211  -0.496   0.319  0.00  0.00     0.023 A 
ATOM      5  C4  UNL d   1       0.624  -1.457   0.890  0.00  0.00     0.048 A 
ATOM      6  C5  UNL d   1       0.079  -2.442   1.716  0.00  0.00     0.003 A 
ATOM      7  I   UNL d   1       0.596   0.973  -0.911  0.00  0.00    -0.146 I 
ENDROOT
TORSDOF 0
ENDMDL
