MODEL 1
REMARK minimizedAffinity -4.7026515
REMARK minimizedRMSD -1
REMARK  0 active torsions:
REMARK  status: ('A' for Active; 'I' for Inactive)
ROOT
ATOM      1  C   UNL d   1      -2.966  -1.520   2.028  0.00  0.00     0.023 A 
ATOM      2  C1  UNL d   1      -1.920  -2.277   1.500  0.00  0.00     0.003 A 
ATOM      3  C2  UNL d   1      -0.837  -1.644   0.888  0.00  0.00     0.048 A 
ATOM      4  C3  UNL d   1      -0.806  -0.252   0.807  0.00  0.00     0.023 A 
ATOM      5  C4  UNL d   1      -1.849   0.510   1.334  0.00  0.00     0.048 A 
ATOM      6  C5  UNL d   1      -2.931  -0.128   1.945  0.00  0.00     0.003 A 
ATOM      7  I   UNL d   1       0.805   0.694  -0.104  0.00  0.00    -0.146 I 
ENDROOT
TORSDOF 0
ENDMDL
