MODEL 1
REMARK minimizedAffinity -3.57363009
REMARK minimizedRMSD -1
REMARK  0 active torsions:
REMARK  status: ('A' for Active; 'I' for Inactive)
ROOT
ATOM      1  C   UNL d   1      -1.074  -2.242   1.308  0.00  0.00     0.023 A 
ATOM      2  C1  UNL d   1      -1.806  -1.675   0.265  0.00  0.00     0.003 A 
ATOM      3  C2  UNL d   1      -1.219  -0.711  -0.558  0.00  0.00     0.048 A 
ATOM      4  C3  UNL d   1       0.100  -0.320  -0.333  0.00  0.00     0.023 A 
ATOM      5  C4  UNL d   1       0.837  -0.886   0.708  0.00  0.00     0.048 A 
ATOM      6  C5  UNL d   1       0.246  -1.848   1.529  0.00  0.00     0.003 A 
ATOM      7  I   UNL d   1       0.976   1.113  -1.557  0.00  0.00    -0.146 I 
ENDROOT
TORSDOF 0
ENDMDL
