MODEL 1
REMARK minimizedAffinity -2.31396484
REMARK minimizedRMSD -1
REMARK  0 active torsions:
REMARK  status: ('A' for Active; 'I' for Inactive)
ROOT
ATOM      1  C   UNL d   1      -1.255   1.359   2.818  0.00  0.00     0.023 A 
ATOM      2  C1  UNL d   1      -1.953   0.312   2.216  0.00  0.00     0.003 A 
ATOM      3  C2  UNL d   1      -1.476  -0.257   1.033  0.00  0.00     0.048 A 
ATOM      4  C3  UNL d   1      -0.301   0.225   0.458  0.00  0.00     0.023 A 
ATOM      5  C4  UNL d   1       0.401   1.272   1.057  0.00  0.00     0.048 A 
ATOM      6  C5  UNL d   1      -0.079   1.838   2.239  0.00  0.00     0.003 A 
ATOM      7  I   UNL d   1       0.410  -0.621  -1.303  0.00  0.00    -0.146 I 
ENDROOT
TORSDOF 0
ENDMDL
