MODEL 1
REMARK minimizedAffinity -4.29499817
REMARK minimizedRMSD -1
REMARK  0 active torsions:
REMARK  status: ('A' for Active; 'I' for Inactive)
ROOT
ATOM      1  C   UNL d   1      -0.974   0.977   2.575  0.00  0.00     0.023 A 
ATOM      2  C1  UNL d   1      -1.832   0.683   1.515  0.00  0.00     0.003 A 
ATOM      3  C2  UNL d   1      -1.311   0.397   0.252  0.00  0.00     0.048 A 
ATOM      4  C3  UNL d   1       0.070   0.405   0.055  0.00  0.00     0.023 A 
ATOM      5  C4  UNL d   1       0.932   0.697   1.113  0.00  0.00     0.048 A 
ATOM      6  C5  UNL d   1       0.407   0.984   2.374  0.00  0.00     0.003 A 
ATOM      7  I   UNL d   1       0.848  -0.021  -1.824  0.00  0.00    -0.146 I 
ENDROOT
TORSDOF 0
ENDMDL
