MODEL 1
REMARK minimizedAffinity -4.84940481
REMARK minimizedRMSD -1
REMARK  0 active torsions:
REMARK  status: ('A' for Active; 'I' for Inactive)
ROOT
ATOM      1  C   UNL d   1       0.191   0.945   3.561  0.00  0.00     0.023 A 
ATOM      2  C1  UNL d   1       1.380   0.399   3.077  0.00  0.00     0.003 A 
ATOM      3  C2  UNL d   1       1.471  -0.005   1.743  0.00  0.00     0.048 A 
ATOM      4  C3  UNL d   1       0.371   0.140   0.899  0.00  0.00     0.023 A 
ATOM      5  C4  UNL d   1      -0.821   0.686   1.380  0.00  0.00     0.048 A 
ATOM      6  C5  UNL d   1      -0.908   1.088   2.714  0.00  0.00     0.003 A 
ATOM      7  I   UNL d   1       0.505  -0.461  -1.086  0.00  0.00    -0.146 I 
ENDROOT
TORSDOF 0
ENDMDL
