MODEL 1
REMARK minimizedAffinity -2.88481402
REMARK minimizedRMSD -1
REMARK  0 active torsions:
REMARK  status: ('A' for Active; 'I' for Inactive)
ROOT
ATOM      1  C   UNL d   1      -0.820   1.380   2.398  0.00  0.00     0.023 A 
ATOM      2  C1  UNL d   1      -1.700   0.729   1.533  0.00  0.00     0.003 A 
ATOM      3  C2  UNL d   1      -1.210   0.062   0.408  0.00  0.00     0.048 A 
ATOM      4  C3  UNL d   1       0.161   0.049   0.155  0.00  0.00     0.023 A 
ATOM      5  C4  UNL d   1       1.046   0.699   1.017  0.00  0.00     0.048 A 
ATOM      6  C5  UNL d   1       0.551   1.366   2.140  0.00  0.00     0.003 A 
ATOM      7  I   UNL d   1       0.893  -0.943  -1.519  0.00  0.00    -0.146 I 
ENDROOT
TORSDOF 0
ENDMDL
