MODEL 1
REMARK minimizedAffinity -3.85326791
REMARK minimizedRMSD -1
REMARK  0 active torsions:
REMARK  status: ('A' for Active; 'I' for Inactive)
ROOT
ATOM      1  C   UNL d   1      -0.951   1.068   2.357  0.00  0.00     0.023 A 
ATOM      2  C1  UNL d   1       0.422   0.895   2.183  0.00  0.00     0.003 A 
ATOM      3  C2  UNL d   1       0.914   0.361   0.991  0.00  0.00     0.048 A 
ATOM      4  C3  UNL d   1       0.028   0.002  -0.024  0.00  0.00     0.023 A 
ATOM      5  C4  UNL d   1      -1.347   0.174   0.145  0.00  0.00     0.048 A 
ATOM      6  C5  UNL d   1      -1.835   0.708   1.339  0.00  0.00     0.003 A 
ATOM      7  I   UNL d   1       0.758  -0.793  -1.800  0.00  0.00    -0.146 I 
ENDROOT
TORSDOF 0
ENDMDL
