MODEL 1
REMARK minimizedAffinity 0.845286012
REMARK minimizedRMSD -1
REMARK  0 active torsions:
REMARK  status: ('A' for Active; 'I' for Inactive)
ROOT
ATOM      1  C   UNL d   1      -0.900  -0.090   1.266  0.00  0.00     0.023 A 
ATOM      2  C1  UNL d   1      -1.712   0.489   0.290  0.00  0.00     0.003 A 
ATOM      3  C2  UNL d   1      -1.184   0.797  -0.965  0.00  0.00     0.048 A 
ATOM      4  C3  UNL d   1       0.155   0.523  -1.239  0.00  0.00     0.023 A 
ATOM      5  C4  UNL d   1       0.971  -0.057  -0.266  0.00  0.00     0.048 A 
ATOM      6  C5  UNL d   1       0.439  -0.363   0.989  0.00  0.00     0.003 A 
ATOM      7  I   UNL d   1       0.943   0.981  -3.107  0.00  0.00    -0.146 I 
ENDROOT
TORSDOF 0
ENDMDL
