MODEL 1
REMARK minimizedAffinity -2.80234027
REMARK minimizedRMSD -1
REMARK  0 active torsions:
REMARK  status: ('A' for Active; 'I' for Inactive)
ROOT
ATOM      1  C   UNL d   1      -0.036   0.059   3.367  0.00  0.00     0.023 A 
ATOM      2  C1  UNL d   1       1.175  -0.416   2.866  0.00  0.00     0.003 A 
ATOM      3  C2  UNL d   1       1.344  -0.589   1.491  0.00  0.00     0.048 A 
ATOM      4  C3  UNL d   1       0.297  -0.282   0.622  0.00  0.00     0.023 A 
ATOM      5  C4  UNL d   1      -0.917   0.195   1.119  0.00  0.00     0.048 A 
ATOM      6  C5  UNL d   1      -1.081   0.365   2.495  0.00  0.00     0.003 A 
ATOM      7  I   UNL d   1       0.546  -0.537  -1.425  0.00  0.00    -0.146 I 
ENDROOT
TORSDOF 0
ENDMDL
