MODEL 1
REMARK minimizedAffinity -2.89340568
REMARK minimizedRMSD -1
REMARK  0 active torsions:
REMARK  status: ('A' for Active; 'I' for Inactive)
ROOT
ATOM      1  C   UNL d   1      -0.222   0.812   1.730  0.00  0.00     0.023 A 
ATOM      2  C1  UNL d   1      -1.048   1.542   0.875  0.00  0.00     0.003 A 
ATOM      3  C2  UNL d   1      -0.830   1.510  -0.504  0.00  0.00     0.048 A 
ATOM      4  C3  UNL d   1       0.215   0.745  -1.021  0.00  0.00     0.023 A 
ATOM      5  C4  UNL d   1       1.044   0.013  -0.169  0.00  0.00     0.048 A 
ATOM      6  C5  UNL d   1       0.822   0.048   1.209  0.00  0.00     0.003 A 
ATOM      7  I   UNL d   1       0.542   0.696  -3.073  0.00  0.00    -0.146 I 
ENDROOT
TORSDOF 0
ENDMDL
