MODEL 1
REMARK minimizedAffinity 0.384312242
REMARK minimizedRMSD -1
REMARK  0 active torsions:
REMARK  status: ('A' for Active; 'I' for Inactive)
ROOT
ATOM      1  C   UNL d   1       1.953   0.480  -0.298  0.00  0.00     0.023 A 
ATOM      2  C1  UNL d   1       0.761   1.114  -0.647  0.00  0.00     0.003 A 
ATOM      3  C2  UNL d   1      -0.426   0.783   0.010  0.00  0.00     0.048 A 
ATOM      4  C3  UNL d   1      -0.413  -0.181   1.017  0.00  0.00     0.023 A 
ATOM      5  C4  UNL d   1       0.778  -0.817   1.371  0.00  0.00     0.048 A 
ATOM      6  C5  UNL d   1       1.962  -0.484   0.710  0.00  0.00     0.003 A 
ATOM      7  I   UNL d   1      -2.177  -0.675   1.997  0.00  0.00    -0.146 I 
ENDROOT
TORSDOF 0
ENDMDL
