MODEL 1
REMARK minimizedAffinity -3.96144962
REMARK minimizedRMSD -1
REMARK  2 active torsions:
REMARK  status: ('A' for Active; 'I' for Inactive)
REMARK    1  A    between atoms: C1_2  and  C2_3 
REMARK    2  A    between atoms: C2_3  and  C3_4 
ROOT
ATOM      1  C3  UNL d   1      -4.116  -4.906  -4.944  0.00  0.00    -0.075 A 
ATOM      2  C4  UNL d   1      -5.068  -4.649  -5.942  0.00  0.00     0.002 A 
ATOM      3  C5  UNL d   1      -6.000  -3.623  -5.784  0.00  0.00     0.002 A 
ATOM      4  C6  UNL d   1      -6.000  -2.850  -4.625  0.00  0.00    -0.004 A 
ATOM      5  C7  UNL d   1      -5.070  -3.107  -3.621  0.00  0.00     0.002 A 
ATOM      6  C8  UNL d   1      -4.133  -4.130  -3.778  0.00  0.00     0.002 A 
ENDROOT
BRANCH   1   7
ATOM      7  C2  UNL d   1      -3.086  -5.996  -5.122  0.00  0.00     0.056 C 
BRANCH   7   8
ATOM      8  C1  UNL d   1      -1.794  -5.528  -5.800  0.00  0.00     0.007 C 
ATOM      9  C   UNL d   1      -0.536  -5.978  -5.070  0.00  0.00     0.009 C 
ENDBRANCH   7   8
ENDBRANCH   1   7
TORSDOF 2
ENDMDL
