MODEL 1
REMARK minimizedAffinity -0.84273392
REMARK minimizedRMSD -1
REMARK  2 active torsions:
REMARK  status: ('A' for Active; 'I' for Inactive)
REMARK    1  A    between atoms: C1_2  and  C2_3 
REMARK    2  A    between atoms: C2_3  and  C3_4 
ROOT
ATOM      1  C3  UNL d   1      -5.082  -3.792  -5.490  0.00  0.00    -0.075 A 
ATOM      2  C4  UNL d   1      -5.531  -4.796  -4.619  0.00  0.00     0.002 A 
ATOM      3  C5  UNL d   1      -4.674  -5.821  -4.219  0.00  0.00     0.002 A 
ATOM      4  C6  UNL d   1      -3.363  -5.862  -4.690  0.00  0.00    -0.004 A 
ATOM      5  C7  UNL d   1      -2.912  -4.879  -5.568  0.00  0.00     0.002 A 
ATOM      6  C8  UNL d   1      -3.766  -3.850  -5.968  0.00  0.00     0.002 A 
ENDROOT
BRANCH   1   7
ATOM      7  C2  UNL d   1      -5.996  -2.663  -5.904  0.00  0.00     0.056 C 
BRANCH   7   8
ATOM      8  C1  UNL d   1      -5.922  -1.434  -4.992  0.00  0.00     0.007 C 
ATOM      9  C   UNL d   1      -5.976  -1.782  -3.511  0.00  0.00     0.009 C 
ENDBRANCH   7   8
ENDBRANCH   1   7
TORSDOF 2
ENDMDL
