MODEL 1
REMARK minimizedAffinity -3.15134358
REMARK minimizedRMSD -1
REMARK  2 active torsions:
REMARK  status: ('A' for Active; 'I' for Inactive)
REMARK    1  A    between atoms: C1_2  and  C2_3 
REMARK    2  A    between atoms: C2_3  and  C3_4 
ROOT
ATOM      1  C3  UNL d   1      -4.095  -4.586  -4.775  0.00  0.00    -0.075 A 
ATOM      2  C4  UNL d   1      -3.776  -5.801  -5.398  0.00  0.00     0.002 A 
ATOM      3  C5  UNL d   1      -2.518  -5.994  -5.971  0.00  0.00     0.002 A 
ATOM      4  C6  UNL d   1      -1.570  -4.974  -5.937  0.00  0.00    -0.004 A 
ATOM      5  C7  UNL d   1      -1.882  -3.757  -5.335  0.00  0.00     0.002 A 
ATOM      6  C8  UNL d   1      -3.138  -3.563  -4.757  0.00  0.00     0.002 A 
ENDROOT
BRANCH   1   7
ATOM      7  C2  UNL d   1      -5.444  -4.382  -4.127  0.00  0.00     0.056 C 
BRANCH   7   8
ATOM      8  C1  UNL d   1      -5.960  -2.941  -4.202  0.00  0.00     0.007 C 
ATOM      9  C   UNL d   1      -6.000  -2.391  -5.622  0.00  0.00     0.009 C 
ENDBRANCH   7   8
ENDBRANCH   1   7
TORSDOF 2
ENDMDL
