MODEL 1
REMARK minimizedAffinity -2.12759924
REMARK minimizedRMSD -1
REMARK  2 active torsions:
REMARK  status: ('A' for Active; 'I' for Inactive)
REMARK    1  A    between atoms: C1_2  and  C2_3 
REMARK    2  A    between atoms: C2_3  and  C3_4 
ROOT
ATOM      1  C3  UNL d   1      -4.607  -4.744  -4.404  0.00  0.00    -0.075 A 
ATOM      2  C4  UNL d   1      -4.144  -5.462  -3.292  0.00  0.00     0.002 A 
ATOM      3  C5  UNL d   1      -2.855  -5.998  -3.282  0.00  0.00     0.002 A 
ATOM      4  C6  UNL d   1      -2.020  -5.832  -4.384  0.00  0.00    -0.004 A 
ATOM      5  C7  UNL d   1      -2.476  -5.135  -5.501  0.00  0.00     0.002 A 
ATOM      6  C8  UNL d   1      -3.763  -4.594  -5.512  0.00  0.00     0.002 A 
ENDROOT
BRANCH   1   7
ATOM      7  C2  UNL d   1      -5.990  -4.137  -4.410  0.00  0.00     0.056 C 
BRANCH   7   8
ATOM      8  C1  UNL d   1      -6.000  -2.611  -4.550  0.00  0.00     0.007 C 
ATOM      9  C   UNL d   1      -6.000  -2.141  -5.998  0.00  0.00     0.009 C 
ENDBRANCH   7   8
ENDBRANCH   1   7
TORSDOF 2
ENDMDL
