MODEL 1
REMARK minimizedAffinity -3.9527483
REMARK minimizedRMSD -1
REMARK  2 active torsions:
REMARK  status: ('A' for Active; 'I' for Inactive)
REMARK    1  A    between atoms: C1_2  and  C2_3 
REMARK    2  A    between atoms: C2_3  and  C3_4 
ROOT
ATOM      1  C3  UNL d   1      -4.570  -4.371  -4.606  0.00  0.00    -0.075 A 
ATOM      2  C4  UNL d   1      -3.437  -3.566  -4.420  0.00  0.00     0.002 A 
ATOM      3  C5  UNL d   1      -2.194  -3.969  -4.908  0.00  0.00     0.002 A 
ATOM      4  C6  UNL d   1      -2.066  -5.184  -5.577  0.00  0.00    -0.004 A 
ATOM      5  C7  UNL d   1      -3.181  -6.000  -5.753  0.00  0.00     0.002 A 
ATOM      6  C8  UNL d   1      -4.427  -5.597  -5.270  0.00  0.00     0.002 A 
ENDROOT
BRANCH   1   7
ATOM      7  C2  UNL d   1      -5.924  -3.927  -4.106  0.00  0.00     0.056 C 
BRANCH   7   8
ATOM      8  C1  UNL d   1      -5.999  -2.439  -3.746  0.00  0.00     0.007 C 
ATOM      9  C   UNL d   1      -6.000  -1.525  -4.964  0.00  0.00     0.009 C 
ENDBRANCH   7   8
ENDBRANCH   1   7
TORSDOF 2
ENDMDL
