MODEL 1
REMARK minimizedAffinity -3.44930172
REMARK minimizedRMSD -1
REMARK  2 active torsions:
REMARK  status: ('A' for Active; 'I' for Inactive)
REMARK    1  A    between atoms: C1_2  and  C2_3 
REMARK    2  A    between atoms: C2_3  and  C3_4 
ROOT
ATOM      1  C3  UNL d   1      -4.217  -4.209  -5.218  0.00  0.00    -0.075 A 
ATOM      2  C4  UNL d   1      -3.084  -3.410  -5.007  0.00  0.00     0.002 A 
ATOM      3  C5  UNL d   1      -1.810  -3.896  -5.301  0.00  0.00     0.002 A 
ATOM      4  C6  UNL d   1      -1.651  -5.187  -5.799  0.00  0.00    -0.004 A 
ATOM      5  C7  UNL d   1      -2.768  -5.996  -5.997  0.00  0.00     0.002 A 
ATOM      6  C8  UNL d   1      -4.045  -5.511  -5.707  0.00  0.00     0.002 A 
ENDROOT
BRANCH   1   7
ATOM      7  C2  UNL d   1      -5.601  -3.679  -4.929  0.00  0.00     0.056 C 
BRANCH   7   8
ATOM      8  C1  UNL d   1      -5.938  -2.380  -5.667  0.00  0.00     0.007 C 
ATOM      9  C   UNL d   1      -5.945  -1.157  -4.759  0.00  0.00     0.009 C 
ENDBRANCH   7   8
ENDBRANCH   1   7
TORSDOF 2
ENDMDL
