MODEL 1
REMARK minimizedAffinity -3.2558291
REMARK minimizedRMSD -1
REMARK  2 active torsions:
REMARK  status: ('A' for Active; 'I' for Inactive)
REMARK    1  A    between atoms: C1_2  and  C2_3 
REMARK    2  A    between atoms: C2_3  and  C3_4 
ROOT
ATOM      1  C3  UNL d   1      -5.898  -3.931  -4.578  0.00  0.00    -0.075 A 
ATOM      2  C4  UNL d   1      -5.915  -3.237  -5.797  0.00  0.00     0.002 A 
ATOM      3  C5  UNL d   1      -5.961  -1.842  -5.817  0.00  0.00     0.002 A 
ATOM      4  C6  UNL d   1      -6.000  -1.126  -4.622  0.00  0.00    -0.004 A 
ATOM      5  C7  UNL d   1      -6.000  -1.806  -3.406  0.00  0.00     0.002 A 
ATOM      6  C8  UNL d   1      -5.950  -3.201  -3.383  0.00  0.00     0.002 A 
ENDROOT
BRANCH   1   7
ATOM      7  C2  UNL d   1      -5.819  -5.439  -4.549  0.00  0.00     0.056 C 
BRANCH   7   8
ATOM      8  C1  UNL d   1      -4.411  -5.984  -4.288  0.00  0.00     0.007 C 
ATOM      9  C   UNL d   1      -3.309  -5.096  -4.850  0.00  0.00     0.009 C 
ENDBRANCH   7   8
ENDBRANCH   1   7
TORSDOF 2
ENDMDL
