MODEL 1
REMARK minimizedAffinity -1.18825209
REMARK minimizedRMSD -1
REMARK  2 active torsions:
REMARK  status: ('A' for Active; 'I' for Inactive)
REMARK    1  A    between atoms: C1_2  and  C2_3 
REMARK    2  A    between atoms: C2_3  and  C3_4 
ROOT
ATOM      1  C3  UNL d   1      -4.851  -3.481  -4.551  0.00  0.00    -0.075 A 
ATOM      2  C4  UNL d   1      -6.000  -4.029  -5.141  0.00  0.00     0.002 A 
ATOM      3  C5  UNL d   1      -5.953  -5.283  -5.749  0.00  0.00     0.002 A 
ATOM      4  C6  UNL d   1      -4.759  -6.000  -5.785  0.00  0.00    -0.004 A 
ATOM      5  C7  UNL d   1      -3.608  -5.458  -5.217  0.00  0.00     0.002 A 
ATOM      6  C8  UNL d   1      -3.653  -4.205  -4.604  0.00  0.00     0.002 A 
ENDROOT
BRANCH   1   7
ATOM      7  C2  UNL d   1      -4.901  -2.137  -3.864  0.00  0.00     0.056 C 
BRANCH   7   8
ATOM      8  C1  UNL d   1      -5.914  -1.162  -4.475  0.00  0.00     0.007 C 
ATOM      9  C   UNL d   1      -5.999  -1.258  -5.993  0.00  0.00     0.009 C 
ENDBRANCH   7   8
ENDBRANCH   1   7
TORSDOF 2
ENDMDL
