MODEL 1
REMARK minimizedAffinity 1.61245537
REMARK minimizedRMSD -1
REMARK  2 active torsions:
REMARK  status: ('A' for Active; 'I' for Inactive)
REMARK    1  A    between atoms: C1_2  and  C2_3 
REMARK    2  A    between atoms: C2_3  and  C3_4 
ROOT
ATOM      1  C3  UNL d   1      -1.422  -1.292   3.227  0.00  0.00    -0.075 A 
ATOM      2  C4  UNL d   1      -1.584  -0.325   2.224  0.00  0.00     0.002 A 
ATOM      3  C5  UNL d   1      -0.606  -0.151   1.244  0.00  0.00     0.002 A 
ATOM      4  C6  UNL d   1       0.548  -0.931   1.260  0.00  0.00    -0.004 A 
ATOM      5  C7  UNL d   1       0.727  -1.883   2.262  0.00  0.00     0.002 A 
ATOM      6  C8  UNL d   1      -0.252  -2.063   3.241  0.00  0.00     0.002 A 
ENDROOT
BRANCH   1   7
ATOM      7  C2  UNL d   1      -2.490  -1.506   4.273  0.00  0.00     0.056 C 
BRANCH   7   8
ATOM      8  C1  UNL d   1      -3.548  -0.398   4.320  0.00  0.00     0.007 C 
ATOM      9  C   UNL d   1      -4.706  -0.714   5.257  0.00  0.00     0.009 C 
ENDBRANCH   7   8
ENDBRANCH   1   7
TORSDOF 2
ENDMDL
