MODEL 1
REMARK minimizedAffinity -2.23780608
REMARK minimizedRMSD -1
REMARK  2 active torsions:
REMARK  status: ('A' for Active; 'I' for Inactive)
REMARK    1  A    between atoms: C1_2  and  C2_3 
REMARK    2  A    between atoms: C2_3  and  C3_4 
ROOT
ATOM      1  C3  UNL d   1      -3.484  -4.996  -4.815  0.00  0.00    -0.075 A 
ATOM      2  C4  UNL d   1      -2.711  -4.697  -5.946  0.00  0.00     0.002 A 
ATOM      3  C5  UNL d   1      -1.365  -5.058  -5.999  0.00  0.00     0.002 A 
ATOM      4  C6  UNL d   1      -0.772  -5.712  -4.921  0.00  0.00    -0.004 A 
ATOM      5  C7  UNL d   1      -1.527  -5.999  -3.786  0.00  0.00     0.002 A 
ATOM      6  C8  UNL d   1      -2.875  -5.643  -3.731  0.00  0.00     0.002 A 
ENDROOT
BRANCH   1   7
ATOM      7  C2  UNL d   1      -4.950  -4.635  -4.762  0.00  0.00     0.056 C 
BRANCH   7   8
ATOM      8  C1  UNL d   1      -5.419  -3.764  -5.932  0.00  0.00     0.007 C 
ATOM      9  C   UNL d   1      -5.926  -2.395  -5.496  0.00  0.00     0.009 C 
ENDBRANCH   7   8
ENDBRANCH   1   7
TORSDOF 2
ENDMDL
