MODEL 1
REMARK minimizedAffinity 4.33316803
REMARK minimizedRMSD -1
REMARK  2 active torsions:
REMARK  status: ('A' for Active; 'I' for Inactive)
REMARK    1  A    between atoms: C1_2  and  C2_3 
REMARK    2  A    between atoms: C2_3  and  C3_4 
ROOT
ATOM      1  C3  UNL d   1      -3.259  -4.130  -4.520  0.00  0.00    -0.075 A 
ATOM      2  C4  UNL d   1      -3.679  -5.065  -5.478  0.00  0.00     0.002 A 
ATOM      3  C5  UNL d   1      -2.781  -5.996  -6.000  0.00  0.00     0.002 A 
ATOM      4  C6  UNL d   1      -1.453  -5.999  -5.580  0.00  0.00    -0.004 A 
ATOM      5  C7  UNL d   1      -1.020  -5.065  -4.641  0.00  0.00     0.002 A 
ATOM      6  C8  UNL d   1      -1.918  -4.134  -4.114  0.00  0.00     0.002 A 
ENDROOT
BRANCH   1   7
ATOM      7  C2  UNL d   1      -4.232  -3.139  -3.930  0.00  0.00     0.056 C 
BRANCH   7   8
ATOM      8  C1  UNL d   1      -4.655  -2.028  -4.897  0.00  0.00     0.007 C 
ATOM      9  C   UNL d   1      -5.965  -1.357  -4.505  0.00  0.00     0.009 C 
ENDBRANCH   7   8
ENDBRANCH   1   7
TORSDOF 2
ENDMDL
