MODEL 1
REMARK minimizedAffinity -2.22793961
REMARK minimizedRMSD -1
REMARK  2 active torsions:
REMARK  status: ('A' for Active; 'I' for Inactive)
REMARK    1  A    between atoms: C1_2  and  C2_3 
REMARK    2  A    between atoms: C2_3  and  C3_4 
ROOT
ATOM      1  C3  UNL d   1      -3.907  -4.501  -5.099  0.00  0.00    -0.075 A 
ATOM      2  C4  UNL d   1      -2.932  -3.498  -4.990  0.00  0.00     0.002 A 
ATOM      3  C5  UNL d   1      -1.618  -3.742  -5.392  0.00  0.00     0.002 A 
ATOM      4  C6  UNL d   1      -1.260  -4.990  -5.897  0.00  0.00    -0.004 A 
ATOM      5  C7  UNL d   1      -2.217  -5.998  -5.993  0.00  0.00     0.002 A 
ATOM      6  C8  UNL d   1      -3.533  -5.756  -5.596  0.00  0.00     0.002 A 
ENDROOT
BRANCH   1   7
ATOM      7  C2  UNL d   1      -5.337  -4.235  -4.693  0.00  0.00     0.056 C 
BRANCH   7   8
ATOM      8  C1  UNL d   1      -5.999  -3.086  -5.461  0.00  0.00     0.007 C 
ATOM      9  C   UNL d   1      -5.818  -1.731  -4.790  0.00  0.00     0.009 C 
ENDBRANCH   7   8
ENDBRANCH   1   7
TORSDOF 2
ENDMDL
