MODEL 1
REMARK minimizedAffinity -2.72357607
REMARK minimizedRMSD -1
REMARK  2 active torsions:
REMARK  status: ('A' for Active; 'I' for Inactive)
REMARK    1  A    between atoms: C1_2  and  C2_3 
REMARK    2  A    between atoms: C2_3  and  C3_4 
ROOT
ATOM      1  C3  UNL d   1      -4.389  -5.023  -5.242  0.00  0.00    -0.075 A 
ATOM      2  C4  UNL d   1      -5.084  -4.012  -5.920  0.00  0.00     0.002 A 
ATOM      3  C5  UNL d   1      -5.868  -3.096  -5.217  0.00  0.00     0.002 A 
ATOM      4  C6  UNL d   1      -5.975  -3.187  -3.831  0.00  0.00    -0.004 A 
ATOM      5  C7  UNL d   1      -5.302  -4.199  -3.149  0.00  0.00     0.002 A 
ATOM      6  C8  UNL d   1      -4.514  -5.113  -3.849  0.00  0.00     0.002 A 
ENDROOT
BRANCH   1   7
ATOM      7  C2  UNL d   1      -3.516  -5.999  -5.995  0.00  0.00     0.056 C 
BRANCH   7   8
ATOM      8  C1  UNL d   1      -2.027  -5.634  -5.992  0.00  0.00     0.007 C 
ATOM      9  C   UNL d   1      -1.778  -4.132  -5.976  0.00  0.00     0.009 C 
ENDBRANCH   7   8
ENDBRANCH   1   7
TORSDOF 2
ENDMDL
