MODEL 1
REMARK minimizedAffinity -0.938539505
REMARK minimizedRMSD -1
REMARK  2 active torsions:
REMARK  status: ('A' for Active; 'I' for Inactive)
REMARK    1  A    between atoms: C1_2  and  C2_3 
REMARK    2  A    between atoms: C2_3  and  C3_4 
ROOT
ATOM      1  C3  UNL d   1      -4.774  -3.997  -4.926  0.00  0.00    -0.075 A 
ATOM      2  C4  UNL d   1      -4.962  -5.206  -5.610  0.00  0.00     0.002 A 
ATOM      3  C5  UNL d   1      -3.867  -5.985  -5.985  0.00  0.00     0.002 A 
ATOM      4  C6  UNL d   1      -2.573  -5.561  -5.690  0.00  0.00    -0.004 A 
ATOM      5  C7  UNL d   1      -2.374  -4.353  -5.025  0.00  0.00     0.002 A 
ATOM      6  C8  UNL d   1      -3.468  -3.574  -4.645  0.00  0.00     0.002 A 
ENDROOT
BRANCH   1   7
ATOM      7  C2  UNL d   1      -5.956  -3.163  -4.491  0.00  0.00     0.056 C 
BRANCH   7   8
ATOM      8  C1  UNL d   1      -5.995  -2.871  -2.988  0.00  0.00     0.007 C 
ATOM      9  C   UNL d   1      -5.618  -1.435  -2.645  0.00  0.00     0.009 C 
ENDBRANCH   7   8
ENDBRANCH   1   7
TORSDOF 2
ENDMDL
