MODEL 1
REMARK minimizedAffinity -3.48130894
REMARK minimizedRMSD -1
REMARK  0 active torsions:
REMARK  status: ('A' for Active; 'I' for Inactive)
ROOT
ATOM      1  N1  IND d   1       6.000   3.190  -4.962  0.00  0.00    -0.196 N 
ATOM      2  C2  IND d   1       5.045   2.770  -5.845  0.00  0.00     0.054 A 
ATOM      3  C3  IND d   1       3.879   3.415  -5.619  0.00  0.00    -0.031 A 
ATOM      4  C4  IND d   1       3.340   5.271  -3.917  0.00  0.00     0.051 A 
ATOM      5  C5  IND d   1       3.881   5.962  -2.870  0.00  0.00    -0.031 A 
ATOM      6  C6  IND d   1       5.183   5.762  -2.460  0.00  0.00     0.015 A 
ATOM      7  C7  IND d   1       6.000   4.868  -3.092  0.00  0.00    -0.016 A 
ATOM      8  C8  IND d   1       5.452   4.159  -4.151  0.00  0.00    -0.047 A 
ATOM      9  C9  IND d   1       4.118   4.327  -4.545  0.00  0.00    -0.096 A 
ATOM     10  HN1 IND d   1       6.807   2.897  -4.919  0.00  0.00     0.298 HD
ENDROOT
TORSDOF 0
ENDMDL
