MODEL 1
REMARK minimizedAffinity -5.81897402
REMARK minimizedRMSD -1
REMARK  0 active torsions:
REMARK  status: ('A' for Active; 'I' for Inactive)
ROOT
ATOM      1  N1  IND d   1       5.988   3.218  -4.943  0.00  0.00    -0.196 N 
ATOM      2  C2  IND d   1       5.071   2.795  -5.865  0.00  0.00     0.054 A 
ATOM      3  C3  IND d   1       3.891   3.428  -5.680  0.00  0.00    -0.031 A 
ATOM      4  C4  IND d   1       3.269   5.267  -3.989  0.00  0.00     0.051 A 
ATOM      5  C5  IND d   1       3.763   5.956  -2.917  0.00  0.00    -0.031 A 
ATOM      6  C6  IND d   1       5.051   5.766  -2.458  0.00  0.00     0.015 A 
ATOM      7  C7  IND d   1       5.900   4.884  -3.064  0.00  0.00    -0.016 A 
ATOM      8  C8  IND d   1       5.399   4.177  -4.148  0.00  0.00    -0.047 A 
ATOM      9  C9  IND d   1       4.080   4.335  -4.592  0.00  0.00    -0.096 A 
ATOM     10  HN1 IND d   1       6.795   2.932  -4.871  0.00  0.00     0.298 HD
ENDROOT
TORSDOF 0
ENDMDL
