MODEL 1
REMARK minimizedAffinity 9.83673954
REMARK minimizedRMSD -1
REMARK  0 active torsions:
REMARK  status: ('A' for Active; 'I' for Inactive)
ROOT
ATOM      1  N1  IND d   1      -1.158  -2.973  -3.775  0.00  0.00    -0.196 N 
ATOM      2  C2  IND d   1      -0.813  -2.469  -2.551  0.00  0.00     0.054 A 
ATOM      3  C3  IND d   1       0.521  -2.582  -2.356  0.00  0.00    -0.031 A 
ATOM      4  C4  IND d   1       2.338  -3.467  -3.950  0.00  0.00     0.051 A 
ATOM      5  C5  IND d   1       2.505  -4.069  -5.166  0.00  0.00    -0.031 A 
ATOM      6  C6  IND d   1       1.437  -4.339  -5.998  0.00  0.00     0.015 A 
ATOM      7  C7  IND d   1       0.159  -4.006  -5.648  0.00  0.00    -0.016 A 
ATOM      8  C8  IND d   1      -0.014  -3.401  -4.412  0.00  0.00    -0.047 A 
ATOM      9  C9  IND d   1       1.060  -3.163  -3.545  0.00  0.00    -0.096 A 
ATOM     10  HN1 IND d   1      -1.956  -3.015  -4.092  0.00  0.00     0.298 HD
ENDROOT
TORSDOF 0
ENDMDL
