MODEL 1
REMARK minimizedAffinity -1.04122734
REMARK minimizedRMSD -1
REMARK  0 active torsions:
REMARK  status: ('A' for Active; 'I' for Inactive)
ROOT
ATOM      1  N1  IND d   1       3.917  -3.761  -4.150  0.00  0.00    -0.196 N 
ATOM      2  C2  IND d   1       3.412  -2.525  -4.445  0.00  0.00     0.054 A 
ATOM      3  C3  IND d   1       3.786  -1.628  -3.505  0.00  0.00    -0.031 A 
ATOM      4  C4  IND d   1       5.308  -1.947  -1.453  0.00  0.00     0.051 A 
ATOM      5  C5  IND d   1       5.979  -2.907  -0.748  0.00  0.00    -0.031 A 
ATOM      6  C6  IND d   1       5.999  -4.227  -1.151  0.00  0.00     0.015 A 
ATOM      7  C7  IND d   1       5.356  -4.636  -2.285  0.00  0.00    -0.016 A 
ATOM      8  C8  IND d   1       4.668  -3.665  -2.999  0.00  0.00    -0.047 A 
ATOM      9  C9  IND d   1       4.609  -2.332  -2.572  0.00  0.00    -0.096 A 
ATOM     10  HN1 IND d   1       3.788  -4.478  -4.607  0.00  0.00     0.298 HD
ENDROOT
TORSDOF 0
ENDMDL
