MODEL 1
REMARK minimizedAffinity 10.4203768
REMARK minimizedRMSD -1
REMARK  0 active torsions:
REMARK  status: ('A' for Active; 'I' for Inactive)
ROOT
ATOM      1  N1  IND d   1       0.983  -4.122  -5.264  0.00  0.00    -0.196 N 
ATOM      2  C2  IND d   1       2.297  -4.173  -4.891  0.00  0.00     0.054 A 
ATOM      3  C3  IND d   1       2.472  -3.559  -3.699  0.00  0.00    -0.031 A 
ATOM      4  C4  IND d   1       0.725  -2.492  -2.137  0.00  0.00     0.051 A 
ATOM      5  C5  IND d   1      -0.601  -2.170  -2.065  0.00  0.00    -0.031 A 
ATOM      6  C6  IND d   1      -1.486  -2.492  -3.074  0.00  0.00     0.015 A 
ATOM      7  C7  IND d   1      -1.077  -3.160  -4.193  0.00  0.00    -0.016 A 
ATOM      8  C8  IND d   1       0.271  -3.482  -4.274  0.00  0.00    -0.047 A 
ATOM      9  C9  IND d   1       1.181  -3.120  -3.272  0.00  0.00    -0.096 A 
ATOM     10  HN1 IND d   1       0.656  -4.436  -5.995  0.00  0.00     0.298 HD
ENDROOT
TORSDOF 0
ENDMDL
