MODEL 1
REMARK minimizedAffinity 9.09584808
REMARK minimizedRMSD -1
REMARK  0 active torsions:
REMARK  status: ('A' for Active; 'I' for Inactive)
ROOT
ATOM      1  N1  IND d   1       6.000  -2.590  -3.521  0.00  0.00    -0.196 N 
ATOM      2  C2  IND d   1       6.000  -2.720  -2.160  0.00  0.00     0.054 A 
ATOM      3  C3  IND d   1       4.735  -2.851  -1.700  0.00  0.00    -0.031 A 
ATOM      4  C4  IND d   1       2.524  -2.983  -3.011  0.00  0.00     0.051 A 
ATOM      5  C5  IND d   1       2.012  -2.877  -4.274  0.00  0.00    -0.031 A 
ATOM      6  C6  IND d   1       2.820  -2.668  -5.373  0.00  0.00     0.015 A 
ATOM      7  C7  IND d   1       4.177  -2.569  -5.250  0.00  0.00    -0.016 A 
ATOM      8  C8  IND d   1       4.700  -2.669  -3.969  0.00  0.00    -0.047 A 
ATOM      9  C9  IND d   1       3.881  -2.839  -2.845  0.00  0.00    -0.096 A 
ATOM     10  HN1 IND d   1       6.695  -2.479  -4.014  0.00  0.00     0.298 HD
ENDROOT
TORSDOF 0
ENDMDL
