MODEL 1
REMARK minimizedAffinity 10.9273138
REMARK minimizedRMSD -1
REMARK  0 active torsions:
REMARK  status: ('A' for Active; 'I' for Inactive)
ROOT
ATOM      1  N1  IND d   1       5.498  -3.579  -2.262  0.00  0.00    -0.196 N 
ATOM      2  C2  IND d   1       5.999  -2.869  -1.206  0.00  0.00     0.054 A 
ATOM      3  C3  IND d   1       5.945  -1.543  -1.464  0.00  0.00    -0.031 A 
ATOM      4  C4  IND d   1       4.980  -0.312  -3.509  0.00  0.00     0.051 A 
ATOM      5  C5  IND d   1       4.444  -0.535  -4.746  0.00  0.00    -0.031 A 
ATOM      6  C6  IND d   1       4.226  -1.810  -5.227  0.00  0.00     0.015 A 
ATOM      7  C7  IND d   1       4.525  -2.914  -4.481  0.00  0.00    -0.016 A 
ATOM      8  C8  IND d   1       5.076  -2.692  -3.227  0.00  0.00    -0.047 A 
ATOM      9  C9  IND d   1       5.340  -1.401  -2.750  0.00  0.00    -0.096 A 
ATOM     10  HN1 IND d   1       5.454  -4.436  -2.314  0.00  0.00     0.298 HD
ENDROOT
TORSDOF 0
ENDMDL
