MODEL 1
REMARK minimizedAffinity 2.19519258
REMARK minimizedRMSD -1
REMARK  0 active torsions:
REMARK  status: ('A' for Active; 'I' for Inactive)
ROOT
ATOM      1  N1  IND d   1       5.999  -4.228  -1.328  0.00  0.00    -0.196 N 
ATOM      2  C2  IND d   1       5.841  -3.353  -0.289  0.00  0.00     0.054 A 
ATOM      3  C3  IND d   1       5.062  -2.314  -0.664  0.00  0.00    -0.031 A 
ATOM      4  C4  IND d   1       3.856  -1.896  -2.900  0.00  0.00     0.051 A 
ATOM      5  C5  IND d   1       3.728  -2.397  -4.165  0.00  0.00    -0.031 A 
ATOM      6  C6  IND d   1       4.361  -3.560  -4.556  0.00  0.00     0.015 A 
ATOM      7  C7  IND d   1       5.140  -4.273  -3.689  0.00  0.00    -0.016 A 
ATOM      8  C8  IND d   1       5.278  -3.763  -2.406  0.00  0.00    -0.047 A 
ATOM      9  C9  IND d   1       4.673  -2.561  -2.016  0.00  0.00    -0.096 A 
ATOM     10  HN1 IND d   1       6.469  -4.947  -1.311  0.00  0.00     0.298 HD
ENDROOT
TORSDOF 0
ENDMDL
