MODEL 1
REMARK minimizedAffinity -1.01087236
REMARK minimizedRMSD -1
REMARK  0 active torsions:
REMARK  status: ('A' for Active; 'I' for Inactive)
ROOT
ATOM      1  N1  IND d   1       5.858   4.118  -5.382  0.00  0.00    -0.196 N 
ATOM      2  C2  IND d   1       4.867   3.405  -5.997  0.00  0.00     0.054 A 
ATOM      3  C3  IND d   1       3.762   3.368  -5.219  0.00  0.00    -0.031 A 
ATOM      4  C4  IND d   1       3.324   4.493  -2.945  0.00  0.00     0.051 A 
ATOM      5  C5  IND d   1       3.941   5.220  -1.966  0.00  0.00    -0.031 A 
ATOM      6  C6  IND d   1       5.255   5.627  -2.079  0.00  0.00     0.015 A 
ATOM      7  C7  IND d   1       6.000   5.331  -3.185  0.00  0.00    -0.016 A 
ATOM      8  C8  IND d   1       5.378   4.587  -4.178  0.00  0.00    -0.047 A 
ATOM      9  C9  IND d   1       4.059   4.135  -4.050  0.00  0.00    -0.096 A 
ATOM     10  HN1 IND d   1       6.648   4.251  -5.694  0.00  0.00     0.298 HD
ENDROOT
TORSDOF 0
ENDMDL
