MODEL 1
REMARK minimizedAffinity 10.4278069
REMARK minimizedRMSD -1
REMARK  0 active torsions:
REMARK  status: ('A' for Active; 'I' for Inactive)
ROOT
ATOM      1  N1  IND d   1      -3.410  -2.203  -1.757  0.00  0.00    -0.196 N 
ATOM      2  C2  IND d   1      -2.126  -2.116  -2.218  0.00  0.00     0.054 A 
ATOM      3  C3  IND d   1      -1.249  -2.351  -1.216  0.00  0.00    -0.031 A 
ATOM      4  C4  IND d   1      -1.701  -2.997   1.234  0.00  0.00     0.051 A 
ATOM      5  C5  IND d   1      -2.715  -3.163   2.135  0.00  0.00    -0.031 A 
ATOM      6  C6  IND d   1      -4.040  -3.018   1.777  0.00  0.00     0.015 A 
ATOM      7  C7  IND d   1      -4.401  -2.710   0.496  0.00  0.00    -0.016 A 
ATOM      8  C8  IND d   1      -3.374  -2.534  -0.420  0.00  0.00    -0.047 A 
ATOM      9  C9  IND d   1      -2.026  -2.639  -0.053  0.00  0.00    -0.096 A 
ATOM     10  HN1 IND d   1      -4.120  -2.073  -2.223  0.00  0.00     0.298 HD
ENDROOT
TORSDOF 0
ENDMDL
