MODEL 1
REMARK minimizedAffinity 8.9373951
REMARK minimizedRMSD -1
REMARK  0 active torsions:
REMARK  status: ('A' for Active; 'I' for Inactive)
ROOT
ATOM      1  N1  IND d   1       5.044  -2.289  -3.371  0.00  0.00    -0.196 N 
ATOM      2  C2  IND d   1       3.781  -2.813  -3.374  0.00  0.00     0.054 A 
ATOM      3  C3  IND d   1       2.903  -1.922  -3.886  0.00  0.00    -0.031 A 
ATOM      4  C4  IND d   1       3.334   0.416  -4.874  0.00  0.00     0.051 A 
ATOM      5  C5  IND d   1       4.321   1.343  -5.058  0.00  0.00    -0.031 A 
ATOM      6  C6  IND d   1       5.627   1.100  -4.684  0.00  0.00     0.015 A 
ATOM      7  C7  IND d   1       5.998  -0.088  -4.120  0.00  0.00    -0.016 A 
ATOM      8  C8  IND d   1       4.996  -1.028  -3.925  0.00  0.00    -0.047 A 
ATOM      9  C9  IND d   1       3.661  -0.772  -4.264  0.00  0.00    -0.096 A 
ATOM     10  HN1 IND d   1       5.749  -2.680  -3.074  0.00  0.00     0.298 HD
ENDROOT
TORSDOF 0
ENDMDL
