MODEL 1
REMARK minimizedAffinity 17.4940643
REMARK minimizedRMSD -1
REMARK  0 active torsions:
REMARK  status: ('A' for Active; 'I' for Inactive)
ROOT
ATOM      1  N1  IND d   1      -1.115  -2.579   3.211  0.00  0.00    -0.196 N 
ATOM      2  C2  IND d   1      -1.417  -2.225   1.926  0.00  0.00     0.054 A 
ATOM      3  C3  IND d   1      -2.083  -1.049   1.906  0.00  0.00    -0.031 A 
ATOM      4  C4  IND d   1      -2.695   0.517   3.856  0.00  0.00     0.051 A 
ATOM      5  C5  IND d   1      -2.661   0.604   5.219  0.00  0.00    -0.031 A 
ATOM      6  C6  IND d   1      -2.096  -0.384   5.999  0.00  0.00     0.015 A 
ATOM      7  C7  IND d   1      -1.531  -1.496   5.440  0.00  0.00    -0.016 A 
ATOM      8  C8  IND d   1      -1.570  -1.591   4.057  0.00  0.00    -0.047 A 
ATOM      9  C9  IND d   1      -2.180  -0.611   3.263  0.00  0.00    -0.096 A 
ATOM     10  HN1 IND d   1      -0.709  -3.298   3.452  0.00  0.00     0.298 HD
ENDROOT
TORSDOF 0
ENDMDL
