MODEL 1
REMARK minimizedAffinity 14.24681
REMARK minimizedRMSD -1
REMARK  0 active torsions:
REMARK  status: ('A' for Active; 'I' for Inactive)
ROOT
ATOM      1  N1  IND d   1       5.645  -4.129   3.804  0.00  0.00    -0.196 N 
ATOM      2  C2  IND d   1       6.000  -4.588   5.042  0.00  0.00     0.054 A 
ATOM      3  C3  IND d   1       5.279  -3.963   6.000  0.00  0.00    -0.031 A 
ATOM      4  C4  IND d   1       3.392  -2.228   5.756  0.00  0.00     0.051 A 
ATOM      5  C5  IND d   1       2.739  -1.471   4.825  0.00  0.00    -0.031 A 
ATOM      6  C6  IND d   1       3.025  -1.565   3.478  0.00  0.00     0.015 A 
ATOM      7  C7  IND d   1       3.971  -2.431   3.010  0.00  0.00    -0.016 A 
ATOM      8  C8  IND d   1       4.641  -3.197   3.953  0.00  0.00    -0.047 A 
ATOM      9  C9  IND d   1       4.386  -3.075   5.325  0.00  0.00    -0.096 A 
ATOM     10  HN1 IND d   1       5.991  -4.380   3.058  0.00  0.00     0.298 HD
ENDROOT
TORSDOF 0
ENDMDL
