MODEL 1
REMARK minimizedAffinity 3.11771226
REMARK minimizedRMSD -1
REMARK  0 active torsions:
REMARK  status: ('A' for Active; 'I' for Inactive)
ROOT
ATOM      1  N1  IND d   1       5.999   2.997  -4.497  0.00  0.00    -0.196 N 
ATOM      2  C2  IND d   1       5.012   2.282  -5.117  0.00  0.00     0.054 A 
ATOM      3  C3  IND d   1       3.812   2.552  -4.556  0.00  0.00    -0.031 A 
ATOM      4  C4  IND d   1       3.221   4.211  -2.678  0.00  0.00     0.051 A 
ATOM      5  C5  IND d   1       3.791   5.065  -1.777  0.00  0.00    -0.031 A 
ATOM      6  C6  IND d   1       5.154   5.281  -1.737  0.00  0.00     0.015 A 
ATOM      7  C7  IND d   1       5.999   4.655  -2.609  0.00  0.00    -0.016 A 
ATOM      8  C8  IND d   1       5.425   3.781  -3.521  0.00  0.00    -0.047 A 
ATOM      9  C9  IND d   1       4.047   3.526  -3.538  0.00  0.00    -0.096 A 
ATOM     10  HN1 IND d   1       6.837   2.963  -4.686  0.00  0.00     0.298 HD
ENDROOT
TORSDOF 0
ENDMDL
