MODEL 1
REMARK minimizedAffinity 5.30798006
REMARK minimizedRMSD -1
REMARK  0 active torsions:
REMARK  status: ('A' for Active; 'I' for Inactive)
ROOT
ATOM      1  N1  IND d   1       3.621   5.626  -4.438  0.00  0.00    -0.196 N 
ATOM      2  C2  IND d   1       2.434   4.962  -4.306  0.00  0.00     0.054 A 
ATOM      3  C3  IND d   1       2.342   4.402  -3.079  0.00  0.00    -0.031 A 
ATOM      4  C4  IND d   1       3.977   4.534  -1.095  0.00  0.00     0.051 A 
ATOM      5  C5  IND d   1       5.215   4.998  -0.748  0.00  0.00    -0.031 A 
ATOM      6  C6  IND d   1       6.000   5.711  -1.631  0.00  0.00     0.015 A 
ATOM      7  C7  IND d   1       5.569   5.999  -2.895  0.00  0.00    -0.016 A 
ATOM      8  C8  IND d   1       4.315   5.523  -3.253  0.00  0.00    -0.047 A 
ATOM      9  C9  IND d   1       3.532   4.762  -2.375  0.00  0.00    -0.096 A 
ATOM     10  HN1 IND d   1       3.890   6.038  -5.144  0.00  0.00     0.298 HD
ENDROOT
TORSDOF 0
ENDMDL
