MODEL 1
REMARK minimizedAffinity 29.413187
REMARK minimizedRMSD -1
REMARK  0 active torsions:
REMARK  status: ('A' for Active; 'I' for Inactive)
ROOT
ATOM      1  N1  IND d   1       5.999  -1.199   5.667  0.00  0.00    -0.196 N 
ATOM      2  C2  IND d   1       5.285  -2.317   5.996  0.00  0.00     0.054 A 
ATOM      3  C3  IND d   1       4.378  -2.596   5.033  0.00  0.00    -0.031 A 
ATOM      4  C4  IND d   1       3.961  -1.412   2.786  0.00  0.00     0.051 A 
ATOM      5  C5  IND d   1       4.341  -0.320   2.057  0.00  0.00    -0.031 A 
ATOM      6  C6  IND d   1       5.315   0.551   2.502  0.00  0.00     0.015 A 
ATOM      7  C7  IND d   1       5.956   0.355   3.693  0.00  0.00    -0.016 A 
ATOM      8  C8  IND d   1       5.567  -0.749   4.439  0.00  0.00    -0.047 A 
ATOM      9  C9  IND d   1       4.550  -1.612   4.012  0.00  0.00    -0.096 A 
ATOM     10  HN1 IND d   1       6.614  -0.838   6.147  0.00  0.00     0.298 HD
ENDROOT
TORSDOF 0
ENDMDL
