MODEL 1
REMARK minimizedAffinity 14.7482405
REMARK minimizedRMSD -1
REMARK  0 active torsions:
REMARK  status: ('A' for Active; 'I' for Inactive)
ROOT
ATOM      1  N1  IND d   1       0.387   1.092  -2.624  0.00  0.00    -0.196 N 
ATOM      2  C2  IND d   1       1.006   1.930  -1.739  0.00  0.00     0.054 A 
ATOM      3  C3  IND d   1       1.907   1.248  -0.997  0.00  0.00    -0.031 A 
ATOM      4  C4  IND d   1       2.602  -1.227  -1.135  0.00  0.00     0.051 A 
ATOM      5  C5  IND d   1       2.290  -2.400  -1.764  0.00  0.00    -0.031 A 
ATOM      6  C6  IND d   1       1.310  -2.470  -2.732  0.00  0.00     0.015 A 
ATOM      7  C7  IND d   1       0.610  -1.362  -3.119  0.00  0.00    -0.016 A 
ATOM      8  C8  IND d   1       0.919  -0.171  -2.478  0.00  0.00    -0.047 A 
ATOM      9  C9  IND d   1       1.883  -0.102  -1.464  0.00  0.00    -0.096 A 
ATOM     10  HN1 IND d   1      -0.231   1.315  -3.178  0.00  0.00     0.298 HD
ENDROOT
TORSDOF 0
ENDMDL
