MODEL 1
REMARK minimizedAffinity 22.1186714
REMARK minimizedRMSD -1
REMARK  0 active torsions:
REMARK  status: ('A' for Active; 'I' for Inactive)
ROOT
ATOM      1  N1  IND d   1      -1.689   5.871   5.279  0.00  0.00    -0.196 N 
ATOM      2  C2  IND d   1      -2.860   5.549   5.907  0.00  0.00     0.054 A 
ATOM      3  C3  IND d   1      -3.817   5.257   4.997  0.00  0.00    -0.031 A 
ATOM      4  C4  IND d   1      -3.653   5.144   2.431  0.00  0.00     0.051 A 
ATOM      5  C5  IND d   1      -2.798   5.390   1.394  0.00  0.00    -0.031 A 
ATOM      6  C6  IND d   1      -1.502   5.815   1.603  0.00  0.00     0.015 A 
ATOM      7  C7  IND d   1      -1.007   6.000   2.864  0.00  0.00    -0.016 A 
ATOM      8  C8  IND d   1      -1.876   5.758   3.919  0.00  0.00    -0.047 A 
ATOM      9  C9  IND d   1      -3.205   5.367   3.711  0.00  0.00    -0.096 A 
ATOM     10  HN1 IND d   1      -0.959   6.105   5.668  0.00  0.00     0.298 HD
ENDROOT
TORSDOF 0
ENDMDL
