MODEL 1
REMARK minimizedAffinity 21.2871304
REMARK minimizedRMSD -1
REMARK  0 active torsions:
REMARK  status: ('A' for Active; 'I' for Inactive)
ROOT
ATOM      1  N1  IND d   1       5.366  -0.261  -1.891  0.00  0.00    -0.196 N 
ATOM      2  C2  IND d   1       5.998   0.597  -2.747  0.00  0.00     0.054 A 
ATOM      3  C3  IND d   1       5.102   1.419  -3.338  0.00  0.00    -0.031 A 
ATOM      4  C4  IND d   1       2.560   1.600  -2.971  0.00  0.00     0.051 A 
ATOM      5  C5  IND d   1       1.521   1.002  -2.314  0.00  0.00    -0.031 A 
ATOM      6  C6  IND d   1       1.715  -0.066  -1.462  0.00  0.00     0.015 A 
ATOM      7  C7  IND d   1       2.962  -0.572  -1.227  0.00  0.00    -0.016 A 
ATOM      8  C8  IND d   1       4.018   0.027  -1.898  0.00  0.00    -0.047 A 
ATOM      9  C9  IND d   1       3.823   1.084  -2.796  0.00  0.00    -0.096 A 
ATOM     10  HN1 IND d   1       5.745  -0.876  -1.426  0.00  0.00     0.298 HD
ENDROOT
TORSDOF 0
ENDMDL
