MODEL 1
REMARK minimizedAffinity 10.4697447
REMARK minimizedRMSD -1
REMARK  0 active torsions:
REMARK  status: ('A' for Active; 'I' for Inactive)
ROOT
ATOM      1  N1  IND d   1       5.195   4.163   1.844  0.00  0.00    -0.196 N 
ATOM      2  C2  IND d   1       4.910   4.699   3.069  0.00  0.00     0.054 A 
ATOM      3  C3  IND d   1       3.821   5.497   2.991  0.00  0.00    -0.031 A 
ATOM      4  C4  IND d   1       2.293   5.986   0.978  0.00  0.00     0.051 A 
ATOM      5  C5  IND d   1       2.171   5.754  -0.364  0.00  0.00    -0.031 A 
ATOM      6  C6  IND d   1       3.067   4.961  -1.051  0.00  0.00     0.015 A 
ATOM      7  C7  IND d   1       4.117   4.360  -0.417  0.00  0.00    -0.016 A 
ATOM      8  C8  IND d   1       4.249   4.599   0.943  0.00  0.00    -0.047 A 
ATOM      9  C9  IND d   1       3.366   5.437   1.638  0.00  0.00    -0.096 A 
ATOM     10  HN1 IND d   1       5.855   3.642   1.666  0.00  0.00     0.298 HD
ENDROOT
TORSDOF 0
ENDMDL
