MODEL 1
REMARK minimizedAffinity 20.6567364
REMARK minimizedRMSD -1
REMARK  0 active torsions:
REMARK  status: ('A' for Active; 'I' for Inactive)
ROOT
ATOM      1  N1  IND d   1       5.481   4.640   1.353  0.00  0.00    -0.196 N 
ATOM      2  C2  IND d   1       4.935   4.118   2.493  0.00  0.00     0.054 A 
ATOM      3  C3  IND d   1       3.608   3.919   2.329  0.00  0.00    -0.031 A 
ATOM      4  C4  IND d   1       2.144   4.281   0.243  0.00  0.00     0.051 A 
ATOM      5  C5  IND d   1       2.187   4.776  -1.030  0.00  0.00    -0.031 A 
ATOM      6  C6  IND d   1       3.354   5.258  -1.586  0.00  0.00     0.015 A 
ATOM      7  C7  IND d   1       4.530   5.253  -0.890  0.00  0.00    -0.016 A 
ATOM      8  C8  IND d   1       4.489   4.757   0.405  0.00  0.00    -0.047 A 
ATOM      9  C9  IND d   1       3.298   4.306   0.989  0.00  0.00    -0.096 A 
ATOM     10  HN1 IND d   1       6.306   4.858   1.246  0.00  0.00     0.298 HD
ENDROOT
TORSDOF 0
ENDMDL
