MODEL 1
REMARK minimizedAffinity 14.0285225
REMARK minimizedRMSD -1
REMARK  0 active torsions:
REMARK  status: ('A' for Active; 'I' for Inactive)
ROOT
ATOM      1  N1  IND d   1      -4.099  -0.024   5.724  0.00  0.00    -0.196 N 
ATOM      2  C2  IND d   1      -5.092  -0.922   6.000  0.00  0.00     0.054 A 
ATOM      3  C3  IND d   1      -5.999  -0.942   4.998  0.00  0.00    -0.031 A 
ATOM      4  C4  IND d   1      -6.000   0.339   2.765  0.00  0.00     0.051 A 
ATOM      5  C5  IND d   1      -5.319   1.304   2.077  0.00  0.00    -0.031 A 
ATOM      6  C6  IND d   1      -4.172   1.885   2.577  0.00  0.00     0.015 A 
ATOM      7  C7  IND d   1      -3.654   1.513   3.786  0.00  0.00    -0.016 A 
ATOM      8  C8  IND d   1      -4.347   0.539   4.491  0.00  0.00    -0.047 A 
ATOM      9  C9  IND d   1      -5.535  -0.024   4.007  0.00  0.00    -0.096 A 
ATOM     10  HN1 IND d   1      -3.431   0.158   6.234  0.00  0.00     0.298 HD
ENDROOT
TORSDOF 0
ENDMDL
