MODEL 1
REMARK minimizedAffinity -2.1133728
REMARK minimizedRMSD -1
REMARK  0 active torsions:
REMARK  status: ('A' for Active; 'I' for Inactive)
ROOT
ATOM      1  N1  IND d   1       5.595   5.503   1.268  0.00  0.00    -0.196 N 
ATOM      2  C2  IND d   1       4.754   5.096   2.266  0.00  0.00     0.054 A 
ATOM      3  C3  IND d   1       3.497   4.948   1.792  0.00  0.00    -0.031 A 
ATOM      4  C4  IND d   1       2.612   5.221  -0.610  0.00  0.00     0.051 A 
ATOM      5  C5  IND d   1       2.996   5.617  -1.861  0.00  0.00    -0.031 A 
ATOM      6  C6  IND d   1       4.292   6.000  -2.139  0.00  0.00     0.015 A 
ATOM      7  C7  IND d   1       5.260   5.990  -1.175  0.00  0.00    -0.016 A 
ATOM      8  C8  IND d   1       4.872   5.596   0.098  0.00  0.00    -0.047 A 
ATOM      9  C9  IND d   1       3.549   5.247   0.396  0.00  0.00    -0.096 A 
ATOM     10  HN1 IND d   1       6.433   5.672   1.355  0.00  0.00     0.298 HD
ENDROOT
TORSDOF 0
ENDMDL
