MODEL 1
REMARK minimizedAffinity 23.3022881
REMARK minimizedRMSD -1
REMARK  0 active torsions:
REMARK  status: ('A' for Active; 'I' for Inactive)
ROOT
ATOM      1  N1  IND d   1      -2.991   6.000   6.000  0.00  0.00    -0.196 N 
ATOM      2  C2  IND d   1      -1.873   5.225   5.858  0.00  0.00     0.054 A 
ATOM      3  C3  IND d   1      -2.092   4.246   4.952  0.00  0.00    -0.031 A 
ATOM      4  C4  IND d   1      -4.173   3.789   3.507  0.00  0.00     0.051 A 
ATOM      5  C5  IND d   1      -5.459   4.207   3.308  0.00  0.00    -0.031 A 
ATOM      6  C6  IND d   1      -5.998   5.266   4.009  0.00  0.00     0.015 A 
ATOM      7  C7  IND d   1      -5.264   5.958   4.931  0.00  0.00    -0.016 A 
ATOM      8  C8  IND d   1      -3.960   5.533   5.140  0.00  0.00    -0.047 A 
ATOM      9  C9  IND d   1      -3.421   4.431   4.462  0.00  0.00    -0.096 A 
ATOM     10  HN1 IND d   1      -3.074   6.667   6.536  0.00  0.00     0.298 HD
ENDROOT
TORSDOF 0
ENDMDL
