MODEL 1
REMARK minimizedAffinity 14.2620468
REMARK minimizedRMSD -1
REMARK  0 active torsions:
REMARK  status: ('A' for Active; 'I' for Inactive)
ROOT
ATOM      1  N1  IND d   1       0.335   1.170  -1.875  0.00  0.00    -0.196 N 
ATOM      2  C2  IND d   1       0.754  -0.093  -1.561  0.00  0.00     0.054 A 
ATOM      3  C3  IND d   1       1.875  -0.402  -2.250  0.00  0.00    -0.031 A 
ATOM      4  C4  IND d   1       3.251   1.049  -3.870  0.00  0.00     0.051 A 
ATOM      5  C5  IND d   1       3.245   2.262  -4.500  0.00  0.00    -0.031 A 
ATOM      6  C6  IND d   1       2.250   3.193  -4.280  0.00  0.00     0.015 A 
ATOM      7  C7  IND d   1       1.226   2.949  -3.410  0.00  0.00    -0.016 A 
ATOM      8  C8  IND d   1       1.225   1.715  -2.774  0.00  0.00    -0.047 A 
ATOM      9  C9  IND d   1       2.209   0.750  -3.025  0.00  0.00    -0.096 A 
ATOM     10  HN1 IND d   1      -0.366   1.558  -1.563  0.00  0.00     0.298 HD
ENDROOT
TORSDOF 0
ENDMDL
