MODEL 1
REMARK minimizedAffinity 9.86070633
REMARK minimizedRMSD -1
REMARK  0 active torsions:
REMARK  status: ('A' for Active; 'I' for Inactive)
ROOT
ATOM      1  N1  IND d   1       0.237   1.359  -3.365  0.00  0.00    -0.196 N 
ATOM      2  C2  IND d   1       0.688   2.643  -3.235  0.00  0.00     0.054 A 
ATOM      3  C3  IND d   1       1.779   2.680  -2.437  0.00  0.00    -0.031 A 
ATOM      4  C4  IND d   1       3.055   0.742  -1.321  0.00  0.00     0.051 A 
ATOM      5  C5  IND d   1       3.001  -0.609  -1.120  0.00  0.00    -0.031 A 
ATOM      6  C6  IND d   1       2.005  -1.389  -1.671  0.00  0.00     0.015 A 
ATOM      7  C7  IND d   1       1.028  -0.846  -2.456  0.00  0.00    -0.016 A 
ATOM      8  C8  IND d   1       1.075   0.526  -2.656  0.00  0.00    -0.047 A 
ATOM      9  C9  IND d   1       2.059   1.329  -2.065  0.00  0.00    -0.096 A 
ATOM     10  HN1 IND d   1      -0.453   1.113  -3.815  0.00  0.00     0.298 HD
ENDROOT
TORSDOF 0
ENDMDL
