MODEL 1
REMARK minimizedAffinity 0.389421493
REMARK minimizedRMSD -1
REMARK  0 active torsions:
REMARK  status: ('A' for Active; 'I' for Inactive)
ROOT
ATOM      1  N1  IND d   1       4.110  -4.657   4.765  0.00  0.00    -0.196 N 
ATOM      2  C2  IND d   1       5.095  -5.252   5.501  0.00  0.00     0.054 A 
ATOM      3  C3  IND d   1       5.998  -4.332   5.910  0.00  0.00    -0.031 A 
ATOM      4  C4  IND d   1       5.999  -1.780   5.572  0.00  0.00     0.051 A 
ATOM      5  C5  IND d   1       5.324  -0.777   4.933  0.00  0.00    -0.031 A 
ATOM      6  C6  IND d   1       4.185  -1.022   4.193  0.00  0.00     0.015 A 
ATOM      7  C7  IND d   1       3.670  -2.281   4.073  0.00  0.00    -0.016 A 
ATOM      8  C8  IND d   1       4.357  -3.303   4.714  0.00  0.00    -0.047 A 
ATOM      9  C9  IND d   1       5.537  -3.067   5.431  0.00  0.00    -0.096 A 
ATOM     10  HN1 IND d   1       3.447  -5.060   4.395  0.00  0.00     0.298 HD
ENDROOT
TORSDOF 0
ENDMDL
