MODEL 1
REMARK minimizedAffinity 8.76132298
REMARK minimizedRMSD -1
REMARK  0 active torsions:
REMARK  status: ('A' for Active; 'I' for Inactive)
ROOT
ATOM      1  N1  IND d   1       5.995  -4.868   5.986  0.00  0.00    -0.196 N 
ATOM      2  C2  IND d   1       5.150  -5.802   5.455  0.00  0.00     0.054 A 
ATOM      3  C3  IND d   1       4.116  -5.197   4.828  0.00  0.00    -0.031 A 
ATOM      4  C4  IND d   1       3.666  -2.689   4.461  0.00  0.00     0.051 A 
ATOM      5  C5  IND d   1       4.139  -1.451   4.793  0.00  0.00    -0.031 A 
ATOM      6  C6  IND d   1       5.279  -1.284   5.552  0.00  0.00     0.015 A 
ATOM      7  C7  IND d   1       5.999  -2.356   6.000  0.00  0.00    -0.016 A 
ATOM      8  C8  IND d   1       5.518  -3.615   5.672  0.00  0.00    -0.047 A 
ATOM      9  C9  IND d   1       4.338  -3.790   4.938  0.00  0.00    -0.096 A 
ATOM     10  HN1 IND d   1       6.706  -5.036   6.440  0.00  0.00     0.298 HD
ENDROOT
TORSDOF 0
ENDMDL
