MODEL 1
REMARK minimizedAffinity 20.2479935
REMARK minimizedRMSD -1
REMARK  0 active torsions:
REMARK  status: ('A' for Active; 'I' for Inactive)
ROOT
ATOM      1  N1  IND d   1       4.461  -3.489   5.110  0.00  0.00    -0.196 N 
ATOM      2  C2  IND d   1       5.485  -3.315   6.000  0.00  0.00     0.054 A 
ATOM      3  C3  IND d   1       5.999  -2.070   5.888  0.00  0.00    -0.031 A 
ATOM      4  C4  IND d   1       5.249  -0.120   4.384  0.00  0.00     0.051 A 
ATOM      5  C5  IND d   1       4.380   0.191   3.376  0.00  0.00    -0.031 A 
ATOM      6  C6  IND d   1       3.474  -0.727   2.886  0.00  0.00     0.015 A 
ATOM      7  C7  IND d   1       3.394  -1.992   3.397  0.00  0.00    -0.016 A 
ATOM      8  C8  IND d   1       4.280  -2.313   4.416  0.00  0.00    -0.047 A 
ATOM      9  C9  IND d   1       5.231  -1.399   4.887  0.00  0.00    -0.096 A 
ATOM     10  HN1 IND d   1       4.007  -4.211   5.003  0.00  0.00     0.298 HD
ENDROOT
TORSDOF 0
ENDMDL
