MODEL 1
REMARK minimizedAffinity 8.18448639
REMARK minimizedRMSD -1
REMARK  0 active torsions:
REMARK  status: ('A' for Active; 'I' for Inactive)
ROOT
ATOM      1  N1  IND d   1      -4.040   5.999   6.000  0.00  0.00    -0.196 N 
ATOM      2  C2  IND d   1      -2.673   5.999   5.986  0.00  0.00     0.054 A 
ATOM      3  C3  IND d   1      -2.215   5.652   4.762  0.00  0.00    -0.031 A 
ATOM      4  C4  IND d   1      -3.530   5.141   2.608  0.00  0.00     0.051 A 
ATOM      5  C5  IND d   1      -4.802   4.980   2.135  0.00  0.00    -0.031 A 
ATOM      6  C6  IND d   1      -5.908   5.156   2.942  0.00  0.00     0.015 A 
ATOM      7  C7  IND d   1      -5.782   5.513   4.255  0.00  0.00    -0.016 A 
ATOM      8  C8  IND d   1      -4.492   5.671   4.740  0.00  0.00    -0.047 A 
ATOM      9  C9  IND d   1      -3.365   5.452   3.937  0.00  0.00    -0.096 A 
ATOM     10  HN1 IND d   1      -4.535   6.175   6.681  0.00  0.00     0.298 HD
ENDROOT
TORSDOF 0
ENDMDL
