MODEL 1
REMARK minimizedAffinity 2.98214483
REMARK minimizedRMSD -1
REMARK  0 active torsions:
REMARK  status: ('A' for Active; 'I' for Inactive)
ROOT
ATOM      1  N1  IND d   1      -3.954   5.812   1.882  0.00  0.00    -0.196 N 
ATOM      2  C2  IND d   1      -2.599   5.875   1.714  0.00  0.00     0.054 A 
ATOM      3  C3  IND d   1      -1.981   5.991   2.911  0.00  0.00    -0.031 A 
ATOM      4  C4  IND d   1      -2.991   5.995   5.279  0.00  0.00     0.051 A 
ATOM      5  C5  IND d   1      -4.187   5.997   5.940  0.00  0.00    -0.031 A 
ATOM      6  C6  IND d   1      -5.391   5.934   5.268  0.00  0.00     0.015 A 
ATOM      7  C7  IND d   1      -5.443   5.854   3.906  0.00  0.00    -0.016 A 
ATOM      8  C8  IND d   1      -4.231   5.859   3.231  0.00  0.00    -0.047 A 
ATOM      9  C9  IND d   1      -3.007   5.966   3.904  0.00  0.00    -0.096 A 
ATOM     10  HN1 IND d   1      -4.536   5.754   1.252  0.00  0.00     0.298 HD
ENDROOT
TORSDOF 0
ENDMDL
