MODEL 1
REMARK minimizedAffinity 2.4720099
REMARK minimizedRMSD -1
REMARK  0 active torsions:
REMARK  status: ('A' for Active; 'I' for Inactive)
ROOT
ATOM      1  N1  IND d   1      -2.338  -0.519   0.922  0.00  0.00    -0.196 N 
ATOM      2  C2  IND d   1      -1.533  -0.065  -0.085  0.00  0.00     0.054 A 
ATOM      3  C3  IND d   1      -2.280   0.362  -1.128  0.00  0.00    -0.031 A 
ATOM      4  C4  IND d   1      -4.840   0.502  -1.358  0.00  0.00     0.051 A 
ATOM      5  C5  IND d   1      -5.999   0.170  -0.714  0.00  0.00    -0.031 A 
ATOM      6  C6  IND d   1      -5.997  -0.418   0.535  0.00  0.00     0.015 A 
ATOM      7  C7  IND d   1      -4.831  -0.687   1.194  0.00  0.00    -0.016 A 
ATOM      8  C8  IND d   1      -3.652  -0.358   0.540  0.00  0.00    -0.047 A 
ATOM      9  C9  IND d   1      -3.647   0.200  -0.745  0.00  0.00    -0.096 A 
ATOM     10  HN1 IND d   1      -2.069  -0.850   1.669  0.00  0.00     0.298 HD
ENDROOT
TORSDOF 0
ENDMDL
