MODEL 1
REMARK minimizedAffinity -3.62331653
REMARK minimizedRMSD -1
REMARK  3 active torsions:
REMARK  status: ('A' for Active; 'I' for Inactive)
REMARK    1  A    between atoms: C3'_2  and  C2'_3 
REMARK    2  A    between atoms: C2'_3  and  C1'_4 
REMARK    3  A    between atoms: C1'_4  and  C1_5 
ROOT
ATOM      1  C1  N4B d   1      -0.237   0.352   0.159  0.00  0.00    -0.075 A 
ATOM      2  C2  N4B d   1      -1.210  -0.075   1.089  0.00  0.00     0.002 A 
ATOM      3  C3  N4B d   1      -0.822  -0.654   2.272  0.00  0.00     0.002 A 
ATOM      4  C4  N4B d   1       0.527  -0.832   2.538  0.00  0.00    -0.004 A 
ATOM      5  C5  N4B d   1       1.462  -0.394   1.646  0.00  0.00     0.002 A 
ATOM      6  C6  N4B d   1       1.086   0.193   0.454  0.00  0.00     0.002 A 
ENDROOT
BRANCH   1   7
ATOM      7  C1' N4B d   1      -0.615   0.911  -1.185  0.00  0.00     0.057 C 
BRANCH   7   8
ATOM      8  C2' N4B d   1      -0.050   2.322  -1.317  0.00  0.00     0.009 C 
BRANCH   8   9
ATOM      9  C3' N4B d   1      -0.553   3.022  -2.568  0.00  0.00     0.004 C 
ATOM     10  C4' N4B d   1       0.247   2.677  -3.788  0.00  0.00     0.003 C 
ENDBRANCH   8   9
ENDBRANCH   7   8
ENDBRANCH   1   7
TORSDOF 3
ENDMDL
