MODEL 1
REMARK minimizedAffinity -3.06740856
REMARK minimizedRMSD -1
REMARK  3 active torsions:
REMARK  status: ('A' for Active; 'I' for Inactive)
REMARK    1  A    between atoms: C3'_2  and  C2'_3 
REMARK    2  A    between atoms: C2'_3  and  C1'_4 
REMARK    3  A    between atoms: C1'_4  and  C1_5 
ROOT
ATOM      1  C1  N4B d   1       0.411   0.866   0.700  0.00  0.00    -0.075 A 
ATOM      2  C2  N4B d   1       1.568   0.690   1.492  0.00  0.00     0.002 A 
ATOM      3  C3  N4B d   1       1.612  -0.312   2.429  0.00  0.00     0.002 A 
ATOM      4  C4  N4B d   1       0.510  -1.136   2.605  0.00  0.00    -0.004 A 
ATOM      5  C5  N4B d   1      -0.593  -0.975   1.819  0.00  0.00     0.002 A 
ATOM      6  C6  N4B d   1      -0.650   0.026   0.870  0.00  0.00     0.002 A 
ENDROOT
BRANCH   1   7
ATOM      7  C1' N4B d   1       0.284   2.002  -0.278  0.00  0.00     0.057 C 
BRANCH   7   8
ATOM      8  C2' N4B d   1      -0.283   1.471  -1.591  0.00  0.00     0.009 C 
BRANCH   8   9
ATOM      9  C3' N4B d   1      -0.597   2.591  -2.568  0.00  0.00     0.004 C 
ATOM     10  C4' N4B d   1       0.083   3.880  -2.213  0.00  0.00     0.003 C 
ENDBRANCH   8   9
ENDBRANCH   7   8
ENDBRANCH   1   7
TORSDOF 3
ENDMDL
