MODEL 1
REMARK minimizedAffinity -2.4744494
REMARK minimizedRMSD -1
REMARK  3 active torsions:
REMARK  status: ('A' for Active; 'I' for Inactive)
REMARK    1  A    between atoms: C3'_2  and  C2'_3 
REMARK    2  A    between atoms: C2'_3  and  C1'_4 
REMARK    3  A    between atoms: C1'_4  and  C1_5 
ROOT
ATOM      1  C1  N4B d   1      -0.285  -0.228   0.288  0.00  0.00    -0.075 A 
ATOM      2  C2  N4B d   1       0.478  -0.270   1.476  0.00  0.00     0.002 A 
ATOM      3  C3  N4B d   1       1.791  -0.670   1.435  0.00  0.00     0.002 A 
ATOM      4  C4  N4B d   1       2.355  -1.049   0.226  0.00  0.00    -0.004 A 
ATOM      5  C5  N4B d   1       1.619  -0.981  -0.920  0.00  0.00     0.002 A 
ATOM      6  C6  N4B d   1       0.299  -0.578  -0.895  0.00  0.00     0.002 A 
ENDROOT
BRANCH   1   7
ATOM      7  C1' N4B d   1      -1.748   0.120   0.296  0.00  0.00     0.057 C 
BRANCH   7   8
ATOM      8  C2' N4B d   1      -1.951   1.447  -0.429  0.00  0.00     0.009 C 
BRANCH   8   9
ATOM      9  C3' N4B d   1      -2.720   1.273  -1.728  0.00  0.00     0.004 C 
ATOM     10  C4' N4B d   1      -3.097   2.581  -2.358  0.00  0.00     0.003 C 
ENDBRANCH   8   9
ENDBRANCH   7   8
ENDBRANCH   1   7
TORSDOF 3
ENDMDL
