MODEL 1
REMARK minimizedAffinity -3.08956432
REMARK minimizedRMSD -1
REMARK  3 active torsions:
REMARK  status: ('A' for Active; 'I' for Inactive)
REMARK    1  A    between atoms: C3'_2  and  C2'_3 
REMARK    2  A    between atoms: C2'_3  and  C1'_4 
REMARK    3  A    between atoms: C1'_4  and  C1_5 
ROOT
ATOM      1  C1  N4B d   1      -0.384   1.663  -0.625  0.00  0.00    -0.075 A 
ATOM      2  C2  N4B d   1      -0.177   0.473  -1.356  0.00  0.00     0.002 A 
ATOM      3  C3  N4B d   1      -0.031  -0.723  -0.695  0.00  0.00     0.002 A 
ATOM      4  C4  N4B d   1      -0.070  -0.749   0.691  0.00  0.00    -0.004 A 
ATOM      5  C5  N4B d   1      -0.296   0.401   1.388  0.00  0.00     0.002 A 
ATOM      6  C6  N4B d   1      -0.448   1.609   0.737  0.00  0.00     0.002 A 
ENDROOT
BRANCH   1   7
ATOM      7  C1' N4B d   1      -0.463   3.005  -1.299  0.00  0.00     0.057 C 
BRANCH   7   8
ATOM      8  C2' N4B d   1      -1.140   2.845  -2.657  0.00  0.00     0.009 C 
BRANCH   8   9
ATOM      9  C3' N4B d   1      -0.221   3.241  -3.800  0.00  0.00     0.004 C 
ATOM     10  C4' N4B d   1       0.611   4.448  -3.485  0.00  0.00     0.003 C 
ENDBRANCH   8   9
ENDBRANCH   7   8
ENDBRANCH   1   7
TORSDOF 3
ENDMDL
