MODEL 1
REMARK minimizedAffinity 4.07139778
REMARK minimizedRMSD -1
REMARK  3 active torsions:
REMARK  status: ('A' for Active; 'I' for Inactive)
REMARK    1  A    between atoms: C3'_2  and  C2'_3 
REMARK    2  A    between atoms: C2'_3  and  C1'_4 
REMARK    3  A    between atoms: C1'_4  and  C1_5 
ROOT
ATOM      1  C1  N4B d   1       0.285  -0.305  -0.205  0.00  0.00    -0.075 A 
ATOM      2  C2  N4B d   1       0.941  -0.499   1.030  0.00  0.00     0.002 A 
ATOM      3  C3  N4B d   1       2.258  -0.887   1.055  0.00  0.00     0.002 A 
ATOM      4  C4  N4B d   1       2.931  -1.105  -0.138  0.00  0.00    -0.004 A 
ATOM      5  C5  N4B d   1       2.298  -0.891  -1.327  0.00  0.00     0.002 A 
ATOM      6  C6  N4B d   1       0.976  -0.497  -1.367  0.00  0.00     0.002 A 
ENDROOT
BRANCH   1   7
ATOM      7  C1' N4B d   1      -1.178   0.035  -0.283  0.00  0.00     0.057 C 
BRANCH   7   8
ATOM      8  C2' N4B d   1      -2.000  -1.216   0.010  0.00  0.00     0.009 C 
BRANCH   8   9
ATOM      9  C3' N4B d   1      -2.799  -1.083   1.295  0.00  0.00     0.004 C 
ATOM     10  C4' N4B d   1      -2.762  -2.325   2.134  0.00  0.00     0.003 C 
ENDBRANCH   8   9
ENDBRANCH   7   8
ENDBRANCH   1   7
TORSDOF 3
ENDMDL
