MODEL 1
REMARK minimizedAffinity 7.53414154
REMARK minimizedRMSD -1
REMARK  0 active torsions:
REMARK  status: ('A' for Active; 'I' for Inactive)
ROOT
ATOM      1  O1  BZF d   1       2.169   2.240  -3.249  0.00  0.00    -0.204 OA
ATOM      2  C2  BZF d   1       0.835   2.391  -3.573  0.00  0.00     0.174 A 
ATOM      3  C3  BZF d   1       0.048   2.028  -2.539  0.00  0.00    -0.012 A 
ATOM      4  C3A BZF d   1       0.949   1.712  -1.473  0.00  0.00    -0.107 A 
ATOM      5  C4  BZF d   1       0.770   1.301  -0.183  0.00  0.00     0.055 A 
ATOM      6  C5  BZF d   1       1.859   1.008   0.574  0.00  0.00    -0.016 A 
ATOM      7  C6  BZF d   1       3.140   1.110   0.073  0.00  0.00     0.022 A 
ATOM      8  C7  BZF d   1       3.368   1.518  -1.200  0.00  0.00     0.029 A 
ATOM      9  C7A BZF d   1       2.271   1.846  -1.957  0.00  0.00     0.058 A 
ENDROOT
TORSDOF 0
ENDMDL
