MODEL 1
REMARK minimizedAffinity 17.6370125
REMARK minimizedRMSD -1
REMARK  0 active torsions:
REMARK  status: ('A' for Active; 'I' for Inactive)
ROOT
ATOM      1  O1  BZF d   1      -0.842   0.675   4.634  0.00  0.00    -0.204 OA
ATOM      2  C2  BZF d   1      -1.981   1.452   4.729  0.00  0.00     0.174 A 
ATOM      3  C3  BZF d   1      -2.792   1.243   3.672  0.00  0.00    -0.012 A 
ATOM      4  C3A BZF d   1      -2.161   0.207   2.913  0.00  0.00    -0.107 A 
ATOM      5  C4  BZF d   1      -2.492  -0.446   1.760  0.00  0.00     0.055 A 
ATOM      6  C5  BZF d   1      -1.624  -1.355   1.244  0.00  0.00    -0.016 A 
ATOM      7  C6  BZF d   1      -0.416  -1.632   1.850  0.00  0.00     0.022 A 
ATOM      8  C7  BZF d   1      -0.047  -1.013   2.998  0.00  0.00     0.029 A 
ATOM      9  C7A BZF d   1      -0.936  -0.117   3.540  0.00  0.00     0.058 A 
ENDROOT
TORSDOF 0
ENDMDL
