MODEL 1
REMARK minimizedAffinity 8.94256592
REMARK minimizedRMSD -1
REMARK  0 active torsions:
REMARK  status: ('A' for Active; 'I' for Inactive)
ROOT
ATOM      1  O1  BZF d   1      -2.118   5.271  -3.794  0.00  0.00    -0.204 OA
ATOM      2  C2  BZF d   1      -1.375   5.537  -4.927  0.00  0.00     0.174 A 
ATOM      3  C3  BZF d   1      -2.180   5.802  -5.976  0.00  0.00    -0.012 A 
ATOM      4  C3A BZF d   1      -3.509   5.785  -5.444  0.00  0.00    -0.107 A 
ATOM      5  C4  BZF d   1      -4.742   5.994  -5.992  0.00  0.00     0.055 A 
ATOM      6  C5  BZF d   1      -5.845   5.831  -5.216  0.00  0.00    -0.016 A 
ATOM      7  C6  BZF d   1      -5.753   5.457  -3.892  0.00  0.00     0.022 A 
ATOM      8  C7  BZF d   1      -4.551   5.243  -3.303  0.00  0.00     0.029 A 
ATOM      9  C7A BZF d   1      -3.433   5.439  -4.076  0.00  0.00     0.058 A 
ENDROOT
TORSDOF 0
ENDMDL
