MODEL 1
REMARK minimizedAffinity 11.3590679
REMARK minimizedRMSD -1
REMARK  0 active torsions:
REMARK  status: ('A' for Active; 'I' for Inactive)
ROOT
ATOM      1  O1  BZF d   1      -1.880   0.369   4.865  0.00  0.00    -0.204 OA
ATOM      2  C2  BZF d   1      -2.582   1.556   4.780  0.00  0.00     0.174 A 
ATOM      3  C3  BZF d   1      -2.736   1.930   3.494  0.00  0.00    -0.012 A 
ATOM      4  C3A BZF d   1      -2.170   0.866   2.723  0.00  0.00    -0.107 A 
ATOM      5  C4  BZF d   1      -2.036   0.647   1.381  0.00  0.00     0.055 A 
ATOM      6  C5  BZF d   1      -1.369  -0.459   0.956  0.00  0.00    -0.016 A 
ATOM      7  C6  BZF d   1      -0.820  -1.362   1.843  0.00  0.00     0.022 A 
ATOM      8  C7  BZF d   1      -0.932  -1.190   3.183  0.00  0.00     0.029 A 
ATOM      9  C7A BZF d   1      -1.634  -0.091   3.615  0.00  0.00     0.058 A 
ENDROOT
TORSDOF 0
ENDMDL
