MODEL 1
REMARK minimizedAffinity 8.46955109
REMARK minimizedRMSD -1
REMARK  0 active torsions:
REMARK  status: ('A' for Active; 'I' for Inactive)
ROOT
ATOM      1  O1  BZF d   1      -2.438   5.687  -5.996  0.00  0.00    -0.204 OA
ATOM      2  C2  BZF d   1      -1.488   5.587  -4.998  0.00  0.00     0.174 A 
ATOM      3  C3  BZF d   1      -2.067   5.621  -3.781  0.00  0.00    -0.012 A 
ATOM      4  C3A BZF d   1      -3.475   5.658  -4.035  0.00  0.00    -0.107 A 
ATOM      5  C4  BZF d   1      -4.574   5.687  -3.225  0.00  0.00     0.055 A 
ATOM      6  C5  BZF d   1      -5.807   5.794  -3.788  0.00  0.00    -0.016 A 
ATOM      7  C6  BZF d   1      -5.975   5.880  -5.155  0.00  0.00     0.022 A 
ATOM      8  C7  BZF d   1      -4.915   5.851  -5.998  0.00  0.00     0.029 A 
ATOM      9  C7A BZF d   1      -3.671   5.709  -5.434  0.00  0.00     0.058 A 
ENDROOT
TORSDOF 0
ENDMDL
