MODEL 1
REMARK minimizedAffinity 14.5229683
REMARK minimizedRMSD -1
REMARK  0 active torsions:
REMARK  status: ('A' for Active; 'I' for Inactive)
ROOT
ATOM      1  O1  BZF d   1       3.180   1.463   2.125  0.00  0.00    -0.204 OA
ATOM      2  C2  BZF d   1       2.544   0.937   1.017  0.00  0.00     0.174 A 
ATOM      3  C3  BZF d   1       3.080   1.426  -0.120  0.00  0.00    -0.012 A 
ATOM      4  C3A BZF d   1       4.177   2.242   0.302  0.00  0.00    -0.107 A 
ATOM      5  C4  BZF d   1       5.107   2.985  -0.368  0.00  0.00     0.055 A 
ATOM      6  C5  BZF d   1       5.998   3.724   0.343  0.00  0.00    -0.016 A 
ATOM      7  C6  BZF d   1       5.985   3.748   1.722  0.00  0.00     0.022 A 
ATOM      8  C7  BZF d   1       5.085   3.024   2.431  0.00  0.00     0.029 A 
ATOM      9  C7A BZF d   1       4.204   2.250   1.716  0.00  0.00     0.058 A 
ENDROOT
TORSDOF 0
ENDMDL
