MODEL 1
REMARK minimizedAffinity 17.9705029
REMARK minimizedRMSD -1
REMARK  0 active torsions:
REMARK  status: ('A' for Active; 'I' for Inactive)
ROOT
ATOM      1  O1  BZF d   1      -4.348   1.119   1.649  0.00  0.00    -0.204 OA
ATOM      2  C2  BZF d   1      -5.026   0.520   0.605  0.00  0.00     0.174 A 
ATOM      3  C3  BZF d   1      -4.314  -0.508   0.100  0.00  0.00    -0.012 A 
ATOM      4  C3A BZF d   1      -3.159  -0.613   0.937  0.00  0.00    -0.107 A 
ATOM      5  C4  BZF d   1      -2.084  -1.455   0.952  0.00  0.00     0.055 A 
ATOM      6  C5  BZF d   1      -1.092  -1.243   1.857  0.00  0.00    -0.016 A 
ATOM      7  C6  BZF d   1      -1.140  -0.198   2.756  0.00  0.00     0.022 A 
ATOM      8  C7  BZF d   1      -2.188   0.660   2.783  0.00  0.00     0.029 A 
ATOM      9  C7A BZF d   1      -3.208   0.429   1.892  0.00  0.00     0.058 A 
ENDROOT
TORSDOF 0
ENDMDL
