MODEL 1
REMARK minimizedAffinity 15.0036545
REMARK minimizedRMSD -1
REMARK  0 active torsions:
REMARK  status: ('A' for Active; 'I' for Inactive)
ROOT
ATOM      1  O1  BZF d   1       3.536   1.955  -0.695  0.00  0.00    -0.204 OA
ATOM      2  C2  BZF d   1       2.619   1.574   0.266  0.00  0.00     0.174 A 
ATOM      3  C3  BZF d   1       1.359   1.791  -0.162  0.00  0.00    -0.012 A 
ATOM      4  C3A BZF d   1       1.494   2.255  -1.509  0.00  0.00    -0.107 A 
ATOM      5  C4  BZF d   1       0.595   2.623  -2.470  0.00  0.00     0.055 A 
ATOM      6  C5  BZF d   1       1.056   3.099  -3.656  0.00  0.00    -0.016 A 
ATOM      7  C6  BZF d   1       2.405   3.225  -3.914  0.00  0.00     0.022 A 
ATOM      8  C7  BZF d   1       3.334   2.868  -2.994  0.00  0.00     0.029 A 
ATOM      9  C7A BZF d   1       2.872   2.356  -1.806  0.00  0.00     0.058 A 
ENDROOT
TORSDOF 0
ENDMDL
