MODEL 1
REMARK minimizedAffinity 16.5742016
REMARK minimizedRMSD -1
REMARK  0 active torsions:
REMARK  status: ('A' for Active; 'I' for Inactive)
ROOT
ATOM      1  O1  BZF d   1      -3.758  -3.017   1.978  0.00  0.00    -0.204 OA
ATOM      2  C2  BZF d   1      -4.914  -2.665   2.647  0.00  0.00     0.174 A 
ATOM      3  C3  BZF d   1      -4.713  -1.567   3.404  0.00  0.00    -0.012 A 
ATOM      4  C3A BZF d   1      -3.372  -1.156   3.123  0.00  0.00    -0.107 A 
ATOM      5  C4  BZF d   1      -2.597  -0.119   3.558  0.00  0.00     0.055 A 
ATOM      6  C5  BZF d   1      -1.304  -0.043   3.146  0.00  0.00    -0.016 A 
ATOM      7  C6  BZF d   1      -0.752  -0.988   2.306  0.00  0.00     0.022 A 
ATOM      8  C7  BZF d   1      -1.483  -2.032   1.845  0.00  0.00     0.029 A 
ATOM      9  C7A BZF d   1      -2.799  -2.094   2.232  0.00  0.00     0.058 A 
ENDROOT
TORSDOF 0
ENDMDL
