MODEL 1
REMARK minimizedAffinity 8.54048157
REMARK minimizedRMSD -1
REMARK  0 active torsions:
REMARK  status: ('A' for Active; 'I' for Inactive)
ROOT
ATOM      1  O1  BZF d   1      -0.273   5.156  -4.782  0.00  0.00    -0.204 OA
ATOM      2  C2  BZF d   1      -1.329   5.254  -5.668  0.00  0.00     0.174 A 
ATOM      3  C3  BZF d   1      -2.508   5.174  -5.018  0.00  0.00    -0.012 A 
ATOM      4  C3A BZF d   1      -2.169   5.110  -3.630  0.00  0.00    -0.107 A 
ATOM      5  C4  BZF d   1      -2.910   5.033  -2.485  0.00  0.00     0.055 A 
ATOM      6  C5  BZF d   1      -2.271   4.911  -1.292  0.00  0.00    -0.016 A 
ATOM      7  C6  BZF d   1      -0.895   4.857  -1.207  0.00  0.00     0.022 A 
ATOM      8  C7  BZF d   1      -0.118   4.934  -2.315  0.00  0.00     0.029 A 
ATOM      9  C7A BZF d   1      -0.759   5.091  -3.519  0.00  0.00     0.058 A 
ENDROOT
TORSDOF 0
ENDMDL
