MODEL 1
REMARK minimizedAffinity 22.0753288
REMARK minimizedRMSD -1
REMARK  0 active torsions:
REMARK  status: ('A' for Active; 'I' for Inactive)
ROOT
ATOM      1  O1  BZF d   1       4.097   2.951  -3.416  0.00  0.00    -0.204 OA
ATOM      2  C2  BZF d   1       4.443   3.222  -4.726  0.00  0.00     0.174 A 
ATOM      3  C3  BZF d   1       5.163   4.360  -4.805  0.00  0.00    -0.012 A 
ATOM      4  C3A BZF d   1       5.351   4.781  -3.450  0.00  0.00    -0.107 A 
ATOM      5  C4  BZF d   1       6.000   5.837  -2.877  0.00  0.00     0.055 A 
ATOM      6  C5  BZF d   1       5.933   6.000  -1.529  0.00  0.00    -0.016 A 
ATOM      7  C6  BZF d   1       5.223   5.131  -0.727  0.00  0.00     0.022 A 
ATOM      8  C7  BZF d   1       4.568   4.066  -1.250  0.00  0.00     0.029 A 
ATOM      9  C7A BZF d   1       4.661   3.879  -2.607  0.00  0.00     0.058 A 
ENDROOT
TORSDOF 0
ENDMDL
