MODEL 1
REMARK minimizedAffinity 17.6867123
REMARK minimizedRMSD -1
REMARK  0 active torsions:
REMARK  status: ('A' for Active; 'I' for Inactive)
ROOT
ATOM      1  O1  BZF d   1       1.116  -3.735   1.205  0.00  0.00    -0.204 OA
ATOM      2  C2  BZF d   1       1.057  -2.602   1.995  0.00  0.00     0.174 A 
ATOM      3  C3  BZF d   1       2.158  -1.842   1.822  0.00  0.00    -0.012 A 
ATOM      4  C3A BZF d   1       2.911  -2.496   0.796  0.00  0.00    -0.107 A 
ATOM      5  C4  BZF d   1       4.094  -2.214   0.175  0.00  0.00     0.055 A 
ATOM      6  C5  BZF d   1       4.589  -3.096  -0.733  0.00  0.00    -0.016 A 
ATOM      7  C6  BZF d   1       3.931  -4.269  -1.040  0.00  0.00     0.022 A 
ATOM      8  C7  BZF d   1       2.752  -4.589  -0.454  0.00  0.00     0.029 A 
ATOM      9  C7A BZF d   1       2.233  -3.685   0.440  0.00  0.00     0.058 A 
ENDROOT
TORSDOF 0
ENDMDL
