MODEL 1
REMARK minimizedAffinity 16.6457863
REMARK minimizedRMSD -1
REMARK  0 active torsions:
REMARK  status: ('A' for Active; 'I' for Inactive)
ROOT
ATOM      1  O1  BZF d   1       2.617   3.969  -4.785  0.00  0.00    -0.204 OA
ATOM      2  C2  BZF d   1       3.964   3.860  -5.068  0.00  0.00     0.174 A 
ATOM      3  C3  BZF d   1       4.590   3.115  -4.134  0.00  0.00    -0.012 A 
ATOM      4  C3A BZF d   1       3.554   2.658  -3.260  0.00  0.00    -0.107 A 
ATOM      5  C4  BZF d   1       3.545   1.865  -2.149  0.00  0.00     0.055 A 
ATOM      6  C5  BZF d   1       2.375   1.672  -1.485  0.00  0.00    -0.016 A 
ATOM      7  C6  BZF d   1       1.198   2.260  -1.901  0.00  0.00     0.022 A 
ATOM      8  C7  BZF d   1       1.157   3.050  -3.001  0.00  0.00     0.029 A 
ATOM      9  C7A BZF d   1       2.331   3.221  -3.693  0.00  0.00     0.058 A 
ENDROOT
TORSDOF 0
ENDMDL
