MODEL 1
REMARK minimizedAffinity 12.536315
REMARK minimizedRMSD -1
REMARK  0 active torsions:
REMARK  status: ('A' for Active; 'I' for Inactive)
ROOT
ATOM      1  O1  BZF d   1       3.986   5.130  -1.339  0.00  0.00    -0.204 OA
ATOM      2  C2  BZF d   1       5.026   5.945  -0.936  0.00  0.00     0.174 A 
ATOM      3  C3  BZF d   1       6.000   5.975  -1.868  0.00  0.00    -0.012 A 
ATOM      4  C3A BZF d   1       5.498   5.199  -2.961  0.00  0.00    -0.107 A 
ATOM      5  C4  BZF d   1       6.000   4.872  -4.188  0.00  0.00     0.055 A 
ATOM      6  C5  BZF d   1       5.289   4.036  -4.991  0.00  0.00    -0.016 A 
ATOM      7  C6  BZF d   1       4.078   3.507  -4.597  0.00  0.00     0.022 A 
ATOM      8  C7  BZF d   1       3.538   3.807  -3.390  0.00  0.00     0.029 A 
ATOM      9  C7A BZF d   1       4.238   4.677  -2.591  0.00  0.00     0.058 A 
ENDROOT
TORSDOF 0
ENDMDL
