MODEL 1
REMARK minimizedAffinity 11.1489925
REMARK minimizedRMSD -1
REMARK  0 active torsions:
REMARK  status: ('A' for Active; 'I' for Inactive)
ROOT
ATOM      1  O1  BZF d   1      -5.877   1.200  -5.309  0.00  0.00    -0.204 OA
ATOM      2  C2  BZF d   1      -5.991   0.010  -6.000  0.00  0.00     0.174 A 
ATOM      3  C3  BZF d   1      -6.000  -1.038  -5.150  0.00  0.00    -0.012 A 
ATOM      4  C3A BZF d   1      -5.976  -0.461  -3.841  0.00  0.00    -0.107 A 
ATOM      5  C4  BZF d   1      -5.986  -0.989  -2.582  0.00  0.00     0.055 A 
ATOM      6  C5  BZF d   1      -5.881  -0.154  -1.515  0.00  0.00    -0.016 A 
ATOM      7  C6  BZF d   1      -5.759   1.211  -1.670  0.00  0.00     0.022 A 
ATOM      8  C7  BZF d   1      -5.750   1.782  -2.899  0.00  0.00     0.029 A 
ATOM      9  C7A BZF d   1      -5.889   0.944  -3.979  0.00  0.00     0.058 A 
ENDROOT
TORSDOF 0
ENDMDL
