MODEL 1
REMARK minimizedAffinity 13.9709072
REMARK minimizedRMSD -1
REMARK  0 active torsions:
REMARK  status: ('A' for Active; 'I' for Inactive)
ROOT
ATOM      1  O1  BZF d   1      -1.168  -0.720   2.963  0.00  0.00    -0.204 OA
ATOM      2  C2  BZF d   1      -1.099  -1.779   2.079  0.00  0.00     0.174 A 
ATOM      3  C3  BZF d   1      -2.284  -1.965   1.462  0.00  0.00    -0.012 A 
ATOM      4  C3A BZF d   1      -3.121  -0.901   1.927  0.00  0.00    -0.107 A 
ATOM      5  C4  BZF d   1      -4.410  -0.537   1.663  0.00  0.00     0.055 A 
ATOM      6  C5  BZF d   1      -4.953   0.510   2.338  0.00  0.00    -0.016 A 
ATOM      7  C6  BZF d   1      -4.237   1.211   3.287  0.00  0.00     0.022 A 
ATOM      8  C7  BZF d   1      -2.953   0.890   3.579  0.00  0.00     0.029 A 
ATOM      9  C7A BZF d   1      -2.392  -0.146   2.874  0.00  0.00     0.058 A 
ENDROOT
TORSDOF 0
ENDMDL
