MODEL 1
REMARK minimizedAffinity -4.61746931
REMARK minimizedRMSD -1
REMARK  0 active torsions:
REMARK  status: ('A' for Active; 'I' for Inactive)
ROOT
ATOM      1  C1  BNZ d   1       0.854  -2.164   0.053  0.00  0.00     0.000 A 
ATOM      2  C2  BNZ d   1       0.809  -0.796   0.016  0.00  0.00     0.000 A 
ATOM      3  C3  BNZ d   1      -0.281  -0.119   0.487  0.00  0.00     0.000 A 
ATOM      4  C4  BNZ d   1      -1.339  -0.810   0.957  0.00  0.00     0.000 A 
ATOM      5  C5  BNZ d   1      -1.313  -2.190   0.992  0.00  0.00     0.000 A 
ATOM      6  C6  BNZ d   1      -0.199  -2.867   0.554  0.00  0.00     0.000 A 
ENDROOT
TORSDOF 0
ENDMDL
