MODEL 1
REMARK minimizedAffinity -2.2459569
REMARK minimizedRMSD -1
REMARK  0 active torsions:
REMARK  status: ('A' for Active; 'I' for Inactive)
ROOT
ATOM      1  C1  BNZ d   1      -1.150  -0.529   1.461  0.00  0.00     0.000 A 
ATOM      2  C2  BNZ d   1      -2.156  -1.433   1.676  0.00  0.00     0.000 A 
ATOM      3  C3  BNZ d   1      -2.051  -2.718   1.222  0.00  0.00     0.000 A 
ATOM      4  C4  BNZ d   1      -0.960  -3.086   0.520  0.00  0.00     0.000 A 
ATOM      5  C5  BNZ d   1       0.058  -2.184   0.287  0.00  0.00     0.000 A 
ATOM      6  C6  BNZ d   1      -0.033  -0.902   0.779  0.00  0.00     0.000 A 
ENDROOT
TORSDOF 0
ENDMDL
