MODEL 1
REMARK minimizedAffinity -1.70502913
REMARK minimizedRMSD -1
REMARK  0 active torsions:
REMARK  status: ('A' for Active; 'I' for Inactive)
ROOT
ATOM      1  C1  BNZ d   1      -0.285  -0.482  -0.485  0.00  0.00     0.000 A 
ATOM      2  C2  BNZ d   1      -1.167  -1.295   0.175  0.00  0.00     0.000 A 
ATOM      3  C3  BNZ d   1      -0.933  -1.679   1.466  0.00  0.00     0.000 A 
ATOM      4  C4  BNZ d   1       0.199  -1.282   2.081  0.00  0.00     0.000 A 
ATOM      5  C5  BNZ d   1       1.103  -0.469   1.425  0.00  0.00     0.000 A 
ATOM      6  C6  BNZ d   1       0.845  -0.053   0.139  0.00  0.00     0.000 A 
ENDROOT
TORSDOF 0
ENDMDL
