MODEL 1
REMARK minimizedAffinity -4.01074076
REMARK minimizedRMSD -1
REMARK  0 active torsions:
REMARK  status: ('A' for Active; 'I' for Inactive)
ROOT
ATOM      1  C1  BNZ d   1      -1.983  -0.699   1.926  0.00  0.00     0.000 A 
ATOM      2  C2  BNZ d   1      -2.753   0.299   1.391  0.00  0.00     0.000 A 
ATOM      3  C3  BNZ d   1      -2.305   1.038   0.333  0.00  0.00     0.000 A 
ATOM      4  C4  BNZ d   1      -1.072   0.806  -0.163  0.00  0.00     0.000 A 
ATOM      5  C5  BNZ d   1      -0.280  -0.190   0.371  0.00  0.00     0.000 A 
ATOM      6  C6  BNZ d   1      -0.750  -0.958   1.411  0.00  0.00     0.000 A 
ENDROOT
TORSDOF 0
ENDMDL
