MODEL 1
REMARK minimizedAffinity -3.98150396
REMARK minimizedRMSD -1
REMARK  0 active torsions:
REMARK  status: ('A' for Active; 'I' for Inactive)
ROOT
ATOM      1  C1  BNZ d   1      -1.375  -1.137   1.561  0.00  0.00     0.000 A 
ATOM      2  C2  BNZ d   1      -0.793  -0.088   0.900  0.00  0.00     0.000 A 
ATOM      3  C3  BNZ d   1       0.096  -0.306  -0.115  0.00  0.00     0.000 A 
ATOM      4  C4  BNZ d   1       0.432  -1.571  -0.441  0.00  0.00     0.000 A 
ATOM      5  C5  BNZ d   1      -0.139  -2.639   0.222  0.00  0.00     0.000 A 
ATOM      6  C6  BNZ d   1      -1.063  -2.416   1.217  0.00  0.00     0.000 A 
ENDROOT
TORSDOF 0
ENDMDL
