MODEL 1
REMARK minimizedAffinity -3.35806561
REMARK minimizedRMSD -1
REMARK  0 active torsions:
REMARK  status: ('A' for Active; 'I' for Inactive)
ROOT
ATOM      1  C1  BNZ d   1      -0.633  -2.880   1.044  0.00  0.00     0.000 A 
ATOM      2  C2  BNZ d   1       0.115  -1.977   0.339  0.00  0.00     0.000 A 
ATOM      3  C3  BNZ d   1      -0.227  -0.654   0.311  0.00  0.00     0.000 A 
ATOM      4  C4  BNZ d   1      -1.338  -0.243   0.956  0.00  0.00     0.000 A 
ATOM      5  C5  BNZ d   1      -2.109  -1.143   1.664  0.00  0.00     0.000 A 
ATOM      6  C6  BNZ d   1      -1.739  -2.467   1.721  0.00  0.00     0.000 A 
ENDROOT
TORSDOF 0
ENDMDL
