MODEL 1
REMARK minimizedAffinity -4.67048931
REMARK minimizedRMSD -1
REMARK  0 active torsions:
REMARK  status: ('A' for Active; 'I' for Inactive)
ROOT
ATOM      1  C1  BNZ d   1      -0.499  -0.406   0.623  0.00  0.00     0.000 A 
ATOM      2  C2  BNZ d   1      -0.989  -1.380   1.452  0.00  0.00     0.000 A 
ATOM      3  C3  BNZ d   1      -0.670  -2.694   1.251  0.00  0.00     0.000 A 
ATOM      4  C4  BNZ d   1       0.104  -3.036   0.201  0.00  0.00     0.000 A 
ATOM      5  C5  BNZ d   1       0.597  -2.066  -0.649  0.00  0.00     0.000 A 
ATOM      6  C6  BNZ d   1       0.306  -0.741  -0.421  0.00  0.00     0.000 A 
ENDROOT
TORSDOF 0
ENDMDL
