MODEL 1
REMARK minimizedAffinity -3.88786149
REMARK minimizedRMSD -1
REMARK  0 active torsions:
REMARK  status: ('A' for Active; 'I' for Inactive)
ROOT
ATOM      1  C1  BNZ d   1       0.455   2.669  -0.866  0.00  0.00     0.000 A 
ATOM      2  C2  BNZ d   1       0.393   2.172   0.408  0.00  0.00     0.000 A 
ATOM      3  C3  BNZ d   1       1.426   2.359   1.283  0.00  0.00     0.000 A 
ATOM      4  C4  BNZ d   1       2.535   3.006   0.871  0.00  0.00     0.000 A 
ATOM      5  C5  BNZ d   1       2.616   3.505  -0.413  0.00  0.00     0.000 A 
ATOM      6  C6  BNZ d   1       1.558   3.350  -1.279  0.00  0.00     0.000 A 
ENDROOT
TORSDOF 0
ENDMDL
