MODEL 1
REMARK minimizedAffinity -4.75192451
REMARK minimizedRMSD -1
REMARK  0 active torsions:
REMARK  status: ('A' for Active; 'I' for Inactive)
ROOT
ATOM      1  C1  BNZ d   1      -1.094  -0.814   0.954  0.00  0.00     0.000 A 
ATOM      2  C2  BNZ d   1      -1.203  -2.088   1.443  0.00  0.00     0.000 A 
ATOM      3  C3  BNZ d   1      -0.348  -3.072   1.031  0.00  0.00     0.000 A 
ATOM      4  C4  BNZ d   1       0.587  -2.790   0.101  0.00  0.00     0.000 A 
ATOM      5  C5  BNZ d   1       0.704  -1.512  -0.409  0.00  0.00     0.000 A 
ATOM      6  C6  BNZ d   1      -0.133  -0.516   0.037  0.00  0.00     0.000 A 
ENDROOT
TORSDOF 0
ENDMDL
