MODEL 1
REMARK minimizedAffinity -2.43766522
REMARK minimizedRMSD -1
REMARK  0 active torsions:
REMARK  status: ('A' for Active; 'I' for Inactive)
ROOT
ATOM      1  C1  BNZ d   1       0.703  -1.436  -0.780  0.00  0.00     0.000 A 
ATOM      2  C2  BNZ d   1      -0.037  -2.217   0.066  0.00  0.00     0.000 A 
ATOM      3  C3  BNZ d   1      -0.774  -1.656   1.072  0.00  0.00     0.000 A 
ATOM      4  C4  BNZ d   1      -0.737  -0.320   1.255  0.00  0.00     0.000 A 
ATOM      5  C5  BNZ d   1       0.013   0.480   0.415  0.00  0.00     0.000 A 
ATOM      6  C6  BNZ d   1       0.722  -0.085  -0.620  0.00  0.00     0.000 A 
ENDROOT
TORSDOF 0
ENDMDL
