MODEL 1
REMARK minimizedAffinity -4.43609333
REMARK minimizedRMSD -1
REMARK  0 active torsions:
REMARK  status: ('A' for Active; 'I' for Inactive)
ROOT
ATOM      1  C1  BNZ d   1      -1.364  -1.158   0.249  0.00  0.00     0.000 A 
ATOM      2  C2  BNZ d   1      -1.319  -2.330   0.956  0.00  0.00     0.000 A 
ATOM      3  C3  BNZ d   1      -0.125  -2.934   1.234  0.00  0.00     0.000 A 
ATOM      4  C4  BNZ d   1       1.018  -2.388   0.771  0.00  0.00     0.000 A 
ATOM      5  C5  BNZ d   1       0.988  -1.212   0.048  0.00  0.00     0.000 A 
ATOM      6  C6  BNZ d   1      -0.213  -0.586  -0.196  0.00  0.00     0.000 A 
ENDROOT
TORSDOF 0
ENDMDL
