MODEL 1
REMARK minimizedAffinity -3.53120494
REMARK minimizedRMSD -1
REMARK  0 active torsions:
REMARK  status: ('A' for Active; 'I' for Inactive)
ROOT
ATOM      1  C1  BNZ d   1       0.378  -1.906   2.496  0.00  0.00     0.000 A 
ATOM      2  C2  BNZ d   1      -0.147  -3.123   2.150  0.00  0.00     0.000 A 
ATOM      3  C3  BNZ d   1      -0.963  -3.250   1.061  0.00  0.00     0.000 A 
ATOM      4  C4  BNZ d   1      -1.286  -2.154   0.344  0.00  0.00     0.000 A 
ATOM      5  C5  BNZ d   1      -0.773  -0.919   0.685  0.00  0.00     0.000 A 
ATOM      6  C6  BNZ d   1       0.080  -0.802   1.759  0.00  0.00     0.000 A 
ENDROOT
TORSDOF 0
ENDMDL
