MODEL 1
REMARK minimizedAffinity -4.29676342
REMARK minimizedRMSD -1
REMARK  0 active torsions:
REMARK  status: ('A' for Active; 'I' for Inactive)
ROOT
ATOM      1  C1  BNZ d   1      -1.720  -0.950   0.970  0.00  0.00     0.000 A 
ATOM      2  C2  BNZ d   1      -0.528  -0.303   0.776  0.00  0.00     0.000 A 
ATOM      3  C3  BNZ d   1       0.614  -1.005   0.509  0.00  0.00     0.000 A 
ATOM      4  C4  BNZ d   1       0.571  -2.353   0.475  0.00  0.00     0.000 A 
ATOM      5  C5  BNZ d   1      -0.621  -3.019   0.679  0.00  0.00     0.000 A 
ATOM      6  C6  BNZ d   1      -1.776  -2.308   0.909  0.00  0.00     0.000 A 
ENDROOT
TORSDOF 0
ENDMDL
