MODEL 1
REMARK minimizedAffinity 6.13908005
REMARK minimizedRMSD -1
REMARK  0 active torsions:
REMARK  status: ('A' for Active; 'I' for Inactive)
ROOT
ATOM      1  C1  BNZ d   1       0.503   3.324   1.345  0.00  0.00     0.000 A 
ATOM      2  C2  BNZ d   1       1.502   2.997   0.468  0.00  0.00     0.000 A 
ATOM      3  C3  BNZ d   1       2.625   3.771   0.365  0.00  0.00     0.000 A 
ATOM      4  C4  BNZ d   1       2.728   4.891   1.109  0.00  0.00     0.000 A 
ATOM      5  C5  BNZ d   1       1.725   5.239   1.991  0.00  0.00     0.000 A 
ATOM      6  C6  BNZ d   1       0.614   4.437   2.120  0.00  0.00     0.000 A 
ENDROOT
TORSDOF 0
ENDMDL
