MODEL 1
REMARK minimizedAffinity 2.45127511
REMARK minimizedRMSD -1
REMARK  0 active torsions:
REMARK  status: ('A' for Active; 'I' for Inactive)
ROOT
ATOM      1  C1  BNZ d   1       2.511   2.893  -1.668  0.00  0.00     0.000 A 
ATOM      2  C2  BNZ d   1       1.989   3.407  -0.511  0.00  0.00     0.000 A 
ATOM      3  C3  BNZ d   1       2.778   4.097   0.367  0.00  0.00     0.000 A 
ATOM      4  C4  BNZ d   1       4.094   4.237   0.107  0.00  0.00     0.000 A 
ATOM      5  C5  BNZ d   1       4.637   3.716  -1.050  0.00  0.00     0.000 A 
ATOM      6  C6  BNZ d   1       3.833   3.056  -1.951  0.00  0.00     0.000 A 
ENDROOT
TORSDOF 0
ENDMDL
