MODEL 1
REMARK minimizedAffinity 6.66064501
REMARK minimizedRMSD -1
REMARK  0 active torsions:
REMARK  status: ('A' for Active; 'I' for Inactive)
ROOT
ATOM      1  C   UNL d   1      -1.323   2.329  -0.635  0.00  0.00     0.124 A 
ATOM      2  C1  UNL d   1      -0.645   3.214   0.192  0.00  0.00     0.062 A 
ATOM      3  C2  UNL d   1       0.664   2.944   0.583  0.00  0.00     0.162 A 
ATOM      4  C3  UNL d   1       1.303   1.783   0.146  0.00  0.00    -0.034 A 
ATOM      5  C4  UNL d   1       0.614   0.898  -0.685  0.00  0.00     0.162 A 
ATOM      6  C5  UNL d   1      -0.693   1.173  -1.073  0.00  0.00     0.062 A 
ATOM      7  F   UNL d   1      -1.347   0.317  -1.872  0.00  0.00    -0.097 F 
ATOM      8  F1  UNL d   1       1.199  -0.226  -1.124  0.00  0.00    -0.096 F 
ATOM      9  I   UNL d   1       3.259   1.376   0.728  0.00  0.00    -0.060 I 
ATOM     10  F2  UNL d   1       1.295   3.816   1.383  0.00  0.00    -0.096 F 
ATOM     11  F3  UNL d   1      -1.251   4.331   0.617  0.00  0.00    -0.097 F 
ATOM     12  F4  UNL d   1      -2.582   2.592  -1.009  0.00  0.00    -0.092 F 
ENDROOT
TORSDOF 0
ENDMDL
