MODEL 1
REMARK minimizedAffinity 12.1838779
REMARK minimizedRMSD -1
REMARK  0 active torsions:
REMARK  status: ('A' for Active; 'I' for Inactive)
ROOT
ATOM      1  C   UNL d   1      -0.469   0.898  -1.493  0.00  0.00     0.124 A 
ATOM      2  C1  UNL d   1       0.533  -0.060  -1.415  0.00  0.00     0.062 A 
ATOM      3  C2  UNL d   1       1.619   0.131  -0.565  0.00  0.00     0.162 A 
ATOM      4  C3  UNL d   1       1.709   1.284   0.214  0.00  0.00    -0.034 A 
ATOM      5  C4  UNL d   1       0.698   2.243   0.129  0.00  0.00     0.162 A 
ATOM      6  C5  UNL d   1      -0.385   2.048  -0.722  0.00  0.00     0.062 A 
ATOM      7  F   UNL d   1      -1.352   2.974  -0.796  0.00  0.00    -0.097 F 
ATOM      8  F1  UNL d   1       0.752   3.364   0.864  0.00  0.00    -0.096 F 
ATOM      9  I   UNL d   1       3.331   1.574   1.486  0.00  0.00    -0.060 I 
ATOM     10  F2  UNL d   1       2.572  -0.811  -0.509  0.00  0.00    -0.096 F 
ATOM     11  F3  UNL d   1       0.456  -1.172  -2.160  0.00  0.00    -0.097 F 
ATOM     12  F4  UNL d   1      -1.512   0.712  -2.312  0.00  0.00    -0.092 F 
ENDROOT
TORSDOF 0
ENDMDL
