MODEL 1
REMARK minimizedAffinity 8.59017849
REMARK minimizedRMSD -1
REMARK  0 active torsions:
REMARK  status: ('A' for Active; 'I' for Inactive)
ROOT
ATOM      1  C   UNL d   1       0.451   0.366  -1.219  0.00  0.00     0.124 A 
ATOM      2  C1  UNL d   1       1.124   0.794  -0.083  0.00  0.00     0.062 A 
ATOM      3  C2  UNL d   1       0.635   1.866   0.658  0.00  0.00     0.162 A 
ATOM      4  C3  UNL d   1      -0.534   2.517   0.266  0.00  0.00    -0.034 A 
ATOM      5  C4  UNL d   1      -1.205   2.082  -0.878  0.00  0.00     0.162 A 
ATOM      6  C5  UNL d   1      -0.713   1.010  -1.616  0.00  0.00     0.062 A 
ATOM      7  F   UNL d   1      -1.364   0.598  -2.713  0.00  0.00    -0.097 F 
ATOM      8  F1  UNL d   1      -2.332   2.686  -1.284  0.00  0.00    -0.096 F 
ATOM      9  I   UNL d   1      -1.269   4.121   1.371  0.00  0.00    -0.060 I 
ATOM     10  F2  UNL d   1       1.306   2.258   1.752  0.00  0.00    -0.096 F 
ATOM     11  F3  UNL d   1       2.249   0.174   0.302  0.00  0.00    -0.097 F 
ATOM     12  F4  UNL d   1       0.924  -0.665  -1.931  0.00  0.00    -0.092 F 
ENDROOT
TORSDOF 0
ENDMDL
