MODEL 1
REMARK minimizedAffinity 13.6634941
REMARK minimizedRMSD -1
REMARK  0 active torsions:
REMARK  status: ('A' for Active; 'I' for Inactive)
ROOT
ATOM      1  C   UNL d   1       3.107   0.735  -1.571  0.00  0.00     0.124 A 
ATOM      2  C1  UNL d   1       1.927   0.311  -0.975  0.00  0.00     0.062 A 
ATOM      3  C2  UNL d   1       1.762   0.416   0.403  0.00  0.00     0.162 A 
ATOM      4  C3  UNL d   1       2.780   0.948   1.195  0.00  0.00    -0.034 A 
ATOM      5  C4  UNL d   1       3.964   1.371   0.589  0.00  0.00     0.162 A 
ATOM      6  C5  UNL d   1       4.124   1.264  -0.789  0.00  0.00     0.062 A 
ATOM      7  F   UNL d   1       5.265   1.674  -1.363  0.00  0.00    -0.097 F 
ATOM      8  F1  UNL d   1       4.962   1.888   1.321  0.00  0.00    -0.096 F 
ATOM      9  I   UNL d   1       2.537   1.107   3.256  0.00  0.00    -0.060 I 
ATOM     10  F2  UNL d   1       0.612  -0.001   0.952  0.00  0.00    -0.096 F 
ATOM     11  F3  UNL d   1       0.944  -0.201  -1.728  0.00  0.00    -0.097 F 
ATOM     12  F4  UNL d   1       3.264   0.632  -2.897  0.00  0.00    -0.092 F 
ENDROOT
TORSDOF 0
ENDMDL
