MODEL 1
REMARK minimizedAffinity 1.5680629
REMARK minimizedRMSD -1
REMARK  0 active torsions:
REMARK  status: ('A' for Active; 'I' for Inactive)
ROOT
ATOM      1  C   UNL d   1       1.032   0.290  -1.122  0.00  0.00     0.124 A 
ATOM      2  C1  UNL d   1       1.798   0.882  -0.127  0.00  0.00     0.062 A 
ATOM      3  C2  UNL d   1       1.336   2.020   0.527  0.00  0.00     0.162 A 
ATOM      4  C3  UNL d   1       0.101   2.574   0.189  0.00  0.00    -0.034 A 
ATOM      5  C4  UNL d   1      -0.663   1.973  -0.813  0.00  0.00     0.162 A 
ATOM      6  C5  UNL d   1      -0.197   0.835  -1.464  0.00  0.00     0.062 A 
ATOM      7  F   UNL d   1      -0.938   0.265  -2.424  0.00  0.00    -0.097 F 
ATOM      8  F1  UNL d   1      -1.855   2.479  -1.162  0.00  0.00    -0.096 F 
ATOM      9  I   UNL d   1      -0.593   4.276   1.165  0.00  0.00    -0.060 I 
ATOM     10  F2  UNL d   1       2.097   2.572   1.484  0.00  0.00    -0.096 F 
ATOM     11  F3  UNL d   1       2.986   0.357   0.204  0.00  0.00    -0.097 F 
ATOM     12  F4  UNL d   1       1.479  -0.805  -1.750  0.00  0.00    -0.092 F 
ENDROOT
TORSDOF 0
ENDMDL
