MODEL 1
REMARK minimizedAffinity 7.37998295
REMARK minimizedRMSD -1
REMARK  0 active torsions:
REMARK  status: ('A' for Active; 'I' for Inactive)
ROOT
ATOM      1  C   UNL d   1      -1.854   3.421   0.321  0.00  0.00     0.124 A 
ATOM      2  C1  UNL d   1      -0.606   3.766   0.821  0.00  0.00     0.062 A 
ATOM      3  C2  UNL d   1       0.510   2.994   0.511  0.00  0.00     0.162 A 
ATOM      4  C3  UNL d   1       0.383   1.870  -0.305  0.00  0.00    -0.034 A 
ATOM      5  C4  UNL d   1      -0.875   1.529  -0.804  0.00  0.00     0.162 A 
ATOM      6  C5  UNL d   1      -1.988   2.303  -0.491  0.00  0.00     0.062 A 
ATOM      7  F   UNL d   1      -3.192   1.969  -0.975  0.00  0.00    -0.097 F 
ATOM      8  F1  UNL d   1      -1.032   0.454  -1.591  0.00  0.00    -0.096 F 
ATOM      9  I   UNL d   1       2.050   0.713  -0.771  0.00  0.00    -0.060 I 
ATOM     10  F2  UNL d   1       1.703   3.351   1.009  0.00  0.00    -0.096 F 
ATOM     11  F3  UNL d   1      -0.475   4.845   1.606  0.00  0.00    -0.097 F 
ATOM     12  F4  UNL d   1      -2.927   4.165   0.622  0.00  0.00    -0.092 F 
ENDROOT
TORSDOF 0
ENDMDL
