MODEL 1
REMARK minimizedAffinity 9.51477909
REMARK minimizedRMSD -1
REMARK  0 active torsions:
REMARK  status: ('A' for Active; 'I' for Inactive)
ROOT
ATOM      1  C   UNL d   1       1.773   0.117  -0.279  0.00  0.00     0.124 A 
ATOM      2  C1  UNL d   1       1.902   0.055  -1.659  0.00  0.00     0.062 A 
ATOM      3  C2  UNL d   1       3.029   0.584  -2.281  0.00  0.00     0.162 A 
ATOM      4  C3  UNL d   1       4.038   1.178  -1.523  0.00  0.00    -0.034 A 
ATOM      5  C4  UNL d   1       3.900   1.238  -0.135  0.00  0.00     0.162 A 
ATOM      6  C5  UNL d   1       2.772   0.708   0.482  0.00  0.00     0.062 A 
ATOM      7  F   UNL d   1       2.649   0.769   1.816  0.00  0.00    -0.097 F 
ATOM      8  F1  UNL d   1       4.851   1.803   0.624  0.00  0.00    -0.096 F 
ATOM      9  I   UNL d   1       5.725   1.970  -2.449  0.00  0.00    -0.060 I 
ATOM     10  F2  UNL d   1       3.128   0.510  -3.617  0.00  0.00    -0.096 F 
ATOM     11  F3  UNL d   1       0.938  -0.515  -2.397  0.00  0.00    -0.097 F 
ATOM     12  F4  UNL d   1       0.687  -0.391   0.317  0.00  0.00    -0.092 F 
ENDROOT
TORSDOF 0
ENDMDL
