MODEL 1
REMARK minimizedAffinity 5.20890617
REMARK minimizedRMSD -1
REMARK  0 active torsions:
REMARK  status: ('A' for Active; 'I' for Inactive)
ROOT
ATOM      1  C   UNL d   1       2.201   0.307  -0.317  0.00  0.00     0.124 A 
ATOM      2  C1  UNL d   1       2.264   0.021  -1.674  0.00  0.00     0.062 A 
ATOM      3  C2  UNL d   1       3.346   0.459  -2.432  0.00  0.00     0.162 A 
ATOM      4  C3  UNL d   1       4.375   1.186  -1.835  0.00  0.00    -0.034 A 
ATOM      5  C4  UNL d   1       4.304   1.471  -0.470  0.00  0.00     0.162 A 
ATOM      6  C5  UNL d   1       3.221   1.031   0.284  0.00  0.00     0.062 A 
ATOM      7  F   UNL d   1       3.162   1.308   1.594  0.00  0.00    -0.097 F 
ATOM      8  F1  UNL d   1       5.277   2.168   0.136  0.00  0.00    -0.096 F 
ATOM      9  I   UNL d   1       5.995   1.843  -2.965  0.00  0.00    -0.060 I 
ATOM     10  F2  UNL d   1       3.380   0.168  -3.741  0.00  0.00    -0.096 F 
ATOM     11  F3  UNL d   1       1.279  -0.678  -2.257  0.00  0.00    -0.097 F 
ATOM     12  F4  UNL d   1       1.158  -0.115   0.410  0.00  0.00    -0.092 F 
ENDROOT
TORSDOF 0
ENDMDL
