MODEL 1
REMARK minimizedAffinity 11.3209715
REMARK minimizedRMSD -1
REMARK  0 active torsions:
REMARK  status: ('A' for Active; 'I' for Inactive)
ROOT
ATOM      1  C   UNL d   1       2.413   0.072  -0.183  0.00  0.00     0.124 A 
ATOM      2  C1  UNL d   1       2.465  -0.098  -1.559  0.00  0.00     0.062 A 
ATOM      3  C2  UNL d   1       3.484   0.493  -2.300  0.00  0.00     0.162 A 
ATOM      4  C3  UNL d   1       4.461   1.260  -1.666  0.00  0.00    -0.034 A 
ATOM      5  C4  UNL d   1       4.402   1.428  -0.281  0.00  0.00     0.162 A 
ATOM      6  C5  UNL d   1       3.382   0.835   0.455  0.00  0.00     0.062 A 
ATOM      7  F   UNL d   1       3.334   1.000   1.785  0.00  0.00    -0.097 F 
ATOM      8  F1  UNL d   1       5.326   2.159   0.361  0.00  0.00    -0.096 F 
ATOM      9  I   UNL d   1       5.987   2.146  -2.770  0.00  0.00    -0.060 I 
ATOM     10  F2  UNL d   1       3.509   0.312  -3.629  0.00  0.00    -0.096 F 
ATOM     11  F3  UNL d   1       1.530  -0.834  -2.178  0.00  0.00    -0.097 F 
ATOM     12  F4  UNL d   1       1.431  -0.497   0.528  0.00  0.00    -0.092 F 
ENDROOT
TORSDOF 0
ENDMDL
