MODEL 1
REMARK minimizedAffinity 5.05957222
REMARK minimizedRMSD -1
REMARK  0 active torsions:
REMARK  status: ('A' for Active; 'I' for Inactive)
ROOT
ATOM      1  C   UNL d   1      -0.383   0.800   3.814  0.00  0.00     0.077 C 
ATOM      2  C1  UNL d   1       0.034   0.869   2.375  0.00  0.00    -0.074 A 
ATOM      3  C2  UNL d   1      -0.257  -0.175   1.492  0.00  0.00    -0.005 A 
ATOM      4  C3  UNL d   1       0.129  -0.093   0.154  0.00  0.00     0.006 A 
ATOM      5  C4  UNL d   1       0.808   1.032  -0.314  0.00  0.00    -0.005 A 
ATOM      6  C5  UNL d   1       1.107   2.087   0.555  0.00  0.00    -0.074 A 
ATOM      7  C6  UNL d   1       1.828   3.308   0.066  0.00  0.00     0.077 C 
ATOM      8  C7  UNL d   1       0.710   2.000   1.896  0.00  0.00    -0.001 A 
ENDROOT
TORSDOF 0
ENDMDL
