MODEL 1
REMARK minimizedAffinity 1.41606188
REMARK minimizedRMSD -1
REMARK  0 active torsions:
REMARK  status: ('A' for Active; 'I' for Inactive)
ROOT
ATOM      1  C   UNL d   1       5.543   2.738  -3.646  0.00  0.00     0.077 C 
ATOM      2  C1  UNL d   1       4.936   3.883  -4.401  0.00  0.00    -0.074 A 
ATOM      3  C2  UNL d   1       5.725   4.946  -4.852  0.00  0.00    -0.005 A 
ATOM      4  C3  UNL d   1       5.147   5.999  -5.561  0.00  0.00     0.006 A 
ATOM      5  C4  UNL d   1       3.777   6.000  -5.826  0.00  0.00    -0.005 A 
ATOM      6  C5  UNL d   1       2.972   4.945  -5.383  0.00  0.00    -0.074 A 
ATOM      7  C6  UNL d   1       1.500   4.926  -5.667  0.00  0.00     0.077 C 
ATOM      8  C7  UNL d   1       3.561   3.887  -4.677  0.00  0.00    -0.001 A 
ENDROOT
TORSDOF 0
ENDMDL
