MODEL 1
REMARK minimizedAffinity 0.067624934
REMARK minimizedRMSD -1
REMARK  0 active torsions:
REMARK  status: ('A' for Active; 'I' for Inactive)
ROOT
ATOM      1  C   UNL d   1       2.111   6.000  -5.157  0.00  0.00     0.077 C 
ATOM      2  C1  UNL d   1       3.468   5.366  -5.232  0.00  0.00    -0.074 A 
ATOM      3  C2  UNL d   1       4.507   5.974  -5.945  0.00  0.00    -0.005 A 
ATOM      4  C3  UNL d   1       5.766   5.378  -5.998  0.00  0.00     0.006 A 
ATOM      5  C4  UNL d   1       6.000   4.170  -5.340  0.00  0.00    -0.005 A 
ATOM      6  C5  UNL d   1       4.974   3.547  -4.622  0.00  0.00    -0.074 A 
ATOM      7  C6  UNL d   1       5.211   2.253  -3.901  0.00  0.00     0.077 C 
ATOM      8  C7  UNL d   1       3.713   4.156  -4.568  0.00  0.00    -0.001 A 
ENDROOT
TORSDOF 0
ENDMDL
