MODEL 1
REMARK minimizedAffinity 1.47551084
REMARK minimizedRMSD -1
REMARK  0 active torsions:
REMARK  status: ('A' for Active; 'I' for Inactive)
ROOT
ATOM      1  C   UNL d   1       0.217   0.824   2.641  0.00  0.00     0.077 C 
ATOM      2  C1  UNL d   1       0.748   1.163   1.280  0.00  0.00    -0.074 A 
ATOM      3  C2  UNL d   1       1.113   2.474   0.956  0.00  0.00    -0.005 A 
ATOM      4  C3  UNL d   1       1.615   2.772  -0.311  0.00  0.00     0.006 A 
ATOM      5  C4  UNL d   1       1.756   1.764  -1.266  0.00  0.00    -0.005 A 
ATOM      6  C5  UNL d   1       1.397   0.448  -0.960  0.00  0.00    -0.074 A 
ATOM      7  C6  UNL d   1       1.552  -0.649  -1.971  0.00  0.00     0.077 C 
ATOM      8  C7  UNL d   1       0.901   0.155   0.317  0.00  0.00    -0.001 A 
ENDROOT
TORSDOF 0
ENDMDL
