MODEL 1
REMARK minimizedAffinity 1.0462141
REMARK minimizedRMSD -1
REMARK  0 active torsions:
REMARK  status: ('A' for Active; 'I' for Inactive)
ROOT
ATOM      1  C   UNL d   1       0.342   5.997  -5.154  0.00  0.00     0.077 C 
ATOM      2  C1  UNL d   1      -0.551   5.990  -3.949  0.00  0.00    -0.074 A 
ATOM      3  C2  UNL d   1      -0.014   5.995  -2.657  0.00  0.00    -0.005 A 
ATOM      4  C3  UNL d   1      -0.856   5.998  -1.546  0.00  0.00     0.006 A 
ATOM      5  C4  UNL d   1      -2.242   5.995  -1.714  0.00  0.00    -0.005 A 
ATOM      6  C5  UNL d   1      -2.796   5.991  -2.998  0.00  0.00    -0.074 A 
ATOM      7  C6  UNL d   1      -4.283   5.998  -3.196  0.00  0.00     0.077 C 
ATOM      8  C7  UNL d   1      -1.943   5.995  -4.110  0.00  0.00    -0.001 A 
ENDROOT
TORSDOF 0
ENDMDL
