MODEL 1
REMARK minimizedAffinity 0.042305544
REMARK minimizedRMSD -1
REMARK  0 active torsions:
REMARK  status: ('A' for Active; 'I' for Inactive)
ROOT
ATOM      1  C   UNL d   1      -4.573   5.999  -1.317  0.00  0.00     0.077 C 
ATOM      2  C1  UNL d   1      -3.300   6.000  -2.110  0.00  0.00    -0.074 A 
ATOM      3  C2  UNL d   1      -2.056   5.989  -1.472  0.00  0.00    -0.005 A 
ATOM      4  C3  UNL d   1      -0.880   5.980  -2.224  0.00  0.00     0.006 A 
ATOM      5  C4  UNL d   1      -0.938   5.982  -3.618  0.00  0.00    -0.005 A 
ATOM      6  C5  UNL d   1      -2.173   5.992  -4.273  0.00  0.00    -0.074 A 
ATOM      7  C6  UNL d   1      -2.253   5.984  -5.771  0.00  0.00     0.077 C 
ATOM      8  C7  UNL d   1      -3.350   5.994  -3.511  0.00  0.00    -0.001 A 
ENDROOT
TORSDOF 0
ENDMDL
