MODEL 1
REMARK minimizedAffinity 0.916150451
REMARK minimizedRMSD -1
REMARK  0 active torsions:
REMARK  status: ('A' for Active; 'I' for Inactive)
ROOT
ATOM      1  C   UNL d   1      -2.931   5.979  -0.325  0.00  0.00     0.077 C 
ATOM      2  C1  UNL d   1      -2.787   5.979  -1.818  0.00  0.00    -0.074 A 
ATOM      3  C2  UNL d   1      -3.912   5.990  -2.648  0.00  0.00    -0.005 A 
ATOM      4  C3  UNL d   1      -3.763   6.000  -4.035  0.00  0.00     0.006 A 
ATOM      5  C4  UNL d   1      -2.489   5.999  -4.604  0.00  0.00    -0.005 A 
ATOM      6  C5  UNL d   1      -1.352   5.990  -3.790  0.00  0.00    -0.074 A 
ATOM      7  C6  UNL d   1       0.025   5.999  -4.385  0.00  0.00     0.077 C 
ATOM      8  C7  UNL d   1      -1.510   5.987  -2.397  0.00  0.00    -0.001 A 
ENDROOT
TORSDOF 0
ENDMDL
