MODEL 1
REMARK minimizedAffinity 2.7251575
REMARK minimizedRMSD -1
REMARK  0 active torsions:
REMARK  status: ('A' for Active; 'I' for Inactive)
ROOT
ATOM      1  C   UNL d   1       0.444   5.978  -3.421  0.00  0.00     0.077 C 
ATOM      2  C1  UNL d   1      -0.957   5.992  -2.886  0.00  0.00    -0.074 A 
ATOM      3  C2  UNL d   1      -2.057   5.992  -3.750  0.00  0.00    -0.005 A 
ATOM      4  C3  UNL d   1      -3.354   5.995  -3.237  0.00  0.00     0.006 A 
ATOM      5  C4  UNL d   1      -3.565   6.000  -1.858  0.00  0.00    -0.005 A 
ATOM      6  C5  UNL d   1      -2.477   6.000  -0.978  0.00  0.00    -0.074 A 
ATOM      7  C6  UNL d   1      -2.685   5.995   0.507  0.00  0.00     0.077 C 
ATOM      8  C7  UNL d   1      -1.177   5.989  -1.501  0.00  0.00    -0.001 A 
ENDROOT
TORSDOF 0
ENDMDL
