MODEL 1
REMARK minimizedAffinity 6.55418921
REMARK minimizedRMSD -1
REMARK  0 active torsions:
REMARK  status: ('A' for Active; 'I' for Inactive)
ROOT
ATOM      1  C   UNL d   1       4.230   2.651  -3.726  0.00  0.00     0.077 C 
ATOM      2  C1  UNL d   1       3.701   3.825  -4.495  0.00  0.00    -0.074 A 
ATOM      3  C2  UNL d   1       4.540   4.886  -4.853  0.00  0.00    -0.005 A 
ATOM      4  C3  UNL d   1       4.036   5.967  -5.577  0.00  0.00     0.006 A 
ATOM      5  C4  UNL d   1       2.691   5.998  -5.949  0.00  0.00    -0.005 A 
ATOM      6  C5  UNL d   1       1.838   4.946  -5.600  0.00  0.00    -0.074 A 
ATOM      7  C6  UNL d   1       0.393   4.959  -6.000  0.00  0.00     0.077 C 
ATOM      8  C7  UNL d   1       2.353   3.860  -4.878  0.00  0.00    -0.001 A 
ENDROOT
TORSDOF 0
ENDMDL
