MODEL 1
REMARK minimizedAffinity -2.11777925
REMARK minimizedRMSD -1
REMARK  0 active torsions:
REMARK  status: ('A' for Active; 'I' for Inactive)
ROOT
ATOM      1  C   UNL d   1      -1.487   6.000  -1.906  0.00  0.00     0.077 C 
ATOM      2  C1  UNL d   1      -1.036   5.962  -3.336  0.00  0.00    -0.074 A 
ATOM      3  C2  UNL d   1      -1.963   5.993  -4.383  0.00  0.00    -0.005 A 
ATOM      4  C3  UNL d   1      -1.528   5.968  -5.708  0.00  0.00     0.006 A 
ATOM      5  C4  UNL d   1      -0.165   5.910  -6.000  0.00  0.00    -0.005 A 
ATOM      6  C5  UNL d   1       0.777   5.878  -4.966  0.00  0.00    -0.074 A 
ATOM      7  C6  UNL d   1       2.246   5.826  -5.262  0.00  0.00     0.077 C 
ATOM      8  C7  UNL d   1       0.332   5.912  -3.637  0.00  0.00    -0.001 A 
ENDROOT
TORSDOF 0
ENDMDL
