MODEL 1
REMARK minimizedAffinity -3.34673071
REMARK minimizedRMSD -1
REMARK  0 active torsions:
REMARK  status: ('A' for Active; 'I' for Inactive)
ROOT
ATOM      1  C   UNL d   1       3.170   6.000  -5.137  0.00  0.00     0.077 C 
ATOM      2  C1  UNL d   1       1.704   5.768  -4.924  0.00  0.00    -0.074 A 
ATOM      3  C2  UNL d   1       0.858   5.479  -6.000  0.00  0.00    -0.005 A 
ATOM      4  C3  UNL d   1      -0.502   5.256  -5.785  0.00  0.00     0.006 A 
ATOM      5  C4  UNL d   1      -1.029   5.320  -4.495  0.00  0.00    -0.005 A 
ATOM      6  C5  UNL d   1      -0.199   5.607  -3.407  0.00  0.00    -0.074 A 
ATOM      7  C6  UNL d   1      -0.748   5.670  -2.012  0.00  0.00     0.077 C 
ATOM      8  C7  UNL d   1       1.168   5.823  -3.630  0.00  0.00    -0.001 A 
ENDROOT
TORSDOF 0
ENDMDL
