MODEL 1
REMARK minimizedAffinity -2.83635259
REMARK minimizedRMSD -1
REMARK  0 active torsions:
REMARK  status: ('A' for Active; 'I' for Inactive)
ROOT
ATOM      1  C   UNL d   1       3.650   6.000  -5.115  0.00  0.00     0.077 C 
ATOM      2  C1  UNL d   1       2.259   5.439  -5.125  0.00  0.00    -0.074 A 
ATOM      3  C2  UNL d   1       1.910   4.398  -5.990  0.00  0.00    -0.005 A 
ATOM      4  C3  UNL d   1       0.615   3.880  -5.981  0.00  0.00     0.006 A 
ATOM      5  C4  UNL d   1      -0.342   4.397  -5.108  0.00  0.00    -0.005 A 
ATOM      6  C5  UNL d   1      -0.011   5.438  -4.234  0.00  0.00    -0.074 A 
ATOM      7  C6  UNL d   1      -1.026   5.999  -3.283  0.00  0.00     0.077 C 
ATOM      8  C7  UNL d   1       1.294   5.948  -4.245  0.00  0.00    -0.001 A 
ENDROOT
TORSDOF 0
ENDMDL
