MODEL 1
REMARK minimizedAffinity 0.595514476
REMARK minimizedRMSD -1
REMARK  0 active torsions:
REMARK  status: ('A' for Active; 'I' for Inactive)
ROOT
ATOM      1  C   UNL d   1      -1.274   5.999  -0.444  0.00  0.00     0.077 C 
ATOM      2  C1  UNL d   1      -1.766   5.991  -1.860  0.00  0.00    -0.074 A 
ATOM      3  C2  UNL d   1      -3.135   5.996  -2.146  0.00  0.00    -0.005 A 
ATOM      4  C3  UNL d   1      -3.578   5.998  -3.468  0.00  0.00     0.006 A 
ATOM      5  C4  UNL d   1      -2.658   5.995  -4.517  0.00  0.00    -0.005 A 
ATOM      6  C5  UNL d   1      -1.285   5.991  -4.251  0.00  0.00    -0.074 A 
ATOM      7  C6  UNL d   1      -0.282   5.997  -5.367  0.00  0.00     0.077 C 
ATOM      8  C7  UNL d   1      -0.848   5.996  -2.920  0.00  0.00    -0.001 A 
ENDROOT
TORSDOF 0
ENDMDL
