MODEL 1
REMARK minimizedAffinity 2.87421465
REMARK minimizedRMSD -1
REMARK  0 active torsions:
REMARK  status: ('A' for Active; 'I' for Inactive)
ROOT
ATOM      1  C   UNL d   1       0.826   4.833  -5.918  0.00  0.00     0.077 C 
ATOM      2  C1  UNL d   1       2.310   4.854  -5.697  0.00  0.00    -0.074 A 
ATOM      3  C2  UNL d   1       3.065   5.992  -6.000  0.00  0.00    -0.005 A 
ATOM      4  C3  UNL d   1       4.443   6.000  -5.780  0.00  0.00     0.006 A 
ATOM      5  C4  UNL d   1       5.077   4.873  -5.256  0.00  0.00    -0.005 A 
ATOM      6  C5  UNL d   1       4.338   3.727  -4.946  0.00  0.00    -0.074 A 
ATOM      7  C6  UNL d   1       5.003   2.511  -4.373  0.00  0.00     0.077 C 
ATOM      8  C7  UNL d   1       2.953   3.729  -5.164  0.00  0.00    -0.001 A 
ENDROOT
TORSDOF 0
ENDMDL
