MODEL 1
REMARK minimizedAffinity 6.55428982
REMARK minimizedRMSD -1
REMARK  3 active torsions:
REMARK  status: ('A' for Active; 'I' for Inactive)
REMARK    1  A    between atoms: C3'_2  and  C2'_3 
REMARK    2  A    between atoms: C2'_3  and  C1'_4 
REMARK    3  A    between atoms: C1'_4  and  C1_5 
ROOT
ATOM      1  C1  N4B d   1      -5.759  -3.509   3.426  0.00  0.00    -0.075 A 
ATOM      2  C2  N4B d   1      -5.927  -3.619   4.824  0.00  0.00     0.002 A 
ATOM      3  C3  N4B d   1      -5.999  -4.858   5.411  0.00  0.00     0.002 A 
ATOM      4  C4  N4B d   1      -5.924  -5.996   4.622  0.00  0.00    -0.004 A 
ATOM      5  C5  N4B d   1      -5.736  -5.881   3.276  0.00  0.00     0.002 A 
ATOM      6  C6  N4B d   1      -5.659  -4.642   2.672  0.00  0.00     0.002 A 
ENDROOT
BRANCH   1   7
ATOM      7  C1' N4B d   1      -5.761  -2.176   2.728  0.00  0.00     0.057 C 
BRANCH   7   8
ATOM      8  C2' N4B d   1      -4.335  -1.636   2.675  0.00  0.00     0.009 C 
BRANCH   8   9
ATOM      9  C3' N4B d   1      -4.305  -0.120   2.578  0.00  0.00     0.004 C 
ATOM     10  C4' N4B d   1      -3.234   0.495   3.430  0.00  0.00     0.003 C 
ENDBRANCH   8   9
ENDBRANCH   7   8
ENDBRANCH   1   7
TORSDOF 3
ENDMDL
