MODEL 1
REMARK minimizedAffinity 5.28000402
REMARK minimizedRMSD -1
REMARK  3 active torsions:
REMARK  status: ('A' for Active; 'I' for Inactive)
REMARK    1  A    between atoms: C3'_2  and  C2'_3 
REMARK    2  A    between atoms: C2'_3  and  C1'_4 
REMARK    3  A    between atoms: C1'_4  and  C1_5 
ROOT
ATOM      1  C1  N4B d   1      -3.485   1.434   4.233  0.00  0.00    -0.075 A 
ATOM      2  C2  N4B d   1      -2.422   0.590   4.623  0.00  0.00     0.002 A 
ATOM      3  C3  N4B d   1      -1.561   0.089   3.678  0.00  0.00     0.002 A 
ATOM      4  C4  N4B d   1      -1.754   0.401   2.340  0.00  0.00    -0.004 A 
ATOM      5  C5  N4B d   1      -2.768   1.237   1.975  0.00  0.00     0.002 A 
ATOM      6  C6  N4B d   1      -3.639   1.751   2.915  0.00  0.00     0.002 A 
ENDROOT
BRANCH   1   7
ATOM      7  C1' N4B d   1      -4.503   1.936   5.221  0.00  0.00     0.057 C 
BRANCH   7   8
ATOM      8  C2' N4B d   1      -5.032   3.288   4.751  0.00  0.00     0.009 C 
BRANCH   8   9
ATOM      9  C3' N4B d   1      -5.289   4.232   5.912  0.00  0.00     0.004 C 
ATOM     10  C4' N4B d   1      -5.161   5.676   5.526  0.00  0.00     0.003 C 
ENDBRANCH   8   9
ENDBRANCH   7   8
ENDBRANCH   1   7
TORSDOF 3
ENDMDL
