MODEL 1
REMARK minimizedAffinity 9.16353416
REMARK minimizedRMSD -1
REMARK  3 active torsions:
REMARK  status: ('A' for Active; 'I' for Inactive)
REMARK    1  A    between atoms: C3'_2  and  C2'_3 
REMARK    2  A    between atoms: C2'_3  and  C1'_4 
REMARK    3  A    between atoms: C1'_4  and  C1_5 
ROOT
ATOM      1  C1  N4B d   1      -3.722   1.377   3.949  0.00  0.00    -0.075 A 
ATOM      2  C2  N4B d   1      -2.342   1.120   3.799  0.00  0.00     0.002 A 
ATOM      3  C3  N4B d   1      -1.893   0.377   2.735  0.00  0.00     0.002 A 
ATOM      4  C4  N4B d   1      -2.804  -0.132   1.821  0.00  0.00    -0.004 A 
ATOM      5  C5  N4B d   1      -4.133   0.142   1.959  0.00  0.00     0.002 A 
ATOM      6  C6  N4B d   1      -4.598   0.891   3.022  0.00  0.00     0.002 A 
ENDROOT
BRANCH   1   7
ATOM      7  C1' N4B d   1      -4.268   2.111   5.143  0.00  0.00     0.057 C 
BRANCH   7   8
ATOM      8  C2' N4B d   1      -5.722   2.488   4.877  0.00  0.00     0.009 C 
BRANCH   8   9
ATOM      9  C3' N4B d   1      -5.996   3.950   5.187  0.00  0.00     0.004 C 
ATOM     10  C4' N4B d   1      -4.904   4.586   5.995  0.00  0.00     0.003 C 
ENDBRANCH   8   9
ENDBRANCH   7   8
ENDBRANCH   1   7
TORSDOF 3
ENDMDL
