MODEL 1
REMARK minimizedAffinity 7.11700678
REMARK minimizedRMSD -1
REMARK  3 active torsions:
REMARK  status: ('A' for Active; 'I' for Inactive)
REMARK    1  A    between atoms: C3'_2  and  C2'_3 
REMARK    2  A    between atoms: C2'_3  and  C1'_4 
REMARK    3  A    between atoms: C1'_4  and  C1_5 
ROOT
ATOM      1  C1  N4B d   1      -5.024  -2.923   3.135  0.00  0.00    -0.075 A 
ATOM      2  C2  N4B d   1      -5.288  -3.626   1.939  0.00  0.00     0.002 A 
ATOM      3  C3  N4B d   1      -5.762  -4.914   1.991  0.00  0.00     0.002 A 
ATOM      4  C4  N4B d   1      -5.960  -5.523   3.221  0.00  0.00    -0.004 A 
ATOM      5  C5  N4B d   1      -5.726  -4.828   4.371  0.00  0.00     0.002 A 
ATOM      6  C6  N4B d   1      -5.254  -3.532   4.334  0.00  0.00     0.002 A 
ENDROOT
BRANCH   1   7
ATOM      7  C1' N4B d   1      -4.424  -1.543   3.128  0.00  0.00     0.057 C 
BRANCH   7   8
ATOM      8  C2' N4B d   1      -3.231  -1.520   2.177  0.00  0.00     0.009 C 
BRANCH   8   9
ATOM      9  C3' N4B d   1      -2.768  -0.104   1.880  0.00  0.00     0.004 C 
ATOM     10  C4' N4B d   1      -3.820   0.719   1.198  0.00  0.00     0.003 C 
ENDBRANCH   8   9
ENDBRANCH   7   8
ENDBRANCH   1   7
TORSDOF 3
ENDMDL
