MODEL 1
REMARK minimizedAffinity 6.29309559
REMARK minimizedRMSD -1
REMARK  3 active torsions:
REMARK  status: ('A' for Active; 'I' for Inactive)
REMARK    1  A    between atoms: C3'_2  and  C2'_3 
REMARK    2  A    between atoms: C2'_3  and  C1'_4 
REMARK    3  A    between atoms: C1'_4  and  C1_5 
ROOT
ATOM      1  C1  N4B d   1       4.040   3.075  -1.021  0.00  0.00    -0.075 A 
ATOM      2  C2  N4B d   1       5.006   3.890  -0.389  0.00  0.00     0.002 A 
ATOM      3  C3  N4B d   1       5.057   3.956   0.982  0.00  0.00     0.002 A 
ATOM      4  C4  N4B d   1       4.145   3.236   1.738  0.00  0.00    -0.004 A 
ATOM      5  C5  N4B d   1       3.232   2.432   1.121  0.00  0.00     0.002 A 
ATOM      6  C6  N4B d   1       3.171   2.352  -0.256  0.00  0.00     0.002 A 
ENDROOT
BRANCH   1   7
ATOM      7  C1' N4B d   1       3.890   3.037  -2.517  0.00  0.00     0.057 C 
BRANCH   7   8
ATOM      8  C2' N4B d   1       4.226   4.410  -3.089  0.00  0.00     0.009 C 
BRANCH   8   9
ATOM      9  C3' N4B d   1       4.523   4.348  -4.578  0.00  0.00     0.004 C 
ATOM     10  C4' N4B d   1       5.989   4.434  -4.881  0.00  0.00     0.003 C 
ENDBRANCH   8   9
ENDBRANCH   7   8
ENDBRANCH   1   7
TORSDOF 3
ENDMDL
