MODEL 1
REMARK minimizedAffinity 7.13092613
REMARK minimizedRMSD -1
REMARK  3 active torsions:
REMARK  status: ('A' for Active; 'I' for Inactive)
REMARK    1  A    between atoms: C3'_2  and  C2'_3 
REMARK    2  A    between atoms: C2'_3  and  C1'_4 
REMARK    3  A    between atoms: C1'_4  and  C1_5 
ROOT
ATOM      1  C1  N4B d   1      -5.153  -3.669   3.684  0.00  0.00    -0.075 A 
ATOM      2  C2  N4B d   1      -5.524  -3.665   5.046  0.00  0.00     0.002 A 
ATOM      3  C3  N4B d   1      -5.935  -4.829   5.649  0.00  0.00     0.002 A 
ATOM      4  C4  N4B d   1      -6.000  -5.999   4.909  0.00  0.00    -0.004 A 
ATOM      5  C5  N4B d   1      -5.615  -6.000   3.600  0.00  0.00     0.002 A 
ATOM      6  C6  N4B d   1      -5.197  -4.839   2.982  0.00  0.00     0.002 A 
ENDROOT
BRANCH   1   7
ATOM      7  C1' N4B d   1      -4.780  -2.405   2.958  0.00  0.00     0.057 C 
BRANCH   7   8
ATOM      8  C2' N4B d   1      -3.755  -1.636   3.787  0.00  0.00     0.009 C 
BRANCH   8   9
ATOM      9  C3' N4B d   1      -2.958  -0.659   2.941  0.00  0.00     0.004 C 
ATOM     10  C4' N4B d   1      -1.771  -1.296   2.282  0.00  0.00     0.003 C 
ENDBRANCH   8   9
ENDBRANCH   7   8
ENDBRANCH   1   7
TORSDOF 3
ENDMDL
