MODEL 1
REMARK minimizedAffinity 13.6514006
REMARK minimizedRMSD -1
REMARK  3 active torsions:
REMARK  status: ('A' for Active; 'I' for Inactive)
REMARK    1  A    between atoms: C3'_2  and  C2'_3 
REMARK    2  A    between atoms: C2'_3  and  C1'_4 
REMARK    3  A    between atoms: C1'_4  and  C1_5 
ROOT
ATOM      1  C1  N4B d   1      -4.443  -3.718   3.765  0.00  0.00    -0.075 A 
ATOM      2  C2  N4B d   1      -4.543  -3.718   5.174  0.00  0.00     0.002 A 
ATOM      3  C3  N4B d   1      -4.929  -4.858   5.835  0.00  0.00     0.002 A 
ATOM      4  C4  N4B d   1      -5.236  -6.000   5.111  0.00  0.00    -0.004 A 
ATOM      5  C5  N4B d   1      -5.112  -5.999   3.752  0.00  0.00     0.002 A 
ATOM      6  C6  N4B d   1      -4.722  -4.862   3.075  0.00  0.00     0.002 A 
ENDROOT
BRANCH   1   7
ATOM      7  C1' N4B d   1      -4.108  -2.471   2.993  0.00  0.00     0.057 C 
BRANCH   7   8
ATOM      8  C2' N4B d   1      -2.612  -2.198   3.107  0.00  0.00     0.009 C 
BRANCH   8   9
ATOM      9  C3' N4B d   1      -2.274  -0.750   2.798  0.00  0.00     0.004 C 
ATOM     10  C4' N4B d   1      -1.351  -0.607   1.624  0.00  0.00     0.003 C 
ENDBRANCH   8   9
ENDBRANCH   7   8
ENDBRANCH   1   7
TORSDOF 3
ENDMDL
