MODEL 1
REMARK minimizedAffinity 12.0050478
REMARK minimizedRMSD -1
REMARK  3 active torsions:
REMARK  status: ('A' for Active; 'I' for Inactive)
REMARK    1  A    between atoms: C3'_2  and  C2'_3 
REMARK    2  A    between atoms: C2'_3  and  C1'_4 
REMARK    3  A    between atoms: C1'_4  and  C1_5 
ROOT
ATOM      1  C1  N4B d   1      -2.037  -1.230   1.849  0.00  0.00    -0.075 A 
ATOM      2  C2  N4B d   1      -3.137  -0.692   1.145  0.00  0.00     0.002 A 
ATOM      3  C3  N4B d   1      -3.686   0.504   1.539  0.00  0.00     0.002 A 
ATOM      4  C4  N4B d   1      -3.165   1.168   2.640  0.00  0.00    -0.004 A 
ATOM      5  C5  N4B d   1      -2.087   0.654   3.298  0.00  0.00     0.002 A 
ATOM      6  C6  N4B d   1      -1.523  -0.545   2.911  0.00  0.00     0.002 A 
ENDROOT
BRANCH   1   7
ATOM      7  C1' N4B d   1      -1.459  -2.576   1.508  0.00  0.00     0.057 C 
BRANCH   7   8
ATOM      8  C2' N4B d   1      -2.593  -3.537   1.167  0.00  0.00     0.009 C 
BRANCH   8   9
ATOM      9  C3' N4B d   1      -3.697  -3.507   2.211  0.00  0.00     0.004 C 
ATOM     10  C4' N4B d   1      -4.231  -4.871   2.531  0.00  0.00     0.003 C 
ENDBRANCH   8   9
ENDBRANCH   7   8
ENDBRANCH   1   7
TORSDOF 3
ENDMDL
