MODEL 1
REMARK minimizedAffinity 5.98815775
REMARK minimizedRMSD -1
REMARK  3 active torsions:
REMARK  status: ('A' for Active; 'I' for Inactive)
REMARK    1  A    between atoms: C3'_2  and  C2'_3 
REMARK    2  A    between atoms: C2'_3  and  C1'_4 
REMARK    3  A    between atoms: C1'_4  and  C1_5 
ROOT
ATOM      1  C1  N4B d   1      -4.435  -4.987   3.464  0.00  0.00    -0.075 A 
ATOM      2  C2  N4B d   1      -5.380  -5.988   3.779  0.00  0.00     0.002 A 
ATOM      3  C3  N4B d   1      -5.999  -5.987   5.006  0.00  0.00     0.002 A 
ATOM      4  C4  N4B d   1      -5.675  -5.010   5.936  0.00  0.00    -0.004 A 
ATOM      5  C5  N4B d   1      -4.780  -4.032   5.614  0.00  0.00     0.002 A 
ATOM      6  C6  N4B d   1      -4.154  -4.019   4.384  0.00  0.00     0.002 A 
ENDROOT
BRANCH   1   7
ATOM      7  C1' N4B d   1      -3.670  -4.997   2.169  0.00  0.00     0.057 C 
BRANCH   7   8
ATOM      8  C2' N4B d   1      -3.077  -3.612   1.927  0.00  0.00     0.009 C 
BRANCH   8   9
ATOM      9  C3' N4B d   1      -1.683  -3.687   1.330  0.00  0.00     0.004 C 
ATOM     10  C4' N4B d   1      -0.704  -2.786   2.022  0.00  0.00     0.003 C 
ENDBRANCH   8   9
ENDBRANCH   7   8
ENDBRANCH   1   7
TORSDOF 3
ENDMDL
