MODEL 1
REMARK minimizedAffinity -3.76111627
REMARK minimizedRMSD -1
REMARK  0 active torsions:
REMARK  status: ('A' for Active; 'I' for Inactive)
ROOT
ATOM      1  C   UNL d   1       1.123   0.124   1.548  0.00  0.00     0.172 C 
ATOM      2  N   UNL d   1      -0.007   0.990   1.311  0.00  0.00    -0.070 N 
ATOM      3  C1  UNL d   1      -0.397   2.031   2.111  0.00  0.00    -0.004 A 
ATOM      4  C2  UNL d   1      -1.513   2.605   1.542  0.00  0.00    -0.047 A 
ATOM      5  C3  UNL d   1      -1.805   1.884   0.359  0.00  0.00    -0.047 A 
ATOM      6  C4  UNL d   1      -0.857   0.890   0.240  0.00  0.00    -0.004 A 
ENDROOT
TORSDOF 0
ENDMDL
