MODEL 1
REMARK minimizedAffinity -2.68789268
REMARK minimizedRMSD -1
REMARK  0 active torsions:
REMARK  status: ('A' for Active; 'I' for Inactive)
ROOT
ATOM      1  C   UNL d   1       0.747  -0.750  -1.097  0.00  0.00     0.172 C 
ATOM      2  N   UNL d   1      -0.134   0.279  -0.596  0.00  0.00    -0.070 N 
ATOM      3  C1  UNL d   1      -0.487   1.421  -1.263  0.00  0.00    -0.004 A 
ATOM      4  C2  UNL d   1      -1.338   2.139  -0.450  0.00  0.00    -0.047 A 
ATOM      5  C3  UNL d   1      -1.500   1.402   0.748  0.00  0.00    -0.047 A 
ATOM      6  C4  UNL d   1      -0.744   0.256   0.630  0.00  0.00    -0.004 A 
ENDROOT
TORSDOF 0
ENDMDL
