MODEL 1
REMARK minimizedAffinity -1.88183999
REMARK minimizedRMSD -1
REMARK  0 active torsions:
REMARK  status: ('A' for Active; 'I' for Inactive)
ROOT
ATOM      1  C   UNL d   1       1.286  -5.924  -0.036  0.00  0.00     0.172 C 
ATOM      2  N   UNL d   1       0.576  -4.839  -0.672  0.00  0.00    -0.070 N 
ATOM      3  C1  UNL d   1      -0.702  -4.899  -1.160  0.00  0.00    -0.004 A 
ATOM      4  C2  UNL d   1      -1.011  -3.663  -1.685  0.00  0.00    -0.047 A 
ATOM      5  C3  UNL d   1       0.120  -2.832  -1.507  0.00  0.00    -0.047 A 
ATOM      6  C4  UNL d   1       1.088  -3.585  -0.877  0.00  0.00    -0.004 A 
ENDROOT
TORSDOF 0
ENDMDL
