MODEL 1
REMARK minimizedAffinity -2.46910691
REMARK minimizedRMSD -1
REMARK  0 active torsions:
REMARK  status: ('A' for Active; 'I' for Inactive)
ROOT
ATOM      1  C   UNL d   1      -1.782   1.872   1.127  0.00  0.00     0.172 C 
ATOM      2  N   UNL d   1      -0.938   1.129   0.220  0.00  0.00    -0.070 N 
ATOM      3  C1  UNL d   1      -0.249  -0.013   0.527  0.00  0.00    -0.004 A 
ATOM      4  C2  UNL d   1       0.432  -0.411  -0.604  0.00  0.00    -0.047 A 
ATOM      5  C3  UNL d   1       0.142   0.525  -1.624  0.00  0.00    -0.047 A 
ATOM      6  C4  UNL d   1      -0.708   1.468  -1.087  0.00  0.00    -0.004 A 
ENDROOT
TORSDOF 0
ENDMDL
