MODEL 1
REMARK minimizedAffinity -0.992522955
REMARK minimizedRMSD -1
REMARK  0 active torsions:
REMARK  status: ('A' for Active; 'I' for Inactive)
ROOT
ATOM      1  C   UNL d   1       0.389  -0.762  -0.820  0.00  0.00     0.172 C 
ATOM      2  N   UNL d   1      -0.519   0.347  -0.648  0.00  0.00    -0.070 N 
ATOM      3  C1  UNL d   1      -0.559   1.474  -1.425  0.00  0.00    -0.004 A 
ATOM      4  C2  UNL d   1      -1.560   2.287  -0.938  0.00  0.00    -0.047 A 
ATOM      5  C3  UNL d   1      -2.141   1.626   0.170  0.00  0.00    -0.047 A 
ATOM      6  C4  UNL d   1      -1.478   0.428   0.328  0.00  0.00    -0.004 A 
ENDROOT
TORSDOF 0
ENDMDL
