MODEL 1
REMARK minimizedAffinity -0.759800196
REMARK minimizedRMSD -1
REMARK  0 active torsions:
REMARK  status: ('A' for Active; 'I' for Inactive)
ROOT
ATOM      1  C   UNL d   1       0.624  -0.480   1.170  0.00  0.00     0.172 C 
ATOM      2  N   UNL d   1      -0.085   0.530   0.420  0.00  0.00    -0.070 N 
ATOM      3  C1  UNL d   1      -0.771   1.587   0.956  0.00  0.00    -0.004 A 
ATOM      4  C2  UNL d   1      -1.303   2.316  -0.086  0.00  0.00    -0.047 A 
ATOM      5  C3  UNL d   1      -0.925   1.674  -1.289  0.00  0.00    -0.047 A 
ATOM      6  C4  UNL d   1      -0.171   0.571  -0.946  0.00  0.00    -0.004 A 
ENDROOT
TORSDOF 0
ENDMDL
