MODEL 1
REMARK minimizedAffinity -4.1126647
REMARK minimizedRMSD -1
REMARK  0 active torsions:
REMARK  status: ('A' for Active; 'I' for Inactive)
ROOT
ATOM      1  C   UNL d   1       1.892  -1.854  -0.909  0.00  0.00     0.020 A 
ATOM      2  C1  UNL d   1       0.816  -2.363  -0.184  0.00  0.00     0.020 A 
ATOM      3  C2  UNL d   1      -0.250  -1.530   0.161  0.00  0.00     0.034 A 
ATOM      4  C3  UNL d   1      -0.243  -0.183  -0.219  0.00  0.00     0.017 A 
ATOM      5  C4  UNL d   1       0.838   0.327  -0.947  0.00  0.00     0.017 A 
ATOM      6  C5  UNL d   1       1.903  -0.512  -1.290  0.00  0.00     0.034 A 
ATOM      7 Cl   UNL d   1       0.918   1.978  -1.452  0.00  0.00    -0.070 Cl
ATOM      8 Cl1  UNL d   1      -1.595   0.789   0.242  0.00  0.00    -0.070 Cl
ENDROOT
TORSDOF 0
ENDMDL
