MODEL 1
REMARK minimizedAffinity -4.66865396
REMARK minimizedRMSD -1
REMARK  0 active torsions:
REMARK  status: ('A' for Active; 'I' for Inactive)
ROOT
ATOM      1  C   UNL d   1       3.007  -0.446  -1.309  0.00  0.00     0.020 A 
ATOM      2  C1  UNL d   1       2.634   0.871  -1.041  0.00  0.00     0.020 A 
ATOM      3  C2  UNL d   1       1.376   1.144  -0.499  0.00  0.00     0.034 A 
ATOM      4  C3  UNL d   1       0.487   0.099  -0.223  0.00  0.00     0.017 A 
ATOM      5  C4  UNL d   1       0.863  -1.222  -0.491  0.00  0.00     0.017 A 
ATOM      6  C5  UNL d   1       2.123  -1.490  -1.034  0.00  0.00     0.034 A 
ATOM      7 Cl   UNL d   1      -0.180  -2.565  -0.177  0.00  0.00    -0.070 Cl
ATOM      8 Cl1  UNL d   1      -1.052   0.509   0.448  0.00  0.00    -0.070 Cl
ENDROOT
TORSDOF 0
ENDMDL
