MODEL 1
REMARK minimizedAffinity -4.6466012
REMARK minimizedRMSD -1
REMARK  0 active torsions:
REMARK  status: ('A' for Active; 'I' for Inactive)
ROOT
ATOM      1  C   UNL d   1       1.872  -1.299  -1.302  0.00  0.00     0.020 A 
ATOM      2  C1  UNL d   1       1.484  -1.938  -0.125  0.00  0.00     0.020 A 
ATOM      3  C2  UNL d   1       0.373  -1.477   0.586  0.00  0.00     0.034 A 
ATOM      4  C3  UNL d   1      -0.353  -0.375   0.120  0.00  0.00     0.017 A 
ATOM      5  C4  UNL d   1       0.037   0.265  -1.062  0.00  0.00     0.017 A 
ATOM      6  C5  UNL d   1       1.150  -0.200  -1.769  0.00  0.00     0.034 A 
ATOM      7 Cl   UNL d   1      -0.809   1.631  -1.699  0.00  0.00    -0.070 Cl
ATOM      8 Cl1  UNL d   1      -1.716   0.140   1.049  0.00  0.00    -0.070 Cl
ENDROOT
TORSDOF 0
ENDMDL
