MODEL 1
REMARK minimizedAffinity 7.78735256
REMARK minimizedRMSD -1
REMARK  0 active torsions:
REMARK  status: ('A' for Active; 'I' for Inactive)
ROOT
ATOM      1  C   UNL d   1       0.442   0.388  -1.618  0.00  0.00     0.020 A 
ATOM      2  C1  UNL d   1      -0.604   1.204  -1.190  0.00  0.00     0.020 A 
ATOM      3  C2  UNL d   1      -1.320   0.876  -0.037  0.00  0.00     0.034 A 
ATOM      4  C3  UNL d   1      -0.990  -0.272   0.693  0.00  0.00     0.017 A 
ATOM      5  C4  UNL d   1       0.060  -1.091   0.263  0.00  0.00     0.017 A 
ATOM      6  C5  UNL d   1       0.774  -0.757  -0.893  0.00  0.00     0.034 A 
ATOM      7 Cl   UNL d   1       0.526  -2.523   1.111  0.00  0.00    -0.070 Cl
ATOM      8 Cl1  UNL d   1      -1.917  -0.618   2.110  0.00  0.00    -0.070 Cl
ENDROOT
TORSDOF 0
ENDMDL
