MODEL 1
REMARK minimizedAffinity 0.296140611
REMARK minimizedRMSD -1
REMARK  0 active torsions:
REMARK  status: ('A' for Active; 'I' for Inactive)
ROOT
ATOM      1  C   UNL d   1       5.542   3.360   4.125  0.00  0.00     0.020 A 
ATOM      2  C1  UNL d   1       5.943   3.184   5.449  0.00  0.00     0.020 A 
ATOM      3  C2  UNL d   1       5.994   1.902   5.999  0.00  0.00     0.034 A 
ATOM      4  C3  UNL d   1       5.645   0.789   5.225  0.00  0.00     0.017 A 
ATOM      5  C4  UNL d   1       5.243   0.966   3.896  0.00  0.00     0.017 A 
ATOM      6  C5  UNL d   1       5.193   2.253   3.351  0.00  0.00     0.034 A 
ATOM      7 Cl   UNL d   1       4.796  -0.358   2.879  0.00  0.00    -0.070 Cl
ATOM      8 Cl1  UNL d   1       5.732  -0.767   5.969  0.00  0.00    -0.070 Cl
ENDROOT
TORSDOF 0
ENDMDL
