MODEL 1
REMARK minimizedAffinity 4.0809164
REMARK minimizedRMSD -1
REMARK  0 active torsions:
REMARK  status: ('A' for Active; 'I' for Inactive)
ROOT
ATOM      1  C   UNL d   1       5.434   0.266   4.912  0.00  0.00     0.020 A 
ATOM      2  C1  UNL d   1       4.110   0.077   4.518  0.00  0.00     0.020 A 
ATOM      3  C2  UNL d   1       3.347   1.166   4.090  0.00  0.00     0.034 A 
ATOM      4  C3  UNL d   1       3.907   2.448   4.055  0.00  0.00     0.017 A 
ATOM      5  C4  UNL d   1       5.237   2.636   4.450  0.00  0.00     0.017 A 
ATOM      6  C5  UNL d   1       5.996   1.543   4.878  0.00  0.00     0.034 A 
ATOM      7 Cl   UNL d   1       5.998   4.188   4.433  0.00  0.00    -0.070 Cl
ATOM      8 Cl1  UNL d   1       2.906   3.748   3.514  0.00  0.00    -0.070 Cl
ENDROOT
TORSDOF 0
ENDMDL
