MODEL 1
REMARK minimizedAffinity -0.499858588
REMARK minimizedRMSD -1
REMARK  0 active torsions:
REMARK  status: ('A' for Active; 'I' for Inactive)
ROOT
ATOM      1  C   UNL d   1      -2.280   0.656   1.268  0.00  0.00     0.020 A 
ATOM      2  C1  UNL d   1      -1.033   1.279   1.290  0.00  0.00     0.020 A 
ATOM      3  C2  UNL d   1       0.063   0.669   0.676  0.00  0.00     0.034 A 
ATOM      4  C3  UNL d   1      -0.086  -0.568   0.037  0.00  0.00     0.017 A 
ATOM      5  C4  UNL d   1      -1.338  -1.192   0.016  0.00  0.00     0.017 A 
ATOM      6  C5  UNL d   1      -2.432  -0.577   0.632  0.00  0.00     0.034 A 
ATOM      7 Cl   UNL d   1      -1.600  -2.718  -0.753  0.00  0.00    -0.070 Cl
ATOM      8 Cl1  UNL d   1       1.312  -1.264  -0.702  0.00  0.00    -0.070 Cl
ENDROOT
TORSDOF 0
ENDMDL
