MODEL 1
REMARK minimizedAffinity -2.05322623
REMARK minimizedRMSD -1
REMARK  0 active torsions:
REMARK  status: ('A' for Active; 'I' for Inactive)
ROOT
ATOM      1  C   UNL d   1      -1.696   1.445   3.083  0.00  0.00     0.020 A 
ATOM      2  C1  UNL d   1      -2.196   0.144   3.109  0.00  0.00     0.020 A 
ATOM      3  C2  UNL d   1      -1.914  -0.734   2.060  0.00  0.00     0.034 A 
ATOM      4  C3  UNL d   1      -1.130  -0.311   0.981  0.00  0.00     0.017 A 
ATOM      5  C4  UNL d   1      -0.629   0.995   0.955  0.00  0.00     0.017 A 
ATOM      6  C5  UNL d   1      -0.914   1.870   2.008  0.00  0.00     0.034 A 
ATOM      7 Cl   UNL d   1       0.345   1.589  -0.343  0.00  0.00    -0.070 Cl
ATOM      8 Cl1  UNL d   1      -0.820  -1.450  -0.282  0.00  0.00    -0.070 Cl
ENDROOT
TORSDOF 0
ENDMDL
