MODEL 1
REMARK minimizedAffinity -3.76036239
REMARK minimizedRMSD -1
REMARK  0 active torsions:
REMARK  status: ('A' for Active; 'I' for Inactive)
ROOT
ATOM      1  C   UNL d   1       2.673  -1.481  -0.939  0.00  0.00     0.020 A 
ATOM      2  C1  UNL d   1       1.712  -2.175  -0.205  0.00  0.00     0.020 A 
ATOM      3  C2  UNL d   1       0.531  -1.536   0.179  0.00  0.00     0.034 A 
ATOM      4  C3  UNL d   1       0.309  -0.199  -0.170  0.00  0.00     0.017 A 
ATOM      5  C4  UNL d   1       1.274   0.497  -0.907  0.00  0.00     0.017 A 
ATOM      6  C5  UNL d   1       2.455  -0.148  -1.289  0.00  0.00     0.034 A 
ATOM      7 Cl   UNL d   1       1.071   2.148  -1.376  0.00  0.00    -0.070 Cl
ATOM      8 Cl1  UNL d   1      -1.174   0.529   0.337  0.00  0.00    -0.070 Cl
ENDROOT
TORSDOF 0
ENDMDL
