MODEL 1
REMARK minimizedAffinity 1.11295533
REMARK minimizedRMSD -1
REMARK  0 active torsions:
REMARK  status: ('A' for Active; 'I' for Inactive)
ROOT
ATOM      1  C   UNL d   1       0.517   1.070  -0.489  0.00  0.00     0.020 A 
ATOM      2  C1  UNL d   1      -0.759   1.595  -0.688  0.00  0.00     0.020 A 
ATOM      3  C2  UNL d   1      -1.770   1.345   0.242  0.00  0.00     0.034 A 
ATOM      4  C3  UNL d   1      -1.507   0.568   1.376  0.00  0.00     0.017 A 
ATOM      5  C4  UNL d   1      -0.225   0.042   1.575  0.00  0.00     0.017 A 
ATOM      6  C5  UNL d   1       0.783   0.295   0.641  0.00  0.00     0.034 A 
ATOM      7 Cl   UNL d   1       0.176  -0.926   2.950  0.00  0.00    -0.070 Cl
ATOM      8 Cl1  UNL d   1      -2.804   0.300   2.485  0.00  0.00    -0.070 Cl
ENDROOT
TORSDOF 0
ENDMDL
