MODEL 1
REMARK minimizedAffinity -4.90220928
REMARK minimizedRMSD -1
REMARK  0 active torsions:
REMARK  status: ('A' for Active; 'I' for Inactive)
ROOT
ATOM      1  C   UNL d   1       1.817  -2.025  -0.324  0.00  0.00     0.020 A 
ATOM      2  C1  UNL d   1       2.590  -1.150  -1.087  0.00  0.00     0.020 A 
ATOM      3  C2  UNL d   1       2.087   0.106  -1.433  0.00  0.00     0.034 A 
ATOM      4  C3  UNL d   1       0.808   0.491  -1.016  0.00  0.00     0.017 A 
ATOM      5  C4  UNL d   1       0.033  -0.387  -0.250  0.00  0.00     0.017 A 
ATOM      6  C5  UNL d   1       0.541  -1.643   0.093  0.00  0.00     0.034 A 
ATOM      7 Cl   UNL d   1      -1.554   0.018   0.301  0.00  0.00    -0.070 Cl
ATOM      8 Cl1  UNL d   1       0.251   2.060  -1.480  0.00  0.00    -0.070 Cl
ENDROOT
TORSDOF 0
ENDMDL
