MODEL 1
REMARK minimizedAffinity -6.35596514
REMARK minimizedRMSD -1
REMARK  0 active torsions:
REMARK  status: ('A' for Active; 'I' for Inactive)
ROOT
ATOM      1  C   UNL d   1       3.051  -0.651  -1.800  0.00  0.00     0.020 A 
ATOM      2  C1  UNL d   1       2.613   0.667  -1.672  0.00  0.00     0.020 A 
ATOM      3  C2  UNL d   1       1.402   0.941  -1.032  0.00  0.00     0.034 A 
ATOM      4  C3  UNL d   1       0.625  -0.103  -0.518  0.00  0.00     0.017 A 
ATOM      5  C4  UNL d   1       1.065  -1.425  -0.647  0.00  0.00     0.017 A 
ATOM      6  C5  UNL d   1       2.278  -1.694  -1.289  0.00  0.00     0.034 A 
ATOM      7 Cl   UNL d   1       0.161  -2.767  -0.039  0.00  0.00    -0.070 Cl
ATOM      8 Cl1  UNL d   1      -0.861   0.309   0.261  0.00  0.00    -0.070 Cl
ENDROOT
TORSDOF 0
ENDMDL
