MODEL 1
REMARK minimizedAffinity -2.58564496
REMARK minimizedRMSD -1
REMARK  0 active torsions:
REMARK  status: ('A' for Active; 'I' for Inactive)
ROOT
ATOM      1  C   UNL d   1      -0.840   3.627   1.876  0.00  0.00     0.020 A 
ATOM      2  C1  UNL d   1      -0.509   3.299   0.562  0.00  0.00     0.020 A 
ATOM      3  C2  UNL d   1      -0.800   2.026   0.066  0.00  0.00     0.034 A 
ATOM      4  C3  UNL d   1      -1.423   1.077   0.884  0.00  0.00     0.017 A 
ATOM      5  C4  UNL d   1      -1.755   1.407   2.203  0.00  0.00     0.017 A 
ATOM      6  C5  UNL d   1      -1.461   2.683   2.695  0.00  0.00     0.034 A 
ATOM      7 Cl   UNL d   1      -2.525   0.289   3.273  0.00  0.00    -0.070 Cl
ATOM      8 Cl1  UNL d   1      -1.753  -0.477   0.205  0.00  0.00    -0.070 Cl
ENDROOT
TORSDOF 0
ENDMDL
