MODEL 1
REMARK minimizedAffinity -3.61098194
REMARK minimizedRMSD -1
REMARK  0 active torsions:
REMARK  status: ('A' for Active; 'I' for Inactive)
ROOT
ATOM      1  C   UNL d   1       2.112  -1.175  -0.986  0.00  0.00     0.020 A 
ATOM      2  C1  UNL d   1       1.147  -1.804  -0.201  0.00  0.00     0.020 A 
ATOM      3  C2  UNL d   1      -0.024  -1.126   0.143  0.00  0.00     0.034 A 
ATOM      4  C3  UNL d   1      -0.233   0.186  -0.298  0.00  0.00     0.017 A 
ATOM      5  C4  UNL d   1       0.737   0.817  -1.085  0.00  0.00     0.017 A 
ATOM      6  C5  UNL d   1       1.907   0.133  -1.427  0.00  0.00     0.034 A 
ATOM      7 Cl   UNL d   1       0.550   2.434  -1.667  0.00  0.00    -0.070 Cl
ATOM      8 Cl1  UNL d   1      -1.704   0.964   0.166  0.00  0.00    -0.070 Cl
ENDROOT
TORSDOF 0
ENDMDL
