MODEL 1
REMARK minimizedAffinity -3.24640751
REMARK minimizedRMSD -1
REMARK  0 active torsions:
REMARK  status: ('A' for Active; 'I' for Inactive)
ROOT
ATOM      1  C   UNL d   1       1.218  -2.068  -0.016  0.00  0.00     0.020 A 
ATOM      2  C1  UNL d   1       2.200  -1.433  -0.774  0.00  0.00     0.020 A 
ATOM      3  C2  UNL d   1       2.049  -0.090  -1.128  0.00  0.00     0.034 A 
ATOM      4  C3  UNL d   1       0.914   0.621  -0.723  0.00  0.00     0.017 A 
ATOM      5  C4  UNL d   1      -0.071  -0.018   0.039  0.00  0.00     0.017 A 
ATOM      6  C5  UNL d   1       0.085  -1.362   0.390  0.00  0.00     0.034 A 
ATOM      7 Cl   UNL d   1      -1.500   0.794   0.576  0.00  0.00    -0.070 Cl
ATOM      8 Cl1  UNL d   1       0.793   2.278  -1.196  0.00  0.00    -0.070 Cl
ENDROOT
TORSDOF 0
ENDMDL
