MODEL 1
REMARK minimizedAffinity 4.46415186
REMARK minimizedRMSD -1
REMARK  0 active torsions:
REMARK  status: ('A' for Active; 'I' for Inactive)
ROOT
ATOM      1  C2' OXE d   1       4.985  -0.966   2.188  0.00  0.00     0.078 C 
ATOM      2  C1' OXE d   1       4.314   1.479   0.981  0.00  0.00     0.078 C 
ATOM      3  C1  OXE d   1       3.515   0.260   0.592  0.00  0.00    -0.078 A 
ATOM      4  C2  OXE d   1       3.881  -0.941   1.152  0.00  0.00    -0.078 A 
ATOM      5  C3  OXE d   1       3.143  -2.087   0.869  0.00  0.00     0.003 A 
ATOM      6  C4  OXE d   1       2.130  -2.057  -0.097  0.00  0.00    -0.002 A 
ATOM      7  C5  OXE d   1       1.768  -0.852  -0.709  0.00  0.00    -0.002 A 
ATOM      8  C6  OXE d   1       2.421   0.320  -0.345  0.00  0.00     0.003 A 
ENDROOT
TORSDOF 0
ENDMDL
