MODEL 1
REMARK minimizedAffinity 2.59426427
REMARK minimizedRMSD -1
REMARK  0 active torsions:
REMARK  status: ('A' for Active; 'I' for Inactive)
ROOT
ATOM      1  C2' OXE d   1      -0.511  -1.423   0.101  0.00  0.00     0.078 C 
ATOM      2  C1' OXE d   1       0.431   1.189   0.513  0.00  0.00     0.078 C 
ATOM      3  C1  OXE d   1       1.384   0.183  -0.083  0.00  0.00    -0.078 A 
ATOM      4  C2  OXE d   1       0.929  -1.104  -0.238  0.00  0.00    -0.078 A 
ATOM      5  C3  OXE d   1       1.749  -2.058  -0.834  0.00  0.00     0.003 A 
ATOM      6  C4  OXE d   1       3.083  -1.758  -1.135  0.00  0.00    -0.002 A 
ATOM      7  C5  OXE d   1       3.579  -0.463  -0.948  0.00  0.00    -0.002 A 
ATOM      8  C6  OXE d   1       2.732   0.528  -0.464  0.00  0.00     0.003 A 
ENDROOT
TORSDOF 0
ENDMDL
