MODEL 1
REMARK minimizedAffinity -0.7058236
REMARK minimizedRMSD -1
REMARK  0 active torsions:
REMARK  status: ('A' for Active; 'I' for Inactive)
ROOT
ATOM      1  C2' OXE d   1       3.803   1.919  -0.503  0.00  0.00     0.078 C 
ATOM      2  C1' OXE d   1       1.246   0.805  -0.185  0.00  0.00     0.078 C 
ATOM      3  C1  OXE d   1       1.745   1.740   0.889  0.00  0.00    -0.078 A 
ATOM      4  C2  OXE d   1       3.016   2.244   0.748  0.00  0.00    -0.078 A 
ATOM      5  C3  OXE d   1       3.504   3.154   1.681  0.00  0.00     0.003 A 
ATOM      6  C4  OXE d   1       2.773   3.441   2.841  0.00  0.00    -0.002 A 
ATOM      7  C5  OXE d   1       1.493   2.908   3.023  0.00  0.00    -0.002 A 
ATOM      8  C6  OXE d   1       0.948   2.091   2.038  0.00  0.00     0.003 A 
ENDROOT
TORSDOF 0
ENDMDL
