MODEL 1
REMARK minimizedAffinity 5.27648067
REMARK minimizedRMSD -1
REMARK  0 active torsions:
REMARK  status: ('A' for Active; 'I' for Inactive)
ROOT
ATOM      1  C2' OXE d   1       3.030  -0.201  -0.869  0.00  0.00     0.078 C 
ATOM      2  C1' OXE d   1       2.018   1.984   0.575  0.00  0.00     0.078 C 
ATOM      3  C1  OXE d   1       3.394   2.116  -0.029  0.00  0.00    -0.078 A 
ATOM      4  C2  OXE d   1       3.900   1.025  -0.694  0.00  0.00    -0.078 A 
ATOM      5  C3  OXE d   1       5.141   1.113  -1.317  0.00  0.00     0.003 A 
ATOM      6  C4  OXE d   1       5.944   2.246  -1.142  0.00  0.00    -0.002 A 
ATOM      7  C5  OXE d   1       5.464   3.354  -0.435  0.00  0.00    -0.002 A 
ATOM      8  C6  OXE d   1       4.177   3.321   0.091  0.00  0.00     0.003 A 
ENDROOT
TORSDOF 0
ENDMDL
