MODEL 1
REMARK minimizedAffinity 2.94340968
REMARK minimizedRMSD -1
REMARK  0 active torsions:
REMARK  status: ('A' for Active; 'I' for Inactive)
ROOT
ATOM      1  C2' OXE d   1       3.885   2.614   0.306  0.00  0.00     0.078 C 
ATOM      2  C1' OXE d   1       4.007   3.287   3.029  0.00  0.00     0.078 C 
ATOM      3  C1  OXE d   1       2.729   2.674   2.513  0.00  0.00    -0.078 A 
ATOM      4  C2  OXE d   1       2.662   2.391   1.170  0.00  0.00    -0.078 A 
ATOM      5  C3  OXE d   1       1.526   1.775   0.652  0.00  0.00     0.003 A 
ATOM      6  C4  OXE d   1       0.396   1.581   1.455  0.00  0.00    -0.002 A 
ATOM      7  C5  OXE d   1       0.430   1.899   2.817  0.00  0.00    -0.002 A 
ATOM      8  C6  OXE d   1       1.601   2.406   3.369  0.00  0.00     0.003 A 
ENDROOT
TORSDOF 0
ENDMDL
