MODEL 1
REMARK minimizedAffinity 9.42602825
REMARK minimizedRMSD -1
REMARK  0 active torsions:
REMARK  status: ('A' for Active; 'I' for Inactive)
ROOT
ATOM      1  C2' OXE d   1       1.031   2.409   4.170  0.00  0.00     0.078 C 
ATOM      2  C1' OXE d   1       3.590   3.317   3.457  0.00  0.00     0.078 C 
ATOM      3  C1  OXE d   1       2.721   2.736   2.369  0.00  0.00    -0.078 A 
ATOM      4  C2  OXE d   1       1.488   2.252   2.736  0.00  0.00    -0.078 A 
ATOM      5  C3  OXE d   1       0.625   1.756   1.763  0.00  0.00     0.003 A 
ATOM      6  C4  OXE d   1       1.060   1.605   0.441  0.00  0.00    -0.002 A 
ATOM      7  C5  OXE d   1       2.326   2.056   0.054  0.00  0.00    -0.002 A 
ATOM      8  C6  OXE d   1       3.151   2.661   0.995  0.00  0.00     0.003 A 
ENDROOT
TORSDOF 0
ENDMDL
