MODEL 1
REMARK minimizedAffinity 14.6901445
REMARK minimizedRMSD -1
REMARK  0 active torsions:
REMARK  status: ('A' for Active; 'I' for Inactive)
ROOT
ATOM      1  C2' OXE d   1       0.853  -3.459  -0.567  0.00  0.00     0.078 C 
ATOM      2  C1' OXE d   1      -0.267  -2.555  -2.977  0.00  0.00     0.078 C 
ATOM      3  C1  OXE d   1      -0.894  -3.758  -2.317  0.00  0.00    -0.078 A 
ATOM      4  C2  OXE d   1      -0.311  -4.222  -1.163  0.00  0.00    -0.078 A 
ATOM      5  C3  OXE d   1      -0.882  -5.294  -0.484  0.00  0.00     0.003 A 
ATOM      6  C4  OXE d   1      -1.953  -6.000  -1.047  0.00  0.00    -0.002 A 
ATOM      7  C5  OXE d   1      -2.537  -5.568  -2.243  0.00  0.00    -0.002 A 
ATOM      8  C6  OXE d   1      -2.048  -4.426  -2.867  0.00  0.00     0.003 A 
ENDROOT
TORSDOF 0
ENDMDL
