MODEL 1
REMARK minimizedAffinity -0.884452701
REMARK minimizedRMSD -1
REMARK  0 active torsions:
REMARK  status: ('A' for Active; 'I' for Inactive)
ROOT
ATOM      1  C2' OXE d   1       2.268  -2.278  -0.261  0.00  0.00     0.078 C 
ATOM      2  C1' OXE d   1      -0.370  -2.842  -1.039  0.00  0.00     0.078 C 
ATOM      3  C1  OXE d   1      -0.027  -1.413  -0.700  0.00  0.00    -0.078 A 
ATOM      4  C2  OXE d   1       1.254  -1.154  -0.276  0.00  0.00    -0.078 A 
ATOM      5  C3  OXE d   1       1.639   0.156  -0.003  0.00  0.00     0.003 A 
ATOM      6  C4  OXE d   1       0.693   1.188  -0.010  0.00  0.00    -0.002 A 
ATOM      7  C5  OXE d   1      -0.627   0.939  -0.401  0.00  0.00    -0.002 A 
ATOM      8  C6  OXE d   1      -0.992  -0.345  -0.789  0.00  0.00     0.003 A 
ENDROOT
TORSDOF 0
ENDMDL
