MODEL 1
REMARK minimizedAffinity 0.211368203
REMARK minimizedRMSD -1
REMARK  0 active torsions:
REMARK  status: ('A' for Active; 'I' for Inactive)
ROOT
ATOM      1  C2' OXE d   1       1.942   0.764   0.043  0.00  0.00     0.078 C 
ATOM      2  C1' OXE d   1       0.844  -1.809  -0.199  0.00  0.00     0.078 C 
ATOM      3  C1  OXE d   1       2.162  -1.539  -0.881  0.00  0.00    -0.078 A 
ATOM      4  C2  OXE d   1       2.669  -0.265  -0.797  0.00  0.00    -0.078 A 
ATOM      5  C3  OXE d   1       3.908   0.023  -1.362  0.00  0.00     0.003 A 
ATOM      6  C4  OXE d   1       4.568  -0.931  -2.146  0.00  0.00    -0.002 A 
ATOM      7  C5  OXE d   1       4.050  -2.223  -2.277  0.00  0.00    -0.002 A 
ATOM      8  C6  OXE d   1       2.872  -2.556  -1.618  0.00  0.00     0.003 A 
ENDROOT
TORSDOF 0
ENDMDL
