MODEL 1
REMARK minimizedAffinity 0.289983064
REMARK minimizedRMSD -1
REMARK  0 active torsions:
REMARK  status: ('A' for Active; 'I' for Inactive)
ROOT
ATOM      1  C2' OXE d   1       3.790   1.390  -0.481  0.00  0.00     0.078 C 
ATOM      2  C1' OXE d   1       1.171   0.940   0.424  0.00  0.00     0.078 C 
ATOM      3  C1  OXE d   1       1.919  -0.226  -0.174  0.00  0.00    -0.078 A 
ATOM      4  C2  OXE d   1       3.183   0.015  -0.657  0.00  0.00    -0.078 A 
ATOM      5  C3  OXE d   1       3.937  -1.037  -1.168  0.00  0.00     0.003 A 
ATOM      6  C4  OXE d   1       3.365  -2.304  -1.337  0.00  0.00    -0.002 A 
ATOM      7  C5  OXE d   1       2.065  -2.560  -0.888  0.00  0.00    -0.002 A 
ATOM      8  C6  OXE d   1       1.345  -1.545  -0.267  0.00  0.00     0.003 A 
ENDROOT
TORSDOF 0
ENDMDL
