MODEL 1
REMARK minimizedAffinity 1.33937776
REMARK minimizedRMSD -1
REMARK  0 active torsions:
REMARK  status: ('A' for Active; 'I' for Inactive)
ROOT
ATOM      1  C2' OXE d   1       1.102   0.755   0.204  0.00  0.00     0.078 C 
ATOM      2  C1' OXE d   1       2.776  -1.496   0.291  0.00  0.00     0.078 C 
ATOM      3  C1  OXE d   1       1.400  -1.665  -0.303  0.00  0.00    -0.078 A 
ATOM      4  C2  OXE d   1       0.571  -0.570  -0.299  0.00  0.00    -0.078 A 
ATOM      5  C3  OXE d   1      -0.689  -0.657  -0.884  0.00  0.00     0.003 A 
ATOM      6  C4  OXE d   1      -1.176  -1.888  -1.338  0.00  0.00    -0.002 A 
ATOM      7  C5  OXE d   1      -0.362  -3.026  -1.315  0.00  0.00    -0.002 A 
ATOM      8  C6  OXE d   1       0.941  -2.922  -0.841  0.00  0.00     0.003 A 
ENDROOT
TORSDOF 0
ENDMDL
