MODEL 1
REMARK minimizedAffinity -0.923884153
REMARK minimizedRMSD -1
REMARK  0 active torsions:
REMARK  status: ('A' for Active; 'I' for Inactive)
ROOT
ATOM      1  C2' OXE d   1       2.835   1.369   0.077  0.00  0.00     0.078 C 
ATOM      2  C1' OXE d   1       2.874   2.291   2.728  0.00  0.00     0.078 C 
ATOM      3  C1  OXE d   1       1.557   2.316   1.994  0.00  0.00    -0.078 A 
ATOM      4  C2  OXE d   1       1.556   1.906   0.683  0.00  0.00    -0.078 A 
ATOM      5  C3  OXE d   1       0.357   1.857  -0.024  0.00  0.00     0.003 A 
ATOM      6  C4  OXE d   1      -0.819   2.366   0.540  0.00  0.00    -0.002 A 
ATOM      7  C5  OXE d   1      -0.832   2.824   1.862  0.00  0.00    -0.002 A 
ATOM      8  C6  OXE d   1       0.335   2.767   2.615  0.00  0.00     0.003 A 
ENDROOT
TORSDOF 0
ENDMDL
