MODEL 1
REMARK minimizedAffinity -4.03222942
REMARK minimizedRMSD -1
REMARK  0 active torsions:
REMARK  status: ('A' for Active; 'I' for Inactive)
ROOT
ATOM      1  C2' OXE d   1      -1.820   0.668   0.344  0.00  0.00     0.078 C 
ATOM      2  C1' OXE d   1       0.632  -0.242  -0.676  0.00  0.00     0.078 C 
ATOM      3  C1  OXE d   1       0.516  -0.058   0.817  0.00  0.00    -0.078 A 
ATOM      4  C2  OXE d   1      -0.672   0.432   1.303  0.00  0.00    -0.078 A 
ATOM      5  C3  OXE d   1      -0.851   0.569   2.676  0.00  0.00     0.003 A 
ATOM      6  C4  OXE d   1       0.218   0.358   3.555  0.00  0.00    -0.002 A 
ATOM      7  C5  OXE d   1       1.449  -0.104   3.077  0.00  0.00    -0.002 A 
ATOM      8  C6  OXE d   1       1.601  -0.357   1.718  0.00  0.00     0.003 A 
ENDROOT
TORSDOF 0
ENDMDL
