MODEL 1
REMARK minimizedAffinity -2.46379685
REMARK minimizedRMSD -1
REMARK  0 active torsions:
REMARK  status: ('A' for Active; 'I' for Inactive)
ROOT
ATOM      1  C2' OXE d   1       1.936   0.513   1.299  0.00  0.00     0.078 C 
ATOM      2  C1' OXE d   1       0.785  -0.477  -1.062  0.00  0.00     0.078 C 
ATOM      3  C1  OXE d   1      -0.143  -0.072   0.056  0.00  0.00    -0.078 A 
ATOM      4  C2  OXE d   1       0.431   0.368   1.225  0.00  0.00    -0.078 A 
ATOM      5  C3  OXE d   1      -0.379   0.806   2.269  0.00  0.00     0.003 A 
ATOM      6  C4  OXE d   1      -1.770   0.659   2.196  0.00  0.00    -0.002 A 
ATOM      7  C5  OXE d   1      -2.373   0.176   1.029  0.00  0.00    -0.002 A 
ATOM      8  C6  OXE d   1      -1.577  -0.153  -0.063  0.00  0.00     0.003 A 
ENDROOT
TORSDOF 0
ENDMDL
