MODEL 1
REMARK minimizedAffinity -3.75436282
REMARK minimizedRMSD -1
REMARK  0 active torsions:
REMARK  status: ('A' for Active; 'I' for Inactive)
ROOT
ATOM      1  C2' OXE d   1      -1.361   0.469   2.305  0.00  0.00     0.078 C 
ATOM      2  C1' OXE d   1       0.962  -0.216   3.725  0.00  0.00     0.078 C 
ATOM      3  C1  OXE d   1       0.971  -0.404   2.228  0.00  0.00    -0.078 A 
ATOM      4  C2  OXE d   1      -0.186  -0.111   1.547  0.00  0.00    -0.078 A 
ATOM      5  C3  OXE d   1      -0.214  -0.215   0.160  0.00  0.00     0.003 A 
ATOM      6  C4  OXE d   1       0.874  -0.761  -0.533  0.00  0.00    -0.002 A 
ATOM      7  C5  OXE d   1       2.048  -1.104   0.147  0.00  0.00    -0.002 A 
ATOM      8  C6  OXE d   1       2.128  -0.892   1.519  0.00  0.00     0.003 A 
ENDROOT
TORSDOF 0
ENDMDL
