MODEL 1
REMARK minimizedAffinity -3.20600271
REMARK minimizedRMSD -1
REMARK  0 active torsions:
REMARK  status: ('A' for Active; 'I' for Inactive)
ROOT
ATOM      1  C2' OXE d   1       3.126   0.320  -2.880  0.00  0.00     0.078 C 
ATOM      2  C1' OXE d   1       1.366  -1.350  -1.470  0.00  0.00     0.078 C 
ATOM      3  C1  OXE d   1       0.832  -0.631  -2.683  0.00  0.00    -0.078 A 
ATOM      4  C2  OXE d   1       1.687   0.220  -3.340  0.00  0.00    -0.078 A 
ATOM      5  C3  OXE d   1       1.263   0.867  -4.497  0.00  0.00     0.003 A 
ATOM      6  C4  OXE d   1      -0.072   0.777  -4.910  0.00  0.00    -0.002 A 
ATOM      7  C5  OXE d   1      -0.971  -0.054  -4.232  0.00  0.00    -0.002 A 
ATOM      8  C6  OXE d   1      -0.524  -0.796  -3.144  0.00  0.00     0.003 A 
ENDROOT
TORSDOF 0
ENDMDL
