MODEL 1
REMARK minimizedAffinity -0.796124756
REMARK minimizedRMSD -1
REMARK  0 active torsions:
REMARK  status: ('A' for Active; 'I' for Inactive)
ROOT
ATOM      1  C2' OXE d   1       0.617  -0.293  -0.613  0.00  0.00     0.078 C 
ATOM      2  C1' OXE d   1       2.548  -0.767   1.368  0.00  0.00     0.078 C 
ATOM      3  C1  OXE d   1       1.183  -0.305   1.813  0.00  0.00    -0.078 A 
ATOM      4  C2  OXE d   1       0.258  -0.031   0.833  0.00  0.00    -0.078 A 
ATOM      5  C3  OXE d   1      -1.033   0.346   1.190  0.00  0.00     0.003 A 
ATOM      6  C4  OXE d   1      -1.354   0.596   2.530  0.00  0.00    -0.002 A 
ATOM      7  C5  OXE d   1      -0.415   0.361   3.541  0.00  0.00    -0.002 A 
ATOM      8  C6  OXE d   1       0.841  -0.130   3.203  0.00  0.00     0.003 A 
ENDROOT
TORSDOF 0
ENDMDL
