MODEL 1
REMARK minimizedAffinity -3.46142983
REMARK minimizedRMSD -1
REMARK  0 active torsions:
REMARK  status: ('A' for Active; 'I' for Inactive)
ROOT
ATOM      1  C2' OXE d   1       0.749  -0.363  -0.492  0.00  0.00     0.078 C 
ATOM      2  C1' OXE d   1       1.874   0.048   2.046  0.00  0.00     0.078 C 
ATOM      3  C1  OXE d   1       0.396   0.302   1.883  0.00  0.00    -0.078 A 
ATOM      4  C2  OXE d   1      -0.137   0.143   0.626  0.00  0.00    -0.078 A 
ATOM      5  C3  OXE d   1      -1.505   0.311   0.431  0.00  0.00     0.003 A 
ATOM      6  C4  OXE d   1      -2.315   0.789   1.469  0.00  0.00    -0.002 A 
ATOM      7  C5  OXE d   1      -1.784   0.995   2.746  0.00  0.00    -0.002 A 
ATOM      8  C6  OXE d   1      -0.442   0.716   2.980  0.00  0.00     0.003 A 
ENDROOT
TORSDOF 0
ENDMDL
