MODEL 1
REMARK minimizedAffinity -4.39778376
REMARK minimizedRMSD -1
REMARK  0 active torsions:
REMARK  status: ('A' for Active; 'I' for Inactive)
ROOT
ATOM      1  C2' OXE d   1       2.159  -0.758   0.974  0.00  0.00     0.078 C 
ATOM      2  C1' OXE d   1      -0.088  -1.182  -0.655  0.00  0.00     0.078 C 
ATOM      3  C1  OXE d   1      -0.218  -0.198   0.481  0.00  0.00    -0.078 A 
ATOM      4  C2  OXE d   1       0.872  -0.032   1.302  0.00  0.00    -0.078 A 
ATOM      5  C3  OXE d   1       0.823   0.904   2.331  0.00  0.00     0.003 A 
ATOM      6  C4  OXE d   1      -0.374   1.564   2.633  0.00  0.00    -0.002 A 
ATOM      7  C5  OXE d   1      -1.507   1.379   1.835  0.00  0.00    -0.002 A 
ATOM      8  C6  OXE d   1      -1.434   0.535   0.732  0.00  0.00     0.003 A 
ENDROOT
TORSDOF 0
ENDMDL
