MODEL 1
REMARK minimizedAffinity -3.94308448
REMARK minimizedRMSD -1
REMARK  0 active torsions:
REMARK  status: ('A' for Active; 'I' for Inactive)
ROOT
ATOM      1  C2' OXE d   1      -0.809   2.039   2.363  0.00  0.00     0.078 C 
ATOM      2  C1' OXE d   1      -1.801  -0.559   2.744  0.00  0.00     0.078 C 
ATOM      3  C1  OXE d   1      -1.058  -0.271   1.463  0.00  0.00    -0.078 A 
ATOM      4  C2  OXE d   1      -0.616   1.015   1.265  0.00  0.00    -0.078 A 
ATOM      5  C3  OXE d   1       0.122   1.322   0.125  0.00  0.00     0.003 A 
ATOM      6  C4  OXE d   1       0.287   0.372  -0.890  0.00  0.00    -0.002 A 
ATOM      7  C5  OXE d   1      -0.190  -0.933  -0.725  0.00  0.00    -0.002 A 
ATOM      8  C6  OXE d   1      -0.826  -1.281   0.461  0.00  0.00     0.003 A 
ENDROOT
TORSDOF 0
ENDMDL
