MODEL 1
REMARK minimizedAffinity -0.88056916
REMARK minimizedRMSD -1
REMARK  0 active torsions:
REMARK  status: ('A' for Active; 'I' for Inactive)
ROOT
ATOM      1  C2' OXE d   1       0.806  -0.796  -1.276  0.00  0.00     0.078 C 
ATOM      2  C1' OXE d   1       2.329   0.725  -3.077  0.00  0.00     0.078 C 
ATOM      3  C1  OXE d   1       0.916   0.375  -3.472  0.00  0.00    -0.078 A 
ATOM      4  C2  OXE d   1       0.194  -0.409  -2.605  0.00  0.00    -0.078 A 
ATOM      5  C3  OXE d   1      -1.133  -0.716  -2.895  0.00  0.00     0.003 A 
ATOM      6  C4  OXE d   1      -1.688  -0.363  -4.131  0.00  0.00    -0.002 A 
ATOM      7  C5  OXE d   1      -0.956   0.402  -5.045  0.00  0.00    -0.002 A 
ATOM      8  C6  OXE d   1       0.330   0.814  -4.714  0.00  0.00     0.003 A 
ENDROOT
TORSDOF 0
ENDMDL
