MODEL 1
REMARK minimizedAffinity -5.37156534
REMARK minimizedRMSD -1
REMARK  0 active torsions:
REMARK  status: ('A' for Active; 'I' for Inactive)
ROOT
ATOM      1  C2' OXE d   1      -1.999   0.323   0.499  0.00  0.00     0.078 C 
ATOM      2  C1' OXE d   1      -0.674   1.440   2.708  0.00  0.00     0.078 C 
ATOM      3  C1  OXE d   1       0.073   0.426   1.879  0.00  0.00    -0.078 A 
ATOM      4  C2  OXE d   1      -0.599  -0.150   0.827  0.00  0.00    -0.078 A 
ATOM      5  C3  OXE d   1       0.062  -1.052  -0.002  0.00  0.00     0.003 A 
ATOM      6  C4  OXE d   1       1.353  -1.492   0.314  0.00  0.00    -0.002 A 
ATOM      7  C5  OXE d   1       2.041  -0.947   1.404  0.00  0.00    -0.002 A 
ATOM      8  C6  OXE d   1       1.432   0.042   2.169  0.00  0.00     0.003 A 
ENDROOT
TORSDOF 0
ENDMDL
