MODEL 1
REMARK minimizedAffinity -3.83835244
REMARK minimizedRMSD -1
REMARK  0 active torsions:
REMARK  status: ('A' for Active; 'I' for Inactive)
ROOT
ATOM      1  C2' OXE d   1      -2.433   0.354   1.100  0.00  0.00     0.078 C 
ATOM      2  C1' OXE d   1      -0.421  -0.939  -0.370  0.00  0.00     0.078 C 
ATOM      3  C1  OXE d   1       0.000  -0.092   0.805  0.00  0.00    -0.078 A 
ATOM      4  C2  OXE d   1      -0.987   0.574   1.490  0.00  0.00    -0.078 A 
ATOM      5  C3  OXE d   1      -0.659   1.325   2.615  0.00  0.00     0.003 A 
ATOM      6  C4  OXE d   1       0.681   1.531   2.963  0.00  0.00    -0.002 A 
ATOM      7  C5  OXE d   1       1.705   0.894   2.255  0.00  0.00    -0.002 A 
ATOM      8  C6  OXE d   1       1.380   0.046   1.201  0.00  0.00     0.003 A 
ENDROOT
TORSDOF 0
ENDMDL
