MODEL 1
REMARK minimizedAffinity 8.10683632
REMARK minimizedRMSD -1
REMARK  1 active torsions:
REMARK  status: ('A' for Active; 'I' for Inactive)
REMARK    1  A    between atoms: N_2  and  C1_3 
ROOT
ATOM      1  C1  UNL d   1      -2.806   2.877  -2.389  0.00  0.00     0.143 A 
ATOM      2  C2  UNL d   1      -3.782   1.880  -2.486  0.00  0.00    -0.057 A 
ATOM      3  C3  UNL d   1      -5.032   2.024  -1.871  0.00  0.00     0.033 A 
ATOM      4  C4  UNL d   1      -5.317   3.160  -1.121  0.00  0.00    -0.042 A 
ATOM      5  C5  UNL d   1      -4.353   4.154  -0.990  0.00  0.00     0.033 A 
ATOM      6  C6  UNL d   1      -3.110   4.006  -1.612  0.00  0.00    -0.057 A 
ENDROOT
BRANCH   1   7
ATOM      7  N   UNL d   1      -1.510   2.749  -2.895  0.00  0.00    -0.732 N 
ATOM      8  C   UNL d   1      -0.392   2.517  -2.007  0.00  0.00     0.284 C 
ATOM      9  H3  UNL d   1      -1.481   2.203  -3.753  0.00  0.00     0.395 HD
ENDBRANCH   1   7
TORSDOF 1
ENDMDL
