MODEL 1
REMARK minimizedAffinity 7.3852644
REMARK minimizedRMSD -1
REMARK  1 active torsions:
REMARK  status: ('A' for Active; 'I' for Inactive)
REMARK    1  A    between atoms: N_2  and  C1_3 
ROOT
ATOM      1  C1  UNL d   1      -4.241  -4.468   0.625  0.00  0.00     0.143 A 
ATOM      2  C2  UNL d   1      -2.980  -4.431   1.229  0.00  0.00    -0.057 A 
ATOM      3  C3  UNL d   1      -2.748  -3.668   2.380  0.00  0.00     0.033 A 
ATOM      4  C4  UNL d   1      -3.770  -2.904   2.933  0.00  0.00    -0.042 A 
ATOM      5  C5  UNL d   1      -5.026  -2.906   2.335  0.00  0.00     0.033 A 
ATOM      6  C6  UNL d   1      -5.252  -3.675   1.189  0.00  0.00    -0.057 A 
ENDROOT
BRANCH   1   7
ATOM      7  N   UNL d   1      -4.509  -5.129  -0.577  0.00  0.00    -0.732 N 
ATOM      8  C   UNL d   1      -5.659  -5.999  -0.699  0.00  0.00     0.284 C 
ATOM      9  H3  UNL d   1      -4.346  -4.538  -1.389  0.00  0.00     0.395 HD
ENDBRANCH   1   7
TORSDOF 1
ENDMDL
