MODEL 1
REMARK minimizedAffinity 11.8195381
REMARK minimizedRMSD -1
REMARK  1 active torsions:
REMARK  status: ('A' for Active; 'I' for Inactive)
REMARK    1  A    between atoms: N_2  and  C1_3 
ROOT
ATOM      1  C1  UNL d   1      -1.864   3.570  -3.664  0.00  0.00     0.143 A 
ATOM      2  C2  UNL d   1      -3.001   2.950  -3.136  0.00  0.00    -0.057 A 
ATOM      3  C3  UNL d   1      -2.921   2.129  -2.005  0.00  0.00     0.033 A 
ATOM      4  C4  UNL d   1      -1.692   1.888  -1.398  0.00  0.00    -0.042 A 
ATOM      5  C5  UNL d   1      -0.545   2.474  -1.921  0.00  0.00     0.033 A 
ATOM      6  C6  UNL d   1      -0.633   3.299  -3.047  0.00  0.00    -0.057 A 
ENDROOT
BRANCH   1   7
ATOM      7  N   UNL d   1      -1.863   4.318  -4.844  0.00  0.00    -0.732 N 
ATOM      8  C   UNL d   1      -2.616   3.876  -5.998  0.00  0.00     0.284 C 
ATOM      9  H3  UNL d   1      -1.920   5.319  -4.669  0.00  0.00     0.395 HD
ENDBRANCH   1   7
TORSDOF 1
ENDMDL
