MODEL 1
REMARK minimizedAffinity 11.8899517
REMARK minimizedRMSD -1
REMARK  1 active torsions:
REMARK  status: ('A' for Active; 'I' for Inactive)
REMARK    1  A    between atoms: N_2  and  C1_3 
ROOT
ATOM      1  C1  UNL d   1      -0.376  -0.855   3.761  0.00  0.00     0.143 A 
ATOM      2  C2  UNL d   1       0.680  -0.839   2.844  0.00  0.00    -0.057 A 
ATOM      3  C3  UNL d   1       0.641  -1.614   1.678  0.00  0.00     0.033 A 
ATOM      4  C4  UNL d   1      -0.446  -2.443   1.423  0.00  0.00    -0.042 A 
ATOM      5  C5  UNL d   1      -1.495  -2.495   2.334  0.00  0.00     0.033 A 
ATOM      6  C6  UNL d   1      -1.453  -1.714   3.493  0.00  0.00    -0.057 A 
ENDROOT
BRANCH   1   7
ATOM      7  N   UNL d   1      -0.352  -0.183   4.986  0.00  0.00    -0.732 N 
ATOM      8  C   UNL d   1      -1.349  -0.460   5.998  0.00  0.00     0.284 C 
ATOM      9  H3  UNL d   1       0.591  -0.074   5.351  0.00  0.00     0.395 HD
ENDBRANCH   1   7
TORSDOF 1
ENDMDL
