MODEL 1
REMARK minimizedAffinity 4.88764429
REMARK minimizedRMSD -1
REMARK  1 active torsions:
REMARK  status: ('A' for Active; 'I' for Inactive)
REMARK    1  A    between atoms: N_2  and  C1_3 
ROOT
ATOM      1  C1  UNL d   1      -0.846  -1.979   3.606  0.00  0.00     0.143 A 
ATOM      2  C2  UNL d   1      -0.490  -0.942   4.474  0.00  0.00    -0.057 A 
ATOM      3  C3  UNL d   1       0.628  -0.137   4.224  0.00  0.00     0.033 A 
ATOM      4  C4  UNL d   1       1.429  -0.376   3.112  0.00  0.00    -0.042 A 
ATOM      5  C5  UNL d   1       1.108  -1.417   2.249  0.00  0.00     0.033 A 
ATOM      6  C6  UNL d   1      -0.014  -2.213   2.501  0.00  0.00    -0.057 A 
ENDROOT
BRANCH   1   7
ATOM      7  N   UNL d   1      -1.889  -2.876   3.853  0.00  0.00    -0.732 N 
ATOM      8  C   UNL d   1      -2.170  -3.952   2.926  0.00  0.00     0.284 C 
ATOM      9  H3  UNL d   1      -1.946  -3.146   4.832  0.00  0.00     0.395 HD
ENDBRANCH   1   7
TORSDOF 1
ENDMDL
