MODEL 1
REMARK minimizedAffinity 9.42692089
REMARK minimizedRMSD -1
REMARK  1 active torsions:
REMARK  status: ('A' for Active; 'I' for Inactive)
REMARK    1  A    between atoms: N_2  and  C1_3 
ROOT
ATOM      1  C1  UNL d   1       0.603  -3.564   3.475  0.00  0.00     0.143 A 
ATOM      2  C2  UNL d   1      -0.744  -3.856   3.235  0.00  0.00    -0.057 A 
ATOM      3  C3  UNL d   1      -1.589  -2.928   2.615  0.00  0.00     0.033 A 
ATOM      4  C4  UNL d   1      -1.108  -1.675   2.250  0.00  0.00    -0.042 A 
ATOM      5  C5  UNL d   1       0.221  -1.353   2.502  0.00  0.00     0.033 A 
ATOM      6  C6  UNL d   1       1.062  -2.287   3.115  0.00  0.00    -0.057 A 
ENDROOT
BRANCH   1   7
ATOM      7  N   UNL d   1       1.469  -4.407   4.176  0.00  0.00    -0.732 N 
ATOM      8  C   UNL d   1       2.134  -5.503   3.505  0.00  0.00     0.284 C 
ATOM      9  H3  UNL d   1       2.060  -3.899   4.830  0.00  0.00     0.395 HD
ENDBRANCH   1   7
TORSDOF 1
ENDMDL
