MODEL 1
REMARK minimizedAffinity 7.64843893
REMARK minimizedRMSD -1
REMARK  1 active torsions:
REMARK  status: ('A' for Active; 'I' for Inactive)
REMARK    1  A    between atoms: N_2  and  C1_3 
ROOT
ATOM      1  C1  UNL d   1       4.065  -1.057  -0.158  0.00  0.00     0.143 A 
ATOM      2  C2  UNL d   1       3.749   0.263  -0.499  0.00  0.00    -0.057 A 
ATOM      3  C3  UNL d   1       2.561   0.861  -0.063  0.00  0.00     0.033 A 
ATOM      4  C4  UNL d   1       1.651   0.137   0.701  0.00  0.00    -0.042 A 
ATOM      5  C5  UNL d   1       1.932  -1.184   1.030  0.00  0.00     0.033 A 
ATOM      6  C6  UNL d   1       3.124  -1.773   0.597  0.00  0.00    -0.057 A 
ENDROOT
BRANCH   1   7
ATOM      7  N   UNL d   1       5.184  -1.739  -0.643  0.00  0.00    -0.732 N 
ATOM      8  C   UNL d   1       6.000  -1.165  -1.692  0.00  0.00     0.284 C 
ATOM      9  H3  UNL d   1       5.717  -2.188   0.099  0.00  0.00     0.395 HD
ENDBRANCH   1   7
TORSDOF 1
ENDMDL
