MODEL 1
REMARK minimizedAffinity 7.88945675
REMARK minimizedRMSD -1
REMARK  1 active torsions:
REMARK  status: ('A' for Active; 'I' for Inactive)
REMARK    1  A    between atoms: N_2  and  C1_3 
ROOT
ATOM      1  C1  UNL d   1      -0.443  -2.346   3.758  0.00  0.00     0.143 A 
ATOM      2  C2  UNL d   1      -1.631  -2.856   4.292  0.00  0.00    -0.057 A 
ATOM      3  C3  UNL d   1      -2.250  -2.251   5.393  0.00  0.00     0.033 A 
ATOM      4  C4  UNL d   1      -1.674  -1.140   5.999  0.00  0.00    -0.042 A 
ATOM      5  C5  UNL d   1      -0.480  -0.631   5.501  0.00  0.00     0.033 A 
ATOM      6  C6  UNL d   1       0.130  -1.235   4.397  0.00  0.00    -0.057 A 
ENDROOT
BRANCH   1   7
ATOM      7  N   UNL d   1       0.272  -2.960   2.727  0.00  0.00    -0.732 N 
ATOM      8  C   UNL d   1       0.591  -2.233   1.517  0.00  0.00     0.284 C 
ATOM      9  H3  UNL d   1       1.031  -3.543   3.074  0.00  0.00     0.395 HD
ENDBRANCH   1   7
TORSDOF 1
ENDMDL
