MODEL 1
REMARK minimizedAffinity 22.1960583
REMARK minimizedRMSD -1
REMARK  1 active torsions:
REMARK  status: ('A' for Active; 'I' for Inactive)
REMARK    1  A    between atoms: N_2  and  C1_3 
ROOT
ATOM      1  C1  UNL d   1       1.232   0.723   0.937  0.00  0.00     0.143 A 
ATOM      2  C2  UNL d   1       0.124  -0.122   1.052  0.00  0.00    -0.057 A 
ATOM      3  C3  UNL d   1       0.259  -1.439   1.508  0.00  0.00     0.033 A 
ATOM      4  C4  UNL d   1       1.514  -1.944   1.832  0.00  0.00    -0.042 A 
ATOM      5  C5  UNL d   1       2.633  -1.129   1.701  0.00  0.00     0.033 A 
ATOM      6  C6  UNL d   1       2.491   0.187   1.251  0.00  0.00    -0.057 A 
ENDROOT
BRANCH   1   7
ATOM      7  N   UNL d   1       1.176   2.010   0.396  0.00  0.00    -0.732 N 
ATOM      8  C   UNL d   1       0.335   2.293  -0.747  0.00  0.00     0.284 C 
ATOM      9  H3  UNL d   1       1.161   2.732   1.113  0.00  0.00     0.395 HD
ENDBRANCH   1   7
TORSDOF 1
ENDMDL
