MODEL 1
REMARK minimizedAffinity -4.89378262
REMARK minimizedRMSD -1
REMARK  0 active torsions:
REMARK  status: ('A' for Active; 'I' for Inactive)
ROOT
ATOM      1  C   UNL d   1      -1.274  -1.287   2.178  0.00  0.00     0.020 A 
ATOM      2  C1  UNL d   1      -0.571  -0.531   3.115  0.00  0.00     0.020 A 
ATOM      3  C2  UNL d   1       0.417   0.361   2.693  0.00  0.00     0.034 A 
ATOM      4  C3  UNL d   1       0.705   0.500   1.330  0.00  0.00     0.017 A 
ATOM      5  C4  UNL d   1      -0.001  -0.260   0.390  0.00  0.00     0.017 A 
ATOM      6  C5  UNL d   1      -0.990  -1.152   0.818  0.00  0.00     0.034 A 
ATOM      7 Cl   UNL d   1       0.297  -0.144  -1.308  0.00  0.00    -0.070 Cl
ATOM      8 Cl1  UNL d   1       1.939   1.622   0.879  0.00  0.00    -0.070 Cl
ENDROOT
TORSDOF 0
ENDMDL
