MODEL 1
REMARK minimizedAffinity -4.02241611
REMARK minimizedRMSD -1
REMARK  0 active torsions:
REMARK  status: ('A' for Active; 'I' for Inactive)
ROOT
ATOM      1  C   UNL d   1      -1.130  -1.287   1.902  0.00  0.00     0.020 A 
ATOM      2  C1  UNL d   1      -0.713  -1.256   0.572  0.00  0.00     0.020 A 
ATOM      3  C2  UNL d   1       0.196  -0.285   0.147  0.00  0.00     0.034 A 
ATOM      4  C3  UNL d   1       0.692   0.659   1.053  0.00  0.00     0.017 A 
ATOM      5  C4  UNL d   1       0.273   0.628   2.388  0.00  0.00     0.017 A 
ATOM      6  C5  UNL d   1      -0.637  -0.347   2.808  0.00  0.00     0.034 A 
ATOM      7 Cl   UNL d   1       0.841   1.760   3.564  0.00  0.00    -0.070 Cl
ATOM      8 Cl1  UNL d   1       1.814   1.831   0.458  0.00  0.00    -0.070 Cl
ENDROOT
TORSDOF 0
ENDMDL
