MODEL 1
REMARK minimizedAffinity -3.78693223
REMARK minimizedRMSD -1
REMARK  0 active torsions:
REMARK  status: ('A' for Active; 'I' for Inactive)
ROOT
ATOM      1  C   UNL d   1      -1.404  -0.596   1.997  0.00  0.00     0.020 A 
ATOM      2  C1  UNL d   1      -0.687  -0.052   3.062  0.00  0.00     0.020 A 
ATOM      3  C2  UNL d   1       0.578   0.499   2.843  0.00  0.00     0.034 A 
ATOM      4  C3  UNL d   1       1.129   0.506   1.556  0.00  0.00     0.017 A 
ATOM      5  C4  UNL d   1       0.408  -0.040   0.488  0.00  0.00     0.017 A 
ATOM      6  C5  UNL d   1      -0.858  -0.590   0.713  0.00  0.00     0.034 A 
ATOM      7 Cl   UNL d   1       1.023  -0.068  -1.127  0.00  0.00    -0.070 Cl
ATOM      8 Cl1  UNL d   1       2.698   1.204   1.358  0.00  0.00    -0.070 Cl
ENDROOT
TORSDOF 0
ENDMDL
