MODEL 1
REMARK minimizedAffinity -4.82111454
REMARK minimizedRMSD -1
REMARK  0 active torsions:
REMARK  status: ('A' for Active; 'I' for Inactive)
ROOT
ATOM      1  C   UNL d   1      -0.100  -0.013   3.536  0.00  0.00     0.020 A 
ATOM      2  C1  UNL d   1      -1.073  -0.589   2.721  0.00  0.00     0.020 A 
ATOM      3  C2  UNL d   1      -0.963  -0.499   1.331  0.00  0.00     0.034 A 
ATOM      4  C3  UNL d   1       0.123   0.169   0.753  0.00  0.00     0.017 A 
ATOM      5  C4  UNL d   1       1.099   0.747   1.572  0.00  0.00     0.017 A 
ATOM      6  C5  UNL d   1       0.984   0.654   2.963  0.00  0.00     0.034 A 
ATOM      7 Cl   UNL d   1       2.467   1.588   0.932  0.00  0.00    -0.070 Cl
ATOM      8 Cl1  UNL d   1       0.195   0.241  -0.972  0.00  0.00    -0.070 Cl
ENDROOT
TORSDOF 0
ENDMDL
