MODEL 1
REMARK minimizedAffinity -4.33851433
REMARK minimizedRMSD -1
REMARK  0 active torsions:
REMARK  status: ('A' for Active; 'I' for Inactive)
ROOT
ATOM      1  C   UNL d   1       1.482  -0.379   2.622  0.00  0.00     0.020 A 
ATOM      2  C1  UNL d   1       0.331  -0.739   3.321  0.00  0.00     0.020 A 
ATOM      3  C2  UNL d   1      -0.907  -0.738   2.675  0.00  0.00     0.034 A 
ATOM      4  C3  UNL d   1      -0.996  -0.377   1.325  0.00  0.00     0.017 A 
ATOM      5  C4  UNL d   1       0.160  -0.016   0.624  0.00  0.00     0.017 A 
ATOM      6  C5  UNL d   1       1.397  -0.019   1.276  0.00  0.00     0.034 A 
ATOM      7 Cl   UNL d   1       0.129   0.441  -1.042  0.00  0.00    -0.070 Cl
ATOM      8 Cl1  UNL d   1      -2.560  -0.399   0.590  0.00  0.00    -0.070 Cl
ENDROOT
TORSDOF 0
ENDMDL
