MODEL 1
REMARK minimizedAffinity -4.64644527
REMARK minimizedRMSD -1
REMARK  0 active torsions:
REMARK  status: ('A' for Active; 'I' for Inactive)
ROOT
ATOM      1  C   UNL d   1      -1.548  -0.445   1.673  0.00  0.00     0.020 A 
ATOM      2  C1  UNL d   1      -0.725  -0.087   2.740  0.00  0.00     0.020 A 
ATOM      3  C2  UNL d   1       0.584   0.336   2.500  0.00  0.00     0.034 A 
ATOM      4  C3  UNL d   1       1.074   0.402   1.191  0.00  0.00     0.017 A 
ATOM      5  C4  UNL d   1       0.247   0.042   0.121  0.00  0.00     0.017 A 
ATOM      6  C5  UNL d   1      -1.063  -0.380   0.366  0.00  0.00     0.034 A 
ATOM      7 Cl   UNL d   1       0.781   0.098  -1.522  0.00  0.00    -0.070 Cl
ATOM      8 Cl1  UNL d   1       2.703   0.934   0.968  0.00  0.00    -0.070 Cl
ENDROOT
TORSDOF 0
ENDMDL
