MODEL 1
REMARK minimizedAffinity -3.09722996
REMARK minimizedRMSD -1
REMARK  0 active torsions:
REMARK  status: ('A' for Active; 'I' for Inactive)
ROOT
ATOM      1  C   UNL d   1       0.162   0.388  -1.083  0.00  0.00     0.020 A 
ATOM      2  C1  UNL d   1      -1.071  -0.128  -0.687  0.00  0.00     0.020 A 
ATOM      3  C2  UNL d   1      -1.293  -0.456   0.652  0.00  0.00     0.034 A 
ATOM      4  C3  UNL d   1      -0.280  -0.268   1.600  0.00  0.00     0.017 A 
ATOM      5  C4  UNL d   1       0.957   0.250   1.201  0.00  0.00     0.017 A 
ATOM      6  C5  UNL d   1       1.174   0.577  -0.141  0.00  0.00     0.034 A 
ATOM      7 Cl   UNL d   1       2.255   0.510   2.313  0.00  0.00    -0.070 Cl
ATOM      8 Cl1  UNL d   1      -0.624  -0.695   3.239  0.00  0.00    -0.070 Cl
ENDROOT
TORSDOF 0
ENDMDL
