MODEL 1
REMARK minimizedAffinity -2.96144414
REMARK minimizedRMSD -1
REMARK  0 active torsions:
REMARK  status: ('A' for Active; 'I' for Inactive)
ROOT
ATOM      1  C   UNL d   1      -0.439  -0.402   2.957  0.00  0.00     0.020 A 
ATOM      2  C1  UNL d   1      -1.260  -0.972   1.984  0.00  0.00     0.020 A 
ATOM      3  C2  UNL d   1      -0.971  -0.784   0.631  0.00  0.00     0.034 A 
ATOM      4  C3  UNL d   1       0.140  -0.024   0.247  0.00  0.00     0.017 A 
ATOM      5  C4  UNL d   1       0.962   0.547   1.224  0.00  0.00     0.017 A 
ATOM      6  C5  UNL d   1       0.669   0.356   2.578  0.00  0.00     0.034 A 
ATOM      7 Cl   UNL d   1       2.351   1.497   0.827  0.00  0.00    -0.070 Cl
ATOM      8 Cl1  UNL d   1       0.436   0.167  -1.445  0.00  0.00    -0.070 Cl
ENDROOT
TORSDOF 0
ENDMDL
