MODEL 1
REMARK minimizedAffinity -4.13427448
REMARK minimizedRMSD -1
REMARK  0 active torsions:
REMARK  status: ('A' for Active; 'I' for Inactive)
ROOT
ATOM      1  C   UNL d   1      -1.095  -1.133   1.999  0.00  0.00     0.020 A 
ATOM      2  C1  UNL d   1      -0.333  -0.395   2.904  0.00  0.00     0.020 A 
ATOM      3  C2  UNL d   1       0.708   0.414   2.444  0.00  0.00     0.034 A 
ATOM      4  C3  UNL d   1       0.990   0.488   1.076  0.00  0.00     0.017 A 
ATOM      5  C4  UNL d   1       0.225  -0.253   0.167  0.00  0.00     0.017 A 
ATOM      6  C5  UNL d   1      -0.816  -1.062   0.633  0.00  0.00     0.034 A 
ATOM      7 Cl   UNL d   1       0.514  -0.214  -1.536  0.00  0.00    -0.070 Cl
ATOM      8 Cl1  UNL d   1       2.292   1.509   0.578  0.00  0.00    -0.070 Cl
ENDROOT
TORSDOF 0
ENDMDL
