MODEL 1
REMARK minimizedAffinity -3.91384649
REMARK minimizedRMSD -1
REMARK  0 active torsions:
REMARK  status: ('A' for Active; 'I' for Inactive)
ROOT
ATOM      1  C   UNL d   1       0.496  -0.014   3.015  0.00  0.00     0.020 A 
ATOM      2  C1  UNL d   1       1.646   0.061   2.229  0.00  0.00     0.020 A 
ATOM      3  C2  UNL d   1       1.538   0.127   0.838  0.00  0.00     0.034 A 
ATOM      4  C3  UNL d   1       0.278   0.117   0.229  0.00  0.00     0.017 A 
ATOM      5  C4  UNL d   1      -0.875   0.041   1.018  0.00  0.00     0.017 A 
ATOM      6  C5  UNL d   1      -0.761  -0.024   2.410  0.00  0.00     0.034 A 
ATOM      7 Cl   UNL d   1      -2.464   0.024   0.338  0.00  0.00    -0.070 Cl
ATOM      8 Cl1  UNL d   1       0.220   0.200  -1.496  0.00  0.00    -0.070 Cl
ENDROOT
TORSDOF 0
ENDMDL
