MODEL 1
REMARK minimizedAffinity -4.57414293
REMARK minimizedRMSD -1
REMARK  0 active torsions:
REMARK  status: ('A' for Active; 'I' for Inactive)
ROOT
ATOM      1  C   UNL d   1       0.798   0.635  -1.034  0.00  0.00     0.020 A 
ATOM      2  C1  UNL d   1       1.703   0.459   0.012  0.00  0.00     0.020 A 
ATOM      3  C2  UNL d   1       1.248   0.047   1.266  0.00  0.00     0.034 A 
ATOM      4  C3  UNL d   1      -0.115  -0.191   1.478  0.00  0.00     0.017 A 
ATOM      5  C4  UNL d   1      -1.023  -0.014   0.427  0.00  0.00     0.017 A 
ATOM      6  C5  UNL d   1      -0.562   0.399  -0.827  0.00  0.00     0.034 A 
ATOM      7 Cl   UNL d   1      -2.719  -0.287   0.611  0.00  0.00    -0.070 Cl
ATOM      8 Cl1  UNL d   1      -0.608  -0.698   3.054  0.00  0.00    -0.070 Cl
ENDROOT
TORSDOF 0
ENDMDL
