MODEL 1
REMARK minimizedAffinity -4.9397006
REMARK minimizedRMSD -1
REMARK  0 active torsions:
REMARK  status: ('A' for Active; 'I' for Inactive)
ROOT
ATOM      1  C   UNL d   1      -1.335  -0.947   1.951  0.00  0.00     0.020 A 
ATOM      2  C1  UNL d   1      -0.413  -0.653   2.954  0.00  0.00     0.020 A 
ATOM      3  C2  UNL d   1       0.769   0.022   2.641  0.00  0.00     0.034 A 
ATOM      4  C3  UNL d   1       1.032   0.405   1.321  0.00  0.00     0.017 A 
ATOM      5  C4  UNL d   1       0.106   0.109   0.314  0.00  0.00     0.017 A 
ATOM      6  C5  UNL d   1      -1.076  -0.567   0.633  0.00  0.00     0.034 A 
ATOM      7 Cl   UNL d   1       0.360   0.549  -1.338  0.00  0.00    -0.070 Cl
ATOM      8 Cl1  UNL d   1       2.513   1.237   1.005  0.00  0.00    -0.070 Cl
ENDROOT
TORSDOF 0
ENDMDL
