MODEL 1
REMARK minimizedAffinity -1.01310635
REMARK minimizedRMSD -1
REMARK  0 active torsions:
REMARK  status: ('A' for Active; 'I' for Inactive)
ROOT
ATOM      1  C   UNL d   1       0.719   0.178  -0.420  0.00  0.00     0.020 A 
ATOM      2  C1  UNL d   1       1.451   0.225   0.766  0.00  0.00     0.020 A 
ATOM      3  C2  UNL d   1       0.788   0.234   1.995  0.00  0.00     0.034 A 
ATOM      4  C3  UNL d   1      -0.610   0.196   2.042  0.00  0.00     0.017 A 
ATOM      5  C4  UNL d   1      -1.344   0.148   0.851  0.00  0.00     0.017 A 
ATOM      6  C5  UNL d   1      -0.675   0.139  -0.377  0.00  0.00     0.034 A 
ATOM      7 Cl   UNL d   1      -3.071   0.099   0.828  0.00  0.00    -0.070 Cl
ATOM      8 Cl1  UNL d   1      -1.363   0.209   3.597  0.00  0.00    -0.070 Cl
ENDROOT
TORSDOF 0
ENDMDL
