MODEL 1
REMARK minimizedAffinity -3.92767072
REMARK minimizedRMSD -1
REMARK  0 active torsions:
REMARK  status: ('A' for Active; 'I' for Inactive)
ROOT
ATOM      1  C   UNL d   1       2.046   0.051   2.314  0.00  0.00     0.020 A 
ATOM      2  C1  UNL d   1       0.944   0.057   3.168  0.00  0.00     0.020 A 
ATOM      3  C2  UNL d   1      -0.348   0.015   2.640  0.00  0.00     0.034 A 
ATOM      4  C3  UNL d   1      -0.541  -0.033   1.254  0.00  0.00     0.017 A 
ATOM      5  C4  UNL d   1       0.566  -0.039   0.398  0.00  0.00     0.017 A 
ATOM      6  C5  UNL d   1       1.857   0.003   0.932  0.00  0.00     0.034 A 
ATOM      7 Cl   UNL d   1       0.407  -0.097  -1.322  0.00  0.00    -0.070 Cl
ATOM      8 Cl1  UNL d   1      -2.167  -0.083   0.671  0.00  0.00    -0.070 Cl
ENDROOT
TORSDOF 0
ENDMDL
