MODEL 1
REMARK minimizedAffinity -5.7509141
REMARK minimizedRMSD -1
REMARK  0 active torsions:
REMARK  status: ('A' for Active; 'I' for Inactive)
ROOT
ATOM      1  C   UNL d   1      -2.111   0.059   2.058  0.00  0.00     0.020 A 
ATOM      2  C1  UNL d   1      -1.236   0.032   3.143  0.00  0.00     0.020 A 
ATOM      3  C2  UNL d   1       0.143   0.085   2.931  0.00  0.00     0.034 A 
ATOM      4  C3  UNL d   1       0.652   0.167   1.629  0.00  0.00     0.017 A 
ATOM      5  C4  UNL d   1      -0.227   0.194   0.540  0.00  0.00     0.017 A 
ATOM      6  C5  UNL d   1      -1.607   0.140   0.759  0.00  0.00     0.034 A 
ATOM      7 Cl   UNL d   1       0.326   0.293  -1.094  0.00  0.00    -0.070 Cl
ATOM      8 Cl1  UNL d   1       2.368   0.230   1.440  0.00  0.00    -0.070 Cl
ENDROOT
TORSDOF 0
ENDMDL
