MODEL 1
REMARK minimizedAffinity -2.96168756
REMARK minimizedRMSD -1
REMARK  0 active torsions:
REMARK  status: ('A' for Active; 'I' for Inactive)
ROOT
ATOM      1  C   UNL d   1      -0.351  -0.842   3.063  0.00  0.00     0.020 A 
ATOM      2  C1  UNL d   1      -1.153  -1.359   2.046  0.00  0.00     0.020 A 
ATOM      3  C2  UNL d   1      -0.874  -1.051   0.713  0.00  0.00     0.034 A 
ATOM      4  C3  UNL d   1       0.209  -0.223   0.393  0.00  0.00     0.017 A 
ATOM      5  C4  UNL d   1       1.013   0.295   1.415  0.00  0.00     0.017 A 
ATOM      6  C5  UNL d   1       0.729  -0.017   2.748  0.00  0.00     0.034 A 
ATOM      7 Cl   UNL d   1       2.366   1.322   1.098  0.00  0.00    -0.070 Cl
ATOM      8 Cl1  UNL d   1       0.495   0.116  -1.277  0.00  0.00    -0.070 Cl
ENDROOT
TORSDOF 0
ENDMDL
