MODEL 1
REMARK minimizedAffinity -3.7683506
REMARK minimizedRMSD -1
REMARK  0 active torsions:
REMARK  status: ('A' for Active; 'I' for Inactive)
ROOT
ATOM      1  C   UNL d   1      -1.845   0.015   2.919  0.00  0.00     0.020 A 
ATOM      2  C1  UNL d   1      -0.687   0.131   3.686  0.00  0.00     0.020 A 
ATOM      3  C2  UNL d   1       0.555   0.256   3.059  0.00  0.00     0.034 A 
ATOM      4  C3  UNL d   1       0.642   0.265   1.662  0.00  0.00     0.017 A 
ATOM      5  C4  UNL d   1      -0.522   0.149   0.894  0.00  0.00     0.017 A 
ATOM      6  C5  UNL d   1      -1.763   0.024   1.526  0.00  0.00     0.034 A 
ATOM      7 Cl   UNL d   1      -0.496   0.152  -0.835  0.00  0.00    -0.070 Cl
ATOM      8 Cl1  UNL d   1       2.210   0.423   0.955  0.00  0.00    -0.070 Cl
ENDROOT
TORSDOF 0
ENDMDL
