MODEL 1
REMARK minimizedAffinity -2.51379085
REMARK minimizedRMSD -1
REMARK  0 active torsions:
REMARK  status: ('A' for Active; 'I' for Inactive)
ROOT
ATOM      1  C   UNL d   1      -1.658  -0.654   2.202  0.00  0.00     0.020 A 
ATOM      2  C1  UNL d   1      -0.789  -0.189   3.188  0.00  0.00     0.020 A 
ATOM      3  C2  UNL d   1       0.426   0.398   2.828  0.00  0.00     0.034 A 
ATOM      4  C3  UNL d   1       0.776   0.520   1.478  0.00  0.00     0.017 A 
ATOM      5  C4  UNL d   1      -0.097   0.052   0.489  0.00  0.00     0.017 A 
ATOM      6  C5  UNL d   1      -1.312  -0.534   0.855  0.00  0.00     0.034 A 
ATOM      7 Cl   UNL d   1       0.266   0.168  -1.197  0.00  0.00    -0.070 Cl
ATOM      8 Cl1  UNL d   1       2.294   1.255   1.105  0.00  0.00    -0.070 Cl
ENDROOT
TORSDOF 0
ENDMDL
