MODEL 1
REMARK minimizedAffinity 26.3352833
REMARK minimizedRMSD -1
REMARK  0 active torsions:
REMARK  status: ('A' for Active; 'I' for Inactive)
ROOT
ATOM      1  C   UNL d   1      -0.643   0.248   1.994  0.00  0.00     0.124 A 
ATOM      2  C1  UNL d   1       0.238  -0.365   2.874  0.00  0.00     0.062 A 
ATOM      3  C2  UNL d   1       0.663   0.304   4.018  0.00  0.00     0.162 A 
ATOM      4  C3  UNL d   1       0.206   1.593   4.290  0.00  0.00    -0.034 A 
ATOM      5  C4  UNL d   1      -0.679   2.204   3.399  0.00  0.00     0.162 A 
ATOM      6  C5  UNL d   1      -1.100   1.531   2.257  0.00  0.00     0.062 A 
ATOM      7  F   UNL d   1      -1.951   2.125   1.408  0.00  0.00    -0.097 F 
ATOM      8  F1  UNL d   1      -1.137   3.443   3.630  0.00  0.00    -0.096 F 
ATOM      9  I   UNL d   1       0.839   2.597   6.000  0.00  0.00    -0.060 I 
ATOM     10  F2  UNL d   1       1.514  -0.313   4.851  0.00  0.00    -0.096 F 
ATOM     11  F3  UNL d   1       0.682  -1.605   2.621  0.00  0.00    -0.097 F 
ATOM     12  F4  UNL d   1      -1.049  -0.398   0.893  0.00  0.00    -0.092 F 
ENDROOT
TORSDOF 0
ENDMDL
