MODEL 1
REMARK minimizedAffinity 22.1852074
REMARK minimizedRMSD -1
REMARK  0 active torsions:
REMARK  status: ('A' for Active; 'I' for Inactive)
ROOT
ATOM      1  C   UNL d   1       2.773  -0.838  -4.976  0.00  0.00     0.124 A 
ATOM      2  C1  UNL d   1       1.477  -0.348  -4.896  0.00  0.00     0.062 A 
ATOM      3  C2  UNL d   1       0.396  -1.175  -5.188  0.00  0.00     0.162 A 
ATOM      4  C3  UNL d   1       0.607  -2.502  -5.562  0.00  0.00    -0.034 A 
ATOM      5  C4  UNL d   1       1.914  -2.987  -5.642  0.00  0.00     0.162 A 
ATOM      6  C5  UNL d   1       2.990  -2.157  -5.349  0.00  0.00     0.062 A 
ATOM      7  F   UNL d   1       4.242  -2.632  -5.427  0.00  0.00    -0.097 F 
ATOM      8  F1  UNL d   1       2.152  -4.258  -5.998  0.00  0.00    -0.096 F 
ATOM      9  I   UNL d   1      -1.006  -3.743  -6.000  0.00  0.00    -0.060 I 
ATOM     10  F2  UNL d   1      -0.845  -0.675  -5.102  0.00  0.00    -0.096 F 
ATOM     11  F3  UNL d   1       1.264   0.927  -4.537  0.00  0.00    -0.097 F 
ATOM     12  F4  UNL d   1       3.811  -0.039  -4.695  0.00  0.00    -0.092 F 
ENDROOT
TORSDOF 0
ENDMDL
