MODEL 1
REMARK minimizedAffinity 15.4086618
REMARK minimizedRMSD -1
REMARK  0 active torsions:
REMARK  status: ('A' for Active; 'I' for Inactive)
ROOT
ATOM      1  C   UNL d   1       0.872  -0.960   2.377  0.00  0.00     0.124 A 
ATOM      2  C1  UNL d   1       1.015  -1.364   3.697  0.00  0.00     0.062 A 
ATOM      3  C2  UNL d   1       0.783  -0.464   4.733  0.00  0.00     0.162 A 
ATOM      4  C3  UNL d   1       0.404   0.849   4.453  0.00  0.00    -0.034 A 
ATOM      5  C4  UNL d   1       0.263   1.248   3.123  0.00  0.00     0.162 A 
ATOM      6  C5  UNL d   1       0.497   0.345   2.091  0.00  0.00     0.062 A 
ATOM      7  F   UNL d   1       0.358   0.736   0.816  0.00  0.00    -0.097 F 
ATOM      8  F1  UNL d   1      -0.099   2.503   2.818  0.00  0.00    -0.096 F 
ATOM      9  I   UNL d   1       0.056   2.198   6.000  0.00  0.00    -0.060 I 
ATOM     10  F2  UNL d   1       0.928  -0.881   6.000  0.00  0.00    -0.096 F 
ATOM     11  F3  UNL d   1       1.379  -2.624   3.976  0.00  0.00    -0.097 F 
ATOM     12  F4  UNL d   1       1.097  -1.828   1.382  0.00  0.00    -0.092 F 
ENDROOT
TORSDOF 0
ENDMDL
