MODEL 1
REMARK minimizedAffinity 27.9370956
REMARK minimizedRMSD -1
REMARK  0 active torsions:
REMARK  status: ('A' for Active; 'I' for Inactive)
ROOT
ATOM      1  C   UNL d   1       2.940   0.398   3.857  0.00  0.00     0.124 A 
ATOM      2  C1  UNL d   1       2.208  -0.769   3.688  0.00  0.00     0.062 A 
ATOM      3  C2  UNL d   1       2.622  -1.949   4.299  0.00  0.00     0.162 A 
ATOM      4  C3  UNL d   1       3.773  -1.969   5.085  0.00  0.00    -0.034 A 
ATOM      5  C4  UNL d   1       4.505  -0.791   5.250  0.00  0.00     0.162 A 
ATOM      6  C5  UNL d   1       4.087   0.386   4.638  0.00  0.00     0.062 A 
ATOM      7  F   UNL d   1       4.796   1.513   4.803  0.00  0.00    -0.097 F 
ATOM      8  F1  UNL d   1       5.617  -0.774   6.000  0.00  0.00    -0.096 F 
ATOM      9  I   UNL d   1       4.395  -3.732   6.000  0.00  0.00    -0.060 I 
ATOM     10  F2  UNL d   1       1.895  -3.062   4.118  0.00  0.00    -0.096 F 
ATOM     11  F3  UNL d   1       1.100  -0.760   2.934  0.00  0.00    -0.097 F 
ATOM     12  F4  UNL d   1       2.540   1.532   3.268  0.00  0.00    -0.092 F 
ENDROOT
TORSDOF 0
ENDMDL
