MODEL 1
REMARK minimizedAffinity 25.8589954
REMARK minimizedRMSD -1
REMARK  0 active torsions:
REMARK  status: ('A' for Active; 'I' for Inactive)
ROOT
ATOM      1  C   UNL d   1       0.366  -0.756  -4.133  0.00  0.00     0.124 A 
ATOM      2  C1  UNL d   1       1.021  -1.723  -4.884  0.00  0.00     0.062 A 
ATOM      3  C2  UNL d   1       0.350  -2.878  -5.275  0.00  0.00     0.162 A 
ATOM      4  C3  UNL d   1      -0.984  -3.072  -4.917  0.00  0.00    -0.034 A 
ATOM      5  C4  UNL d   1      -1.635  -2.095  -4.161  0.00  0.00     0.162 A 
ATOM      6  C5  UNL d   1      -0.960  -0.943  -3.772  0.00  0.00     0.062 A 
ATOM      7  F   UNL d   1      -1.594  -0.010  -3.047  0.00  0.00    -0.097 F 
ATOM      8  F1  UNL d   1      -2.918  -2.250  -3.800  0.00  0.00    -0.096 F 
ATOM      9  I   UNL d   1      -1.991  -4.798  -5.500  0.00  0.00    -0.060 I 
ATOM     10  F2  UNL d   1       1.007  -3.795  -6.000  0.00  0.00    -0.096 F 
ATOM     11  F3  UNL d   1       2.303  -1.544  -5.232  0.00  0.00    -0.097 F 
ATOM     12  F4  UNL d   1       1.015   0.354  -3.757  0.00  0.00    -0.092 F 
ENDROOT
TORSDOF 0
ENDMDL
