MODEL 1
REMARK minimizedAffinity 8.41663361
REMARK minimizedRMSD -1
REMARK  0 active torsions:
REMARK  status: ('A' for Active; 'I' for Inactive)
ROOT
ATOM      1  C   UNL d   1       3.176  -0.558   5.153  0.00  0.00     0.124 A 
ATOM      2  C1  UNL d   1       3.052   0.509   4.274  0.00  0.00     0.062 A 
ATOM      3  C2  UNL d   1       1.977   0.567   3.392  0.00  0.00     0.162 A 
ATOM      4  C3  UNL d   1       1.016  -0.444   3.385  0.00  0.00    -0.034 A 
ATOM      5  C4  UNL d   1       1.148  -1.514   4.271  0.00  0.00     0.162 A 
ATOM      6  C5  UNL d   1       2.225  -1.568   5.151  0.00  0.00     0.062 A 
ATOM      7  F   UNL d   1       2.343  -2.600   6.000  0.00  0.00    -0.097 F 
ATOM      8  F1  UNL d   1       0.243  -2.504   4.291  0.00  0.00    -0.096 F 
ATOM      9  I   UNL d   1      -0.593  -0.360   2.068  0.00  0.00    -0.060 I 
ATOM     10  F2  UNL d   1       1.882   1.610   2.553  0.00  0.00    -0.096 F 
ATOM     11  F3  UNL d   1       3.970   1.486   4.273  0.00  0.00    -0.097 F 
ATOM     12  F4  UNL d   1       4.212  -0.612   6.000  0.00  0.00    -0.092 F 
ENDROOT
TORSDOF 0
ENDMDL
