MODEL 1
REMARK minimizedAffinity 32.0347366
REMARK minimizedRMSD -1
REMARK  0 active torsions:
REMARK  status: ('A' for Active; 'I' for Inactive)
ROOT
ATOM      1  C   UNL d   1       4.391   3.971   3.217  0.00  0.00     0.124 A 
ATOM      2  C1  UNL d   1       4.300   3.102   4.295  0.00  0.00     0.062 A 
ATOM      3  C2  UNL d   1       3.516   1.955   4.205  0.00  0.00     0.162 A 
ATOM      4  C3  UNL d   1       2.818   1.670   3.032  0.00  0.00    -0.034 A 
ATOM      5  C4  UNL d   1       2.914   2.549   1.952  0.00  0.00     0.162 A 
ATOM      6  C5  UNL d   1       3.698   3.694   2.047  0.00  0.00     0.062 A 
ATOM      7  F   UNL d   1       3.785   4.533   1.004  0.00  0.00    -0.097 F 
ATOM      8  F1  UNL d   1       2.256   2.306   0.809  0.00  0.00    -0.096 F 
ATOM      9  I   UNL d   1       1.645  -0.044   2.893  0.00  0.00    -0.060 I 
ATOM     10  F2  UNL d   1       3.446   1.133   5.263  0.00  0.00    -0.096 F 
ATOM     11  F3  UNL d   1       4.967   3.367   5.427  0.00  0.00    -0.097 F 
ATOM     12  F4  UNL d   1       5.145   5.074   3.306  0.00  0.00    -0.092 F 
ENDROOT
TORSDOF 0
ENDMDL
