MODEL 1
REMARK minimizedAffinity 25.5739727
REMARK minimizedRMSD -1
REMARK  0 active torsions:
REMARK  status: ('A' for Active; 'I' for Inactive)
ROOT
ATOM      1  C   UNL d   1       1.137  -1.200  -4.081  0.00  0.00     0.124 A 
ATOM      2  C1  UNL d   1       2.421  -1.696  -4.265  0.00  0.00     0.062 A 
ATOM      3  C2  UNL d   1       3.466  -0.833  -4.581  0.00  0.00     0.162 A 
ATOM      4  C3  UNL d   1       3.232   0.535  -4.715  0.00  0.00    -0.034 A 
ATOM      5  C4  UNL d   1       1.939   1.026  -4.531  0.00  0.00     0.162 A 
ATOM      6  C5  UNL d   1       0.897   0.160  -4.214  0.00  0.00     0.062 A 
ATOM      7  F   UNL d   1      -0.342   0.641  -4.038  0.00  0.00    -0.097 F 
ATOM      8  F1  UNL d   1       1.679   2.337  -4.652  0.00  0.00    -0.096 F 
ATOM      9  I   UNL d   1       4.793   1.829  -5.189  0.00  0.00    -0.060 I 
ATOM     10  F2  UNL d   1       4.696  -1.340  -4.753  0.00  0.00    -0.096 F 
ATOM     11  F3  UNL d   1       2.655  -3.010  -4.138  0.00  0.00    -0.097 F 
ATOM     12  F4  UNL d   1       0.133  -2.033  -3.778  0.00  0.00    -0.092 F 
ENDROOT
TORSDOF 0
ENDMDL
