MODEL 1
REMARK minimizedAffinity 15.1744919
REMARK minimizedRMSD -1
REMARK  0 active torsions:
REMARK  status: ('A' for Active; 'I' for Inactive)
ROOT
ATOM      1  C   UNL d   1      -5.621   4.631  -0.046  0.00  0.00     0.023 A 
ATOM      2  C1  UNL d   1      -5.342   3.281  -0.257  0.00  0.00     0.003 A 
ATOM      3  C2  UNL d   1      -4.313   2.906  -1.123  0.00  0.00     0.048 A 
ATOM      4  C3  UNL d   1      -3.565   3.886  -1.773  0.00  0.00     0.023 A 
ATOM      5  C4  UNL d   1      -3.839   5.239  -1.565  0.00  0.00     0.048 A 
ATOM      6  C5  UNL d   1      -4.870   5.609  -0.699  0.00  0.00     0.003 A 
ATOM      7  I   UNL d   1      -2.032   3.330  -3.062  0.00  0.00    -0.146 I 
ENDROOT
TORSDOF 0
ENDMDL
