MODEL 1
REMARK minimizedAffinity 11.7923174
REMARK minimizedRMSD -1
REMARK  0 active torsions:
REMARK  status: ('A' for Active; 'I' for Inactive)
ROOT
ATOM      1  C   UNL d   1       1.106  -3.364   1.355  0.00  0.00     0.023 A 
ATOM      2  C1  UNL d   1       2.086  -3.075   0.405  0.00  0.00     0.003 A 
ATOM      3  C2  UNL d   1       2.479  -1.753   0.185  0.00  0.00     0.048 A 
ATOM      4  C3  UNL d   1       1.889  -0.725   0.920  0.00  0.00     0.023 A 
ATOM      5  C4  UNL d   1       0.908  -1.010   1.872  0.00  0.00     0.048 A 
ATOM      6  C5  UNL d   1       0.518  -2.333   2.088  0.00  0.00     0.003 A 
ATOM      7  I   UNL d   1       2.472   1.243   0.595  0.00  0.00    -0.146 I 
ENDROOT
TORSDOF 0
ENDMDL
