MODEL 1
REMARK minimizedAffinity 18.6937656
REMARK minimizedRMSD -1
REMARK  0 active torsions:
REMARK  status: ('A' for Active; 'I' for Inactive)
ROOT
ATOM      1  C   UNL d   1       0.186   2.970  -1.322  0.00  0.00     0.023 A 
ATOM      2  C1  UNL d   1       1.162   2.111  -1.827  0.00  0.00     0.003 A 
ATOM      3  C2  UNL d   1       2.165   1.622  -0.988  0.00  0.00     0.048 A 
ATOM      4  C3  UNL d   1       2.187   1.995   0.355  0.00  0.00     0.023 A 
ATOM      5  C4  UNL d   1       1.212   2.854   0.865  0.00  0.00     0.048 A 
ATOM      6  C5  UNL d   1       0.210   3.341   0.023  0.00  0.00     0.003 A 
ATOM      7  I   UNL d   1       3.680   1.269   1.606  0.00  0.00    -0.146 I 
ENDROOT
TORSDOF 0
ENDMDL
