MODEL 1
REMARK minimizedAffinity 10.0161095
REMARK minimizedRMSD -1
REMARK  0 active torsions:
REMARK  status: ('A' for Active; 'I' for Inactive)
ROOT
ATOM      1  C   UNL d   1      -0.040  -5.464   1.631  0.00  0.00     0.023 A 
ATOM      2  C1  UNL d   1      -0.840  -4.355   1.355  0.00  0.00     0.003 A 
ATOM      3  C2  UNL d   1      -0.268  -3.084   1.269  0.00  0.00     0.048 A 
ATOM      4  C3  UNL d   1       1.105  -2.929   1.458  0.00  0.00     0.023 A 
ATOM      5  C4  UNL d   1       1.909  -4.036   1.734  0.00  0.00     0.048 A 
ATOM      6  C5  UNL d   1       1.333  -5.304   1.820  0.00  0.00     0.003 A 
ATOM      7  I   UNL d   1       1.958  -1.038   1.330  0.00  0.00    -0.146 I 
ENDROOT
TORSDOF 0
ENDMDL
