MODEL 1
REMARK minimizedAffinity 6.15878201
REMARK minimizedRMSD -1
REMARK  0 active torsions:
REMARK  status: ('A' for Active; 'I' for Inactive)
ROOT
ATOM      1  C   UNL d   1      -4.524  -5.526   2.022  0.00  0.00     0.023 A 
ATOM      2  C1  UNL d   1      -5.593  -6.000   2.784  0.00  0.00     0.003 A 
ATOM      3  C2  UNL d   1      -6.000  -5.306   3.925  0.00  0.00     0.048 A 
ATOM      4  C3  UNL d   1      -5.335  -4.138   4.298  0.00  0.00     0.023 A 
ATOM      5  C4  UNL d   1      -4.266  -3.660   3.539  0.00  0.00     0.048 A 
ATOM      6  C5  UNL d   1      -3.862  -4.358   2.399  0.00  0.00     0.003 A 
ATOM      7  I   UNL d   1      -5.940  -3.104   5.996  0.00  0.00    -0.146 I 
ENDROOT
TORSDOF 0
ENDMDL
