MODEL 1
REMARK minimizedAffinity 8.61286736
REMARK minimizedRMSD -1
REMARK  0 active torsions:
REMARK  status: ('A' for Active; 'I' for Inactive)
ROOT
ATOM      1  C   UNL d   1       0.251  -2.776   2.482  0.00  0.00     0.023 A 
ATOM      2  C1  UNL d   1       1.506  -2.747   1.873  0.00  0.00     0.003 A 
ATOM      3  C2  UNL d   1       1.977  -1.565   1.298  0.00  0.00     0.048 A 
ATOM      4  C3  UNL d   1       1.189  -0.416   1.336  0.00  0.00     0.023 A 
ATOM      5  C4  UNL d   1      -0.066  -0.439   1.945  0.00  0.00     0.048 A 
ATOM      6  C5  UNL d   1      -0.534  -1.624   2.518  0.00  0.00     0.003 A 
ATOM      7  I   UNL d   1       1.889   1.345   0.481  0.00  0.00    -0.146 I 
ENDROOT
TORSDOF 0
ENDMDL
