MODEL 1
REMARK minimizedAffinity 0.626454771
REMARK minimizedRMSD -1
REMARK  0 active torsions:
REMARK  status: ('A' for Active; 'I' for Inactive)
ROOT
ATOM      1  C   UNL d   1      -4.944  -4.086   3.004  0.00  0.00     0.023 A 
ATOM      2  C1  UNL d   1      -5.195  -5.449   2.847  0.00  0.00     0.003 A 
ATOM      3  C2  UNL d   1      -5.290  -6.000   1.567  0.00  0.00     0.048 A 
ATOM      4  C3  UNL d   1      -5.131  -5.182   0.449  0.00  0.00     0.023 A 
ATOM      5  C4  UNL d   1      -4.878  -3.818   0.601  0.00  0.00     0.048 A 
ATOM      6  C5  UNL d   1      -4.786  -3.271   1.883  0.00  0.00     0.003 A 
ATOM      7  I   UNL d   1      -5.270  -6.000  -1.457  0.00  0.00    -0.146 I 
ENDROOT
TORSDOF 0
ENDMDL
