MODEL 1
REMARK minimizedAffinity 14.4410515
REMARK minimizedRMSD -1
REMARK  0 active torsions:
REMARK  status: ('A' for Active; 'I' for Inactive)
ROOT
ATOM      1  C   UNL d   1       0.902   4.662  -1.458  0.00  0.00     0.023 A 
ATOM      2  C1  UNL d   1       1.053   4.651  -0.072  0.00  0.00     0.003 A 
ATOM      3  C2  UNL d   1       1.424   3.474   0.582  0.00  0.00     0.048 A 
ATOM      4  C3  UNL d   1       1.643   2.312  -0.157  0.00  0.00     0.023 A 
ATOM      5  C4  UNL d   1       1.495   2.319  -1.545  0.00  0.00     0.048 A 
ATOM      6  C5  UNL d   1       1.123   3.498  -2.194  0.00  0.00     0.003 A 
ATOM      7  I   UNL d   1       2.195   0.559   0.813  0.00  0.00    -0.146 I 
ENDROOT
TORSDOF 0
ENDMDL
