MODEL 1
REMARK minimizedAffinity 5.98551464
REMARK minimizedRMSD -1
REMARK  0 active torsions:
REMARK  status: ('A' for Active; 'I' for Inactive)
ROOT
ATOM      1  C   UNL d   1      -3.949  -5.355   2.068  0.00  0.00     0.023 A 
ATOM      2  C1  UNL d   1      -5.008  -5.997   2.710  0.00  0.00     0.003 A 
ATOM      3  C2  UNL d   1      -5.597  -5.419   3.836  0.00  0.00     0.048 A 
ATOM      4  C3  UNL d   1      -5.123  -4.198   4.314  0.00  0.00     0.023 A 
ATOM      5  C4  UNL d   1      -4.064  -3.551   3.674  0.00  0.00     0.048 A 
ATOM      6  C5  UNL d   1      -3.477  -4.134   2.549  0.00  0.00     0.003 A 
ATOM      7  I   UNL d   1      -5.998  -3.335   5.990  0.00  0.00    -0.146 I 
ENDROOT
TORSDOF 0
ENDMDL
