MODEL 1
REMARK minimizedAffinity 6.74401951
REMARK minimizedRMSD -1
REMARK  0 active torsions:
REMARK  status: ('A' for Active; 'I' for Inactive)
ROOT
ATOM      1  C   UNL d   1       1.335  -1.002   2.435  0.00  0.00     0.023 A 
ATOM      2  C1  UNL d   1       0.331  -0.567   3.300  0.00  0.00     0.003 A 
ATOM      3  C2  UNL d   1      -0.927  -1.171   3.271  0.00  0.00     0.048 A 
ATOM      4  C3  UNL d   1      -1.175  -2.210   2.375  0.00  0.00     0.023 A 
ATOM      5  C4  UNL d   1      -0.174  -2.650   1.508  0.00  0.00     0.048 A 
ATOM      6  C5  UNL d   1       1.083  -2.042   1.540  0.00  0.00     0.003 A 
ATOM      7  I   UNL d   1      -3.048  -3.111   2.330  0.00  0.00    -0.146 I 
ENDROOT
TORSDOF 0
ENDMDL
