MODEL 1
REMARK minimizedAffinity 11.5972128
REMARK minimizedRMSD -1
REMARK  0 active torsions:
REMARK  status: ('A' for Active; 'I' for Inactive)
ROOT
ATOM      1  C   UNL d   1      -1.759   3.748  -5.272  0.00  0.00     0.023 A 
ATOM      2  C1  UNL d   1      -2.107   3.003  -4.145  0.00  0.00     0.003 A 
ATOM      3  C2  UNL d   1      -2.584   3.648  -3.001  0.00  0.00     0.048 A 
ATOM      4  C3  UNL d   1      -2.711   5.036  -2.992  0.00  0.00     0.023 A 
ATOM      5  C4  UNL d   1      -2.364   5.785  -4.118  0.00  0.00     0.048 A 
ATOM      6  C5  UNL d   1      -1.887   5.137  -5.259  0.00  0.00     0.003 A 
ATOM      7  I   UNL d   1      -3.420   5.997  -1.291  0.00  0.00    -0.146 I 
ENDROOT
TORSDOF 0
ENDMDL
