MODEL 1
REMARK minimizedAffinity 10.4887056
REMARK minimizedRMSD -1
REMARK  0 active torsions:
REMARK  status: ('A' for Active; 'I' for Inactive)
ROOT
ATOM      1  C   UNL d   1      -5.995  -5.026   0.825  0.00  0.00     0.023 A 
ATOM      2  C1  UNL d   1      -5.455  -3.788   1.175  0.00  0.00     0.003 A 
ATOM      3  C2  UNL d   1      -4.105  -3.522   0.940  0.00  0.00     0.048 A 
ATOM      4  C3  UNL d   1      -3.300  -4.498   0.353  0.00  0.00     0.023 A 
ATOM      5  C4  UNL d   1      -3.836  -5.738   0.000  0.00  0.00     0.048 A 
ATOM      6  C5  UNL d   1      -5.187  -6.000   0.238  0.00  0.00     0.003 A 
ATOM      7  I   UNL d   1      -1.290  -4.105   0.001  0.00  0.00    -0.146 I 
ENDROOT
TORSDOF 0
ENDMDL
