MODEL 1
REMARK minimizedAffinity 1.58265781
REMARK minimizedRMSD -1
REMARK  0 active torsions:
REMARK  status: ('A' for Active; 'I' for Inactive)
ROOT
ATOM      1  C   UNL d   1      -5.279  -4.378   4.818  0.00  0.00     0.023 A 
ATOM      2  C1  UNL d   1      -4.493  -3.708   3.880  0.00  0.00     0.003 A 
ATOM      3  C2  UNL d   1      -4.424  -4.172   2.565  0.00  0.00     0.048 A 
ATOM      4  C3  UNL d   1      -5.146  -5.307   2.194  0.00  0.00     0.023 A 
ATOM      5  C4  UNL d   1      -5.934  -5.980   3.129  0.00  0.00     0.048 A 
ATOM      6  C5  UNL d   1      -5.999  -5.512   4.443  0.00  0.00     0.003 A 
ATOM      7  I   UNL d   1      -5.046  -6.000   0.238  0.00  0.00    -0.146 I 
ENDROOT
TORSDOF 0
ENDMDL
