MODEL 1
REMARK minimizedAffinity 11.796217
REMARK minimizedRMSD -1
REMARK  0 active torsions:
REMARK  status: ('A' for Active; 'I' for Inactive)
ROOT
ATOM      1  C   UNL d   1      -1.626   4.225  -3.846  0.00  0.00     0.023 A 
ATOM      2  C1  UNL d   1      -2.231   2.982  -3.659  0.00  0.00     0.003 A 
ATOM      3  C2  UNL d   1      -3.254   2.837  -2.720  0.00  0.00     0.048 A 
ATOM      4  C3  UNL d   1      -3.668   3.939  -1.972  0.00  0.00     0.023 A 
ATOM      5  C4  UNL d   1      -3.067   5.185  -2.157  0.00  0.00     0.048 A 
ATOM      6  C5  UNL d   1      -2.043   5.325  -3.096  0.00  0.00     0.003 A 
ATOM      7  I   UNL d   1      -5.191   3.725  -0.574  0.00  0.00    -0.146 I 
ENDROOT
TORSDOF 0
ENDMDL
