MODEL 1
REMARK minimizedAffinity 9.08728313
REMARK minimizedRMSD -1
REMARK  0 active torsions:
REMARK  status: ('A' for Active; 'I' for Inactive)
ROOT
ATOM      1  C   UNL d   1      -4.551  -5.281   1.934  0.00  0.00     0.023 A 
ATOM      2  C1  UNL d   1      -3.966  -4.069   2.304  0.00  0.00     0.003 A 
ATOM      3  C2  UNL d   1      -4.378  -3.421   3.470  0.00  0.00     0.048 A 
ATOM      4  C3  UNL d   1      -5.375  -3.990   4.262  0.00  0.00     0.023 A 
ATOM      5  C4  UNL d   1      -5.962  -5.203   3.896  0.00  0.00     0.048 A 
ATOM      6  C5  UNL d   1      -5.548  -5.846   2.729  0.00  0.00     0.003 A 
ATOM      7  I   UNL d   1      -5.990  -3.027   5.998  0.00  0.00    -0.146 I 
ENDROOT
TORSDOF 0
ENDMDL
