MODEL 1
REMARK minimizedAffinity 2.10824895
REMARK minimizedRMSD -1
REMARK  0 active torsions:
REMARK  status: ('A' for Active; 'I' for Inactive)
ROOT
ATOM      1  C   UNL d   1      -4.111  -4.162   3.005  0.00  0.00     0.023 A 
ATOM      2  C1  UNL d   1      -4.545  -5.470   2.788  0.00  0.00     0.003 A 
ATOM      3  C2  UNL d   1      -4.552  -5.999   1.496  0.00  0.00     0.048 A 
ATOM      4  C3  UNL d   1      -4.123  -5.215   0.425  0.00  0.00     0.023 A 
ATOM      5  C4  UNL d   1      -3.687  -3.906   0.638  0.00  0.00     0.048 A 
ATOM      6  C5  UNL d   1      -3.682  -3.381   1.932  0.00  0.00     0.003 A 
ATOM      7  I   UNL d   1      -4.133  -6.000  -1.499  0.00  0.00    -0.146 I 
ENDROOT
TORSDOF 0
ENDMDL
