MODEL 1
REMARK minimizedAffinity 14.9924669
REMARK minimizedRMSD -1
REMARK  0 active torsions:
REMARK  status: ('A' for Active; 'I' for Inactive)
ROOT
ATOM      1  C   UNL d   1       0.502  -0.915   3.096  0.00  0.00     0.023 A 
ATOM      2  C1  UNL d   1      -0.590  -0.656   3.924  0.00  0.00     0.003 A 
ATOM      3  C2  UNL d   1      -1.751  -1.424   3.811  0.00  0.00     0.048 A 
ATOM      4  C3  UNL d   1      -1.812  -2.450   2.869  0.00  0.00     0.023 A 
ATOM      5  C4  UNL d   1      -0.721  -2.714   2.039  0.00  0.00     0.048 A 
ATOM      6  C5  UNL d   1       0.437  -1.943   2.155  0.00  0.00     0.003 A 
ATOM      7  I   UNL d   1      -3.538  -3.595   2.700  0.00  0.00    -0.146 I 
ENDROOT
TORSDOF 0
ENDMDL
