MODEL 1
REMARK minimizedAffinity 0.501790702
REMARK minimizedRMSD -1
REMARK  0 active torsions:
REMARK  status: ('A' for Active; 'I' for Inactive)
ROOT
ATOM      1  C   UNL d   1       0.732  -5.091  -4.909  0.00  0.00     0.023 A 
ATOM      2  C1  UNL d   1       1.325  -3.913  -4.455  0.00  0.00     0.003 A 
ATOM      3  C2  UNL d   1       2.658  -3.637  -4.767  0.00  0.00     0.048 A 
ATOM      4  C3  UNL d   1       3.391  -4.541  -5.534  0.00  0.00     0.023 A 
ATOM      5  C4  UNL d   1       2.801  -5.720  -5.992  0.00  0.00     0.048 A 
ATOM      6  C5  UNL d   1       1.468  -5.993  -5.677  0.00  0.00     0.003 A 
ATOM      7  I   UNL d   1       5.374  -4.131  -6.000  0.00  0.00    -0.146 I 
ENDROOT
TORSDOF 0
ENDMDL
