MODEL 1
REMARK minimizedAffinity 3.14702845
REMARK minimizedRMSD -1
REMARK  0 active torsions:
REMARK  status: ('A' for Active; 'I' for Inactive)
ROOT
ATOM      1  C   UNL d   1       0.684  -0.961   1.467  0.00  0.00     0.020 A 
ATOM      2  C1  UNL d   1       1.177  -1.560   2.626  0.00  0.00     0.020 A 
ATOM      3  C2  UNL d   1       2.539  -1.484   2.925  0.00  0.00     0.034 A 
ATOM      4  C3  UNL d   1       3.412  -0.809   2.065  0.00  0.00     0.017 A 
ATOM      5  C4  UNL d   1       2.917  -0.209   0.902  0.00  0.00     0.017 A 
ATOM      6  C5  UNL d   1       1.552  -0.287   0.607  0.00  0.00     0.034 A 
ATOM      7 Cl   UNL d   1       3.933   0.642  -0.207  0.00  0.00    -0.070 Cl
ATOM      8 Cl1  UNL d   1       5.084  -0.755   2.499  0.00  0.00    -0.070 Cl
ENDROOT
TORSDOF 0
ENDMDL
