MODEL 1
REMARK minimizedAffinity 2.71269369
REMARK minimizedRMSD -1
REMARK  0 active torsions:
REMARK  status: ('A' for Active; 'I' for Inactive)
ROOT
ATOM      1  C   UNL d   1      -0.559   3.391  -4.605  0.00  0.00     0.020 A 
ATOM      2  C1  UNL d   1      -1.919   3.500  -4.896  0.00  0.00     0.020 A 
ATOM      3  C2  UNL d   1      -2.823   2.580  -4.360  0.00  0.00     0.034 A 
ATOM      4  C3  UNL d   1      -2.369   1.547  -3.531  0.00  0.00     0.017 A 
ATOM      5  C4  UNL d   1      -1.004   1.439  -3.240  0.00  0.00     0.017 A 
ATOM      6  C5  UNL d   1      -0.103   2.363  -3.779  0.00  0.00     0.034 A 
ATOM      7 Cl   UNL d   1      -0.369   0.192  -2.226  0.00  0.00    -0.070 Cl
ATOM      8 Cl1  UNL d   1      -3.543   0.446  -2.903  0.00  0.00    -0.070 Cl
ENDROOT
TORSDOF 0
ENDMDL
