MODEL 1
REMARK minimizedAffinity 0.0617233776
REMARK minimizedRMSD -1
REMARK  0 active torsions:
REMARK  status: ('A' for Active; 'I' for Inactive)
ROOT
ATOM      1  C   UNL d   1      -0.514  -0.094   1.047  0.00  0.00     0.020 A 
ATOM      2  C1  UNL d   1      -0.428   1.002   0.190  0.00  0.00     0.020 A 
ATOM      3  C2  UNL d   1       0.778   1.294  -0.451  0.00  0.00     0.034 A 
ATOM      4  C3  UNL d   1       1.902   0.489  -0.236  0.00  0.00     0.017 A 
ATOM      5  C4  UNL d   1       1.815  -0.611   0.625  0.00  0.00     0.017 A 
ATOM      6  C5  UNL d   1       0.605  -0.899   1.264  0.00  0.00     0.034 A 
ATOM      7 Cl   UNL d   1       3.159  -1.651   0.940  0.00  0.00    -0.070 Cl
ATOM      8 Cl1  UNL d   1       3.361   0.908  -1.062  0.00  0.00    -0.070 Cl
ENDROOT
TORSDOF 0
ENDMDL
