MODEL 1
REMARK minimizedAffinity -2.26825023
REMARK minimizedRMSD -1
REMARK  0 active torsions:
REMARK  status: ('A' for Active; 'I' for Inactive)
ROOT
ATOM      1  C   UNL d   1       2.310  -5.975  -4.210  0.00  0.00     0.020 A 
ATOM      2  C1  UNL d   1       1.980  -5.971  -5.565  0.00  0.00     0.020 A 
ATOM      3  C2  UNL d   1       0.639  -5.976  -5.957  0.00  0.00     0.034 A 
ATOM      4  C3  UNL d   1      -0.376  -5.985  -4.993  0.00  0.00     0.017 A 
ATOM      5  C4  UNL d   1      -0.043  -5.989  -3.634  0.00  0.00     0.017 A 
ATOM      6  C5  UNL d   1       1.300  -5.984  -3.247  0.00  0.00     0.034 A 
ATOM      7 Cl   UNL d   1      -1.240  -6.000  -2.387  0.00  0.00    -0.070 Cl
ATOM      8 Cl1  UNL d   1      -2.012  -5.990  -5.550  0.00  0.00    -0.070 Cl
ENDROOT
TORSDOF 0
ENDMDL
