MODEL 1
REMARK minimizedAffinity -0.706283092
REMARK minimizedRMSD -1
REMARK  0 active torsions:
REMARK  status: ('A' for Active; 'I' for Inactive)
ROOT
ATOM      1  C   UNL d   1       2.518  -0.973   4.322  0.00  0.00     0.020 A 
ATOM      2  C1  UNL d   1       3.733  -1.063   3.643  0.00  0.00     0.020 A 
ATOM      3  C2  UNL d   1       3.770  -0.908   2.255  0.00  0.00     0.034 A 
ATOM      4  C3  UNL d   1       2.590  -0.662   1.543  0.00  0.00     0.017 A 
ATOM      5  C4  UNL d   1       1.372  -0.572   2.226  0.00  0.00     0.017 A 
ATOM      6  C5  UNL d   1       1.341  -0.727   3.615  0.00  0.00     0.034 A 
ATOM      7 Cl   UNL d   1      -0.125  -0.270   1.415  0.00  0.00    -0.070 Cl
ATOM      8 Cl1  UNL d   1       2.710  -0.481  -0.171  0.00  0.00    -0.070 Cl
ENDROOT
TORSDOF 0
ENDMDL
