MODEL 1
REMARK minimizedAffinity 7.11022043
REMARK minimizedRMSD -1
REMARK  0 active torsions:
REMARK  status: ('A' for Active; 'I' for Inactive)
ROOT
ATOM      1  C   UNL d   1       1.214  -0.021   0.204  0.00  0.00     0.020 A 
ATOM      2  C1  UNL d   1       1.445  -1.375  -0.034  0.00  0.00     0.020 A 
ATOM      3  C2  UNL d   1       0.379  -2.276  -0.033  0.00  0.00     0.034 A 
ATOM      4  C3  UNL d   1      -0.924  -1.825   0.207  0.00  0.00     0.017 A 
ATOM      5  C4  UNL d   1      -1.155  -0.465   0.446  0.00  0.00     0.017 A 
ATOM      6  C5  UNL d   1      -0.084   0.433   0.444  0.00  0.00     0.034 A 
ATOM      7 Cl   UNL d   1      -2.735   0.167   0.751  0.00  0.00    -0.070 Cl
ATOM      8 Cl1  UNL d   1      -2.196  -2.995   0.194  0.00  0.00    -0.070 Cl
ENDROOT
TORSDOF 0
ENDMDL
