MODEL 1
REMARK minimizedAffinity 0.822823524
REMARK minimizedRMSD -1
REMARK  0 active torsions:
REMARK  status: ('A' for Active; 'I' for Inactive)
ROOT
ATOM      1  C   UNL d   1      -5.951  -5.805   2.913  0.00  0.00     0.020 A 
ATOM      2  C1  UNL d   1      -4.785  -5.349   3.526  0.00  0.00     0.020 A 
ATOM      3  C2  UNL d   1      -3.648  -5.086   2.758  0.00  0.00     0.034 A 
ATOM      4  C3  UNL d   1      -3.676  -5.279   1.372  0.00  0.00     0.017 A 
ATOM      5  C4  UNL d   1      -4.847  -5.738   0.757  0.00  0.00     0.017 A 
ATOM      6  C5  UNL d   1      -5.982  -5.999   1.531  0.00  0.00     0.034 A 
ATOM      7 Cl   UNL d   1      -4.957  -6.000  -0.948  0.00  0.00    -0.070 Cl
ATOM      8 Cl1  UNL d   1      -2.235  -4.934   0.484  0.00  0.00    -0.070 Cl
ENDROOT
TORSDOF 0
ENDMDL
