MODEL 1
REMARK minimizedAffinity -3.36851382
REMARK minimizedRMSD -1
REMARK  0 active torsions:
REMARK  status: ('A' for Active; 'I' for Inactive)
ROOT
ATOM      1  C   UNL d   1      -4.876  -5.460   2.308  0.00  0.00     0.020 A 
ATOM      2  C1  UNL d   1      -3.484  -5.460   2.237  0.00  0.00     0.020 A 
ATOM      3  C2  UNL d   1      -2.847  -5.628   1.006  0.00  0.00     0.034 A 
ATOM      4  C3  UNL d   1      -3.602  -5.797  -0.160  0.00  0.00     0.017 A 
ATOM      5  C4  UNL d   1      -5.000  -5.797  -0.088  0.00  0.00     0.017 A 
ATOM      6  C5  UNL d   1      -5.633  -5.628   1.147  0.00  0.00     0.034 A 
ATOM      7 Cl   UNL d   1      -6.000  -6.000  -1.484  0.00  0.00    -0.070 Cl
ATOM      8 Cl1  UNL d   1      -2.748  -5.999  -1.648  0.00  0.00    -0.070 Cl
ENDROOT
TORSDOF 0
ENDMDL
