MODEL 1
REMARK minimizedAffinity -0.830440521
REMARK minimizedRMSD -1
REMARK  0 active torsions:
REMARK  status: ('A' for Active; 'I' for Inactive)
ROOT
ATOM      1  C   UNL d   1      -0.818  -5.752  -5.999  0.00  0.00     0.020 A 
ATOM      2  C1  UNL d   1       0.142  -5.256  -5.119  0.00  0.00     0.020 A 
ATOM      3  C2  UNL d   1      -0.201  -4.982  -3.793  0.00  0.00     0.034 A 
ATOM      4  C3  UNL d   1      -1.508  -5.203  -3.344  0.00  0.00     0.017 A 
ATOM      5  C4  UNL d   1      -2.471  -5.701  -4.229  0.00  0.00     0.017 A 
ATOM      6  C5  UNL d   1      -2.122  -5.974  -5.555  0.00  0.00     0.034 A 
ATOM      7 Cl   UNL d   1      -4.104  -6.000  -3.748  0.00  0.00    -0.070 Cl
ATOM      8 Cl1  UNL d   1      -1.861  -4.843  -1.692  0.00  0.00    -0.070 Cl
ENDROOT
TORSDOF 0
ENDMDL
