MODEL 1
REMARK minimizedAffinity 3.78730488
REMARK minimizedRMSD -1
REMARK  0 active torsions:
REMARK  status: ('A' for Active; 'I' for Inactive)
ROOT
ATOM      1  C   UNL d   1      -1.114  -5.981  -6.000  0.00  0.00     0.020 A 
ATOM      2  C1  UNL d   1       0.185  -5.497  -5.853  0.00  0.00     0.020 A 
ATOM      3  C2  UNL d   1       0.621  -5.033  -4.611  0.00  0.00     0.034 A 
ATOM      4  C3  UNL d   1      -0.243  -5.050  -3.510  0.00  0.00     0.017 A 
ATOM      5  C4  UNL d   1      -1.547  -5.536  -3.658  0.00  0.00     0.017 A 
ATOM      6  C5  UNL d   1      -1.979  -6.000  -4.905  0.00  0.00     0.034 A 
ATOM      7 Cl   UNL d   1      -2.671  -5.589  -2.346  0.00  0.00    -0.070 Cl
ATOM      8 Cl1  UNL d   1       0.363  -4.460  -2.003  0.00  0.00    -0.070 Cl
ENDROOT
TORSDOF 0
ENDMDL
