MODEL 1
REMARK minimizedAffinity -2.60264659
REMARK minimizedRMSD -1
REMARK  0 active torsions:
REMARK  status: ('A' for Active; 'I' for Inactive)
ROOT
ATOM      1  C   UNL d   1      -0.980  -5.968  -6.000  0.00  0.00     0.020 A 
ATOM      2  C1  UNL d   1       0.158  -5.939  -5.194  0.00  0.00     0.020 A 
ATOM      3  C2  UNL d   1       0.028  -5.929  -3.803  0.00  0.00     0.034 A 
ATOM      4  C3  UNL d   1      -1.242  -5.947  -3.215  0.00  0.00     0.017 A 
ATOM      5  C4  UNL d   1      -2.383  -5.976  -4.024  0.00  0.00     0.017 A 
ATOM      6  C5  UNL d   1      -2.247  -5.986  -5.416  0.00  0.00     0.034 A 
ATOM      7 Cl   UNL d   1      -3.983  -6.000  -3.371  0.00  0.00    -0.070 Cl
ATOM      8 Cl1  UNL d   1      -1.327  -5.934  -1.489  0.00  0.00    -0.070 Cl
ENDROOT
TORSDOF 0
ENDMDL
