MODEL 1
REMARK minimizedAffinity 4.23799658
REMARK minimizedRMSD -1
REMARK  0 active torsions:
REMARK  status: ('A' for Active; 'I' for Inactive)
ROOT
ATOM      1  C   UNL d   1      -4.592   0.370  -2.807  0.00  0.00     0.020 A 
ATOM      2  C1  UNL d   1      -5.821   0.723  -2.253  0.00  0.00     0.020 A 
ATOM      3  C2  UNL d   1      -5.999   0.685  -0.868  0.00  0.00     0.034 A 
ATOM      4  C3  UNL d   1      -4.946   0.293  -0.034  0.00  0.00     0.017 A 
ATOM      5  C4  UNL d   1      -3.712  -0.061  -0.592  0.00  0.00     0.017 A 
ATOM      6  C5  UNL d   1      -3.540  -0.021  -1.979  0.00  0.00     0.034 A 
ATOM      7 Cl   UNL d   1      -2.366  -0.555   0.374  0.00  0.00    -0.070 Cl
ATOM      8 Cl1  UNL d   1      -5.237   0.269   1.669  0.00  0.00    -0.070 Cl
ENDROOT
TORSDOF 0
ENDMDL
