MODEL 1
REMARK minimizedAffinity 1.40383232
REMARK minimizedRMSD -1
REMARK  0 active torsions:
REMARK  status: ('A' for Active; 'I' for Inactive)
ROOT
ATOM      1  C   UNL d   1      -0.225   4.396  -4.227  0.00  0.00     0.020 A 
ATOM      2  C1  UNL d   1      -1.494   4.474  -4.800  0.00  0.00     0.020 A 
ATOM      3  C2  UNL d   1      -2.463   3.521  -4.482  0.00  0.00     0.034 A 
ATOM      4  C3  UNL d   1      -2.166   2.485  -3.589  0.00  0.00     0.017 A 
ATOM      5  C4  UNL d   1      -0.892   2.407  -3.015  0.00  0.00     0.017 A 
ATOM      6  C5  UNL d   1       0.075   3.365  -3.336  0.00  0.00     0.034 A 
ATOM      7 Cl   UNL d   1      -0.450   1.159  -1.904  0.00  0.00    -0.070 Cl
ATOM      8 Cl1  UNL d   1      -3.413   1.341  -3.241  0.00  0.00    -0.070 Cl
ENDROOT
TORSDOF 0
ENDMDL
