MODEL 1
REMARK minimizedAffinity 4.42371416
REMARK minimizedRMSD -1
REMARK  0 active torsions:
REMARK  status: ('A' for Active; 'I' for Inactive)
ROOT
ATOM      1  C   UNL d   1       4.815  -0.680   1.859  0.00  0.00     0.020 A 
ATOM      2  C1  UNL d   1       4.583  -0.986   3.200  0.00  0.00     0.020 A 
ATOM      3  C2  UNL d   1       3.287  -1.265   3.638  0.00  0.00     0.034 A 
ATOM      4  C3  UNL d   1       2.217  -1.238   2.736  0.00  0.00     0.017 A 
ATOM      5  C4  UNL d   1       2.451  -0.931   1.390  0.00  0.00     0.017 A 
ATOM      6  C5  UNL d   1       3.751  -0.653   0.957  0.00  0.00     0.034 A 
ATOM      7 Cl   UNL d   1       1.182  -0.879   0.218  0.00  0.00    -0.070 Cl
ATOM      8 Cl1  UNL d   1       0.641  -1.593   3.347  0.00  0.00    -0.070 Cl
ENDROOT
TORSDOF 0
ENDMDL
