MODEL 1
REMARK minimizedAffinity 4.89232635
REMARK minimizedRMSD -1
REMARK  0 active torsions:
REMARK  status: ('A' for Active; 'I' for Inactive)
ROOT
ATOM      1  C   UNL d   1       1.888  -5.900  -3.961  0.00  0.00     0.020 A 
ATOM      2  C1  UNL d   1       1.788  -5.932  -5.351  0.00  0.00     0.020 A 
ATOM      3  C2  UNL d   1       0.532  -5.962  -5.960  0.00  0.00     0.034 A 
ATOM      4  C3  UNL d   1      -0.629  -5.960  -5.179  0.00  0.00     0.017 A 
ATOM      5  C4  UNL d   1      -0.528  -5.928  -3.783  0.00  0.00     0.017 A 
ATOM      6  C5  UNL d   1       0.733  -5.898  -3.179  0.00  0.00     0.034 A 
ATOM      7 Cl   UNL d   1      -1.916  -5.923  -2.753  0.00  0.00    -0.070 Cl
ATOM      8 Cl1  UNL d   1      -2.150  -5.999  -5.999  0.00  0.00    -0.070 Cl
ENDROOT
TORSDOF 0
ENDMDL
