MODEL 1
REMARK minimizedAffinity 3.36202979
REMARK minimizedRMSD -1
REMARK  0 active torsions:
REMARK  status: ('A' for Active; 'I' for Inactive)
ROOT
ATOM      1  C   UNL d   1      -0.658   3.584  -3.082  0.00  0.00     0.020 A 
ATOM      2  C1  UNL d   1      -0.792   2.241  -3.434  0.00  0.00     0.020 A 
ATOM      3  C2  UNL d   1      -0.497   1.243  -2.503  0.00  0.00     0.034 A 
ATOM      4  C3  UNL d   1      -0.067   1.586  -1.216  0.00  0.00     0.017 A 
ATOM      5  C4  UNL d   1       0.067   2.933  -0.864  0.00  0.00     0.017 A 
ATOM      6  C5  UNL d   1      -0.230   3.929  -1.800  0.00  0.00     0.034 A 
ATOM      7 Cl   UNL d   1       0.592   3.434   0.705  0.00  0.00    -0.070 Cl
ATOM      8 Cl1  UNL d   1       0.280   0.299  -0.116  0.00  0.00    -0.070 Cl
ENDROOT
TORSDOF 0
ENDMDL
