MODEL 1
REMARK minimizedAffinity -1.68820238
REMARK minimizedRMSD -1
REMARK  0 active torsions:
REMARK  status: ('A' for Active; 'I' for Inactive)
ROOT
ATOM      1  C   UNL d   1       0.772  -0.239  -0.250  0.00  0.00     0.020 A 
ATOM      2  C1  UNL d   1       2.133  -0.247  -0.553  0.00  0.00     0.020 A 
ATOM      3  C2  UNL d   1       3.065  -0.592   0.429  0.00  0.00     0.034 A 
ATOM      4  C3  UNL d   1       2.637  -0.931   1.718  0.00  0.00     0.017 A 
ATOM      5  C4  UNL d   1       1.271  -0.922   2.021  0.00  0.00     0.017 A 
ATOM      6  C5  UNL d   1       0.342  -0.576   1.034  0.00  0.00     0.034 A 
ATOM      7 Cl   UNL d   1       0.666  -1.328   3.588  0.00  0.00    -0.070 Cl
ATOM      8 Cl1  UNL d   1       3.844  -1.347   2.881  0.00  0.00    -0.070 Cl
ENDROOT
TORSDOF 0
ENDMDL
