MODEL 1
REMARK minimizedAffinity -0.623044312
REMARK minimizedRMSD -1
REMARK  0 active torsions:
REMARK  status: ('A' for Active; 'I' for Inactive)
ROOT
ATOM      1  C   UNL d   1       2.741  -0.603  -0.365  0.00  0.00     0.020 A 
ATOM      2  C1  UNL d   1       3.454  -1.285   0.621  0.00  0.00     0.020 A 
ATOM      3  C2  UNL d   1       2.888  -1.480   1.882  0.00  0.00     0.034 A 
ATOM      4  C3  UNL d   1       1.606  -0.993   2.162  0.00  0.00     0.017 A 
ATOM      5  C4  UNL d   1       0.892  -0.308   1.172  0.00  0.00     0.017 A 
ATOM      6  C5  UNL d   1       1.463  -0.116  -0.090  0.00  0.00     0.034 A 
ATOM      7 Cl   UNL d   1      -0.695   0.322   1.442  0.00  0.00    -0.070 Cl
ATOM      8 Cl1  UNL d   1       0.968  -1.271   3.743  0.00  0.00    -0.070 Cl
ENDROOT
TORSDOF 0
ENDMDL
