MODEL 1
REMARK minimizedAffinity -3.37151003
REMARK minimizedRMSD -1
REMARK  0 active torsions:
REMARK  status: ('A' for Active; 'I' for Inactive)
ROOT
ATOM      1  C1  DEN d   1       0.708  -1.044  -0.357  0.00  0.00     0.130 A 
ATOM      2  C2  DEN d   1       0.871  -0.421  -1.668  0.00  0.00    -0.031 A 
ATOM      3  C3  DEN d   1       0.111   0.846  -1.669  0.00  0.00     0.027 A 
ATOM      4  C4  DEN d   1      -1.291   1.898   0.223  0.00  0.00     0.027 A 
ATOM      5  C5  DEN d   1      -1.735   1.733   1.516  0.00  0.00    -0.003 A 
ATOM      6  C6  DEN d   1      -1.427   0.623   2.257  0.00  0.00     0.001 A 
ATOM      7  C7  DEN d   1      -0.615  -0.344   1.727  0.00  0.00     0.017 A 
ATOM      8  C8  DEN d   1      -0.169  -0.187   0.421  0.00  0.00    -0.094 A 
ATOM      9  C9  DEN d   1      -0.481   0.947  -0.308  0.00  0.00    -0.072 A 
ENDROOT
TORSDOF 0
ENDMDL
