MODEL 1
REMARK minimizedAffinity -3.23945689
REMARK minimizedRMSD -1
REMARK  0 active torsions:
REMARK  status: ('A' for Active; 'I' for Inactive)
ROOT
ATOM      1  C1  DEN d   1      -0.439   0.899   0.657  0.00  0.00     0.130 A 
ATOM      2  C2  DEN d   1       0.185   0.448   1.898  0.00  0.00    -0.031 A 
ATOM      3  C3  DEN d   1       1.124  -0.643   1.567  0.00  0.00     0.027 A 
ATOM      4  C4  DEN d   1       1.674  -1.667  -0.735  0.00  0.00     0.027 A 
ATOM      5  C5  DEN d   1       1.388  -1.621  -2.082  0.00  0.00    -0.003 A 
ATOM      6  C6  DEN d   1       0.456  -0.762  -2.601  0.00  0.00     0.001 A 
ATOM      7  C7  DEN d   1      -0.192   0.118  -1.774  0.00  0.00     0.017 A 
ATOM      8  C8  DEN d   1       0.086   0.072  -0.414  0.00  0.00    -0.094 A 
ATOM      9  C9  DEN d   1       1.041  -0.795   0.089  0.00  0.00    -0.072 A 
ENDROOT
TORSDOF 0
ENDMDL
