MODEL 1
REMARK minimizedAffinity -3.69065857
REMARK minimizedRMSD -1
REMARK  0 active torsions:
REMARK  status: ('A' for Active; 'I' for Inactive)
ROOT
ATOM      1  C1  DEN d   1       0.688   1.072   1.475  0.00  0.00     0.130 A 
ATOM      2  C2  DEN d   1      -0.478   1.422   2.282  0.00  0.00    -0.031 A 
ATOM      3  C3  DEN d   1      -1.637   0.671   1.760  0.00  0.00     0.027 A 
ATOM      4  C4  DEN d   1      -1.738  -0.997  -0.205  0.00  0.00     0.027 A 
ATOM      5  C5  DEN d   1      -1.005  -1.607  -1.198  0.00  0.00    -0.003 A 
ATOM      6  C6  DEN d   1       0.326  -1.343  -1.391  0.00  0.00     0.001 A 
ATOM      7  C7  DEN d   1       0.975  -0.480  -0.548  0.00  0.00     0.017 A 
ATOM      8  C8  DEN d   1       0.241   0.145   0.451  0.00  0.00    -0.094 A 
ATOM      9  C9  DEN d   1      -1.101  -0.144   0.637  0.00  0.00    -0.072 A 
ENDROOT
TORSDOF 0
ENDMDL
