MODEL 1
REMARK minimizedAffinity -2.23190522
REMARK minimizedRMSD -1
REMARK  0 active torsions:
REMARK  status: ('A' for Active; 'I' for Inactive)
ROOT
ATOM      1  C   UNL d   1       0.415  -1.853  -3.144  0.00  0.00     0.172 C 
ATOM      2  N   UNL d   1       0.250  -1.118  -1.912  0.00  0.00    -0.070 N 
ATOM      3  C1  UNL d   1       0.052   0.234  -1.810  0.00  0.00    -0.004 A 
ATOM      4  C2  UNL d   1      -0.058   0.544  -0.471  0.00  0.00    -0.047 A 
ATOM      5  C3  UNL d   1       0.079  -0.663   0.255  0.00  0.00    -0.047 A 
ATOM      6  C4  UNL d   1       0.269  -1.675  -0.661  0.00  0.00    -0.004 A 
ENDROOT
TORSDOF 0
ENDMDL
