MODEL 1
REMARK minimizedAffinity -1.37039554
REMARK minimizedRMSD -1
REMARK  0 active torsions:
REMARK  status: ('A' for Active; 'I' for Inactive)
ROOT
ATOM      1  C   UNL d   1       0.034   0.400  -1.097  0.00  0.00     0.172 C 
ATOM      2  N   UNL d   1       0.486  -0.170  -2.344  0.00  0.00    -0.070 N 
ATOM      3  C1  UNL d   1      -0.141  -1.169  -3.039  0.00  0.00    -0.004 A 
ATOM      4  C2  UNL d   1       0.602  -1.429  -4.170  0.00  0.00    -0.047 A 
ATOM      5  C3  UNL d   1       1.716  -0.556  -4.154  0.00  0.00    -0.047 A 
ATOM      6  C4  UNL d   1       1.620   0.212  -3.012  0.00  0.00    -0.004 A 
ENDROOT
TORSDOF 0
ENDMDL
