MODEL 1
REMARK minimizedAffinity -1.43533862
REMARK minimizedRMSD -1
REMARK  0 active torsions:
REMARK  status: ('A' for Active; 'I' for Inactive)
ROOT
ATOM      1  C   UNL d   1      -0.915  -0.688   3.135  0.00  0.00     0.172 C 
ATOM      2  N   UNL d   1      -0.637  -0.306   1.771  0.00  0.00    -0.070 N 
ATOM      3  C1  UNL d   1       0.601  -0.026   1.257  0.00  0.00    -0.004 A 
ATOM      4  C2  UNL d   1       0.442   0.296  -0.074  0.00  0.00    -0.047 A 
ATOM      5  C3  UNL d   1      -0.939   0.207  -0.370  0.00  0.00    -0.047 A 
ATOM      6  C4  UNL d   1      -1.584  -0.167   0.790  0.00  0.00    -0.004 A 
ENDROOT
TORSDOF 0
ENDMDL
