MODEL 1
REMARK minimizedAffinity -2.37614894
REMARK minimizedRMSD -1
REMARK  0 active torsions:
REMARK  status: ('A' for Active; 'I' for Inactive)
ROOT
ATOM      1  C   UNL d   1      -0.335   0.518  -1.583  0.00  0.00     0.172 C 
ATOM      2  N   UNL d   1       0.513  -0.315  -2.404  0.00  0.00    -0.070 N 
ATOM      3  C1  UNL d   1       0.121  -1.451  -3.060  0.00  0.00    -0.004 A 
ATOM      4  C2  UNL d   1       1.218  -1.951  -3.729  0.00  0.00    -0.047 A 
ATOM      5  C3  UNL d   1       2.306  -1.086  -3.465  0.00  0.00    -0.047 A 
ATOM      6  C4  UNL d   1       1.842  -0.081  -2.642  0.00  0.00    -0.004 A 
ENDROOT
TORSDOF 0
ENDMDL
