MODEL 1
REMARK minimizedAffinity -3.25310516
REMARK minimizedRMSD -1
REMARK  0 active torsions:
REMARK  status: ('A' for Active; 'I' for Inactive)
ROOT
ATOM      1  C   UNL d   1      -0.392   0.293  -1.110  0.00  0.00     0.172 C 
ATOM      2  N   UNL d   1      -0.438  -0.015   0.300  0.00  0.00    -0.070 N 
ATOM      3  C1  UNL d   1       0.523   0.310   1.220  0.00  0.00    -0.004 A 
ATOM      4  C2  UNL d   1       0.108  -0.157   2.448  0.00  0.00    -0.047 A 
ATOM      5  C3  UNL d   1      -1.146  -0.786   2.260  0.00  0.00    -0.047 A 
ATOM      6  C4  UNL d   1      -1.460  -0.683   0.921  0.00  0.00    -0.004 A 
ENDROOT
TORSDOF 0
ENDMDL
