MODEL 1
REMARK minimizedAffinity -2.49355698
REMARK minimizedRMSD -1
REMARK  0 active torsions:
REMARK  status: ('A' for Active; 'I' for Inactive)
ROOT
ATOM      1  C   UNL d   1       0.671   0.094  -1.996  0.00  0.00     0.172 C 
ATOM      2  N   UNL d   1      -0.282  -0.145  -0.938  0.00  0.00    -0.070 N 
ATOM      3  C1  UNL d   1      -0.025  -0.803   0.235  0.00  0.00    -0.004 A 
ATOM      4  C2  UNL d   1      -1.189  -0.820   0.973  0.00  0.00    -0.047 A 
ATOM      5  C3  UNL d   1      -2.180  -0.149   0.217  0.00  0.00    -0.047 A 
ATOM      6  C4  UNL d   1      -1.591   0.259  -0.961  0.00  0.00    -0.004 A 
ENDROOT
TORSDOF 0
ENDMDL
