MODEL 1
REMARK minimizedAffinity 0.419499457
REMARK minimizedRMSD -1
REMARK  0 active torsions:
REMARK  status: ('A' for Active; 'I' for Inactive)
ROOT
ATOM      1  C   UNL d   1       1.137  -0.751  -2.844  0.00  0.00     0.172 C 
ATOM      2  N   UNL d   1       0.331  -0.568  -1.659  0.00  0.00    -0.070 N 
ATOM      3  C1  UNL d   1       0.076  -1.523  -0.712  0.00  0.00    -0.004 A 
ATOM      4  C2  UNL d   1      -0.727  -0.955   0.254  0.00  0.00    -0.047 A 
ATOM      5  C3  UNL d   1      -0.963   0.387  -0.127  0.00  0.00    -0.047 A 
ATOM      6  C4  UNL d   1      -0.297   0.600  -1.315  0.00  0.00    -0.004 A 
ENDROOT
TORSDOF 0
ENDMDL
