MODEL 1
REMARK minimizedAffinity -3.69703627
REMARK minimizedRMSD -1
REMARK  0 active torsions:
REMARK  status: ('A' for Active; 'I' for Inactive)
ROOT
ATOM      1  C   UNL d   1       0.360  -0.024  -0.775  0.00  0.00     0.172 C 
ATOM      2  N   UNL d   1       0.086  -0.254   0.624  0.00  0.00    -0.070 N 
ATOM      3  C1  UNL d   1       0.746   0.328   1.674  0.00  0.00    -0.004 A 
ATOM      4  C2  UNL d   1       0.189  -0.150   2.840  0.00  0.00    -0.047 A 
ATOM      5  C3  UNL d   1      -0.841  -1.051   2.479  0.00  0.00    -0.047 A 
ATOM      6  C4  UNL d   1      -0.883  -1.096   1.102  0.00  0.00    -0.004 A 
ENDROOT
TORSDOF 0
ENDMDL
