MODEL 1
REMARK minimizedAffinity -3.54934812
REMARK minimizedRMSD -1
REMARK  0 active torsions:
REMARK  status: ('A' for Active; 'I' for Inactive)
ROOT
ATOM      1  C   UNL d   1      -0.215  -1.081   2.637  0.00  0.00     0.172 C 
ATOM      2  N   UNL d   1      -0.027  -0.376   1.391  0.00  0.00    -0.070 N 
ATOM      3  C1  UNL d   1      -1.025   0.037   0.549  0.00  0.00    -0.004 A 
ATOM      4  C2  UNL d   1      -0.437   0.669  -0.524  0.00  0.00    -0.047 A 
ATOM      5  C3  UNL d   1       0.963   0.635  -0.321  0.00  0.00    -0.047 A 
ATOM      6  C4  UNL d   1       1.189  -0.017   0.872  0.00  0.00    -0.004 A 
ENDROOT
TORSDOF 0
ENDMDL
