MODEL 1
REMARK minimizedAffinity -3.86668468
REMARK minimizedRMSD -1
REMARK  0 active torsions:
REMARK  status: ('A' for Active; 'I' for Inactive)
ROOT
ATOM      1  C   UNL d   1      -0.133  -0.031  -0.420  0.00  0.00     0.172 C 
ATOM      2  N   UNL d   1      -0.451  -0.242   0.973  0.00  0.00    -0.070 N 
ATOM      3  C1  UNL d   1       0.027   0.497   2.022  0.00  0.00    -0.004 A 
ATOM      4  C2  UNL d   1      -0.511  -0.019   3.181  0.00  0.00    -0.047 A 
ATOM      5  C3  UNL d   1      -1.340  -1.106   2.816  0.00  0.00    -0.047 A 
ATOM      6  C4  UNL d   1      -1.285  -1.222   1.443  0.00  0.00    -0.004 A 
ENDROOT
TORSDOF 0
ENDMDL
