MODEL 1
REMARK minimizedAffinity -0.69079411
REMARK minimizedRMSD -1
REMARK  0 active torsions:
REMARK  status: ('A' for Active; 'I' for Inactive)
ROOT
ATOM      1  C   UNL d   1      -0.270  -0.083  -1.602  0.00  0.00     0.172 C 
ATOM      2  N   UNL d   1       0.605  -0.685  -2.580  0.00  0.00    -0.070 N 
ATOM      3  C1  UNL d   1       0.375  -0.744  -3.929  0.00  0.00    -0.004 A 
ATOM      4  C2  UNL d   1       1.441  -1.395  -4.511  0.00  0.00    -0.047 A 
ATOM      5  C3  UNL d   1       2.343  -1.739  -3.476  0.00  0.00    -0.047 A 
ATOM      6  C4  UNL d   1       1.801  -1.288  -2.292  0.00  0.00    -0.004 A 
ENDROOT
TORSDOF 0
ENDMDL
