MODEL 1
REMARK minimizedAffinity -4.0619092
REMARK minimizedRMSD -1
REMARK  0 active torsions:
REMARK  status: ('A' for Active; 'I' for Inactive)
ROOT
ATOM      1  C   UNL d   1       0.328   0.099  -1.138  0.00  0.00     0.172 C 
ATOM      2  N   UNL d   1       0.195   0.053   0.300  0.00  0.00    -0.070 N 
ATOM      3  C1  UNL d   1      -0.907  -0.382   0.986  0.00  0.00    -0.004 A 
ATOM      4  C2  UNL d   1      -0.637  -0.268   2.333  0.00  0.00    -0.047 A 
ATOM      5  C3  UNL d   1       0.672   0.255   2.460  0.00  0.00    -0.047 A 
ATOM      6  C4  UNL d   1       1.164   0.445   1.186  0.00  0.00    -0.004 A 
ENDROOT
TORSDOF 0
ENDMDL
