MODEL 1
REMARK minimizedAffinity -3.94607639
REMARK minimizedRMSD -1
REMARK  0 active torsions:
REMARK  status: ('A' for Active; 'I' for Inactive)
ROOT
ATOM      1  C   UNL d   1       0.111   0.300  -0.801  0.00  0.00     0.172 C 
ATOM      2  N   UNL d   1       0.033   0.092   0.626  0.00  0.00    -0.070 N 
ATOM      3  C1  UNL d   1      -1.009  -0.496   1.291  0.00  0.00    -0.004 A 
ATOM      4  C2  UNL d   1      -0.700  -0.506   2.634  0.00  0.00    -0.047 A 
ATOM      5  C3  UNL d   1       0.572   0.097   2.781  0.00  0.00    -0.047 A 
ATOM      6  C4  UNL d   1       1.003   0.458   1.522  0.00  0.00    -0.004 A 
ENDROOT
TORSDOF 0
ENDMDL
