MODEL 1
REMARK minimizedAffinity -3.31266284
REMARK minimizedRMSD -1
REMARK  0 active torsions:
REMARK  status: ('A' for Active; 'I' for Inactive)
ROOT
ATOM      1  C   UNL d   1      -0.488  -0.611   3.144  0.00  0.00     0.172 C 
ATOM      2  N   UNL d   1      -0.246  -0.359   1.743  0.00  0.00    -0.070 N 
ATOM      3  C1  UNL d   1      -1.196  -0.349   0.757  0.00  0.00    -0.004 A 
ATOM      4  C2  UNL d   1      -0.565  -0.071  -0.436  0.00  0.00    -0.047 A 
ATOM      5  C3  UNL d   1       0.813   0.091  -0.158  0.00  0.00    -0.047 A 
ATOM      6  C4  UNL d   1       0.983  -0.092   1.198  0.00  0.00    -0.004 A 
ENDROOT
TORSDOF 0
ENDMDL
