MODEL 1
REMARK minimizedAffinity -3.44309187
REMARK minimizedRMSD -1
REMARK  0 active torsions:
REMARK  status: ('A' for Active; 'I' for Inactive)
ROOT
ATOM      1  C   UNL d   1       0.057   0.302  -0.960  0.00  0.00     0.172 C 
ATOM      2  N   UNL d   1       0.075   0.141   0.475  0.00  0.00    -0.070 N 
ATOM      3  C1  UNL d   1       1.156   0.353   1.288  0.00  0.00    -0.004 A 
ATOM      4  C2  UNL d   1       0.766   0.093   2.584  0.00  0.00    -0.047 A 
ATOM      5  C3  UNL d   1      -0.596  -0.289   2.548  0.00  0.00    -0.047 A 
ATOM      6  C4  UNL d   1      -0.999  -0.250   1.230  0.00  0.00    -0.004 A 
ENDROOT
TORSDOF 0
ENDMDL
