MODEL 1
REMARK minimizedAffinity -2.76125836
REMARK minimizedRMSD -1
REMARK  0 active torsions:
REMARK  status: ('A' for Active; 'I' for Inactive)
ROOT
ATOM      1  C   UNL d   1      -0.056  -0.003   2.830  0.00  0.00     0.172 C 
ATOM      2  N   UNL d   1      -0.178   0.151   1.399  0.00  0.00    -0.070 N 
ATOM      3  C1  UNL d   1       0.864   0.234   0.514  0.00  0.00    -0.004 A 
ATOM      4  C2  UNL d   1       0.333   0.374  -0.750  0.00  0.00    -0.047 A 
ATOM      5  C3  UNL d   1      -1.076   0.377  -0.620  0.00  0.00    -0.047 A 
ATOM      6  C4  UNL d   1      -1.365   0.238   0.721  0.00  0.00    -0.004 A 
ENDROOT
TORSDOF 0
ENDMDL
