MODEL 1
REMARK minimizedAffinity 6.26602221
REMARK minimizedRMSD -1
REMARK  0 active torsions:
REMARK  status: ('A' for Active; 'I' for Inactive)
ROOT
ATOM      1  C   UNL d   1       1.011   0.328   1.150  0.00  0.00    -0.002 A 
ATOM      2  C1  UNL d   1       1.629   1.169   0.237  0.00  0.00     0.010 A 
ATOM      3  C2  UNL d   1       3.007   1.388   0.293  0.00  0.00     0.041 A 
ATOM      4  C3  UNL d   1       3.760   0.740   1.292  0.00  0.00    -0.075 A 
ATOM      5  S   UNL d   1       5.460   0.858   1.553  0.00  0.00     0.015 SA
ATOM      6  C4  UNL d   1       5.405  -0.206   2.883  0.00  0.00     0.022 A 
ATOM      7  C5  UNL d   1       4.129  -0.650   3.136  0.00  0.00     0.026 A 
ATOM      8  C6  UNL d   1       3.160  -0.112   2.223  0.00  0.00    -0.082 A 
ATOM      9  C7  UNL d   1       1.761  -0.313   2.140  0.00  0.00     0.045 A 
ENDROOT
TORSDOF 0
ENDMDL
