MODEL 1
REMARK minimizedAffinity 9.021842
REMARK minimizedRMSD -1
REMARK  0 active torsions:
REMARK  status: ('A' for Active; 'I' for Inactive)
ROOT
ATOM      1  C   UNL d   1       1.376  -0.955   2.645  0.00  0.00    -0.002 A 
ATOM      2  C1  UNL d   1       2.394  -1.762   3.133  0.00  0.00     0.010 A 
ATOM      3  C2  UNL d   1       3.731  -1.438   2.899  0.00  0.00     0.041 A 
ATOM      4  C3  UNL d   1       4.032  -0.276   2.161  0.00  0.00    -0.075 A 
ATOM      5  S   UNL d   1       5.597   0.320   1.752  0.00  0.00     0.015 SA
ATOM      6  C4  UNL d   1       4.951   1.661   0.921  0.00  0.00     0.022 A 
ATOM      7  C5  UNL d   1       3.577   1.669   0.945  0.00  0.00     0.026 A 
ATOM      8  C6  UNL d   1       3.024   0.553   1.660  0.00  0.00    -0.082 A 
ATOM      9  C7  UNL d   1       1.677   0.197   1.913  0.00  0.00     0.045 A 
ENDROOT
TORSDOF 0
ENDMDL
