MODEL 1
REMARK minimizedAffinity 8.48572636
REMARK minimizedRMSD -1
REMARK  0 active torsions:
REMARK  status: ('A' for Active; 'I' for Inactive)
ROOT
ATOM      1  C   UNL d   1       1.185   0.057   1.154  0.00  0.00    -0.002 A 
ATOM      2  C1  UNL d   1       1.796   0.888   0.227  0.00  0.00     0.010 A 
ATOM      3  C2  UNL d   1       3.159   1.177   0.322  0.00  0.00     0.041 A 
ATOM      4  C3  UNL d   1       3.904   0.609   1.374  0.00  0.00    -0.075 A 
ATOM      5  S   UNL d   1       5.586   0.820   1.688  0.00  0.00     0.015 SA
ATOM      6  C4  UNL d   1       5.533  -0.189   3.060  0.00  0.00     0.022 A 
ATOM      7  C5  UNL d   1       4.270  -0.684   3.288  0.00  0.00     0.026 A 
ATOM      8  C6  UNL d   1       3.311  -0.233   2.319  0.00  0.00    -0.082 A 
ATOM      9  C7  UNL d   1       1.927  -0.505   2.196  0.00  0.00     0.045 A 
ENDROOT
TORSDOF 0
ENDMDL
