MODEL 1
REMARK minimizedAffinity 14.3267298
REMARK minimizedRMSD -1
REMARK  0 active torsions:
REMARK  status: ('A' for Active; 'I' for Inactive)
ROOT
ATOM      1  C   UNL d   1       3.077   2.562  -5.088  0.00  0.00    -0.002 A 
ATOM      2  C1  UNL d   1       2.216   1.969  -6.000  0.00  0.00     0.010 A 
ATOM      3  C2  UNL d   1       2.024   0.586  -6.000  0.00  0.00     0.041 A 
ATOM      4  C3  UNL d   1       2.717  -0.199  -5.057  0.00  0.00    -0.075 A 
ATOM      5  S   UNL d   1       2.638  -1.911  -4.869  0.00  0.00     0.015 SA
ATOM      6  C4  UNL d   1       3.745  -1.895  -3.573  0.00  0.00     0.022 A 
ATOM      7  C5  UNL d   1       4.174  -0.623  -3.278  0.00  0.00     0.026 A 
ATOM      8  C6  UNL d   1       3.589   0.376  -4.128  0.00  0.00    -0.082 A 
ATOM      9  C7  UNL d   1       3.763   1.781  -4.154  0.00  0.00     0.045 A 
ENDROOT
TORSDOF 0
ENDMDL
