MODEL 1
REMARK minimizedAffinity 6.23166227
REMARK minimizedRMSD -1
REMARK  0 active torsions:
REMARK  status: ('A' for Active; 'I' for Inactive)
ROOT
ATOM      1  C   UNL d   1      -1.415   4.389   5.982  0.00  0.00    -0.002 A 
ATOM      2  C1  UNL d   1      -1.923   5.680   5.981  0.00  0.00     0.010 A 
ATOM      3  C2  UNL d   1      -3.301   5.901   5.978  0.00  0.00     0.041 A 
ATOM      4  C3  UNL d   1      -4.169   4.791   5.978  0.00  0.00    -0.075 A 
ATOM      5  S   UNL d   1      -5.893   4.820   5.976  0.00  0.00     0.015 SA
ATOM      6  C4  UNL d   1      -5.996   3.119   5.977  0.00  0.00     0.022 A 
ATOM      7  C5  UNL d   1      -4.755   2.527   5.979  0.00  0.00     0.026 A 
ATOM      8  C6  UNL d   1      -3.682   3.481   5.980  0.00  0.00    -0.082 A 
ATOM      9  C7  UNL d   1      -2.279   3.290   5.982  0.00  0.00     0.045 A 
ENDROOT
TORSDOF 0
ENDMDL
