MODEL 1
REMARK minimizedAffinity 6.83154535
REMARK minimizedRMSD -1
REMARK  0 active torsions:
REMARK  status: ('A' for Active; 'I' for Inactive)
ROOT
ATOM      1  C   UNL d   1       1.703  -0.817   0.863  0.00  0.00    -0.002 A 
ATOM      2  C1  UNL d   1       1.960  -1.682   1.917  0.00  0.00     0.010 A 
ATOM      3  C2  UNL d   1       3.161  -1.603   2.624  0.00  0.00     0.041 A 
ATOM      4  C3  UNL d   1       4.108  -0.629   2.252  0.00  0.00    -0.075 A 
ATOM      5  S   UNL d   1       5.647  -0.346   2.975  0.00  0.00     0.015 SA
ATOM      6  C4  UNL d   1       6.000   0.931   1.903  0.00  0.00     0.022 A 
ATOM      7  C5  UNL d   1       4.979   1.149   1.008  0.00  0.00     0.026 A 
ATOM      8  C6  UNL d   1       3.872   0.255   1.195  0.00  0.00    -0.082 A 
ATOM      9  C7  UNL d   1       2.645   0.148   0.497  0.00  0.00     0.045 A 
ENDROOT
TORSDOF 0
ENDMDL
