MODEL 1
REMARK minimizedAffinity 8.18990517
REMARK minimizedRMSD -1
REMARK  0 active torsions:
REMARK  status: ('A' for Active; 'I' for Inactive)
ROOT
ATOM      1  C   UNL d   1       3.138   2.233   0.087  0.00  0.00    -0.002 A 
ATOM      2  C1  UNL d   1       4.516   2.099   0.177  0.00  0.00     0.010 A 
ATOM      3  C2  UNL d   1       5.082   1.090   0.959  0.00  0.00     0.041 A 
ATOM      4  C3  UNL d   1       4.230   0.208   1.654  0.00  0.00    -0.075 A 
ATOM      5  S   UNL d   1       4.698  -1.103   2.672  0.00  0.00     0.015 SA
ATOM      6  C4  UNL d   1       3.079  -1.516   3.009  0.00  0.00     0.022 A 
ATOM      7  C5  UNL d   1       2.191  -0.684   2.370  0.00  0.00     0.026 A 
ATOM      8  C6  UNL d   1       2.839   0.323   1.578  0.00  0.00    -0.082 A 
ATOM      9  C7  UNL d   1       2.297   1.357   0.778  0.00  0.00     0.045 A 
ENDROOT
TORSDOF 0
ENDMDL
