MODEL 1
REMARK minimizedAffinity 8.41599941
REMARK minimizedRMSD -1
REMARK  0 active torsions:
REMARK  status: ('A' for Active; 'I' for Inactive)
ROOT
ATOM      1  C   UNL d   1       1.070  -0.151   1.435  0.00  0.00    -0.002 A 
ATOM      2  C1  UNL d   1       1.552   0.718   0.466  0.00  0.00     0.010 A 
ATOM      3  C2  UNL d   1       2.905   1.061   0.430  0.00  0.00     0.041 A 
ATOM      4  C3  UNL d   1       3.774   0.510   1.392  0.00  0.00    -0.075 A 
ATOM      5  S   UNL d   1       5.469   0.786   1.541  0.00  0.00     0.015 SA
ATOM      6  C4  UNL d   1       5.594  -0.243   2.894  0.00  0.00     0.022 A 
ATOM      7  C5  UNL d   1       4.381  -0.792   3.237  0.00  0.00     0.026 A 
ATOM      8  C6  UNL d   1       3.313  -0.368   2.377  0.00  0.00    -0.082 A 
ATOM      9  C7  UNL d   1       1.935  -0.695   2.387  0.00  0.00     0.045 A 
ENDROOT
TORSDOF 0
ENDMDL
