MODEL 1
REMARK minimizedAffinity 9.91224575
REMARK minimizedRMSD -1
REMARK  0 active torsions:
REMARK  status: ('A' for Active; 'I' for Inactive)
ROOT
ATOM      1  C   UNL d   1       1.514   0.191   1.514  0.00  0.00    -0.002 A 
ATOM      2  C1  UNL d   1       2.135   0.930   0.517  0.00  0.00     0.010 A 
ATOM      3  C2  UNL d   1       3.524   1.075   0.501  0.00  0.00     0.041 A 
ATOM      4  C3  UNL d   1       4.286   0.456   1.511  0.00  0.00    -0.075 A 
ATOM      5  S   UNL d   1       6.000   0.495   1.692  0.00  0.00     0.015 SA
ATOM      6  C4  UNL d   1       5.948  -0.469   3.097  0.00  0.00     0.022 A 
ATOM      7  C5  UNL d   1       4.663  -0.821   3.434  0.00  0.00     0.026 A 
ATOM      8  C6  UNL d   1       3.684  -0.294   2.525  0.00  0.00    -0.082 A 
ATOM      9  C7  UNL d   1       2.274  -0.421   2.515  0.00  0.00     0.045 A 
ENDROOT
TORSDOF 0
ENDMDL
