MODEL 1
REMARK minimizedAffinity 17.2187271
REMARK minimizedRMSD -1
REMARK  0 active torsions:
REMARK  status: ('A' for Active; 'I' for Inactive)
ROOT
ATOM      1  C   UNL d   1      -3.862  -1.739   1.373  0.00  0.00    -0.002 A 
ATOM      2  C1  UNL d   1      -3.203  -0.928   0.459  0.00  0.00     0.010 A 
ATOM      3  C2  UNL d   1      -3.469   0.442   0.405  0.00  0.00     0.041 A 
ATOM      4  C3  UNL d   1      -4.415   0.989   1.294  0.00  0.00    -0.075 A 
ATOM      5  S   UNL d   1      -4.900   2.639   1.409  0.00  0.00     0.015 SA
ATOM      6  C4  UNL d   1      -5.992   2.307   2.674  0.00  0.00     0.022 A 
ATOM      7  C5  UNL d   1      -6.000   0.975   3.013  0.00  0.00     0.026 A 
ATOM      8  C6  UNL d   1      -5.090   0.193   2.223  0.00  0.00    -0.082 A 
ATOM      9  C7  UNL d   1      -4.800  -1.192   2.253  0.00  0.00     0.045 A 
ENDROOT
TORSDOF 0
ENDMDL
