MODEL 1
REMARK minimizedAffinity 1.19380867
REMARK minimizedRMSD -1
REMARK  0 active torsions:
REMARK  status: ('A' for Active; 'I' for Inactive)
ROOT
ATOM      1  C   UNL d   1       1.512  -0.272   0.754  0.00  0.00    -0.002 A 
ATOM      2  C1  UNL d   1       1.610  -1.189   1.791  0.00  0.00     0.010 A 
ATOM      3  C2  UNL d   1       2.792  -1.308   2.524  0.00  0.00     0.041 A 
ATOM      4  C3  UNL d   1       3.884  -0.481   2.196  0.00  0.00    -0.075 A 
ATOM      5  S   UNL d   1       5.430  -0.451   2.957  0.00  0.00     0.015 SA
ATOM      6  C4  UNL d   1       5.998   0.781   1.924  0.00  0.00     0.022 A 
ATOM      7  C5  UNL d   1       5.044   1.171   1.014  0.00  0.00     0.026 A 
ATOM      8  C6  UNL d   1       3.809   0.451   1.156  0.00  0.00    -0.082 A 
ATOM      9  C7  UNL d   1       2.598   0.547   0.431  0.00  0.00     0.045 A 
ENDROOT
TORSDOF 0
ENDMDL
