MODEL 1
REMARK minimizedAffinity 9.01387596
REMARK minimizedRMSD -1
REMARK  0 active torsions:
REMARK  status: ('A' for Active; 'I' for Inactive)
ROOT
ATOM      1  C   UNL d   1      -3.817  -1.085   5.967  0.00  0.00    -0.002 A 
ATOM      2  C1  UNL d   1      -3.750  -2.470   5.998  0.00  0.00     0.010 A 
ATOM      3  C2  UNL d   1      -3.701  -3.206   4.813  0.00  0.00     0.041 A 
ATOM      4  C3  UNL d   1      -3.719  -2.519   3.583  0.00  0.00    -0.075 A 
ATOM      5  S   UNL d   1      -3.666  -3.212   2.005  0.00  0.00     0.015 SA
ATOM      6  C4  UNL d   1      -3.732  -1.684   1.251  0.00  0.00     0.022 A 
ATOM      7  C5  UNL d   1      -3.792  -0.660   2.166  0.00  0.00     0.026 A 
ATOM      8  C6  UNL d   1      -3.786  -1.124   3.525  0.00  0.00    -0.082 A 
ATOM      9  C7  UNL d   1      -3.835  -0.407   4.745  0.00  0.00     0.045 A 
ENDROOT
TORSDOF 0
ENDMDL
