MODEL 1
REMARK minimizedAffinity 4.03020811
REMARK minimizedRMSD -1
REMARK  0 active torsions:
REMARK  status: ('A' for Active; 'I' for Inactive)
ROOT
ATOM      1  C   UNL d   1       2.884   1.854  -5.097  0.00  0.00    -0.002 A 
ATOM      2  C1  UNL d   1       3.400   2.800  -5.971  0.00  0.00     0.010 A 
ATOM      3  C2  UNL d   1       2.884   4.097  -6.000  0.00  0.00     0.041 A 
ATOM      4  C3  UNL d   1       1.830   4.431  -5.126  0.00  0.00    -0.075 A 
ATOM      5  S   UNL d   1       1.041   5.957  -4.985  0.00  0.00     0.015 SA
ATOM      6  C4  UNL d   1       0.000   5.390  -3.760  0.00  0.00     0.022 A 
ATOM      7  C5  UNL d   1       0.235   4.070  -3.454  0.00  0.00     0.026 A 
ATOM      8  C6  UNL d   1       1.294   3.496  -4.236  0.00  0.00    -0.082 A 
ATOM      9  C7  UNL d   1       1.839   2.189  -4.231  0.00  0.00     0.045 A 
ENDROOT
TORSDOF 0
ENDMDL
