MODEL 1
REMARK minimizedAffinity 2.17506266
REMARK minimizedRMSD -1
REMARK  0 active torsions:
REMARK  status: ('A' for Active; 'I' for Inactive)
ROOT
ATOM      1  C2' OXE d   1      -0.128   1.487  -0.728  0.00  0.00     0.078 C 
ATOM      2  C1' OXE d   1      -2.091   2.055   1.196  0.00  0.00     0.078 C 
ATOM      3  C1  OXE d   1      -1.381   3.219   0.551  0.00  0.00    -0.078 A 
ATOM      4  C2  OXE d   1      -0.389   2.931  -0.356  0.00  0.00    -0.078 A 
ATOM      5  C3  OXE d   1       0.259   3.967  -1.021  0.00  0.00     0.003 A 
ATOM      6  C4  OXE d   1       0.018   5.299  -0.664  0.00  0.00    -0.002 A 
ATOM      7  C5  OXE d   1      -0.960   5.614   0.286  0.00  0.00    -0.002 A 
ATOM      8  C6  OXE d   1      -1.697   4.589   0.870  0.00  0.00     0.003 A 
ENDROOT
TORSDOF 0
ENDMDL
