MODEL 1
REMARK minimizedAffinity 2.72107577
REMARK minimizedRMSD -1
REMARK  0 active torsions:
REMARK  status: ('A' for Active; 'I' for Inactive)
ROOT
ATOM      1  C2' OXE d   1       0.377   1.709   3.469  0.00  0.00     0.078 C 
ATOM      2  C1' OXE d   1      -1.407   2.331   1.394  0.00  0.00     0.078 C 
ATOM      3  C1  OXE d   1      -0.341   1.301   1.119  0.00  0.00    -0.078 A 
ATOM      4  C2  OXE d   1       0.557   1.037   2.125  0.00  0.00    -0.078 A 
ATOM      5  C3  OXE d   1       1.528   0.056   1.943  0.00  0.00     0.003 A 
ATOM      6  C4  OXE d   1       1.694  -0.554   0.693  0.00  0.00    -0.002 A 
ATOM      7  C5  OXE d   1       0.815  -0.270  -0.357  0.00  0.00    -0.002 A 
ATOM      8  C6  OXE d   1      -0.232   0.622  -0.148  0.00  0.00     0.003 A 
ENDROOT
TORSDOF 0
ENDMDL
