MODEL 1
REMARK minimizedAffinity 2.07639599
REMARK minimizedRMSD -1
REMARK  0 active torsions:
REMARK  status: ('A' for Active; 'I' for Inactive)
ROOT
ATOM      1  C2' OXE d   1       0.019   1.650  -1.168  0.00  0.00     0.078 C 
ATOM      2  C1' OXE d   1      -1.110  -0.585  -2.436  0.00  0.00     0.078 C 
ATOM      3  C1  OXE d   1       0.129  -0.800  -1.605  0.00  0.00    -0.078 A 
ATOM      4  C2  OXE d   1       0.702   0.307  -1.026  0.00  0.00    -0.078 A 
ATOM      5  C3  OXE d   1       1.815   0.156  -0.203  0.00  0.00     0.003 A 
ATOM      6  C4  OXE d   1       2.446  -1.088  -0.085  0.00  0.00    -0.002 A 
ATOM      7  C5  OXE d   1       1.902  -2.221  -0.699  0.00  0.00    -0.002 A 
ATOM      8  C6  OXE d   1       0.723  -2.102  -1.426  0.00  0.00     0.003 A 
ENDROOT
TORSDOF 0
ENDMDL
