MODEL 1
REMARK minimizedAffinity 10.2530594
REMARK minimizedRMSD -1
REMARK  0 active torsions:
REMARK  status: ('A' for Active; 'I' for Inactive)
ROOT
ATOM      1  C2' OXE d   1       0.753   1.119   2.697  0.00  0.00     0.078 C 
ATOM      2  C1' OXE d   1      -1.768   0.159   3.471  0.00  0.00     0.078 C 
ATOM      3  C1  OXE d   1      -1.723   1.313   2.502  0.00  0.00    -0.078 A 
ATOM      4  C2  OXE d   1      -0.486   1.807   2.165  0.00  0.00    -0.078 A 
ATOM      5  C3  OXE d   1      -0.385   2.835   1.232  0.00  0.00     0.003 A 
ATOM      6  C4  OXE d   1      -1.536   3.473   0.752  0.00  0.00    -0.002 A 
ATOM      7  C5  OXE d   1      -2.806   3.011   1.114  0.00  0.00    -0.002 A 
ATOM      8  C6  OXE d   1      -2.916   1.908   1.953  0.00  0.00     0.003 A 
ENDROOT
TORSDOF 0
ENDMDL
