MODEL 1
REMARK minimizedAffinity 5.08389091
REMARK minimizedRMSD -1
REMARK  0 active torsions:
REMARK  status: ('A' for Active; 'I' for Inactive)
ROOT
ATOM      1  C2' OXE d   1      -2.212   1.553   2.536  0.00  0.00     0.078 C 
ATOM      2  C1' OXE d   1       0.080   2.889   3.452  0.00  0.00     0.078 C 
ATOM      3  C1  OXE d   1      -0.256   2.994   1.986  0.00  0.00    -0.078 A 
ATOM      4  C2  OXE d   1      -1.354   2.298   1.538  0.00  0.00    -0.078 A 
ATOM      5  C3  OXE d   1      -1.740   2.405   0.205  0.00  0.00     0.003 A 
ATOM      6  C4  OXE d   1      -0.934   3.088  -0.714  0.00  0.00    -0.002 A 
ATOM      7  C5  OXE d   1       0.209   3.771  -0.286  0.00  0.00    -0.002 A 
ATOM      8  C6  OXE d   1       0.538   3.769   1.065  0.00  0.00     0.003 A 
ENDROOT
TORSDOF 0
ENDMDL
