MODEL 1
REMARK minimizedAffinity 7.10913849
REMARK minimizedRMSD -1
REMARK  0 active torsions:
REMARK  status: ('A' for Active; 'I' for Inactive)
ROOT
ATOM      1  C2' OXE d   1       3.139  -1.480   0.750  0.00  0.00     0.078 C 
ATOM      2  C1' OXE d   1       5.207  -3.334   0.345  0.00  0.00     0.078 C 
ATOM      3  C1  OXE d   1       3.818  -3.722  -0.098  0.00  0.00    -0.078 A 
ATOM      4  C2  OXE d   1       2.804  -2.827   0.146  0.00  0.00    -0.078 A 
ATOM      5  C3  OXE d   1       1.514  -3.111  -0.291  0.00  0.00     0.003 A 
ATOM      6  C4  OXE d   1       1.211  -4.363  -0.840  0.00  0.00    -0.002 A 
ATOM      7  C5  OXE d   1       2.222  -5.304  -1.062  0.00  0.00    -0.002 A 
ATOM      8  C6  OXE d   1       3.535  -4.983  -0.736  0.00  0.00     0.003 A 
ENDROOT
TORSDOF 0
ENDMDL
