MODEL 1
REMARK minimizedAffinity 4.71444511
REMARK minimizedRMSD -1
REMARK  0 active torsions:
REMARK  status: ('A' for Active; 'I' for Inactive)
ROOT
ATOM      1  C2' OXE d   1       3.964  -5.169   0.966  0.00  0.00     0.078 C 
ATOM      2  C1' OXE d   1       1.579  -4.437  -0.322  0.00  0.00     0.078 C 
ATOM      3  C1  OXE d   1       2.622  -3.367  -0.111  0.00  0.00    -0.078 A 
ATOM      4  C2  OXE d   1       3.766  -3.724   0.561  0.00  0.00    -0.078 A 
ATOM      5  C3  OXE d   1       4.783  -2.789   0.734  0.00  0.00     0.003 A 
ATOM      6  C4  OXE d   1       4.588  -1.453   0.366  0.00  0.00    -0.002 A 
ATOM      7  C5  OXE d   1       3.414  -1.060  -0.285  0.00  0.00    -0.002 A 
ATOM      8  C6  OXE d   1       2.441  -2.012  -0.569  0.00  0.00     0.003 A 
ENDROOT
TORSDOF 0
ENDMDL
