MODEL 1
REMARK minimizedAffinity 8.88728905
REMARK minimizedRMSD -1
REMARK  0 active torsions:
REMARK  status: ('A' for Active; 'I' for Inactive)
ROOT
ATOM      1  C2' OXE d   1       2.414  -0.385   1.094  0.00  0.00     0.078 C 
ATOM      2  C1' OXE d   1       1.380   0.700  -1.280  0.00  0.00     0.078 C 
ATOM      3  C1  OXE d   1       0.678   1.037   0.012  0.00  0.00    -0.078 A 
ATOM      4  C2  OXE d   1       1.163   0.464   1.163  0.00  0.00    -0.078 A 
ATOM      5  C3  OXE d   1       0.586   0.785   2.388  0.00  0.00     0.003 A 
ATOM      6  C4  OXE d   1      -0.577   1.563   2.443  0.00  0.00    -0.002 A 
ATOM      7  C5  OXE d   1      -1.111   2.124   1.278  0.00  0.00    -0.002 A 
ATOM      8  C6  OXE d   1      -0.472   1.906   0.062  0.00  0.00     0.003 A 
ENDROOT
TORSDOF 0
ENDMDL
