MODEL 1
REMARK minimizedAffinity 2.49073958
REMARK minimizedRMSD -1
REMARK  0 active torsions:
REMARK  status: ('A' for Active; 'I' for Inactive)
ROOT
ATOM      1  C2' OXE d   1       0.046   1.055   2.372  0.00  0.00     0.078 C 
ATOM      2  C1' OXE d   1      -2.535   0.098   2.921  0.00  0.00     0.078 C 
ATOM      3  C1  OXE d   1      -2.412   1.421   2.208  0.00  0.00    -0.078 A 
ATOM      4  C2  OXE d   1      -1.145   1.904   1.985  0.00  0.00    -0.078 A 
ATOM      5  C3  OXE d   1      -0.975   3.094   1.283  0.00  0.00     0.003 A 
ATOM      6  C4  OXE d   1      -2.082   3.878   0.938  0.00  0.00    -0.002 A 
ATOM      7  C5  OXE d   1      -3.381   3.424   1.191  0.00  0.00    -0.002 A 
ATOM      8  C6  OXE d   1      -3.563   2.180   1.786  0.00  0.00     0.003 A 
ENDROOT
TORSDOF 0
ENDMDL
