MODEL 1
REMARK minimizedAffinity 5.74978971
REMARK minimizedRMSD -1
REMARK  0 active torsions:
REMARK  status: ('A' for Active; 'I' for Inactive)
ROOT
ATOM      1  C2' OXE d   1      -0.601   1.134  -1.104  0.00  0.00     0.078 C 
ATOM      2  C1' OXE d   1      -1.077   2.078   1.496  0.00  0.00     0.078 C 
ATOM      3  C1  OXE d   1      -0.395   3.008   0.524  0.00  0.00    -0.078 A 
ATOM      4  C2  OXE d   1      -0.124   2.521  -0.732  0.00  0.00    -0.078 A 
ATOM      5  C3  OXE d   1       0.455   3.355  -1.685  0.00  0.00     0.003 A 
ATOM      6  C4  OXE d   1       0.903   4.633  -1.330  0.00  0.00    -0.002 A 
ATOM      7  C5  OXE d   1       0.673   5.134  -0.044  0.00  0.00    -0.002 A 
ATOM      8  C6  OXE d   1      -0.011   4.352   0.880  0.00  0.00     0.003 A 
ENDROOT
TORSDOF 0
ENDMDL
