MODEL 1
REMARK minimizedAffinity 3.08077073
REMARK minimizedRMSD -1
REMARK  0 active torsions:
REMARK  status: ('A' for Active; 'I' for Inactive)
ROOT
ATOM      1  C2' OXE d   1      -3.848   1.799   1.703  0.00  0.00     0.078 C 
ATOM      2  C1' OXE d   1      -1.410   0.958   2.810  0.00  0.00     0.078 C 
ATOM      3  C1  OXE d   1      -1.361   1.810   1.566  0.00  0.00    -0.078 A 
ATOM      4  C2  OXE d   1      -2.560   2.178   1.004  0.00  0.00    -0.078 A 
ATOM      5  C3  OXE d   1      -2.572   3.008  -0.112  0.00  0.00     0.003 A 
ATOM      6  C4  OXE d   1      -1.376   3.346  -0.758  0.00  0.00    -0.002 A 
ATOM      7  C5  OXE d   1      -0.145   2.948  -0.225  0.00  0.00    -0.002 A 
ATOM      8  C6  OXE d   1      -0.119   2.217   0.957  0.00  0.00     0.003 A 
ENDROOT
TORSDOF 0
ENDMDL
