MODEL 1
REMARK minimizedAffinity 6.62131643
REMARK minimizedRMSD -1
REMARK  0 active torsions:
REMARK  status: ('A' for Active; 'I' for Inactive)
ROOT
ATOM      1  C2' OXE d   1       0.141   0.397  -1.575  0.00  0.00     0.078 C 
ATOM      2  C1' OXE d   1       0.571   3.011  -2.504  0.00  0.00     0.078 C 
ATOM      3  C1  OXE d   1      -0.003   2.842  -1.120  0.00  0.00    -0.078 A 
ATOM      4  C2  OXE d   1      -0.254   1.560  -0.691  0.00  0.00    -0.078 A 
ATOM      5  C3  OXE d   1      -0.732   1.345   0.598  0.00  0.00     0.003 A 
ATOM      6  C4  OXE d   1      -1.104   2.427   1.405  0.00  0.00    -0.002 A 
ATOM      7  C5  OXE d   1      -0.894   3.741   0.973  0.00  0.00    -0.002 A 
ATOM      8  C6  OXE d   1      -0.306   3.964  -0.267  0.00  0.00     0.003 A 
ENDROOT
TORSDOF 0
ENDMDL
