MODEL 1
REMARK minimizedAffinity 12.2594376
REMARK minimizedRMSD -1
REMARK  0 active torsions:
REMARK  status: ('A' for Active; 'I' for Inactive)
ROOT
ATOM      1  C2' OXE d   1       0.946   0.909  -2.591  0.00  0.00     0.078 C 
ATOM      2  C1' OXE d   1      -0.603   2.369  -0.761  0.00  0.00     0.078 C 
ATOM      3  C1  OXE d   1      -1.235   1.165  -1.415  0.00  0.00    -0.078 A 
ATOM      4  C2  OXE d   1      -0.486   0.484  -2.344  0.00  0.00    -0.078 A 
ATOM      5  C3  OXE d   1      -1.001  -0.665  -2.936  0.00  0.00     0.003 A 
ATOM      6  C4  OXE d   1      -2.329  -1.045  -2.709  0.00  0.00    -0.002 A 
ATOM      7  C5  OXE d   1      -3.123  -0.342  -1.797  0.00  0.00    -0.002 A 
ATOM      8  C6  OXE d   1      -2.578   0.738  -1.111  0.00  0.00     0.003 A 
ENDROOT
TORSDOF 0
ENDMDL
