MODEL 1
REMARK minimizedAffinity 10.5149965
REMARK minimizedRMSD -1
REMARK  0 active torsions:
REMARK  status: ('A' for Active; 'I' for Inactive)
ROOT
ATOM      1  C2' OXE d   1      -2.110   1.689   2.309  0.00  0.00     0.078 C 
ATOM      2  C1' OXE d   1       0.633   1.494   2.872  0.00  0.00     0.078 C 
ATOM      3  C1  OXE d   1       0.105   2.825   2.397  0.00  0.00    -0.078 A 
ATOM      4  C2  OXE d   1      -1.230   2.898   2.080  0.00  0.00    -0.078 A 
ATOM      5  C3  OXE d   1      -1.779   4.116   1.690  0.00  0.00     0.003 A 
ATOM      6  C4  OXE d   1      -0.956   5.227   1.470  0.00  0.00    -0.002 A 
ATOM      7  C5  OXE d   1       0.413   5.163   1.749  0.00  0.00    -0.002 A 
ATOM      8  C6  OXE d   1       0.951   3.984   2.253  0.00  0.00     0.003 A 
ENDROOT
TORSDOF 0
ENDMDL
