MODEL 1
REMARK minimizedAffinity 8.09636879
REMARK minimizedRMSD -1
REMARK  0 active torsions:
REMARK  status: ('A' for Active; 'I' for Inactive)
ROOT
ATOM      1  C2' OXE d   1      -0.154   2.442  -1.784  0.00  0.00     0.078 C 
ATOM      2  C1' OXE d   1       0.775  -0.201  -1.605  0.00  0.00     0.078 C 
ATOM      3  C1  OXE d   1      -0.698   0.012  -1.851  0.00  0.00    -0.078 A 
ATOM      4  C2  OXE d   1      -1.151   1.309  -1.890  0.00  0.00    -0.078 A 
ATOM      5  C3  OXE d   1      -2.491   1.562  -2.167  0.00  0.00     0.003 A 
ATOM      6  C4  OXE d   1      -3.409   0.508  -2.254  0.00  0.00    -0.002 A 
ATOM      7  C5  OXE d   1      -2.974  -0.819  -2.178  0.00  0.00    -0.002 A 
ATOM      8  C6  OXE d   1      -1.619  -1.085  -2.019  0.00  0.00     0.003 A 
ENDROOT
TORSDOF 0
ENDMDL
