MODEL 1
REMARK minimizedAffinity 9.64629936
REMARK minimizedRMSD -1
REMARK  0 active torsions:
REMARK  status: ('A' for Active; 'I' for Inactive)
ROOT
ATOM      1  C2' OXE d   1       2.311  -1.230   1.321  0.00  0.00     0.078 C 
ATOM      2  C1' OXE d   1       1.739  -3.953   0.948  0.00  0.00     0.078 C 
ATOM      3  C1  OXE d   1       3.188  -3.536   0.975  0.00  0.00    -0.078 A 
ATOM      4  C2  OXE d   1       3.458  -2.195   1.111  0.00  0.00    -0.078 A 
ATOM      5  C3  OXE d   1       4.778  -1.762   1.196  0.00  0.00     0.003 A 
ATOM      6  C4  OXE d   1       5.833  -2.660   0.991  0.00  0.00    -0.002 A 
ATOM      7  C5  OXE d   1       5.579  -4.024   0.811  0.00  0.00    -0.002 A 
ATOM      8  C6  OXE d   1       4.267  -4.483   0.843  0.00  0.00     0.003 A 
ENDROOT
TORSDOF 0
ENDMDL
