MODEL 1
REMARK minimizedAffinity 3.48012257
REMARK minimizedRMSD -1
REMARK  0 active torsions:
REMARK  status: ('A' for Active; 'I' for Inactive)
ROOT
ATOM      1  C2' OXE d   1      -0.146   2.984  -0.964  0.00  0.00     0.078 C 
ATOM      2  C1' OXE d   1       1.299   0.579  -1.008  0.00  0.00     0.078 C 
ATOM      3  C1  OXE d   1      -0.017   0.622  -1.744  0.00  0.00    -0.078 A 
ATOM      4  C2  OXE d   1      -0.740   1.789  -1.678  0.00  0.00    -0.078 A 
ATOM      5  C3  OXE d   1      -1.934   1.900  -2.383  0.00  0.00     0.003 A 
ATOM      6  C4  OXE d   1      -2.481   0.787  -3.032  0.00  0.00    -0.002 A 
ATOM      7  C5  OXE d   1      -1.780  -0.423  -3.078  0.00  0.00    -0.002 A 
ATOM      8  C6  OXE d   1      -0.529  -0.509  -2.476  0.00  0.00     0.003 A 
ENDROOT
TORSDOF 0
ENDMDL
