MODEL 1
REMARK minimizedAffinity 0.165416583
REMARK minimizedRMSD -1
REMARK  0 active torsions:
REMARK  status: ('A' for Active; 'I' for Inactive)
ROOT
ATOM      1  C2' OXE d   1      -2.402   5.356   0.640  0.00  0.00     0.078 C 
ATOM      2  C1' OXE d   1      -2.778   2.648   1.277  0.00  0.00     0.078 C 
ATOM      3  C1  OXE d   1      -1.760   2.986   0.216  0.00  0.00    -0.078 A 
ATOM      4  C2  OXE d   1      -1.616   4.311  -0.122  0.00  0.00    -0.078 A 
ATOM      5  C3  OXE d   1      -0.652   4.683  -1.054  0.00  0.00     0.003 A 
ATOM      6  C4  OXE d   1       0.063   3.709  -1.762  0.00  0.00    -0.002 A 
ATOM      7  C5  OXE d   1      -0.097   2.352  -1.461  0.00  0.00    -0.002 A 
ATOM      8  C6  OXE d   1      -0.972   1.978  -0.447  0.00  0.00     0.003 A 
ENDROOT
TORSDOF 0
ENDMDL
