MODEL 1
REMARK minimizedAffinity -4.65974379
REMARK minimizedRMSD -1
REMARK  1 active torsions:
REMARK  status: ('A' for Active; 'I' for Inactive)
REMARK    1  A    between atoms: C1_2  and  C2_3 
ROOT
ATOM      1  C2  UNL d   1       0.087   0.165   0.339  0.00  0.00    -0.076 A 
ATOM      2  C3  UNL d   1      -0.546  -0.256   1.521  0.00  0.00     0.004 A 
ATOM      3  C4  UNL d   1      -1.854  -0.737   1.503  0.00  0.00    -0.003 A 
ATOM      4  C5  UNL d   1      -2.550  -0.806   0.302  0.00  0.00     0.000 A 
ATOM      5  C6  UNL d   1      -1.933  -0.408  -0.883  0.00  0.00     0.000 A 
ATOM      6  C7  UNL d   1      -0.609   0.064  -0.885  0.00  0.00    -0.073 A 
ATOM      7  C8  UNL d   1       0.006   0.485  -2.192  0.00  0.00     0.078 C 
ENDROOT
BRANCH   1   8
ATOM      8  C1  UNL d   1       1.497   0.704   0.424  0.00  0.00     0.053 C 
ATOM      9  C   UNL d   1       1.637   1.812   1.456  0.00  0.00     0.018 C 
ENDBRANCH   1   8
TORSDOF 1
ENDMDL
