MODEL 1
REMARK minimizedAffinity -3.59019995
REMARK minimizedRMSD -1
REMARK  1 active torsions:
REMARK  status: ('A' for Active; 'I' for Inactive)
REMARK    1  A    between atoms: C1_2  and  C2_3 
ROOT
ATOM      1  C2  UNL d   1      -0.287   0.150   0.020  0.00  0.00    -0.076 A 
ATOM      2  C3  UNL d   1      -1.006  -0.106   1.200  0.00  0.00     0.004 A 
ATOM      3  C4  UNL d   1      -2.277  -0.677   1.156  0.00  0.00    -0.003 A 
ATOM      4  C5  UNL d   1      -2.848  -1.002  -0.069  0.00  0.00     0.000 A 
ATOM      5  C6  UNL d   1      -2.142  -0.771  -1.249  0.00  0.00     0.000 A 
ATOM      6  C7  UNL d   1      -0.853  -0.211  -1.221  0.00  0.00    -0.073 A 
ATOM      7  C8  UNL d   1      -0.139   0.022  -2.524  0.00  0.00     0.078 C 
ENDROOT
BRANCH   1   8
ATOM      8  C1  UNL d   1       1.076   0.797   0.128  0.00  0.00     0.053 C 
ATOM      9  C   UNL d   1       1.417   1.202   1.554  0.00  0.00     0.018 C 
ENDBRANCH   1   8
TORSDOF 1
ENDMDL
