MODEL 1
REMARK minimizedAffinity -4.7856431
REMARK minimizedRMSD -1
REMARK  1 active torsions:
REMARK  status: ('A' for Active; 'I' for Inactive)
REMARK    1  A    between atoms: C1_2  and  C2_3 
ROOT
ATOM      1  C2  UNL d   1      -0.313  -0.190   0.112  0.00  0.00    -0.076 A 
ATOM      2  C3  UNL d   1      -1.219  -0.456   1.154  0.00  0.00     0.004 A 
ATOM      3  C4  UNL d   1      -2.579  -0.621   0.898  0.00  0.00    -0.003 A 
ATOM      4  C5  UNL d   1      -3.056  -0.523  -0.405  0.00  0.00     0.000 A 
ATOM      5  C6  UNL d   1      -2.169  -0.277  -1.453  0.00  0.00     0.000 A 
ATOM      6  C7  UNL d   1      -0.793  -0.125  -1.214  0.00  0.00    -0.073 A 
ATOM      7  C8  UNL d   1       0.117   0.145  -2.381  0.00  0.00     0.078 C 
ENDROOT
BRANCH   1   8
ATOM      8  C1  UNL d   1       1.146   0.007   0.453  0.00  0.00     0.053 C 
ATOM      9  C   UNL d   1       1.425   1.376   1.054  0.00  0.00     0.018 C 
ENDBRANCH   1   8
TORSDOF 1
ENDMDL
