MODEL 1
REMARK minimizedAffinity -3.5135138
REMARK minimizedRMSD -1
REMARK  1 active torsions:
REMARK  status: ('A' for Active; 'I' for Inactive)
REMARK    1  A    between atoms: C1_2  and  C2_3 
ROOT
ATOM      1  C2  UNL d   1      -0.239   0.011   0.236  0.00  0.00    -0.076 A 
ATOM      2  C3  UNL d   1      -0.905  -0.468   1.378  0.00  0.00     0.004 A 
ATOM      3  C4  UNL d   1      -2.242  -0.858   1.317  0.00  0.00    -0.003 A 
ATOM      4  C5  UNL d   1      -2.934  -0.776   0.114  0.00  0.00     0.000 A 
ATOM      5  C6  UNL d   1      -2.283  -0.320  -1.032  0.00  0.00     0.000 A 
ATOM      6  C7  UNL d   1      -0.932   0.062  -0.992  0.00  0.00    -0.073 A 
ATOM      7  C8  UNL d   1      -0.282   0.552  -2.257  0.00  0.00     0.078 C 
ENDROOT
BRANCH   1   8
ATOM      8  C1  UNL d   1       1.204   0.446   0.369  0.00  0.00     0.053 C 
ATOM      9  C   UNL d   1       1.351   1.956   0.468  0.00  0.00     0.018 C 
ENDBRANCH   1   8
TORSDOF 1
ENDMDL
