MODEL 1
REMARK minimizedAffinity -3.40208817
REMARK minimizedRMSD -1
REMARK  1 active torsions:
REMARK  status: ('A' for Active; 'I' for Inactive)
REMARK    1  A    between atoms: C1_2  and  C2_3 
ROOT
ATOM      1  C2  UNL d   1      -0.505   0.043  -0.624  0.00  0.00    -0.076 A 
ATOM      2  C3  UNL d   1      -1.247  -0.398   0.485  0.00  0.00     0.004 A 
ATOM      3  C4  UNL d   1      -2.571  -0.813   0.343  0.00  0.00    -0.003 A 
ATOM      4  C5  UNL d   1      -3.173  -0.793  -0.910  0.00  0.00     0.000 A 
ATOM      5  C6  UNL d   1      -2.446  -0.374  -2.024  0.00  0.00     0.000 A 
ATOM      6  C7  UNL d   1      -1.106   0.031  -1.901  0.00  0.00    -0.073 A 
ATOM      7  C8  UNL d   1      -0.371   0.479  -3.135  0.00  0.00     0.078 C 
ENDROOT
BRANCH   1   8
ATOM      8  C1  UNL d   1       0.918   0.507  -0.405  0.00  0.00     0.053 C 
ATOM      9  C   UNL d   1       1.672  -0.374   0.579  0.00  0.00     0.018 C 
ENDBRANCH   1   8
TORSDOF 1
ENDMDL
