MODEL 1
REMARK minimizedAffinity 1.56048727
REMARK minimizedRMSD -1
REMARK  1 active torsions:
REMARK  status: ('A' for Active; 'I' for Inactive)
REMARK    1  A    between atoms: C1_2  and  C2_3 
ROOT
ATOM      1  C2  UNL d   1      -1.029  -0.676   0.183  0.00  0.00    -0.076 A 
ATOM      2  C3  UNL d   1      -0.488   0.237  -0.739  0.00  0.00     0.004 A 
ATOM      3  C4  UNL d   1       0.869   0.555  -0.721  0.00  0.00    -0.003 A 
ATOM      4  C5  UNL d   1       1.707  -0.036   0.218  0.00  0.00     0.000 A 
ATOM      5  C6  UNL d   1       1.190  -0.957   1.129  0.00  0.00     0.000 A 
ATOM      6  C7  UNL d   1      -0.172  -1.301   1.114  0.00  0.00    -0.073 A 
ATOM      7  C8  UNL d   1      -0.677  -2.296   2.123  0.00  0.00     0.078 C 
ENDROOT
BRANCH   1   8
ATOM      8  C1  UNL d   1      -2.513  -0.962   0.133  0.00  0.00     0.053 C 
ATOM      9  C   UNL d   1      -2.911  -1.770  -1.092  0.00  0.00     0.018 C 
ENDBRANCH   1   8
TORSDOF 1
ENDMDL
