MODEL 1
REMARK minimizedAffinity 4.53306198
REMARK minimizedRMSD -1
REMARK  1 active torsions:
REMARK  status: ('A' for Active; 'I' for Inactive)
REMARK    1  A    between atoms: C1_2  and  C2_3 
ROOT
ATOM      1  C2  UNL d   1      -1.709  -1.115  -1.806  0.00  0.00    -0.076 A 
ATOM      2  C3  UNL d   1      -2.625  -1.662  -0.891  0.00  0.00     0.004 A 
ATOM      3  C4  UNL d   1      -2.458  -1.487   0.482  0.00  0.00    -0.003 A 
ATOM      4  C5  UNL d   1      -1.373  -0.763   0.962  0.00  0.00     0.000 A 
ATOM      5  C6  UNL d   1      -0.464  -0.198   0.067  0.00  0.00     0.000 A 
ATOM      6  C7  UNL d   1      -0.626  -0.351  -1.320  0.00  0.00    -0.073 A 
ATOM      7  C8  UNL d   1       0.388   0.274  -2.239  0.00  0.00     0.078 C 
ENDROOT
BRANCH   1   8
ATOM      8  C1  UNL d   1      -1.926  -1.360  -3.282  0.00  0.00     0.053 C 
ATOM      9  C   UNL d   1      -2.448  -2.760  -3.570  0.00  0.00     0.018 C 
ENDBRANCH   1   8
TORSDOF 1
ENDMDL
