MODEL 1
REMARK minimizedAffinity -4.27219105
REMARK minimizedRMSD -1
REMARK  1 active torsions:
REMARK  status: ('A' for Active; 'I' for Inactive)
REMARK    1  A    between atoms: C1_2  and  C2_3 
ROOT
ATOM      1  C2  UNL d   1       0.857   1.306   0.337  0.00  0.00    -0.076 A 
ATOM      2  C3  UNL d   1       0.614   2.686   0.236  0.00  0.00     0.004 A 
ATOM      3  C4  UNL d   1       1.664   3.590   0.081  0.00  0.00    -0.003 A 
ATOM      4  C5  UNL d   1       2.974   3.127   0.024  0.00  0.00     0.000 A 
ATOM      5  C6  UNL d   1       3.232   1.759   0.106  0.00  0.00     0.000 A 
ATOM      6  C7  UNL d   1       2.184   0.833   0.246  0.00  0.00    -0.073 A 
ATOM      7  C8  UNL d   1       2.520  -0.630   0.335  0.00  0.00     0.078 C 
ENDROOT
BRANCH   1   8
ATOM      8  C1  UNL d   1      -0.319   0.376   0.532  0.00  0.00     0.053 C 
ATOM      9  C   UNL d   1      -1.246   0.348  -0.674  0.00  0.00     0.018 C 
ENDBRANCH   1   8
TORSDOF 1
ENDMDL
