MODEL 1
REMARK minimizedAffinity 2.03278017
REMARK minimizedRMSD -1
REMARK  1 active torsions:
REMARK  status: ('A' for Active; 'I' for Inactive)
REMARK    1  A    between atoms: C1_2  and  C2_3 
ROOT
ATOM      1  C2  UNL d   1       1.502   0.334   0.568  0.00  0.00    -0.076 A 
ATOM      2  C3  UNL d   1       1.598  -0.094   1.904  0.00  0.00     0.004 A 
ATOM      3  C4  UNL d   1       0.627  -0.923   2.463  0.00  0.00    -0.003 A 
ATOM      4  C5  UNL d   1      -0.455  -1.339   1.695  0.00  0.00     0.000 A 
ATOM      5  C6  UNL d   1      -0.557  -0.939   0.363  0.00  0.00     0.000 A 
ATOM      6  C7  UNL d   1       0.422  -0.116  -0.221  0.00  0.00    -0.073 A 
ATOM      7  C8  UNL d   1       0.259   0.291  -1.660  0.00  0.00     0.078 C 
ENDROOT
BRANCH   1   8
ATOM      8  C1  UNL d   1       2.571   1.256   0.025  0.00  0.00     0.053 C 
ATOM      9  C   UNL d   1       2.756   2.501   0.879  0.00  0.00     0.018 C 
ENDBRANCH   1   8
TORSDOF 1
ENDMDL
