MODEL 1
REMARK minimizedAffinity -2.9832468
REMARK minimizedRMSD -1
REMARK  1 active torsions:
REMARK  status: ('A' for Active; 'I' for Inactive)
REMARK    1  A    between atoms: C1_2  and  C2_3 
ROOT
ATOM      1  C2  UNL d   1       1.543   0.500   0.354  0.00  0.00    -0.076 A 
ATOM      2  C3  UNL d   1       1.858  -0.807   0.763  0.00  0.00     0.004 A 
ATOM      3  C4  UNL d   1       0.863  -1.687   1.185  0.00  0.00    -0.003 A 
ATOM      4  C5  UNL d   1      -0.465  -1.273   1.205  0.00  0.00     0.000 A 
ATOM      5  C6  UNL d   1      -0.798   0.015   0.786  0.00  0.00     0.000 A 
ATOM      6  C7  UNL d   1       0.192   0.908   0.342  0.00  0.00    -0.073 A 
ATOM      7  C8  UNL d   1      -0.222   2.287  -0.093  0.00  0.00     0.078 C 
ENDROOT
BRANCH   1   8
ATOM      8  C1  UNL d   1       2.668   1.418  -0.068  0.00  0.00     0.053 C 
ATOM      9  C   UNL d   1       3.072   2.388   1.032  0.00  0.00     0.018 C 
ENDBRANCH   1   8
TORSDOF 1
ENDMDL
