MODEL 1
REMARK minimizedAffinity -0.410028636
REMARK minimizedRMSD -1
REMARK  1 active torsions:
REMARK  status: ('A' for Active; 'I' for Inactive)
REMARK    1  A    between atoms: C1_2  and  C2_3 
ROOT
ATOM      1  C2  UNL d   1       0.592  -0.334   0.635  0.00  0.00    -0.076 A 
ATOM      2  C3  UNL d   1       0.441  -1.176   1.750  0.00  0.00     0.004 A 
ATOM      3  C4  UNL d   1      -0.817  -1.428   2.294  0.00  0.00    -0.003 A 
ATOM      4  C5  UNL d   1      -1.946  -0.844   1.730  0.00  0.00     0.000 A 
ATOM      5  C6  UNL d   1      -1.817  -0.021   0.612  0.00  0.00     0.000 A 
ATOM      6  C7  UNL d   1      -0.558   0.231   0.042  0.00  0.00    -0.073 A 
ATOM      7  C8  UNL d   1      -0.476   1.132  -1.160  0.00  0.00     0.078 C 
ENDROOT
BRANCH   1   8
ATOM      8  C1  UNL d   1       1.984  -0.075   0.105  0.00  0.00     0.053 C 
ATOM      9  C   UNL d   1       2.534   1.273   0.547  0.00  0.00     0.018 C 
ENDBRANCH   1   8
TORSDOF 1
ENDMDL
