MODEL 1
REMARK minimizedAffinity -5.08867836
REMARK minimizedRMSD -1
REMARK  1 active torsions:
REMARK  status: ('A' for Active; 'I' for Inactive)
REMARK    1  A    between atoms: C1_2  and  C2_3 
ROOT
ATOM      1  C2  UNL d   1      -1.133  -0.309  -0.147  0.00  0.00    -0.076 A 
ATOM      2  C3  UNL d   1      -0.461   0.512  -1.069  0.00  0.00     0.004 A 
ATOM      3  C4  UNL d   1       0.892   0.810  -0.912  0.00  0.00    -0.003 A 
ATOM      4  C5  UNL d   1       1.595   0.290   0.169  0.00  0.00     0.000 A 
ATOM      5  C6  UNL d   1       0.949  -0.541   1.083  0.00  0.00     0.000 A 
ATOM      6  C7  UNL d   1      -0.411  -0.864   0.931  0.00  0.00    -0.073 A 
ATOM      7  C8  UNL d   1      -1.059  -1.760   1.950  0.00  0.00     0.078 C 
ENDROOT
BRANCH   1   8
ATOM      8  C1  UNL d   1      -2.607  -0.575  -0.354  0.00  0.00     0.053 C 
ATOM      9  C   UNL d   1      -2.903  -1.184  -1.716  0.00  0.00     0.018 C 
ENDBRANCH   1   8
TORSDOF 1
ENDMDL
