MODEL 1
REMARK minimizedAffinity -4.56668663
REMARK minimizedRMSD -1
REMARK  1 active torsions:
REMARK  status: ('A' for Active; 'I' for Inactive)
REMARK    1  A    between atoms: C1_2  and  C2_3 
ROOT
ATOM      1  C2  UNL d   1      -0.988  -0.725  -0.147  0.00  0.00    -0.076 A 
ATOM      2  C3  UNL d   1      -0.831  -1.412   1.070  0.00  0.00     0.004 A 
ATOM      3  C4  UNL d   1       0.410  -1.474   1.703  0.00  0.00    -0.003 A 
ATOM      4  C5  UNL d   1       1.512  -0.850   1.130  0.00  0.00     0.000 A 
ATOM      5  C6  UNL d   1       1.371  -0.149  -0.067  0.00  0.00     0.000 A 
ATOM      6  C7  UNL d   1       0.124  -0.063  -0.710  0.00  0.00    -0.073 A 
ATOM      7  C8  UNL d   1       0.029   0.700  -2.003  0.00  0.00     0.078 C 
ENDROOT
BRANCH   1   8
ATOM      8  C1  UNL d   1      -2.351  -0.714  -0.801  0.00  0.00     0.053 C 
ATOM      9  C   UNL d   1      -3.484  -0.662   0.213  0.00  0.00     0.018 C 
ENDBRANCH   1   8
TORSDOF 1
ENDMDL
