MODEL 1
REMARK minimizedAffinity -3.41897964
REMARK minimizedRMSD -1
REMARK  1 active torsions:
REMARK  status: ('A' for Active; 'I' for Inactive)
REMARK    1  A    between atoms: C1_2  and  C2_3 
ROOT
ATOM      1  C2  UNL d   1      -0.764   0.325  -0.424  0.00  0.00    -0.076 A 
ATOM      2  C3  UNL d   1      -1.655  -0.154   0.552  0.00  0.00     0.004 A 
ATOM      3  C4  UNL d   1      -2.825  -0.819   0.191  0.00  0.00    -0.003 A 
ATOM      4  C5  UNL d   1      -3.124  -1.016  -1.153  0.00  0.00     0.000 A 
ATOM      5  C6  UNL d   1      -2.243  -0.563  -2.134  0.00  0.00     0.000 A 
ATOM      6  C7  UNL d   1      -1.050   0.094  -1.787  0.00  0.00    -0.073 A 
ATOM      7  C8  UNL d   1      -0.140   0.567  -2.887  0.00  0.00     0.078 C 
ENDROOT
BRANCH   1   8
ATOM      8  C1  UNL d   1       0.477   1.062   0.027  0.00  0.00     0.053 C 
ATOM      9  C   UNL d   1       1.632   0.123   0.338  0.00  0.00     0.018 C 
ENDBRANCH   1   8
TORSDOF 1
ENDMDL
