MODEL 1
REMARK minimizedAffinity -1.98533881
REMARK minimizedRMSD -1
REMARK  1 active torsions:
REMARK  status: ('A' for Active; 'I' for Inactive)
REMARK    1  A    between atoms: C1_2  and  C2_3 
ROOT
ATOM      1  C2  UNL d   1       0.890   1.021  -0.327  0.00  0.00    -0.076 A 
ATOM      2  C3  UNL d   1       1.591   2.190  -0.672  0.00  0.00     0.004 A 
ATOM      3  C4  UNL d   1       2.196   2.978   0.305  0.00  0.00    -0.003 A 
ATOM      4  C5  UNL d   1       2.111   2.611   1.643  0.00  0.00     0.000 A 
ATOM      5  C6  UNL d   1       1.435   1.445   2.002  0.00  0.00     0.000 A 
ATOM      6  C7  UNL d   1       0.833   0.630   1.028  0.00  0.00    -0.073 A 
ATOM      7  C8  UNL d   1       0.112  -0.613   1.472  0.00  0.00     0.078 C 
ENDROOT
BRANCH   1   8
ATOM      8  C1  UNL d   1       0.232   0.220  -1.427  0.00  0.00     0.053 C 
ATOM      9  C   UNL d   1      -1.282   0.368  -1.430  0.00  0.00     0.018 C 
ENDBRANCH   1   8
TORSDOF 1
ENDMDL
