MODEL 1
REMARK minimizedAffinity -3.9191227
REMARK minimizedRMSD -1
REMARK  1 active torsions:
REMARK  status: ('A' for Active; 'I' for Inactive)
REMARK    1  A    between atoms: C1_2  and  C2_3 
ROOT
ATOM      1  C2  UNL d   1      -1.170  -0.791   0.293  0.00  0.00    -0.076 A 
ATOM      2  C3  UNL d   1      -1.411  -0.199  -0.959  0.00  0.00     0.004 A 
ATOM      3  C4  UNL d   1      -2.392  -0.699  -1.813  0.00  0.00    -0.003 A 
ATOM      4  C5  UNL d   1      -3.148  -1.801  -1.429  0.00  0.00     0.000 A 
ATOM      5  C6  UNL d   1      -2.935  -2.391  -0.183  0.00  0.00     0.000 A 
ATOM      6  C7  UNL d   1      -1.961  -1.888   0.697  0.00  0.00    -0.073 A 
ATOM      7  C8  UNL d   1      -1.769  -2.567   2.025  0.00  0.00     0.078 C 
ENDROOT
BRANCH   1   8
ATOM      8  C1  UNL d   1      -0.074  -0.222   1.165  0.00  0.00     0.053 C 
ATOM      9  C   UNL d   1       1.162   0.167   0.369  0.00  0.00     0.018 C 
ENDBRANCH   1   8
TORSDOF 1
ENDMDL
