MODEL 1
REMARK minimizedAffinity 11.4320211
REMARK minimizedRMSD -1
REMARK  0 active torsions:
REMARK  status: ('A' for Active; 'I' for Inactive)
ROOT
ATOM      1  C   UNL d   1       0.403   2.979   0.142  0.00  0.00     0.020 A 
ATOM      2  C1  UNL d   1      -0.987   3.092   0.146  0.00  0.00     0.020 A 
ATOM      3  C2  UNL d   1      -1.634   3.779  -0.883  0.00  0.00     0.034 A 
ATOM      4  C3  UNL d   1      -0.892   4.356  -1.920  0.00  0.00     0.017 A 
ATOM      5  C4  UNL d   1       0.503   4.242  -1.923  0.00  0.00     0.017 A 
ATOM      6  C5  UNL d   1       1.146   3.552  -0.890  0.00  0.00     0.034 A 
ATOM      7 Cl   UNL d   1       1.486   4.927  -3.168  0.00  0.00    -0.070 Cl
ATOM      8 Cl1  UNL d   1      -1.759   5.191  -3.160  0.00  0.00    -0.070 Cl
ENDROOT
TORSDOF 0
ENDMDL
