MODEL 1
REMARK minimizedAffinity 14.3207235
REMARK minimizedRMSD -1
REMARK  0 active torsions:
REMARK  status: ('A' for Active; 'I' for Inactive)
ROOT
ATOM      1  C   UNL d   1      -3.540   2.934  -4.973  0.00  0.00     0.020 A 
ATOM      2  C1  UNL d   1      -3.624   3.386  -3.656  0.00  0.00     0.020 A 
ATOM      3  C2  UNL d   1      -4.060   2.523  -2.648  0.00  0.00     0.034 A 
ATOM      4  C3  UNL d   1      -4.413   1.204  -2.955  0.00  0.00     0.017 A 
ATOM      5  C4  UNL d   1      -4.329   0.751  -4.277  0.00  0.00     0.017 A 
ATOM      6  C5  UNL d   1      -3.891   1.619  -5.282  0.00  0.00     0.034 A 
ATOM      7 Cl   UNL d   1      -4.747  -0.862  -4.732  0.00  0.00    -0.070 Cl
ATOM      8 Cl1  UNL d   1      -4.943   0.192  -1.659  0.00  0.00    -0.070 Cl
ENDROOT
TORSDOF 0
ENDMDL
