MODEL 1
REMARK minimizedAffinity 5.66682482
REMARK minimizedRMSD -1
REMARK  0 active torsions:
REMARK  status: ('A' for Active; 'I' for Inactive)
ROOT
ATOM      1  C   UNL d   1       0.676   1.518   2.069  0.00  0.00     0.020 A 
ATOM      2  C1  UNL d   1      -0.618   1.839   2.475  0.00  0.00     0.020 A 
ATOM      3  C2  UNL d   1      -1.402   2.693   1.696  0.00  0.00     0.034 A 
ATOM      4  C3  UNL d   1      -0.893   3.228   0.508  0.00  0.00     0.017 A 
ATOM      5  C4  UNL d   1       0.407   2.905   0.101  0.00  0.00     0.017 A 
ATOM      6  C5  UNL d   1       1.188   2.050   0.885  0.00  0.00     0.034 A 
ATOM      7 Cl   UNL d   1       1.105   3.526  -1.353  0.00  0.00    -0.070 Cl
ATOM      8 Cl1  UNL d   1      -1.918   4.277  -0.406  0.00  0.00    -0.070 Cl
ENDROOT
TORSDOF 0
ENDMDL
