MODEL 1
REMARK minimizedAffinity 8.92642498
REMARK minimizedRMSD -1
REMARK  0 active torsions:
REMARK  status: ('A' for Active; 'I' for Inactive)
ROOT
ATOM      1  C   UNL d   1       0.909  -4.594  -1.181  0.00  0.00     0.020 A 
ATOM      2  C1  UNL d   1       0.680  -4.219  -2.504  0.00  0.00     0.020 A 
ATOM      3  C2  UNL d   1       1.682  -4.390  -3.462  0.00  0.00     0.034 A 
ATOM      4  C3  UNL d   1       2.918  -4.937  -3.097  0.00  0.00     0.017 A 
ATOM      5  C4  UNL d   1       3.146  -5.313  -1.769  0.00  0.00     0.017 A 
ATOM      6  C5  UNL d   1       2.139  -5.140  -0.814  0.00  0.00     0.034 A 
ATOM      7 Cl   UNL d   1       4.645  -5.995  -1.244  0.00  0.00    -0.070 Cl
ATOM      8 Cl1  UNL d   1       4.111  -5.120  -4.333  0.00  0.00    -0.070 Cl
ENDROOT
TORSDOF 0
ENDMDL
