MODEL 1
REMARK minimizedAffinity 16.6040516
REMARK minimizedRMSD -1
REMARK  0 active torsions:
REMARK  status: ('A' for Active; 'I' for Inactive)
ROOT
ATOM      1  C   UNL d   1       2.696  -4.793  -4.054  0.00  0.00     0.020 A 
ATOM      2  C1  UNL d   1       1.337  -4.610  -3.804  0.00  0.00     0.020 A 
ATOM      3  C2  UNL d   1       0.890  -4.389  -2.499  0.00  0.00     0.034 A 
ATOM      4  C3  UNL d   1       1.804  -4.350  -1.440  0.00  0.00     0.017 A 
ATOM      5  C4  UNL d   1       3.169  -4.534  -1.692  0.00  0.00     0.017 A 
ATOM      6  C5  UNL d   1       3.610  -4.755  -3.000  0.00  0.00     0.034 A 
ATOM      7 Cl   UNL d   1       4.356  -4.499  -0.437  0.00  0.00    -0.070 Cl
ATOM      8 Cl1  UNL d   1       1.183  -4.072   0.148  0.00  0.00    -0.070 Cl
ENDROOT
TORSDOF 0
ENDMDL
