MODEL 1
REMARK minimizedAffinity 6.905159
REMARK minimizedRMSD -1
REMARK  0 active torsions:
REMARK  status: ('A' for Active; 'I' for Inactive)
ROOT
ATOM      1  C   UNL d   1      -3.332   6.000   1.716  0.00  0.00     0.020 A 
ATOM      2  C1  UNL d   1      -4.615   5.999   1.169  0.00  0.00     0.020 A 
ATOM      3  C2  UNL d   1      -4.792   5.758  -0.195  0.00  0.00     0.034 A 
ATOM      4  C3  UNL d   1      -3.685   5.517  -1.017  0.00  0.00     0.017 A 
ATOM      5  C4  UNL d   1      -2.398   5.518  -0.467  0.00  0.00     0.017 A 
ATOM      6  C5  UNL d   1      -2.226   5.760   0.899  0.00  0.00     0.034 A 
ATOM      7 Cl   UNL d   1      -0.984   5.229  -1.418  0.00  0.00    -0.070 Cl
ATOM      8 Cl1  UNL d   1      -3.979   5.227  -2.695  0.00  0.00    -0.070 Cl
ENDROOT
TORSDOF 0
ENDMDL
