MODEL 1
REMARK minimizedAffinity 4.65750933
REMARK minimizedRMSD -1
REMARK  0 active torsions:
REMARK  status: ('A' for Active; 'I' for Inactive)
ROOT
ATOM      1  C   UNL d   1      -0.249   2.630  -0.631  0.00  0.00     0.020 A 
ATOM      2  C1  UNL d   1      -1.608   2.944  -0.637  0.00  0.00     0.020 A 
ATOM      3  C2  UNL d   1      -2.320   2.987   0.564  0.00  0.00     0.034 A 
ATOM      4  C3  UNL d   1      -1.673   2.717   1.775  0.00  0.00     0.017 A 
ATOM      5  C4  UNL d   1      -0.309   2.402   1.780  0.00  0.00     0.017 A 
ATOM      6  C5  UNL d   1       0.398   2.360   0.575  0.00  0.00     0.034 A 
ATOM      7 Cl   UNL d   1       0.557   2.056   3.235  0.00  0.00    -0.070 Cl
ATOM      8 Cl1  UNL d   1      -2.615   2.789   3.222  0.00  0.00    -0.070 Cl
ENDROOT
TORSDOF 0
ENDMDL
