MODEL 1
REMARK minimizedAffinity 8.65091705
REMARK minimizedRMSD -1
REMARK  0 active torsions:
REMARK  status: ('A' for Active; 'I' for Inactive)
ROOT
ATOM      1  C   UNL d   1      -0.935   0.751  -0.161  0.00  0.00     0.020 A 
ATOM      2  C1  UNL d   1       0.246   1.446   0.093  0.00  0.00     0.020 A 
ATOM      3  C2  UNL d   1       1.467   0.769   0.101  0.00  0.00     0.034 A 
ATOM      4  C3  UNL d   1       1.510  -0.608  -0.145  0.00  0.00     0.017 A 
ATOM      5  C4  UNL d   1       0.324  -1.306  -0.399  0.00  0.00     0.017 A 
ATOM      6  C5  UNL d   1      -0.896  -0.623  -0.406  0.00  0.00     0.034 A 
ATOM      7 Cl   UNL d   1       0.296  -3.006  -0.711  0.00  0.00    -0.070 Cl
ATOM      8 Cl1  UNL d   1       3.055  -1.382  -0.120  0.00  0.00    -0.070 Cl
ENDROOT
TORSDOF 0
ENDMDL
