MODEL 1
REMARK minimizedAffinity -0.934584618
REMARK minimizedRMSD -1
REMARK  0 active torsions:
REMARK  status: ('A' for Active; 'I' for Inactive)
ROOT
ATOM      1  C   UNL d   1       6.000   3.755  -4.843  0.00  0.00     0.172 C 
ATOM      2  N   UNL d   1       5.316   4.552  -3.852  0.00  0.00    -0.070 N 
ATOM      3  C1  UNL d   1       5.907   5.445  -2.999  0.00  0.00    -0.004 A 
ATOM      4  C2  UNL d   1       4.918   5.998  -2.215  0.00  0.00    -0.047 A 
ATOM      5  C3  UNL d   1       3.690   5.417  -2.609  0.00  0.00    -0.047 A 
ATOM      6  C4  UNL d   1       3.965   4.525  -3.624  0.00  0.00    -0.004 A 
ENDROOT
TORSDOF 0
ENDMDL
