MODEL 1
REMARK minimizedAffinity -0.234513
REMARK minimizedRMSD -1
REMARK  0 active torsions:
REMARK  status: ('A' for Active; 'I' for Inactive)
ROOT
ATOM      1  C   UNL d   1       1.107  -1.778  -2.438  0.00  0.00     0.172 C 
ATOM      2  N   UNL d   1       0.040  -2.104  -1.521  0.00  0.00    -0.070 N 
ATOM      3  C1  UNL d   1      -1.204  -2.556  -1.872  0.00  0.00    -0.004 A 
ATOM      4  C2  UNL d   1      -1.925  -2.750  -0.713  0.00  0.00    -0.047 A 
ATOM      5  C3  UNL d   1      -1.086  -2.401   0.371  0.00  0.00    -0.047 A 
ATOM      6  C4  UNL d   1       0.125  -2.005  -0.157  0.00  0.00    -0.004 A 
ENDROOT
TORSDOF 0
ENDMDL
