MODEL 1
REMARK minimizedAffinity 4.70808411
REMARK minimizedRMSD -1
REMARK  0 active torsions:
REMARK  status: ('A' for Active; 'I' for Inactive)
ROOT
ATOM      1  C   UNL d   1       2.682   1.609   0.505  0.00  0.00     0.172 C 
ATOM      2  N   UNL d   1       2.264   0.517   1.353  0.00  0.00    -0.070 N 
ATOM      3  C1  UNL d   1       2.898   0.106   2.495  0.00  0.00    -0.004 A 
ATOM      4  C2  UNL d   1       2.191  -0.959   3.011  0.00  0.00    -0.047 A 
ATOM      5  C3  UNL d   1       1.094  -1.196   2.148  0.00  0.00    -0.047 A 
ATOM      6  C4  UNL d   1       1.164  -0.268   1.130  0.00  0.00    -0.004 A 
ENDROOT
TORSDOF 0
ENDMDL
