MODEL 1
REMARK minimizedAffinity 5.23853302
REMARK minimizedRMSD -1
REMARK  0 active torsions:
REMARK  status: ('A' for Active; 'I' for Inactive)
ROOT
ATOM      1  C   UNL d   1       1.581   1.843   0.618  0.00  0.00     0.172 C 
ATOM      2  N   UNL d   1       0.673   0.731   0.775  0.00  0.00    -0.070 N 
ATOM      3  C1  UNL d   1      -0.693   0.801   0.710  0.00  0.00    -0.004 A 
ATOM      4  C2  UNL d   1      -1.190  -0.469   0.909  0.00  0.00    -0.047 A 
ATOM      5  C3  UNL d   1      -0.085  -1.331   1.101  0.00  0.00    -0.047 A 
ATOM      6  C4  UNL d   1       1.056  -0.562   1.013  0.00  0.00    -0.004 A 
ENDROOT
TORSDOF 0
ENDMDL
