MODEL 1
REMARK minimizedAffinity -0.196634054
REMARK minimizedRMSD -1
REMARK  0 active torsions:
REMARK  status: ('A' for Active; 'I' for Inactive)
ROOT
ATOM      1  C   UNL d   1       2.086   0.772   2.965  0.00  0.00     0.172 C 
ATOM      2  N   UNL d   1       1.387  -0.363   2.413  0.00  0.00    -0.070 N 
ATOM      3  C1  UNL d   1       0.570  -0.341   1.313  0.00  0.00    -0.004 A 
ATOM      4  C2  UNL d   1       0.098  -1.619   1.112  0.00  0.00    -0.047 A 
ATOM      5  C3  UNL d   1       0.649  -2.439   2.125  0.00  0.00    -0.047 A 
ATOM      6  C4  UNL d   1       1.442  -1.636   2.917  0.00  0.00    -0.004 A 
ENDROOT
TORSDOF 0
ENDMDL
