MODEL 1
REMARK minimizedAffinity -2.5814774
REMARK minimizedRMSD -1
REMARK  0 active torsions:
REMARK  status: ('A' for Active; 'I' for Inactive)
ROOT
ATOM      1  C4' PXY d   1       2.941   0.194   2.081  0.00  0.00     0.077 C 
ATOM      2  C1' PXY d   1      -2.039  -0.174  -0.830  0.00  0.00     0.077 C 
ATOM      3  C1  PXY d   1      -0.728  -0.088  -0.073  0.00  0.00    -0.082 A 
ATOM      4  C2  PXY d   1      -0.691   0.516   1.104  0.00  0.00     0.003 A 
ATOM      5  C3  PXY d   1       0.492   0.630   1.788  0.00  0.00     0.003 A 
ATOM      6  C4  PXY d   1       1.639   0.075   1.286  0.00  0.00    -0.082 A 
ATOM      7  C5  PXY d   1       1.607  -0.552   0.091  0.00  0.00     0.003 A 
ATOM      8  C6  PXY d   1       0.404  -0.621  -0.606  0.00  0.00     0.003 A 
ENDROOT
TORSDOF 0
ENDMDL
