MODEL 1
REMARK minimizedAffinity 2.28001857
REMARK minimizedRMSD -1
REMARK  0 active torsions:
REMARK  status: ('A' for Active; 'I' for Inactive)
ROOT
ATOM      1  C4' PXY d   1      -0.026  -0.990   4.316  0.00  0.00     0.077 C 
ATOM      2  C1' PXY d   1      -1.246   0.422  -1.155  0.00  0.00     0.077 C 
ATOM      3  C1  PXY d   1      -0.936   0.059   0.284  0.00  0.00    -0.082 A 
ATOM      4  C2  PXY d   1       0.292  -0.303   0.617  0.00  0.00     0.003 A 
ATOM      5  C3  PXY d   1       0.583  -0.666   1.908  0.00  0.00     0.003 A 
ATOM      6  C4  PXY d   1      -0.382  -0.606   2.878  0.00  0.00    -0.082 A 
ATOM      7  C5  PXY d   1      -1.635  -0.228   2.547  0.00  0.00     0.003 A 
ATOM      8  C6  PXY d   1      -1.919   0.097   1.224  0.00  0.00     0.003 A 
ENDROOT
TORSDOF 0
ENDMDL
