MODEL 1
REMARK minimizedAffinity -2.28638506
REMARK minimizedRMSD -1
REMARK  0 active torsions:
REMARK  status: ('A' for Active; 'I' for Inactive)
ROOT
ATOM      1  C4' PXY d   1       3.148   1.497   0.355  0.00  0.00     0.077 C 
ATOM      2  C1' PXY d   1      -2.095  -0.718  -0.656  0.00  0.00     0.077 C 
ATOM      3  C1  PXY d   1      -0.715  -0.144  -0.400  0.00  0.00    -0.082 A 
ATOM      4  C2  PXY d   1      -0.434   0.382   0.780  0.00  0.00     0.003 A 
ATOM      5  C3  PXY d   1       0.798   0.934   1.018  0.00  0.00     0.003 A 
ATOM      6  C4  PXY d   1       1.771   0.899   0.055  0.00  0.00    -0.082 A 
ATOM      7  C5  PXY d   1       1.495   0.353  -1.149  0.00  0.00     0.003 A 
ATOM      8  C6  PXY d   1       0.225  -0.164  -1.384  0.00  0.00     0.003 A 
ENDROOT
TORSDOF 0
ENDMDL
