MODEL 1
REMARK minimizedAffinity -3.62492633
REMARK minimizedRMSD -1
REMARK  0 active torsions:
REMARK  status: ('A' for Active; 'I' for Inactive)
ROOT
ATOM      1  C4' PXY d   1       0.098   0.401  -2.604  0.00  0.00     0.077 C 
ATOM      2  C1' PXY d   1      -2.261   0.011   2.658  0.00  0.00     0.077 C 
ATOM      3  C1  PXY d   1      -1.649   0.124   1.276  0.00  0.00    -0.082 A 
ATOM      4  C2  PXY d   1      -1.163  -0.955   0.686  0.00  0.00     0.003 A 
ATOM      5  C3  PXY d   1      -0.577  -0.866  -0.551  0.00  0.00     0.003 A 
ATOM      6  C4  PXY d   1      -0.537   0.332  -1.213  0.00  0.00    -0.082 A 
ATOM      7  C5  PXY d   1      -1.041   1.436  -0.622  0.00  0.00     0.003 A 
ATOM      8  C6  PXY d   1      -1.594   1.332   0.651  0.00  0.00     0.003 A 
ENDROOT
TORSDOF 0
ENDMDL
