MODEL 1
REMARK minimizedAffinity -0.73540622
REMARK minimizedRMSD -1
REMARK  0 active torsions:
REMARK  status: ('A' for Active; 'I' for Inactive)
ROOT
ATOM      1  C4' PXY d   1       5.205   5.999   3.044  0.00  0.00     0.077 C 
ATOM      2  C1' PXY d   1       1.366   2.181   1.020  0.00  0.00     0.077 C 
ATOM      3  C1  PXY d   1       2.373   3.176   1.562  0.00  0.00    -0.082 A 
ATOM      4  C2  PXY d   1       2.453   4.384   1.027  0.00  0.00     0.003 A 
ATOM      5  C3  PXY d   1       3.380   5.285   1.484  0.00  0.00     0.003 A 
ATOM      6  C4  PXY d   1       4.197   4.966   2.535  0.00  0.00    -0.082 A 
ATOM      7  C5  PXY d   1       4.114   3.740   3.094  0.00  0.00     0.003 A 
ATOM      8  C6  PXY d   1       3.194   2.825   2.588  0.00  0.00     0.003 A 
ENDROOT
TORSDOF 0
ENDMDL
