MODEL 1
REMARK minimizedAffinity 1.13230276
REMARK minimizedRMSD -1
REMARK  0 active torsions:
REMARK  status: ('A' for Active; 'I' for Inactive)
ROOT
ATOM      1  C4' PXY d   1       1.957  -0.889   1.116  0.00  0.00     0.077 C 
ATOM      2  C1' PXY d   1      -3.614   0.126  -0.043  0.00  0.00     0.077 C 
ATOM      3  C1  PXY d   1      -2.153  -0.150   0.253  0.00  0.00    -0.082 A 
ATOM      4  C2  PXY d   1      -1.633   0.244   1.404  0.00  0.00     0.003 A 
ATOM      5  C3  PXY d   1      -0.305   0.031   1.674  0.00  0.00     0.003 A 
ATOM      6  C4  PXY d   1       0.485  -0.640   0.779  0.00  0.00    -0.082 A 
ATOM      7  C5  PXY d   1      -0.041  -1.054  -0.393  0.00  0.00     0.003 A 
ATOM      8  C6  PXY d   1      -1.381  -0.791  -0.666  0.00  0.00     0.003 A 
ENDROOT
TORSDOF 0
ENDMDL
