MODEL 1
REMARK minimizedAffinity -2.37575555
REMARK minimizedRMSD -1
REMARK  0 active torsions:
REMARK  status: ('A' for Active; 'I' for Inactive)
ROOT
ATOM      1  C4' PXY d   1      -1.931  -0.214  -0.141  0.00  0.00     0.077 C 
ATOM      2  C1' PXY d   1       0.528  -0.897   5.046  0.00  0.00     0.077 C 
ATOM      3  C1  PXY d   1      -0.105  -0.717   3.680  0.00  0.00    -0.082 A 
ATOM      4  C2  PXY d   1      -1.354  -0.289   3.590  0.00  0.00     0.003 A 
ATOM      5  C3  PXY d   1      -1.953  -0.151   2.364  0.00  0.00     0.003 A 
ATOM      6  C4  PXY d   1      -1.249  -0.402   1.217  0.00  0.00    -0.082 A 
ATOM      7  C5  PXY d   1       0.029  -0.828   1.300  0.00  0.00     0.003 A 
ATOM      8  C6  PXY d   1       0.606  -1.002   2.556  0.00  0.00     0.003 A 
ENDROOT
TORSDOF 0
ENDMDL
