MODEL 1
REMARK minimizedAffinity -1.83626986
REMARK minimizedRMSD -1
REMARK  0 active torsions:
REMARK  status: ('A' for Active; 'I' for Inactive)
ROOT
ATOM      1  C4' PXY d   1       0.319  -1.371   4.831  0.00  0.00     0.077 C 
ATOM      2  C1' PXY d   1      -1.417   0.554  -0.336  0.00  0.00     0.077 C 
ATOM      3  C1  PXY d   1      -0.971   0.056   1.025  0.00  0.00    -0.082 A 
ATOM      4  C2  PXY d   1       0.282  -0.332   1.202  0.00  0.00     0.003 A 
ATOM      5  C3  PXY d   1       0.693  -0.815   2.417  0.00  0.00     0.003 A 
ATOM      6  C4  PXY d   1      -0.172  -0.852   3.477  0.00  0.00    -0.082 A 
ATOM      7  C5  PXY d   1      -1.449  -0.449   3.308  0.00  0.00     0.003 A 
ATOM      8  C6  PXY d   1      -1.858  -0.000   2.055  0.00  0.00     0.003 A 
ENDROOT
TORSDOF 0
ENDMDL
