MODEL 1
REMARK minimizedAffinity 3.94197154
REMARK minimizedRMSD -1
REMARK  0 active torsions:
REMARK  status: ('A' for Active; 'I' for Inactive)
ROOT
ATOM      1  C   UNL d   1       2.535  -0.003  -1.121  0.00  0.00     0.172 C 
ATOM      2  N   UNL d   1       3.944   0.232  -0.908  0.00  0.00    -0.070 N 
ATOM      3  C1  UNL d   1       4.717  -0.368   0.049  0.00  0.00    -0.004 A 
ATOM      4  C2  UNL d   1       5.999   0.122  -0.076  0.00  0.00    -0.047 A 
ATOM      5  C3  UNL d   1       5.996   1.049  -1.145  0.00  0.00    -0.047 A 
ATOM      6  C4  UNL d   1       4.711   1.098  -1.642  0.00  0.00    -0.004 A 
ENDROOT
TORSDOF 0
ENDMDL
