MODEL 1
REMARK minimizedAffinity -1.11931324
REMARK minimizedRMSD -1
REMARK  0 active torsions:
REMARK  status: ('A' for Active; 'I' for Inactive)
ROOT
ATOM      1  C   UNL d   1       2.457   0.375  -0.427  0.00  0.00     0.172 C 
ATOM      2  N   UNL d   1       3.898   0.372  -0.512  0.00  0.00    -0.070 N 
ATOM      3  C1  UNL d   1       4.687   1.467  -0.742  0.00  0.00    -0.004 A 
ATOM      4  C2  UNL d   1       6.000   1.047  -0.748  0.00  0.00    -0.047 A 
ATOM      5  C3  UNL d   1       6.000  -0.348  -0.515  0.00  0.00    -0.047 A 
ATOM      6  C4  UNL d   1       4.686  -0.741  -0.372  0.00  0.00    -0.004 A 
ENDROOT
TORSDOF 0
ENDMDL
