MODEL 1
REMARK minimizedAffinity 3.27435327
REMARK minimizedRMSD -1
REMARK  0 active torsions:
REMARK  status: ('A' for Active; 'I' for Inactive)
ROOT
ATOM      1  C   UNL d   1       3.027  -0.437  -0.621  0.00  0.00     0.172 C 
ATOM      2  N   UNL d   1       4.039   0.555  -0.899  0.00  0.00    -0.070 N 
ATOM      3  C1  UNL d   1       4.974   0.485  -1.898  0.00  0.00    -0.004 A 
ATOM      4  C2  UNL d   1       5.750   1.621  -1.830  0.00  0.00    -0.047 A 
ATOM      5  C3  UNL d   1       5.266   2.401  -0.753  0.00  0.00    -0.047 A 
ATOM      6  C4  UNL d   1       4.207   1.718  -0.194  0.00  0.00    -0.004 A 
ENDROOT
TORSDOF 0
ENDMDL
