MODEL 1
REMARK minimizedAffinity 5.03477001
REMARK minimizedRMSD -1
REMARK  0 active torsions:
REMARK  status: ('A' for Active; 'I' for Inactive)
ROOT
ATOM      1  C   UNL d   1       3.976  -0.335  -0.800  0.00  0.00     0.172 C 
ATOM      2  N   UNL d   1       3.130  -1.505  -0.838  0.00  0.00    -0.070 N 
ATOM      3  C1  UNL d   1       2.782  -2.202  -1.964  0.00  0.00    -0.004 A 
ATOM      4  C2  UNL d   1       1.969  -3.246  -1.581  0.00  0.00    -0.047 A 
ATOM      5  C3  UNL d   1       1.822  -3.173  -0.175  0.00  0.00    -0.047 A 
ATOM      6  C4  UNL d   1       2.551  -2.086   0.259  0.00  0.00    -0.004 A 
ENDROOT
TORSDOF 0
ENDMDL
