MODEL 1
REMARK minimizedAffinity 8.31758499
REMARK minimizedRMSD -1
REMARK  0 active torsions:
REMARK  status: ('A' for Active; 'I' for Inactive)
ROOT
ATOM      1  C   UNL d   1       6.000   5.941  -3.133  0.00  0.00     0.172 C 
ATOM      2  N   UNL d   1       5.576   5.489  -1.828  0.00  0.00    -0.070 N 
ATOM      3  C1  UNL d   1       6.000   6.000  -0.630  0.00  0.00    -0.004 A 
ATOM      4  C2  UNL d   1       5.366   5.301   0.374  0.00  0.00    -0.047 A 
ATOM      5  C3  UNL d   1       4.533   4.336  -0.241  0.00  0.00    -0.047 A 
ATOM      6  C4  UNL d   1       4.683   4.475  -1.605  0.00  0.00    -0.004 A 
ENDROOT
TORSDOF 0
ENDMDL
