MODEL 1
REMARK minimizedAffinity 4.05065584
REMARK minimizedRMSD -1
REMARK  0 active torsions:
REMARK  status: ('A' for Active; 'I' for Inactive)
ROOT
ATOM      1  C   UNL d   1       3.368  -0.751  -1.443  0.00  0.00     0.172 C 
ATOM      2  N   UNL d   1       4.215   0.373  -1.121  0.00  0.00    -0.070 N 
ATOM      3  C1  UNL d   1       3.835   1.689  -1.134  0.00  0.00    -0.004 A 
ATOM      4  C2  UNL d   1       4.927   2.447  -0.768  0.00  0.00    -0.047 A 
ATOM      5  C3  UNL d   1       6.000   1.556  -0.527  0.00  0.00    -0.047 A 
ATOM      6  C4  UNL d   1       5.532   0.279  -0.753  0.00  0.00    -0.004 A 
ENDROOT
TORSDOF 0
ENDMDL
