MODEL 1
REMARK minimizedAffinity 6.29441261
REMARK minimizedRMSD -1
REMARK  0 active torsions:
REMARK  status: ('A' for Active; 'I' for Inactive)
ROOT
ATOM      1  C   UNL d   1       1.502  -5.462   6.000  0.00  0.00     0.172 C 
ATOM      2  N   UNL d   1       1.231  -4.507   4.951  0.00  0.00    -0.070 N 
ATOM      3  C1  UNL d   1       2.150  -3.667   4.380  0.00  0.00    -0.004 A 
ATOM      4  C2  UNL d   1       1.499  -2.918   3.423  0.00  0.00    -0.047 A 
ATOM      5  C3  UNL d   1       0.142  -3.321   3.420  0.00  0.00    -0.047 A 
ATOM      6  C4  UNL d   1       0.004  -4.306   4.376  0.00  0.00    -0.004 A 
ENDROOT
TORSDOF 0
ENDMDL
