MODEL 1
REMARK minimizedAffinity 4.90456581
REMARK minimizedRMSD -1
REMARK  0 active torsions:
REMARK  status: ('A' for Active; 'I' for Inactive)
ROOT
ATOM      1  C   UNL d   1      -3.143   2.005  -5.997  0.00  0.00     0.172 C 
ATOM      2  N   UNL d   1      -3.168   1.120  -4.857  0.00  0.00    -0.070 N 
ATOM      3  C1  UNL d   1      -4.292   0.581  -4.289  0.00  0.00    -0.004 A 
ATOM      4  C2  UNL d   1      -3.894  -0.205  -3.229  0.00  0.00    -0.047 A 
ATOM      5  C3  UNL d   1      -2.483  -0.135  -3.156  0.00  0.00    -0.047 A 
ATOM      6  C4  UNL d   1      -2.059   0.692  -4.175  0.00  0.00    -0.004 A 
ENDROOT
TORSDOF 0
ENDMDL
