MODEL 1
REMARK minimizedAffinity 5.28703165
REMARK minimizedRMSD -1
REMARK  2 active torsions:
REMARK  status: ('A' for Active; 'I' for Inactive)
REMARK    1  A    between atoms: C1_2  and  C2_3 
REMARK    2  A    between atoms: C2_3  and  C3_4 
ROOT
ATOM      1  C3  UNL d   1       2.552   1.024  -0.270  0.00  0.00    -0.075 A 
ATOM      2  C4  UNL d   1       2.267   1.015   1.103  0.00  0.00     0.002 A 
ATOM      3  C5  UNL d   1       1.852  -0.158   1.733  0.00  0.00     0.002 A 
ATOM      4  C6  UNL d   1       1.709  -1.334   0.999  0.00  0.00    -0.004 A 
ATOM      5  C7  UNL d   1       1.973  -1.333  -0.369  0.00  0.00     0.002 A 
ATOM      6  C8  UNL d   1       2.392  -0.161  -1.001  0.00  0.00     0.002 A 
ENDROOT
BRANCH   1   7
ATOM      7  C2  UNL d   1       3.029   2.283  -0.953  0.00  0.00     0.056 C 
BRANCH   7   8
ATOM      8  C1  UNL d   1       4.332   2.848  -0.379  0.00  0.00     0.007 C 
ATOM      9  C   UNL d   1       5.253   3.432  -1.442  0.00  0.00     0.009 C 
ENDBRANCH   7   8
ENDBRANCH   1   7
TORSDOF 2
ENDMDL
