MODEL 1
REMARK minimizedAffinity 9.0344038
REMARK minimizedRMSD -1
REMARK  2 active torsions:
REMARK  status: ('A' for Active; 'I' for Inactive)
REMARK    1  A    between atoms: C1_2  and  C2_3 
REMARK    2  A    between atoms: C2_3  and  C3_4 
ROOT
ATOM      1  C3  UNL d   1       1.497  -1.960   4.942  0.00  0.00    -0.075 A 
ATOM      2  C4  UNL d   1       0.614  -1.558   3.930  0.00  0.00     0.002 A 
ATOM      3  C5  UNL d   1       0.360  -0.204   3.707  0.00  0.00     0.002 A 
ATOM      4  C6  UNL d   1       0.977   0.762   4.498  0.00  0.00    -0.004 A 
ATOM      5  C7  UNL d   1       1.844   0.374   5.517  0.00  0.00     0.002 A 
ATOM      6  C8  UNL d   1       2.103  -0.979   5.739  0.00  0.00     0.002 A 
ENDROOT
BRANCH   1   7
ATOM      7  C2  UNL d   1       1.799  -3.422   5.169  0.00  0.00     0.056 C 
BRANCH   7   8
ATOM      8  C1  UNL d   1       0.657  -4.198   5.833  0.00  0.00     0.007 C 
ATOM      9  C   UNL d   1       0.957  -5.682   5.999  0.00  0.00     0.009 C 
ENDBRANCH   7   8
ENDBRANCH   1   7
TORSDOF 2
ENDMDL
