MODEL 1
REMARK minimizedAffinity 6.31401205
REMARK minimizedRMSD -1
REMARK  2 active torsions:
REMARK  status: ('A' for Active; 'I' for Inactive)
REMARK    1  A    between atoms: C1_2  and  C2_3 
REMARK    2  A    between atoms: C2_3  and  C3_4 
ROOT
ATOM      1  C3  UNL d   1       3.095  -0.431   0.217  0.00  0.00    -0.075 A 
ATOM      2  C4  UNL d   1       4.374  -0.053  -0.216  0.00  0.00     0.002 A 
ATOM      3  C5  UNL d   1       4.779   1.281  -0.152  0.00  0.00     0.002 A 
ATOM      4  C6  UNL d   1       3.908   2.253   0.336  0.00  0.00    -0.004 A 
ATOM      5  C7  UNL d   1       2.630   1.892   0.754  0.00  0.00     0.002 A 
ATOM      6  C8  UNL d   1       2.224   0.557   0.695  0.00  0.00     0.002 A 
ENDROOT
BRANCH   1   7
ATOM      7  C2  UNL d   1       2.662  -1.877   0.178  0.00  0.00     0.056 C 
BRANCH   7   8
ATOM      8  C1  UNL d   1       2.068  -2.313  -1.165  0.00  0.00     0.007 C 
ATOM      9  C   UNL d   1       3.120  -2.529  -2.245  0.00  0.00     0.009 C 
ENDBRANCH   7   8
ENDBRANCH   1   7
TORSDOF 2
ENDMDL
