MODEL 1
REMARK minimizedAffinity 9.6977129
REMARK minimizedRMSD -1
REMARK  2 active torsions:
REMARK  status: ('A' for Active; 'I' for Inactive)
REMARK    1  A    between atoms: C1_2  and  C2_3 
REMARK    2  A    between atoms: C2_3  and  C3_4 
ROOT
ATOM      1  C3  UNL d   1      -5.694   3.569   3.720  0.00  0.00    -0.075 A 
ATOM      2  C4  UNL d   1      -5.356   3.296   5.053  0.00  0.00     0.002 A 
ATOM      3  C5  UNL d   1      -5.326   4.320   6.000  0.00  0.00     0.002 A 
ATOM      4  C6  UNL d   1      -5.624   5.629   5.625  0.00  0.00    -0.004 A 
ATOM      5  C7  UNL d   1      -5.946   5.913   4.300  0.00  0.00     0.002 A 
ATOM      6  C8  UNL d   1      -5.980   4.890   3.351  0.00  0.00     0.002 A 
ENDROOT
BRANCH   1   7
ATOM      7  C2  UNL d   1      -5.757   2.460   2.696  0.00  0.00     0.056 C 
BRANCH   7   8
ATOM      8  C1  UNL d   1      -5.996   2.947   1.263  0.00  0.00     0.007 C 
ATOM      9  C   UNL d   1      -5.988   1.821   0.238  0.00  0.00     0.009 C 
ENDBRANCH   7   8
ENDBRANCH   1   7
TORSDOF 2
ENDMDL
