MODEL 1
REMARK minimizedAffinity 12.2098789
REMARK minimizedRMSD -1
REMARK  2 active torsions:
REMARK  status: ('A' for Active; 'I' for Inactive)
REMARK    1  A    between atoms: C1_2  and  C2_3 
REMARK    2  A    between atoms: C2_3  and  C3_4 
ROOT
ATOM      1  C3  UNL d   1      -5.172   4.221   4.111  0.00  0.00    -0.075 A 
ATOM      2  C4  UNL d   1      -3.800   4.511   4.112  0.00  0.00     0.002 A 
ATOM      3  C5  UNL d   1      -3.261   5.387   5.055  0.00  0.00     0.002 A 
ATOM      4  C6  UNL d   1      -4.087   5.991   6.000  0.00  0.00    -0.004 A 
ATOM      5  C7  UNL d   1      -5.454   5.724   5.998  0.00  0.00     0.002 A 
ATOM      6  C8  UNL d   1      -5.995   4.844   5.059  0.00  0.00     0.002 A 
ENDROOT
BRANCH   1   7
ATOM      7  C2  UNL d   1      -5.756   3.251   3.112  0.00  0.00     0.056 C 
BRANCH   7   8
ATOM      8  C1  UNL d   1      -4.938   3.115   1.824  0.00  0.00     0.007 C 
ATOM      9  C   UNL d   1      -5.297   1.876   1.014  0.00  0.00     0.009 C 
ENDBRANCH   7   8
ENDBRANCH   1   7
TORSDOF 2
ENDMDL
