MODEL 1
REMARK minimizedAffinity 15.3500051
REMARK minimizedRMSD -1
REMARK  2 active torsions:
REMARK  status: ('A' for Active; 'I' for Inactive)
REMARK    1  A    between atoms: C1_2  and  C2_3 
REMARK    2  A    between atoms: C2_3  and  C3_4 
ROOT
ATOM      1  C3  UNL d   1      -5.746   4.349   3.110  0.00  0.00    -0.075 A 
ATOM      2  C4  UNL d   1      -5.860   3.257   3.983  0.00  0.00     0.002 A 
ATOM      3  C5  UNL d   1      -5.989   3.459   5.358  0.00  0.00     0.002 A 
ATOM      4  C6  UNL d   1      -5.996   4.752   5.877  0.00  0.00    -0.004 A 
ATOM      5  C7  UNL d   1      -5.867   5.844   5.020  0.00  0.00     0.002 A 
ATOM      6  C8  UNL d   1      -5.742   5.644   3.644  0.00  0.00     0.002 A 
ENDROOT
BRANCH   1   7
ATOM      7  C2  UNL d   1      -5.636   4.137   1.619  0.00  0.00     0.056 C 
BRANCH   7   8
ATOM      8  C1  UNL d   1      -4.664   5.097   0.924  0.00  0.00     0.007 C 
ATOM      9  C   UNL d   1      -4.576   4.876  -0.581  0.00  0.00     0.009 C 
ENDBRANCH   7   8
ENDBRANCH   1   7
TORSDOF 2
ENDMDL
