MODEL 1
REMARK minimizedAffinity 6.94197702
REMARK minimizedRMSD -1
REMARK  2 active torsions:
REMARK  status: ('A' for Active; 'I' for Inactive)
REMARK    1  A    between atoms: C1_2  and  C2_3 
REMARK    2  A    between atoms: C2_3  and  C3_4 
ROOT
ATOM      1  C3  UNL d   1       3.843  -0.079  -0.375  0.00  0.00    -0.075 A 
ATOM      2  C4  UNL d   1       3.202   1.151  -0.167  0.00  0.00     0.002 A 
ATOM      3  C5  UNL d   1       3.933   2.275   0.217  0.00  0.00     0.002 A 
ATOM      4  C6  UNL d   1       5.310   2.183   0.408  0.00  0.00    -0.004 A 
ATOM      5  C7  UNL d   1       5.955   0.962   0.221  0.00  0.00     0.002 A 
ATOM      6  C8  UNL d   1       5.227  -0.163  -0.168  0.00  0.00     0.002 A 
ENDROOT
BRANCH   1   7
ATOM      7  C2  UNL d   1       3.062  -1.293  -0.819  0.00  0.00     0.056 C 
BRANCH   7   8
ATOM      8  C1  UNL d   1       2.695  -2.249   0.320  0.00  0.00     0.007 C 
ATOM      9  C   UNL d   1       1.786  -3.388  -0.122  0.00  0.00     0.009 C 
ENDBRANCH   7   8
ENDBRANCH   1   7
TORSDOF 2
ENDMDL
