MODEL 1
REMARK minimizedAffinity 11.1260624
REMARK minimizedRMSD -1
REMARK  2 active torsions:
REMARK  status: ('A' for Active; 'I' for Inactive)
REMARK    1  A    between atoms: C1_2  and  C2_3 
REMARK    2  A    between atoms: C2_3  and  C3_4 
ROOT
ATOM      1  C3  UNL d   1      -5.065   4.225   3.927  0.00  0.00    -0.075 A 
ATOM      2  C4  UNL d   1      -3.808   4.845   3.964  0.00  0.00     0.002 A 
ATOM      3  C5  UNL d   1      -3.481   5.723   4.998  0.00  0.00     0.002 A 
ATOM      4  C6  UNL d   1      -4.408   6.000   6.000  0.00  0.00    -0.004 A 
ATOM      5  C7  UNL d   1      -5.666   5.402   5.965  0.00  0.00     0.002 A 
ATOM      6  C8  UNL d   1      -5.995   4.520   4.934  0.00  0.00     0.002 A 
ENDROOT
BRANCH   1   7
ATOM      7  C2  UNL d   1      -5.415   3.251   2.827  0.00  0.00     0.056 C 
BRANCH   7   8
ATOM      8  C1  UNL d   1      -5.057   3.744   1.421  0.00  0.00     0.007 C 
ATOM      9  C   UNL d   1      -4.954   2.620   0.399  0.00  0.00     0.009 C 
ENDBRANCH   7   8
ENDBRANCH   1   7
TORSDOF 2
ENDMDL
