MODEL 1
REMARK minimizedAffinity 11.437829
REMARK minimizedRMSD -1
REMARK  2 active torsions:
REMARK  status: ('A' for Active; 'I' for Inactive)
REMARK    1  A    between atoms: C1_2  and  C2_3 
REMARK    2  A    between atoms: C2_3  and  C3_4 
ROOT
ATOM      1  C3  UNL d   1       3.828   2.312  -1.360  0.00  0.00    -0.075 A 
ATOM      2  C4  UNL d   1       3.214   3.550  -1.122  0.00  0.00     0.002 A 
ATOM      3  C5  UNL d   1       3.980   4.712  -1.021  0.00  0.00     0.002 A 
ATOM      4  C6  UNL d   1       5.366   4.650  -1.147  0.00  0.00    -0.004 A 
ATOM      5  C7  UNL d   1       5.987   3.423  -1.368  0.00  0.00     0.002 A 
ATOM      6  C8  UNL d   1       5.224   2.259  -1.473  0.00  0.00     0.002 A 
ENDROOT
BRANCH   1   7
ATOM      7  C2  UNL d   1       3.003   1.055  -1.499  0.00  0.00     0.056 C 
BRANCH   7   8
ATOM      8  C1  UNL d   1       2.033   0.814  -0.338  0.00  0.00     0.007 C 
ATOM      9  C   UNL d   1       2.651   0.022   0.807  0.00  0.00     0.009 C 
ENDBRANCH   7   8
ENDBRANCH   1   7
TORSDOF 2
ENDMDL
