MODEL 1
REMARK minimizedAffinity 1.69092655
REMARK minimizedRMSD -1
REMARK  0 active torsions:
REMARK  status: ('A' for Active; 'I' for Inactive)
ROOT
ATOM      1  N1  IND d   1      -1.557   0.967   2.356  0.00  0.00    -0.196 N 
ATOM      2  C2  IND d   1      -1.545  -0.165   1.589  0.00  0.00     0.054 A 
ATOM      3  C3  IND d   1      -0.274  -0.571   1.369  0.00  0.00    -0.031 A 
ATOM      4  C4  IND d   1       1.933   0.413   2.256  0.00  0.00     0.051 A 
ATOM      5  C5  IND d   1       2.434   1.468   2.965  0.00  0.00    -0.031 A 
ATOM      6  C6  IND d   1       1.614   2.428   3.522  0.00  0.00     0.015 A 
ATOM      7  C7  IND d   1       0.255   2.362   3.398  0.00  0.00    -0.016 A 
ATOM      8  C8  IND d   1      -0.257   1.296   2.672  0.00  0.00    -0.047 A 
ATOM      9  C9  IND d   1       0.573   0.342   2.069  0.00  0.00    -0.096 A 
ATOM     10  HN1 IND d   1      -2.258   1.401   2.599  0.00  0.00     0.298 HD
ENDROOT
TORSDOF 0
ENDMDL
