MODEL 1
REMARK minimizedAffinity -0.681187272
REMARK minimizedRMSD -1
REMARK  0 active torsions:
REMARK  status: ('A' for Active; 'I' for Inactive)
ROOT
ATOM      1  N1  IND d   1      -4.333   2.364  -1.394  0.00  0.00    -0.196 N 
ATOM      2  C2  IND d   1      -4.878   1.545  -0.444  0.00  0.00     0.054 A 
ATOM      3  C3  IND d   1      -5.560   2.273   0.469  0.00  0.00    -0.031 A 
ATOM      4  C4  IND d   1      -6.000   4.808   0.542  0.00  0.00     0.051 A 
ATOM      5  C5  IND d   1      -5.677   5.976  -0.090  0.00  0.00    -0.031 A 
ATOM      6  C6  IND d   1      -4.876   6.000  -1.213  0.00  0.00     0.015 A 
ATOM      7  C7  IND d   1      -4.375   4.850  -1.756  0.00  0.00    -0.016 A 
ATOM      8  C8  IND d   1      -4.695   3.663  -1.112  0.00  0.00    -0.047 A 
ATOM      9  C9  IND d   1      -5.472   3.637   0.053  0.00  0.00    -0.096 A 
ATOM     10  HN1 IND d   1      -3.847   2.110  -2.056  0.00  0.00     0.298 HD
ENDROOT
TORSDOF 0
ENDMDL
