MODEL 1
REMARK minimizedAffinity 0.821526051
REMARK minimizedRMSD -1
REMARK  0 active torsions:
REMARK  status: ('A' for Active; 'I' for Inactive)
ROOT
ATOM      1  N1  IND d   1       0.559  -0.580   0.265  0.00  0.00    -0.196 N 
ATOM      2  C2  IND d   1       1.801  -0.697   0.823  0.00  0.00     0.054 A 
ATOM      3  C3  IND d   1       1.807  -0.178   2.071  0.00  0.00    -0.031 A 
ATOM      4  C4  IND d   1      -0.134   0.824   3.435  0.00  0.00     0.051 A 
ATOM      5  C5  IND d   1      -1.450   1.178   3.335  0.00  0.00    -0.031 A 
ATOM      6  C6  IND d   1      -2.179   0.957   2.184  0.00  0.00     0.015 A 
ATOM      7  C7  IND d   1      -1.620   0.361   1.090  0.00  0.00    -0.016 A 
ATOM      8  C8  IND d   1      -0.282   0.007   1.185  0.00  0.00    -0.047 A 
ATOM      9  C9  IND d   1       0.475   0.267   2.335  0.00  0.00    -0.096 A 
ATOM     10  HN1 IND d   1       0.340  -0.830  -0.528  0.00  0.00     0.298 HD
ENDROOT
TORSDOF 0
ENDMDL
