MODEL 1
REMARK minimizedAffinity 5.06116199
REMARK minimizedRMSD -1
REMARK  0 active torsions:
REMARK  status: ('A' for Active; 'I' for Inactive)
ROOT
ATOM      1  N1  IND d   1      -5.988   3.822   1.665  0.00  0.00    -0.196 N 
ATOM      2  C2  IND d   1      -5.970   5.097   2.158  0.00  0.00     0.054 A 
ATOM      3  C3  IND d   1      -5.930   5.993   1.146  0.00  0.00    -0.031 A 
ATOM      4  C4  IND d   1      -5.991   5.591  -1.396  0.00  0.00     0.051 A 
ATOM      5  C5  IND d   1      -5.972   4.594  -2.330  0.00  0.00    -0.031 A 
ATOM      6  C6  IND d   1      -5.961   3.261  -1.972  0.00  0.00     0.015 A 
ATOM      7  C7  IND d   1      -5.979   2.874  -0.662  0.00  0.00    -0.016 A 
ATOM      8  C8  IND d   1      -5.990   3.885   0.289  0.00  0.00    -0.047 A 
ATOM      9  C9  IND d   1      -5.959   5.239  -0.067  0.00  0.00    -0.096 A 
ATOM     10  HN1 IND d   1      -5.997   3.103   2.135  0.00  0.00     0.298 HD
ENDROOT
TORSDOF 0
ENDMDL
