MODEL 1
REMARK minimizedAffinity 11.5258617
REMARK minimizedRMSD -1
REMARK  0 active torsions:
REMARK  status: ('A' for Active; 'I' for Inactive)
ROOT
ATOM      1  N1  IND d   1      -2.292  -0.091  -0.593  0.00  0.00    -0.196 N 
ATOM      2  C2  IND d   1      -3.135   0.978  -0.717  0.00  0.00     0.054 A 
ATOM      3  C3  IND d   1      -3.196   1.667   0.445  0.00  0.00    -0.031 A 
ATOM      4  C4  IND d   1      -1.917   1.278   2.645  0.00  0.00     0.051 A 
ATOM      5  C5  IND d   1      -1.060   0.405   3.253  0.00  0.00    -0.031 A 
ATOM      6  C6  IND d   1      -0.557  -0.699   2.596  0.00  0.00     0.015 A 
ATOM      7  C7  IND d   1      -0.885  -0.966   1.297  0.00  0.00    -0.016 A 
ATOM      8  C8  IND d   1      -1.761  -0.085   0.679  0.00  0.00    -0.047 A 
ATOM      9  C9  IND d   1      -2.308   1.014   1.354  0.00  0.00    -0.096 A 
ATOM     10  HN1 IND d   1      -2.121  -0.669  -1.206  0.00  0.00     0.298 HD
ENDROOT
TORSDOF 0
ENDMDL
