MODEL 1
REMARK minimizedAffinity 5.93450451
REMARK minimizedRMSD -1
REMARK  0 active torsions:
REMARK  status: ('A' for Active; 'I' for Inactive)
ROOT
ATOM      1  N1  IND d   1      -2.212  -2.696  -0.316  0.00  0.00    -0.196 N 
ATOM      2  C2  IND d   1      -1.128  -2.451  -1.113  0.00  0.00     0.054 A 
ATOM      3  C3  IND d   1      -0.418  -1.406  -0.633  0.00  0.00    -0.031 A 
ATOM      4  C4  IND d   1      -0.794  -0.014   1.500  0.00  0.00     0.051 A 
ATOM      5  C5  IND d   1      -1.675   0.161   2.530  0.00  0.00    -0.031 A 
ATOM      6  C6  IND d   1      -2.801  -0.624   2.669  0.00  0.00     0.015 A 
ATOM      7  C7  IND d   1      -3.083  -1.626   1.784  0.00  0.00    -0.016 A 
ATOM      8  C8  IND d   1      -2.195  -1.803   0.733  0.00  0.00    -0.047 A 
ATOM      9  C9  IND d   1      -1.073  -0.981   0.563  0.00  0.00    -0.096 A 
ATOM     10  HN1 IND d   1      -2.804  -3.304  -0.448  0.00  0.00     0.298 HD
ENDROOT
TORSDOF 0
ENDMDL
