MODEL 1
REMARK minimizedAffinity 5.25835657
REMARK minimizedRMSD -1
REMARK  0 active torsions:
REMARK  status: ('A' for Active; 'I' for Inactive)
ROOT
ATOM      1  N1  IND d   1       1.421  -0.253   0.644  0.00  0.00    -0.196 N 
ATOM      2  C2  IND d   1       2.442  -0.419   1.539  0.00  0.00     0.054 A 
ATOM      3  C3  IND d   1       1.975  -0.339   2.805  0.00  0.00    -0.031 A 
ATOM      4  C4  IND d   1      -0.441  -0.043   3.642  0.00  0.00     0.051 A 
ATOM      5  C5  IND d   1      -1.714   0.188   3.200  0.00  0.00    -0.031 A 
ATOM      6  C6  IND d   1      -2.013   0.282   1.856  0.00  0.00     0.015 A 
ATOM      7  C7  IND d   1      -1.048   0.138   0.900  0.00  0.00    -0.016 A 
ATOM      8  C8  IND d   1       0.247  -0.089   1.345  0.00  0.00    -0.047 A 
ATOM      9  C9  IND d   1       0.563  -0.144   2.709  0.00  0.00    -0.096 A 
ATOM     10  HN1 IND d   1       1.500  -0.252  -0.212  0.00  0.00     0.298 HD
ENDROOT
TORSDOF 0
ENDMDL
