MODEL 1
REMARK minimizedAffinity 7.33995152
REMARK minimizedRMSD -1
REMARK  0 active torsions:
REMARK  status: ('A' for Active; 'I' for Inactive)
ROOT
ATOM      1  N1  IND d   1      -0.043  -0.985   1.136  0.00  0.00    -0.196 N 
ATOM      2  C2  IND d   1      -1.282  -1.456   0.800  0.00  0.00     0.054 A 
ATOM      3  C3  IND d   1      -2.244  -0.711   1.389  0.00  0.00    -0.031 A 
ATOM      4  C4  IND d   1      -2.015   1.387   2.863  0.00  0.00     0.051 A 
ATOM      5  C5  IND d   1      -1.083   2.176   3.477  0.00  0.00    -0.031 A 
ATOM      6  C6  IND d   1       0.271   1.948   3.337  0.00  0.00     0.015 A 
ATOM      7  C7  IND d   1       0.745   0.926   2.565  0.00  0.00    -0.016 A 
ATOM      8  C8  IND d   1      -0.199   0.118   1.946  0.00  0.00    -0.047 A 
ATOM      9  C9  IND d   1      -1.574   0.319   2.119  0.00  0.00    -0.096 A 
ATOM     10  HN1 IND d   1       0.707  -1.322   0.885  0.00  0.00     0.298 HD
ENDROOT
TORSDOF 0
ENDMDL
