MODEL 1
REMARK minimizedAffinity 1.55972159
REMARK minimizedRMSD -1
REMARK  0 active torsions:
REMARK  status: ('A' for Active; 'I' for Inactive)
ROOT
ATOM      1  N1  IND d   1      -0.940   0.597   3.021  0.00  0.00    -0.196 N 
ATOM      2  C2  IND d   1      -1.957   0.608   2.107  0.00  0.00     0.054 A 
ATOM      3  C3  IND d   1      -1.523   0.141   0.915  0.00  0.00    -0.031 A 
ATOM      4  C4  IND d   1       0.788  -0.790   0.266  0.00  0.00     0.051 A 
ATOM      5  C5  IND d   1       2.053  -0.969   0.753  0.00  0.00    -0.031 A 
ATOM      6  C6  IND d   1       2.390  -0.631   2.047  0.00  0.00     0.015 A 
ATOM      7  C7  IND d   1       1.469  -0.109   2.911  0.00  0.00    -0.016 A 
ATOM      8  C8  IND d   1       0.186   0.081   2.418  0.00  0.00    -0.047 A 
ATOM      9  C9  IND d   1      -0.152  -0.221   1.092  0.00  0.00    -0.096 A 
ATOM     10  HN1 IND d   1      -0.995   0.868   3.835  0.00  0.00     0.298 HD
ENDROOT
TORSDOF 0
ENDMDL
