MODEL 1
REMARK minimizedAffinity 7.07465935
REMARK minimizedRMSD -1
REMARK  0 active torsions:
REMARK  status: ('A' for Active; 'I' for Inactive)
ROOT
ATOM      1  N1  IND d   1       1.598  -1.022   0.363  0.00  0.00    -0.196 N 
ATOM      2  C2  IND d   1       2.671  -0.768   1.172  0.00  0.00     0.054 A 
ATOM      3  C3  IND d   1       2.265  -0.190   2.324  0.00  0.00    -0.031 A 
ATOM      4  C4  IND d   1      -0.120   0.339   3.137  0.00  0.00     0.051 A 
ATOM      5  C5  IND d   1      -1.425   0.322   2.731  0.00  0.00    -0.031 A 
ATOM      6  C6  IND d   1      -1.797  -0.156   1.491  0.00  0.00     0.015 A 
ATOM      7  C7  IND d   1      -0.874  -0.648   0.611  0.00  0.00    -0.016 A 
ATOM      8  C8  IND d   1       0.452  -0.625   1.017  0.00  0.00    -0.047 A 
ATOM      9  C9  IND d   1       0.840  -0.102   2.258  0.00  0.00    -0.096 A 
ATOM     10  HN1 IND d   1       1.633  -1.370  -0.422  0.00  0.00     0.298 HD
ENDROOT
TORSDOF 0
ENDMDL
