MODEL 1
REMARK minimizedAffinity 13.1017075
REMARK minimizedRMSD -1
REMARK  0 active torsions:
REMARK  status: ('A' for Active; 'I' for Inactive)
ROOT
ATOM      1  N1  IND d   1      -3.726   2.233   0.751  0.00  0.00    -0.196 N 
ATOM      2  C2  IND d   1      -4.332   1.623  -0.312  0.00  0.00     0.054 A 
ATOM      3  C3  IND d   1      -3.826   0.383  -0.494  0.00  0.00    -0.031 A 
ATOM      4  C4  IND d   1      -2.070  -0.888   0.896  0.00  0.00     0.051 A 
ATOM      5  C5  IND d   1      -1.204  -0.730   1.942  0.00  0.00    -0.031 A 
ATOM      6  C6  IND d   1      -1.136   0.446   2.661  0.00  0.00     0.015 A 
ATOM      7  C7  IND d   1      -1.942   1.509   2.366  0.00  0.00    -0.016 A 
ATOM      8  C8  IND d   1      -2.817   1.355   1.300  0.00  0.00    -0.047 A 
ATOM      9  C9  IND d   1      -2.861   0.179   0.540  0.00  0.00    -0.096 A 
ATOM     10  HN1 IND d   1      -3.886   3.030   1.030  0.00  0.00     0.298 HD
ENDROOT
TORSDOF 0
ENDMDL
