MODEL 1
REMARK minimizedAffinity 3.33466244
REMARK minimizedRMSD -1
REMARK  0 active torsions:
REMARK  status: ('A' for Active; 'I' for Inactive)
ROOT
ATOM      1  C   UNL d   1       4.297   1.474  -5.425  0.00  0.00     0.020 A 
ATOM      2  C1  UNL d   1       5.485   1.022  -5.999  0.00  0.00     0.020 A 
ATOM      3  C2  UNL d   1       5.994  -0.233  -5.656  0.00  0.00     0.034 A 
ATOM      4  C3  UNL d   1       5.314  -1.040  -4.737  0.00  0.00     0.017 A 
ATOM      5  C4  UNL d   1       4.121  -0.586  -4.162  0.00  0.00     0.017 A 
ATOM      6  C5  UNL d   1       3.617   0.671  -4.509  0.00  0.00     0.034 A 
ATOM      7 Cl   UNL d   1       3.226  -1.526  -3.021  0.00  0.00    -0.070 Cl
ATOM      8 Cl1  UNL d   1       6.000  -2.581  -4.360  0.00  0.00    -0.070 Cl
ENDROOT
TORSDOF 0
ENDMDL
