MODEL 1
REMARK minimizedAffinity 0.35155037
REMARK minimizedRMSD -1
REMARK  0 active torsions:
REMARK  status: ('A' for Active; 'I' for Inactive)
ROOT
ATOM      1  C   UNL d   1       5.402   1.515  -5.995  0.00  0.00     0.020 A 
ATOM      2  C1  UNL d   1       4.031   1.748  -5.905  0.00  0.00     0.020 A 
ATOM      3  C2  UNL d   1       3.245   0.969  -5.053  0.00  0.00     0.034 A 
ATOM      4  C3  UNL d   1       3.830  -0.047  -4.288  0.00  0.00     0.017 A 
ATOM      5  C4  UNL d   1       5.207  -0.280  -4.380  0.00  0.00     0.017 A 
ATOM      6  C5  UNL d   1       5.989   0.503  -5.234  0.00  0.00     0.034 A 
ATOM      7 Cl   UNL d   1       6.000  -1.516  -3.468  0.00  0.00    -0.070 Cl
ATOM      8 Cl1  UNL d   1       2.797  -0.971  -3.256  0.00  0.00    -0.070 Cl
ENDROOT
TORSDOF 0
ENDMDL
