MODEL 1
REMARK minimizedAffinity 3.73845673
REMARK minimizedRMSD -1
REMARK  0 active torsions:
REMARK  status: ('A' for Active; 'I' for Inactive)
ROOT
ATOM      1  C   UNL d   1      -5.566  -3.722  -1.842  0.00  0.00     0.020 A 
ATOM      2  C1  UNL d   1      -5.578  -5.117  -1.858  0.00  0.00     0.020 A 
ATOM      3  C2  UNL d   1      -5.712  -5.799  -3.069  0.00  0.00     0.034 A 
ATOM      4  C3  UNL d   1      -5.835  -5.088  -4.268  0.00  0.00     0.017 A 
ATOM      5  C4  UNL d   1      -5.822  -3.689  -4.251  0.00  0.00     0.017 A 
ATOM      6  C5  UNL d   1      -5.688  -3.010  -3.036  0.00  0.00     0.034 A 
ATOM      7 Cl   UNL d   1      -5.968  -2.743  -5.690  0.00  0.00    -0.070 Cl
ATOM      8 Cl1  UNL d   1      -5.997  -5.998  -5.728  0.00  0.00    -0.070 Cl
ENDROOT
TORSDOF 0
ENDMDL
