MODEL 1
REMARK minimizedAffinity 1.93857694
REMARK minimizedRMSD -1
REMARK  0 active torsions:
REMARK  status: ('A' for Active; 'I' for Inactive)
ROOT
ATOM      1  C   UNL d   1       5.240   0.864  -5.977  0.00  0.00     0.020 A 
ATOM      2  C1  UNL d   1       4.143   1.134  -5.160  0.00  0.00     0.020 A 
ATOM      3  C2  UNL d   1       3.599   0.123  -4.365  0.00  0.00     0.034 A 
ATOM      4  C3  UNL d   1       4.152  -1.163  -4.385  0.00  0.00     0.017 A 
ATOM      5  C4  UNL d   1       5.253  -1.432  -5.206  0.00  0.00     0.017 A 
ATOM      6  C5  UNL d   1       5.794  -0.416  -6.000  0.00  0.00     0.034 A 
ATOM      7 Cl   UNL d   1       5.990  -2.994  -5.284  0.00  0.00    -0.070 Cl
ATOM      8 Cl1  UNL d   1       3.429  -2.364  -3.376  0.00  0.00    -0.070 Cl
ENDROOT
TORSDOF 0
ENDMDL
