MODEL 1
REMARK minimizedAffinity 0.079659678
REMARK minimizedRMSD -1
REMARK  0 active torsions:
REMARK  status: ('A' for Active; 'I' for Inactive)
ROOT
ATOM      1  C   UNL d   1      -5.014  -3.717  -5.993  0.00  0.00     0.020 A 
ATOM      2  C1  UNL d   1      -4.917  -5.107  -5.955  0.00  0.00     0.020 A 
ATOM      3  C2  UNL d   1      -5.155  -5.792  -4.761  0.00  0.00     0.034 A 
ATOM      4  C3  UNL d   1      -5.492  -5.086  -3.601  0.00  0.00     0.017 A 
ATOM      5  C4  UNL d   1      -5.589  -3.690  -3.639  0.00  0.00     0.017 A 
ATOM      6  C5  UNL d   1      -5.349  -3.010  -4.837  0.00  0.00     0.034 A 
ATOM      7 Cl   UNL d   1      -6.000  -2.751  -2.248  0.00  0.00    -0.070 Cl
ATOM      8 Cl1  UNL d   1      -5.774  -5.997  -2.160  0.00  0.00    -0.070 Cl
ENDROOT
TORSDOF 0
ENDMDL
