MODEL 1
REMARK minimizedAffinity -2.33284187
REMARK minimizedRMSD -1
REMARK  1 active torsions:
REMARK  status: ('A' for Active; 'I' for Inactive)
REMARK    1  A    between atoms: N_2  and  C1_3 
ROOT
ATOM      1  C1  UNL d   1       0.492   0.766  -0.026  0.00  0.00     0.143 A 
ATOM      2  C2  UNL d   1      -0.150  -0.171   0.791  0.00  0.00    -0.057 A 
ATOM      3  C3  UNL d   1      -0.618  -1.385   0.275  0.00  0.00     0.033 A 
ATOM      4  C4  UNL d   1      -0.479  -1.672  -1.079  0.00  0.00    -0.042 A 
ATOM      5  C5  UNL d   1       0.134  -0.745  -1.915  0.00  0.00     0.033 A 
ATOM      6  C6  UNL d   1       0.605   0.463  -1.392  0.00  0.00    -0.057 A 
ENDROOT
BRANCH   1   7
ATOM      7  N   UNL d   1       0.892   2.032   0.408  0.00  0.00    -0.732 N 
ATOM      8  C   UNL d   1       2.260   2.276   0.810  0.00  0.00     0.284 C 
ATOM      9  H3  UNL d   1       0.482   2.780  -0.147  0.00  0.00     0.395 HD
ENDBRANCH   1   7
TORSDOF 1
ENDMDL
