MODEL 1
REMARK minimizedAffinity -1.23770499
REMARK minimizedRMSD -1
REMARK  1 active torsions:
REMARK  status: ('A' for Active; 'I' for Inactive)
REMARK    1  A    between atoms: N_2  and  C1_3 
ROOT
ATOM      1  C1  UNL d   1       0.200  -0.463  -0.999  0.00  0.00     0.143 A 
ATOM      2  C2  UNL d   1       1.297  -0.800  -0.199  0.00  0.00    -0.057 A 
ATOM      3  C3  UNL d   1       1.259  -0.639   1.191  0.00  0.00     0.033 A 
ATOM      4  C4  UNL d   1       0.129  -0.110   1.805  0.00  0.00    -0.042 A 
ATOM      5  C5  UNL d   1      -0.965   0.255   1.028  0.00  0.00     0.033 A 
ATOM      6  C6  UNL d   1      -0.923   0.086  -0.360  0.00  0.00    -0.057 A 
ENDROOT
BRANCH   1   7
ATOM      7  N   UNL d   1       0.212  -0.508  -2.395  0.00  0.00    -0.732 N 
ATOM      8  C   UNL d   1       1.331   0.030  -3.140  0.00  0.00     0.284 C 
ATOM      9  H3  UNL d   1      -0.145  -1.388  -2.759  0.00  0.00     0.395 HD
ENDBRANCH   1   7
TORSDOF 1
ENDMDL
