MODEL 1
REMARK minimizedAffinity -2.11897635
REMARK minimizedRMSD -1
REMARK  1 active torsions:
REMARK  status: ('A' for Active; 'I' for Inactive)
REMARK    1  A    between atoms: N_2  and  C1_3 
ROOT
ATOM      1  C1  UNL d   1       0.641   1.639   0.218  0.00  0.00     0.143 A 
ATOM      2  C2  UNL d   1       0.174   2.672   1.037  0.00  0.00    -0.057 A 
ATOM      3  C3  UNL d   1       1.007   3.731   1.417  0.00  0.00     0.033 A 
ATOM      4  C4  UNL d   1       2.336   3.760   1.006  0.00  0.00    -0.042 A 
ATOM      5  C5  UNL d   1       2.829   2.731   0.212  0.00  0.00     0.033 A 
ATOM      6  C6  UNL d   1       1.990   1.680  -0.169  0.00  0.00    -0.057 A 
ENDROOT
BRANCH   1   7
ATOM      7  N   UNL d   1      -0.110   0.508  -0.113  0.00  0.00    -0.732 N 
ATOM      8  C   UNL d   1      -0.743  -0.284   0.919  0.00  0.00     0.284 C 
ATOM      9  H3  UNL d   1      -0.686   0.653  -0.939  0.00  0.00     0.395 HD
ENDBRANCH   1   7
TORSDOF 1
ENDMDL
