MODEL 1
REMARK minimizedAffinity -3.92467952
REMARK minimizedRMSD -1
REMARK  1 active torsions:
REMARK  status: ('A' for Active; 'I' for Inactive)
REMARK    1  A    between atoms: N_2  and  C1_3 
ROOT
ATOM      1  C1  UNL d   1      -0.249   0.892  -0.408  0.00  0.00     0.143 A 
ATOM      2  C2  UNL d   1       0.129   0.329  -1.632  0.00  0.00    -0.057 A 
ATOM      3  C3  UNL d   1       0.031  -1.049  -1.859  0.00  0.00     0.033 A 
ATOM      4  C4  UNL d   1      -0.421  -1.895  -0.852  0.00  0.00    -0.042 A 
ATOM      5  C5  UNL d   1      -0.778  -1.361   0.381  0.00  0.00     0.033 A 
ATOM      6  C6  UNL d   1      -0.684   0.016   0.599  0.00  0.00    -0.057 A 
ENDROOT
BRANCH   1   7
ATOM      7  N   UNL d   1      -0.082   2.241  -0.087  0.00  0.00    -0.732 N 
ATOM      8  C   UNL d   1       1.227   2.765   0.239  0.00  0.00     0.284 C 
ATOM      9  H3  UNL d   1      -0.639   2.853  -0.680  0.00  0.00     0.395 HD
ENDBRANCH   1   7
TORSDOF 1
ENDMDL
