MODEL 1
REMARK minimizedAffinity -2.02393532
REMARK minimizedRMSD -1
REMARK  1 active torsions:
REMARK  status: ('A' for Active; 'I' for Inactive)
REMARK    1  A    between atoms: N_2  and  C1_3 
ROOT
ATOM      1  C1  UNL d   1      -0.531  -1.317  -0.951  0.00  0.00     0.143 A 
ATOM      2  C2  UNL d   1      -1.145  -2.208  -0.064  0.00  0.00    -0.057 A 
ATOM      3  C3  UNL d   1      -1.299  -1.892   1.291  0.00  0.00     0.033 A 
ATOM      4  C4  UNL d   1      -0.814  -0.688   1.791  0.00  0.00    -0.042 A 
ATOM      5  C5  UNL d   1      -0.178   0.202   0.932  0.00  0.00     0.033 A 
ATOM      6  C6  UNL d   1      -0.034  -0.116  -0.422  0.00  0.00    -0.057 A 
ENDROOT
BRANCH   1   7
ATOM      7  N   UNL d   1      -0.261  -1.615  -2.289  0.00  0.00    -0.732 N 
ATOM      8  C   UNL d   1      -0.597  -2.910  -2.839  0.00  0.00     0.284 C 
ATOM      9  H3  UNL d   1      -0.464  -0.834  -2.909  0.00  0.00     0.395 HD
ENDBRANCH   1   7
TORSDOF 1
ENDMDL
