MODEL 1
REMARK minimizedAffinity -4.04238796
REMARK minimizedRMSD -1
REMARK  1 active torsions:
REMARK  status: ('A' for Active; 'I' for Inactive)
REMARK    1  A    between atoms: N_2  and  C1_3 
ROOT
ATOM      1  C1  UNL d   1      -0.398  -1.198  -0.628  0.00  0.00     0.143 A 
ATOM      2  C2  UNL d   1      -0.718  -2.486  -0.185  0.00  0.00    -0.057 A 
ATOM      3  C3  UNL d   1      -0.622  -3.592  -1.039  0.00  0.00     0.033 A 
ATOM      4  C4  UNL d   1      -0.230  -3.424  -2.363  0.00  0.00    -0.042 A 
ATOM      5  C5  UNL d   1       0.069  -2.149  -2.831  0.00  0.00     0.033 A 
ATOM      6  C6  UNL d   1      -0.022  -1.050  -1.972  0.00  0.00    -0.057 A 
ENDROOT
BRANCH   1   7
ATOM      7  N   UNL d   1      -0.568  -0.046   0.144  0.00  0.00    -0.732 N 
ATOM      8  C   UNL d   1      -0.236   1.256  -0.392  0.00  0.00     0.284 C 
ATOM      9  H3  UNL d   1      -1.429  -0.065   0.686  0.00  0.00     0.395 HD
ENDBRANCH   1   7
TORSDOF 1
ENDMDL
