MODEL 1
REMARK minimizedAffinity 4.12146711
REMARK minimizedRMSD -1
REMARK  1 active torsions:
REMARK  status: ('A' for Active; 'I' for Inactive)
REMARK    1  A    between atoms: N_2  and  C1_3 
ROOT
ATOM      1  C1  UNL d   1      -0.820   0.008   0.189  0.00  0.00     0.143 A 
ATOM      2  C2  UNL d   1       0.100  -0.615   1.040  0.00  0.00    -0.057 A 
ATOM      3  C3  UNL d   1      -0.209  -0.869   2.381  0.00  0.00     0.033 A 
ATOM      4  C4  UNL d   1      -1.437  -0.478   2.905  0.00  0.00    -0.042 A 
ATOM      5  C5  UNL d   1      -2.357   0.166   2.084  0.00  0.00     0.033 A 
ATOM      6  C6  UNL d   1      -2.045   0.411   0.744  0.00  0.00    -0.057 A 
ENDROOT
BRANCH   1   7
ATOM      7  N   UNL d   1      -0.535   0.377  -1.128  0.00  0.00    -0.732 N 
ATOM      8  C   UNL d   1       0.364  -0.417  -1.938  0.00  0.00     0.284 C 
ATOM      9  H3  UNL d   1      -1.358   0.710  -1.625  0.00  0.00     0.395 HD
ENDBRANCH   1   7
TORSDOF 1
ENDMDL
