MODEL 1
REMARK minimizedAffinity -2.61626196
REMARK minimizedRMSD -1
REMARK  1 active torsions:
REMARK  status: ('A' for Active; 'I' for Inactive)
REMARK    1  A    between atoms: N_2  and  C1_3 
ROOT
ATOM      1  C1  UNL d   1       0.120   0.084  -0.101  0.00  0.00     0.143 A 
ATOM      2  C2  UNL d   1      -0.542  -0.115   1.115  0.00  0.00    -0.057 A 
ATOM      3  C3  UNL d   1      -0.924  -1.396   1.533  0.00  0.00     0.033 A 
ATOM      4  C4  UNL d   1      -0.674  -2.501   0.726  0.00  0.00    -0.042 A 
ATOM      5  C5  UNL d   1      -0.039  -2.324  -0.498  0.00  0.00     0.033 A 
ATOM      6  C6  UNL d   1       0.345  -1.043  -0.907  0.00  0.00    -0.057 A 
ENDROOT
BRANCH   1   7
ATOM      7  N   UNL d   1       0.437   1.342  -0.618  0.00  0.00    -0.732 N 
ATOM      8  C   UNL d   1       0.562   2.488   0.258  0.00  0.00     0.284 C 
ATOM      9  H3  UNL d   1       1.146   1.296  -1.346  0.00  0.00     0.395 HD
ENDBRANCH   1   7
TORSDOF 1
ENDMDL
