MODEL 1
REMARK minimizedAffinity -4.56268263
REMARK minimizedRMSD -1
REMARK  1 active torsions:
REMARK  status: ('A' for Active; 'I' for Inactive)
REMARK    1  A    between atoms: N_2  and  C1_3 
ROOT
ATOM      1  C1  UNL d   1       0.332   1.521   0.138  0.00  0.00     0.143 A 
ATOM      2  C2  UNL d   1       1.154   0.389   0.179  0.00  0.00    -0.057 A 
ATOM      3  C3  UNL d   1       0.660  -0.852   0.599  0.00  0.00     0.033 A 
ATOM      4  C4  UNL d   1      -0.661  -0.977   1.016  0.00  0.00    -0.042 A 
ATOM      5  C5  UNL d   1      -1.489   0.140   1.008  0.00  0.00     0.033 A 
ATOM      6  C6  UNL d   1      -0.992   1.375   0.581  0.00  0.00    -0.057 A 
ENDROOT
BRANCH   1   7
ATOM      7  N   UNL d   1       0.789   2.803  -0.176  0.00  0.00    -0.732 N 
ATOM      8  C   UNL d   1       2.101   3.243   0.248  0.00  0.00     0.284 C 
ATOM      9  H3  UNL d   1       0.543   3.082  -1.123  0.00  0.00     0.395 HD
ENDBRANCH   1   7
TORSDOF 1
ENDMDL
