MODEL 1
REMARK minimizedAffinity -1.67179918
REMARK minimizedRMSD -1
REMARK  1 active torsions:
REMARK  status: ('A' for Active; 'I' for Inactive)
REMARK    1  A    between atoms: N_2  and  C1_3 
ROOT
ATOM      1  C1  UNL d   1      -0.281   0.723   0.124  0.00  0.00     0.143 A 
ATOM      2  C2  UNL d   1      -0.829  -0.091   1.121  0.00  0.00    -0.057 A 
ATOM      3  C3  UNL d   1      -1.093  -1.446   0.888  0.00  0.00     0.033 A 
ATOM      4  C4  UNL d   1      -0.839  -2.006  -0.360  0.00  0.00    -0.042 A 
ATOM      5  C5  UNL d   1      -0.318  -1.209  -1.373  0.00  0.00     0.033 A 
ATOM      6  C6  UNL d   1      -0.050   0.142  -1.132  0.00  0.00    -0.057 A 
ENDROOT
BRANCH   1   7
ATOM      7  N   UNL d   1      -0.088   2.100   0.263  0.00  0.00    -0.732 N 
ATOM      8  C   UNL d   1       1.211   2.630   0.617  0.00  0.00     0.284 C 
ATOM      9  H3  UNL d   1      -0.574   2.635  -0.454  0.00  0.00     0.395 HD
ENDBRANCH   1   7
TORSDOF 1
ENDMDL
