MODEL 1
REMARK minimizedAffinity -5.34533501
REMARK minimizedRMSD -1
REMARK  1 active torsions:
REMARK  status: ('A' for Active; 'I' for Inactive)
REMARK    1  A    between atoms: N_2  and  C1_3 
ROOT
ATOM      1  C1  UNL d   1      -0.009  -0.294  -0.439  0.00  0.00     0.143 A 
ATOM      2  C2  UNL d   1       0.683  -1.281  -1.149  0.00  0.00    -0.057 A 
ATOM      3  C3  UNL d   1       0.656  -2.621  -0.744  0.00  0.00     0.033 A 
ATOM      4  C4  UNL d   1      -0.042  -2.994   0.400  0.00  0.00    -0.042 A 
ATOM      5  C5  UNL d   1      -0.716  -2.025   1.136  0.00  0.00     0.033 A 
ATOM      6  C6  UNL d   1      -0.691  -0.690   0.722  0.00  0.00    -0.057 A 
ENDROOT
BRANCH   1   7
ATOM      7  N   UNL d   1       0.060   1.070  -0.735  0.00  0.00    -0.732 N 
ATOM      8  C   UNL d   1       0.990   1.930  -0.036  0.00  0.00     0.284 C 
ATOM      9  H3  UNL d   1      -0.007   1.254  -1.733  0.00  0.00     0.395 HD
ENDBRANCH   1   7
TORSDOF 1
ENDMDL
