MODEL 1
REMARK minimizedAffinity 1.00337207
REMARK minimizedRMSD -1
REMARK  0 active torsions:
REMARK  status: ('A' for Active; 'I' for Inactive)
ROOT
ATOM      1  C   UNL d   1      -1.289  -0.909   0.667  0.00  0.00     0.020 A 
ATOM      2  C1  UNL d   1      -0.295  -0.219   1.361  0.00  0.00     0.020 A 
ATOM      3  C2  UNL d   1       0.954  -0.015   0.770  0.00  0.00     0.034 A 
ATOM      4  C3  UNL d   1       1.212  -0.500  -0.517  0.00  0.00     0.017 A 
ATOM      5  C4  UNL d   1       0.213  -1.192  -1.212  0.00  0.00     0.017 A 
ATOM      6  C5  UNL d   1      -1.035  -1.394  -0.616  0.00  0.00     0.034 A 
ATOM      7 Cl   UNL d   1       0.457  -1.820  -2.804  0.00  0.00    -0.070 Cl
ATOM      8 Cl1  UNL d   1       2.779  -0.210  -1.186  0.00  0.00    -0.070 Cl
ENDROOT
TORSDOF 0
ENDMDL
