MODEL 1
REMARK minimizedAffinity -3.58203578
REMARK minimizedRMSD -1
REMARK  0 active torsions:
REMARK  status: ('A' for Active; 'I' for Inactive)
ROOT
ATOM      1  C   UNL d   1       0.312  -3.088  -2.261  0.00  0.00     0.020 A 
ATOM      2  C1  UNL d   1       1.407  -2.236  -2.131  0.00  0.00     0.020 A 
ATOM      3  C2  UNL d   1       1.435  -1.286  -1.107  0.00  0.00     0.034 A 
ATOM      4  C3  UNL d   1       0.365  -1.186  -0.210  0.00  0.00     0.017 A 
ATOM      5  C4  UNL d   1      -0.734  -2.043  -0.342  0.00  0.00     0.017 A 
ATOM      6  C5  UNL d   1      -0.756  -2.992  -1.369  0.00  0.00     0.034 A 
ATOM      7 Cl   UNL d   1      -2.091  -1.980   0.726  0.00  0.00    -0.070 Cl
ATOM      8 Cl1  UNL d   1       0.466   0.011   1.031  0.00  0.00    -0.070 Cl
ENDROOT
TORSDOF 0
ENDMDL
