MODEL 1
REMARK minimizedAffinity -1.29098666
REMARK minimizedRMSD -1
REMARK  0 active torsions:
REMARK  status: ('A' for Active; 'I' for Inactive)
ROOT
ATOM      1  C   UNL d   1       1.102  -0.861   0.064  0.00  0.00     0.020 A 
ATOM      2  C1  UNL d   1       1.687  -0.095  -0.944  0.00  0.00     0.020 A 
ATOM      3  C2  UNL d   1       1.446   1.279  -1.006  0.00  0.00     0.034 A 
ATOM      4  C3  UNL d   1       0.618   1.892  -0.059  0.00  0.00     0.017 A 
ATOM      5  C4  UNL d   1       0.031   1.123   0.953  0.00  0.00     0.017 A 
ATOM      6  C5  UNL d   1       0.276  -0.253   1.010  0.00  0.00     0.034 A 
ATOM      7 Cl   UNL d   1      -1.002   1.808   2.157  0.00  0.00    -0.070 Cl
ATOM      8 Cl1  UNL d   1       0.365   3.596  -0.196  0.00  0.00    -0.070 Cl
ENDROOT
TORSDOF 0
ENDMDL
