MODEL 1
REMARK minimizedAffinity -2.57452321
REMARK minimizedRMSD -1
REMARK  0 active torsions:
REMARK  status: ('A' for Active; 'I' for Inactive)
ROOT
ATOM      1  C   UNL d   1      -1.428  -1.404   0.905  0.00  0.00     0.020 A 
ATOM      2  C1  UNL d   1      -0.615  -0.478   1.556  0.00  0.00     0.020 A 
ATOM      3  C2  UNL d   1       0.562  -0.034   0.950  0.00  0.00     0.034 A 
ATOM      4  C3  UNL d   1       0.930  -0.517  -0.311  0.00  0.00     0.017 A 
ATOM      5  C4  UNL d   1       0.113  -1.447  -0.964  0.00  0.00     0.017 A 
ATOM      6  C5  UNL d   1      -1.064  -1.888  -0.352  0.00  0.00     0.034 A 
ATOM      7 Cl   UNL d   1       0.501  -2.088  -2.521  0.00  0.00    -0.070 Cl
ATOM      8 Cl1  UNL d   1       2.399   0.076  -1.001  0.00  0.00    -0.070 Cl
ENDROOT
TORSDOF 0
ENDMDL
