MODEL 1
REMARK minimizedAffinity -0.702999175
REMARK minimizedRMSD -1
REMARK  0 active torsions:
REMARK  status: ('A' for Active; 'I' for Inactive)
ROOT
ATOM      1  C   UNL d   1      -1.474  -0.920   1.726  0.00  0.00     0.020 A 
ATOM      2  C1  UNL d   1      -1.209   0.449   1.733  0.00  0.00     0.020 A 
ATOM      3  C2  UNL d   1      -0.379   1.005   0.757  0.00  0.00     0.034 A 
ATOM      4  C3  UNL d   1       0.190   0.191  -0.229  0.00  0.00     0.017 A 
ATOM      5  C4  UNL d   1      -0.077  -1.183  -0.236  0.00  0.00     0.017 A 
ATOM      6  C5  UNL d   1      -0.909  -1.734   0.743  0.00  0.00     0.034 A 
ATOM      7 Cl   UNL d   1       0.588  -2.250  -1.421  0.00  0.00    -0.070 Cl
ATOM      8 Cl1  UNL d   1       1.207   0.946  -1.405  0.00  0.00    -0.070 Cl
ENDROOT
TORSDOF 0
ENDMDL
