MODEL 1
REMARK minimizedAffinity 0.0558938086
REMARK minimizedRMSD -1
REMARK  0 active torsions:
REMARK  status: ('A' for Active; 'I' for Inactive)
ROOT
ATOM      1  C   UNL d   1      -2.104   0.078   1.679  0.00  0.00     0.020 A 
ATOM      2  C1  UNL d   1      -1.016   0.841   2.102  0.00  0.00     0.020 A 
ATOM      3  C2  UNL d   1       0.215   0.722   1.452  0.00  0.00     0.034 A 
ATOM      4  C3  UNL d   1       0.360  -0.162   0.377  0.00  0.00     0.017 A 
ATOM      5  C4  UNL d   1      -0.732  -0.928  -0.046  0.00  0.00     0.017 A 
ATOM      6  C5  UNL d   1      -1.962  -0.804   0.607  0.00  0.00     0.034 A 
ATOM      7 Cl   UNL d   1      -0.629  -2.040  -1.365  0.00  0.00    -0.070 Cl
ATOM      8 Cl1  UNL d   1       1.911  -0.258  -0.380  0.00  0.00    -0.070 Cl
ENDROOT
TORSDOF 0
ENDMDL
