MODEL 1
REMARK minimizedAffinity 0.795016587
REMARK minimizedRMSD -1
REMARK  0 active torsions:
REMARK  status: ('A' for Active; 'I' for Inactive)
ROOT
ATOM      1  C   UNL d   1      -1.037  -0.637   2.347  0.00  0.00     0.020 A 
ATOM      2  C1  UNL d   1      -1.058   0.752   2.472  0.00  0.00     0.020 A 
ATOM      3  C2  UNL d   1      -0.590   1.554   1.430  0.00  0.00     0.034 A 
ATOM      4  C3  UNL d   1      -0.098   0.969   0.257  0.00  0.00     0.017 A 
ATOM      5  C4  UNL d   1      -0.076  -0.425   0.132  0.00  0.00     0.017 A 
ATOM      6  C5  UNL d   1      -0.547  -1.224   1.179  0.00  0.00     0.034 A 
ATOM      7 Cl   UNL d   1       0.516  -1.219  -1.284  0.00  0.00    -0.070 Cl
ATOM      8 Cl1  UNL d   1       0.465   2.023  -0.991  0.00  0.00    -0.070 Cl
ENDROOT
TORSDOF 0
ENDMDL
