MODEL 1
REMARK minimizedAffinity -1.13347673
REMARK minimizedRMSD -1
REMARK  0 active torsions:
REMARK  status: ('A' for Active; 'I' for Inactive)
ROOT
ATOM      1  C   UNL d   1      -0.293  -0.305   1.500  0.00  0.00     0.020 A 
ATOM      2  C1  UNL d   1      -1.113  -1.287   0.946  0.00  0.00     0.020 A 
ATOM      3  C2  UNL d   1      -0.717  -1.955  -0.215  0.00  0.00     0.034 A 
ATOM      4  C3  UNL d   1       0.502  -1.641  -0.826  0.00  0.00     0.017 A 
ATOM      5  C4  UNL d   1       1.325  -0.655  -0.270  0.00  0.00     0.017 A 
ATOM      6  C5  UNL d   1       0.924   0.010   0.893  0.00  0.00     0.034 A 
ATOM      7 Cl   UNL d   1       2.843  -0.213  -0.967  0.00  0.00    -0.070 Cl
ATOM      8 Cl1  UNL d   1       0.928  -2.506  -2.260  0.00  0.00    -0.070 Cl
ENDROOT
TORSDOF 0
ENDMDL
