MODEL 1
REMARK minimizedAffinity -0.937895477
REMARK minimizedRMSD -1
REMARK  0 active torsions:
REMARK  status: ('A' for Active; 'I' for Inactive)
ROOT
ATOM      1  C   UNL d   1      -0.914  -0.735   1.448  0.00  0.00     0.020 A 
ATOM      2  C1  UNL d   1      -1.619  -1.794   0.878  0.00  0.00     0.020 A 
ATOM      3  C2  UNL d   1      -1.178  -2.361  -0.320  0.00  0.00     0.034 A 
ATOM      4  C3  UNL d   1      -0.031  -1.869  -0.952  0.00  0.00     0.017 A 
ATOM      5  C4  UNL d   1       0.676  -0.805  -0.379  0.00  0.00     0.017 A 
ATOM      6  C5  UNL d   1       0.230  -0.241   0.821  0.00  0.00     0.034 A 
ATOM      7 Cl   UNL d   1       2.100  -0.143  -1.100  0.00  0.00    -0.070 Cl
ATOM      8 Cl1  UNL d   1       0.457  -2.618  -2.431  0.00  0.00    -0.070 Cl
ENDROOT
TORSDOF 0
ENDMDL
