MODEL 1
REMARK minimizedAffinity -5.00513077
REMARK minimizedRMSD -1
REMARK  0 active torsions:
REMARK  status: ('A' for Active; 'I' for Inactive)
ROOT
ATOM      1  C   UNL d   1      -0.562  -1.200   1.918  0.00  0.00     0.020 A 
ATOM      2  C1  UNL d   1      -1.360  -0.084   2.167  0.00  0.00     0.020 A 
ATOM      3  C2  UNL d   1      -1.129   1.108   1.477  0.00  0.00     0.034 A 
ATOM      4  C3  UNL d   1      -0.097   1.187   0.535  0.00  0.00     0.017 A 
ATOM      5  C4  UNL d   1       0.703   0.066   0.285  0.00  0.00     0.017 A 
ATOM      6  C5  UNL d   1       0.467  -1.125   0.978  0.00  0.00     0.034 A 
ATOM      7 Cl   UNL d   1       1.995   0.086  -0.864  0.00  0.00    -0.070 Cl
ATOM      8 Cl1  UNL d   1       0.132   2.692  -0.282  0.00  0.00    -0.070 Cl
ENDROOT
TORSDOF 0
ENDMDL
