MODEL 1
REMARK minimizedAffinity -3.11648011
REMARK minimizedRMSD -1
REMARK  0 active torsions:
REMARK  status: ('A' for Active; 'I' for Inactive)
ROOT
ATOM      1  C   UNL d   1      -0.622  -0.072   1.241  0.00  0.00     0.020 A 
ATOM      2  C1  UNL d   1      -1.305  -1.202   0.791  0.00  0.00     0.020 A 
ATOM      3  C2  UNL d   1      -0.806  -1.935  -0.288  0.00  0.00     0.034 A 
ATOM      4  C3  UNL d   1       0.378  -1.541  -0.920  0.00  0.00     0.017 A 
ATOM      5  C4  UNL d   1       1.063  -0.407  -0.468  0.00  0.00     0.017 A 
ATOM      6  C5  UNL d   1       0.560   0.324   0.613  0.00  0.00     0.034 A 
ATOM      7 Cl   UNL d   1       2.531   0.142  -1.197  0.00  0.00    -0.070 Cl
ATOM      8 Cl1  UNL d   1       0.937  -2.495  -2.248  0.00  0.00    -0.070 Cl
ENDROOT
TORSDOF 0
ENDMDL
