MODEL 1
REMARK minimizedAffinity -1.17575216
REMARK minimizedRMSD -1
REMARK  0 active torsions:
REMARK  status: ('A' for Active; 'I' for Inactive)
ROOT
ATOM      1  C   UNL d   1       0.991  -3.137  -2.092  0.00  0.00     0.020 A 
ATOM      2  C1  UNL d   1       0.714  -2.241  -3.124  0.00  0.00     0.020 A 
ATOM      3  C2  UNL d   1       0.511  -0.889  -2.840  0.00  0.00     0.034 A 
ATOM      4  C3  UNL d   1       0.585  -0.428  -1.521  0.00  0.00     0.017 A 
ATOM      5  C4  UNL d   1       0.863  -1.328  -0.485  0.00  0.00     0.017 A 
ATOM      6  C5  UNL d   1       1.065  -2.680  -0.775  0.00  0.00     0.034 A 
ATOM      7 Cl   UNL d   1       0.970  -0.834   1.168  0.00  0.00    -0.070 Cl
ATOM      8 Cl1  UNL d   1       0.324   1.257  -1.243  0.00  0.00    -0.070 Cl
ENDROOT
TORSDOF 0
ENDMDL
