MODEL 1
REMARK minimizedAffinity -5.76657295
REMARK minimizedRMSD -1
REMARK  0 active torsions:
REMARK  status: ('A' for Active; 'I' for Inactive)
ROOT
ATOM      1  C   UNL d   1      -0.026  -0.033  -1.178  0.00  0.00     0.020 A 
ATOM      2  C1  UNL d   1       0.654   0.985  -1.845  0.00  0.00     0.020 A 
ATOM      3  C2  UNL d   1       0.668   2.277  -1.317  0.00  0.00     0.034 A 
ATOM      4  C3  UNL d   1       0.001   2.556  -0.119  0.00  0.00     0.017 A 
ATOM      5  C4  UNL d   1      -0.681   1.534   0.550  0.00  0.00     0.017 A 
ATOM      6  C5  UNL d   1      -0.692   0.241   0.018  0.00  0.00     0.034 A 
ATOM      7 Cl   UNL d   1      -1.527   1.801   2.034  0.00  0.00    -0.070 Cl
ATOM      8 Cl1  UNL d   1       0.061   4.177   0.476  0.00  0.00    -0.070 Cl
ENDROOT
TORSDOF 0
ENDMDL
