MODEL 1
REMARK minimizedAffinity -2.02043009
REMARK minimizedRMSD -1
REMARK  0 active torsions:
REMARK  status: ('A' for Active; 'I' for Inactive)
ROOT
ATOM      1  C   UNL d   1       1.001  -1.059  -0.495  0.00  0.00     0.020 A 
ATOM      2  C1  UNL d   1       0.398  -1.490   0.686  0.00  0.00     0.020 A 
ATOM      3  C2  UNL d   1      -0.245  -0.571   1.517  0.00  0.00     0.034 A 
ATOM      4  C3  UNL d   1      -0.286   0.784   1.169  0.00  0.00     0.017 A 
ATOM      5  C4  UNL d   1       0.319   1.216  -0.016  0.00  0.00     0.017 A 
ATOM      6  C5  UNL d   1       0.962   0.291  -0.846  0.00  0.00     0.034 A 
ATOM      7 Cl   UNL d   1       0.309   2.872  -0.513  0.00  0.00    -0.070 Cl
ATOM      8 Cl1  UNL d   1      -1.099   1.865   2.245  0.00  0.00    -0.070 Cl
ENDROOT
TORSDOF 0
ENDMDL
