MODEL 1
REMARK minimizedAffinity -1.92760742
REMARK minimizedRMSD -1
REMARK  0 active torsions:
REMARK  status: ('A' for Active; 'I' for Inactive)
ROOT
ATOM      1  C   UNL d   1      -1.508  -0.610   1.535  0.00  0.00     0.020 A 
ATOM      2  C1  UNL d   1      -0.910   0.639   1.701  0.00  0.00     0.020 A 
ATOM      3  C2  UNL d   1       0.075   1.066   0.808  0.00  0.00     0.034 A 
ATOM      4  C3  UNL d   1       0.465   0.244  -0.256  0.00  0.00     0.017 A 
ATOM      5  C4  UNL d   1      -0.136  -1.009  -0.422  0.00  0.00     0.017 A 
ATOM      6  C5  UNL d   1      -1.122  -1.432   0.475  0.00  0.00     0.034 A 
ATOM      7 Cl   UNL d   1       0.293  -2.079  -1.710  0.00  0.00    -0.070 Cl
ATOM      8 Cl1  UNL d   1       1.689   0.836  -1.322  0.00  0.00    -0.070 Cl
ENDROOT
TORSDOF 0
ENDMDL
