MODEL 1
REMARK minimizedAffinity -3.09327722
REMARK minimizedRMSD -1
REMARK  0 active torsions:
REMARK  status: ('A' for Active; 'I' for Inactive)
ROOT
ATOM      1  C   UNL d   1      -0.233  -1.485   0.474  0.00  0.00     0.020 A 
ATOM      2  C1  UNL d   1       0.345  -1.280  -0.778  0.00  0.00     0.020 A 
ATOM      3  C2  UNL d   1       0.509   0.018  -1.267  0.00  0.00     0.034 A 
ATOM      4  C3  UNL d   1       0.095   1.116  -0.504  0.00  0.00     0.017 A 
ATOM      5  C4  UNL d   1      -0.486   0.909   0.753  0.00  0.00     0.017 A 
ATOM      6  C5  UNL d   1      -0.648  -0.393   1.238  0.00  0.00     0.034 A 
ATOM      7 Cl   UNL d   1      -1.022   2.213   1.752  0.00  0.00    -0.070 Cl
ATOM      8 Cl1  UNL d   1       0.329   2.692  -1.171  0.00  0.00    -0.070 Cl
ENDROOT
TORSDOF 0
ENDMDL
