MODEL 1
REMARK minimizedAffinity -2.39524436
REMARK minimizedRMSD -1
REMARK  0 active torsions:
REMARK  status: ('A' for Active; 'I' for Inactive)
ROOT
ATOM      1  C   UNL d   1      -0.500  -0.482   1.371  0.00  0.00     0.020 A 
ATOM      2  C1  UNL d   1       0.205  -0.657   0.182  0.00  0.00     0.020 A 
ATOM      3  C2  UNL d   1       0.585   0.454  -0.575  0.00  0.00     0.034 A 
ATOM      4  C3  UNL d   1       0.259   1.745  -0.142  0.00  0.00     0.017 A 
ATOM      5  C4  UNL d   1      -0.450   1.919   1.052  0.00  0.00     0.017 A 
ATOM      6  C5  UNL d   1      -0.827   0.803   1.805  0.00  0.00     0.034 A 
ATOM      7 Cl   UNL d   1      -0.889   3.480   1.650  0.00  0.00    -0.070 Cl
ATOM      8 Cl1  UNL d   1       0.760   3.073  -1.128  0.00  0.00    -0.070 Cl
ENDROOT
TORSDOF 0
ENDMDL
