MODEL 1
REMARK minimizedAffinity -2.92446136
REMARK minimizedRMSD -1
REMARK  0 active torsions:
REMARK  status: ('A' for Active; 'I' for Inactive)
ROOT
ATOM      1  C1  BNZ d   1       0.321  -1.138   0.636  0.00  0.00     0.000 A 
ATOM      2  C2  BNZ d   1      -0.200  -2.361   0.309  0.00  0.00     0.000 A 
ATOM      3  C3  BNZ d   1       0.619  -3.412   0.004  0.00  0.00     0.000 A 
ATOM      4  C4  BNZ d   1       1.955  -3.228  -0.012  0.00  0.00     0.000 A 
ATOM      5  C5  BNZ d   1       2.495  -1.999   0.306  0.00  0.00     0.000 A 
ATOM      6  C6  BNZ d   1       1.669  -0.953   0.651  0.00  0.00     0.000 A 
ENDROOT
TORSDOF 0
ENDMDL
