MODEL 1
REMARK minimizedAffinity 6.67924738
REMARK minimizedRMSD -1
REMARK  0 active torsions:
REMARK  status: ('A' for Active; 'I' for Inactive)
ROOT
ATOM      1  C1  BNZ d   1      -0.022  -2.841   0.607  0.00  0.00     0.000 A 
ATOM      2  C2  BNZ d   1       0.460  -3.913  -0.095  0.00  0.00     0.000 A 
ATOM      3  C3  BNZ d   1       1.724  -3.899  -0.614  0.00  0.00     0.000 A 
ATOM      4  C4  BNZ d   1       2.489  -2.798  -0.466  0.00  0.00     0.000 A 
ATOM      5  C5  BNZ d   1       2.014  -1.705   0.231  0.00  0.00     0.000 A 
ATOM      6  C6  BNZ d   1       0.756  -1.738   0.786  0.00  0.00     0.000 A 
ENDROOT
TORSDOF 0
ENDMDL
