MODEL 1
REMARK minimizedAffinity -1.63435483
REMARK minimizedRMSD -1
REMARK  0 active torsions:
REMARK  status: ('A' for Active; 'I' for Inactive)
ROOT
ATOM      1  C1  BNZ d   1       0.058  -0.516   1.128  0.00  0.00     0.000 A 
ATOM      2  C2  BNZ d   1      -0.549  -1.651   0.659  0.00  0.00     0.000 A 
ATOM      3  C3  BNZ d   1       0.132  -2.533  -0.133  0.00  0.00     0.000 A 
ATOM      4  C4  BNZ d   1       1.404  -2.259  -0.488  0.00  0.00     0.000 A 
ATOM      5  C5  BNZ d   1       2.027  -1.114  -0.031  0.00  0.00     0.000 A 
ATOM      6  C6  BNZ d   1       1.351  -0.249   0.798  0.00  0.00     0.000 A 
ENDROOT
TORSDOF 0
ENDMDL
