MODEL 1
REMARK minimizedAffinity -5.55043077
REMARK minimizedRMSD -1
REMARK  0 active torsions:
REMARK  status: ('A' for Active; 'I' for Inactive)
ROOT
ATOM      1  C1  BNZ d   1       1.397  -3.462   0.155  0.00  0.00     0.000 A 
ATOM      2  C2  BNZ d   1       0.351  -2.660   0.528  0.00  0.00     0.000 A 
ATOM      3  C3  BNZ d   1       0.557  -1.348   0.853  0.00  0.00     0.000 A 
ATOM      4  C4  BNZ d   1       1.811  -0.852   0.843  0.00  0.00     0.000 A 
ATOM      5  C5  BNZ d   1       2.877  -1.651   0.479  0.00  0.00     0.000 A 
ATOM      6  C6  BNZ d   1       2.661  -2.960   0.115  0.00  0.00     0.000 A 
ENDROOT
TORSDOF 0
ENDMDL
