MODEL 1
REMARK minimizedAffinity -1.29798603
REMARK minimizedRMSD -1
REMARK  0 active torsions:
REMARK  status: ('A' for Active; 'I' for Inactive)
ROOT
ATOM      1  C1  BNZ d   1       0.879  -1.478  -0.289  0.00  0.00     0.000 A 
ATOM      2  C2  BNZ d   1      -0.422  -1.657   0.097  0.00  0.00     0.000 A 
ATOM      3  C3  BNZ d   1      -0.952  -0.934   1.130  0.00  0.00     0.000 A 
ATOM      4  C4  BNZ d   1      -0.169  -0.065   1.800  0.00  0.00     0.000 A 
ATOM      5  C5  BNZ d   1       1.148   0.120   1.429  0.00  0.00     0.000 A 
ATOM      6  C6  BNZ d   1       1.666  -0.580   0.364  0.00  0.00     0.000 A 
ENDROOT
TORSDOF 0
ENDMDL
