MODEL 1
REMARK minimizedAffinity -2.00209379
REMARK minimizedRMSD -1
REMARK  0 active torsions:
REMARK  status: ('A' for Active; 'I' for Inactive)
ROOT
ATOM      1  C1  BNZ d   1       4.650   2.344  -2.722  0.00  0.00     0.000 A 
ATOM      2  C2  BNZ d   1       4.214   1.046  -2.728  0.00  0.00     0.000 A 
ATOM      3  C3  BNZ d   1       3.169   0.662  -3.521  0.00  0.00     0.000 A 
ATOM      4  C4  BNZ d   1       2.536   1.583  -4.276  0.00  0.00     0.000 A 
ATOM      5  C5  BNZ d   1       2.958   2.898  -4.274  0.00  0.00     0.000 A 
ATOM      6  C6  BNZ d   1       4.035   3.273  -3.504  0.00  0.00     0.000 A 
ENDROOT
TORSDOF 0
ENDMDL
