MODEL 1
REMARK minimizedAffinity 1.02833676
REMARK minimizedRMSD -1
REMARK  0 active torsions:
REMARK  status: ('A' for Active; 'I' for Inactive)
ROOT
ATOM      1  C1  BNZ d   1       0.795  -2.938  -0.305  0.00  0.00     0.000 A 
ATOM      2  C2  BNZ d   1      -0.546  -3.203  -0.219  0.00  0.00     0.000 A 
ATOM      3  C3  BNZ d   1      -1.379  -2.379   0.483  0.00  0.00     0.000 A 
ATOM      4  C4  BNZ d   1      -0.866  -1.314   1.133  0.00  0.00     0.000 A 
ATOM      5  C5  BNZ d   1       0.485  -1.038   1.064  0.00  0.00     0.000 A 
ATOM      6  C6  BNZ d   1       1.315  -1.849   0.323  0.00  0.00     0.000 A 
ENDROOT
TORSDOF 0
ENDMDL
