MODEL 1
REMARK minimizedAffinity -0.311418533
REMARK minimizedRMSD -1
REMARK  0 active torsions:
REMARK  status: ('A' for Active; 'I' for Inactive)
ROOT
ATOM      1  C1  BNZ d   1      -3.080   1.777   1.163  0.00  0.00     0.000 A 
ATOM      2  C2  BNZ d   1      -1.976   1.386   1.873  0.00  0.00     0.000 A 
ATOM      3  C3  BNZ d   1      -1.485   0.115   1.761  0.00  0.00     0.000 A 
ATOM      4  C4  BNZ d   1      -2.122  -0.774   0.971  0.00  0.00     0.000 A 
ATOM      5  C5  BNZ d   1      -3.242  -0.398   0.257  0.00  0.00     0.000 A 
ATOM      6  C6  BNZ d   1      -3.710   0.893   0.342  0.00  0.00     0.000 A 
ENDROOT
TORSDOF 0
ENDMDL
