MODEL 1
REMARK minimizedAffinity -3.21999311
REMARK minimizedRMSD -1
REMARK  0 active torsions:
REMARK  status: ('A' for Active; 'I' for Inactive)
ROOT
ATOM      1  C1  BNZ d   1       1.350  -2.565  -0.292  0.00  0.00     0.000 A 
ATOM      2  C2  BNZ d   1       0.047  -2.872  -0.005  0.00  0.00     0.000 A 
ATOM      3  C3  BNZ d   1      -0.773  -1.955   0.591  0.00  0.00     0.000 A 
ATOM      4  C4  BNZ d   1      -0.279  -0.749   0.936  0.00  0.00     0.000 A 
ATOM      5  C5  BNZ d   1       1.036  -0.428   0.663  0.00  0.00     0.000 A 
ATOM      6  C6  BNZ d   1       1.848  -1.339   0.027  0.00  0.00     0.000 A 
ENDROOT
TORSDOF 0
ENDMDL
