MODEL 1
REMARK minimizedAffinity 1.03800333
REMARK minimizedRMSD -1
REMARK  0 active torsions:
REMARK  status: ('A' for Active; 'I' for Inactive)
ROOT
ATOM      1  C1  BNZ d   1       0.673  -2.087  -0.241  0.00  0.00     0.000 A 
ATOM      2  C2  BNZ d   1      -0.679  -2.186  -0.050  0.00  0.00     0.000 A 
ATOM      3  C3  BNZ d   1      -1.323  -1.364   0.831  0.00  0.00     0.000 A 
ATOM      4  C4  BNZ d   1      -0.610  -0.472   1.549  0.00  0.00     0.000 A 
ATOM      5  C5  BNZ d   1       0.755  -0.366   1.374  0.00  0.00     0.000 A 
ATOM      6  C6  BNZ d   1       1.395  -1.169   0.458  0.00  0.00     0.000 A 
ENDROOT
TORSDOF 0
ENDMDL
