MODEL 1
REMARK minimizedAffinity -4.60779095
REMARK minimizedRMSD -1
REMARK  0 active torsions:
REMARK  status: ('A' for Active; 'I' for Inactive)
ROOT
ATOM      1  C1  BNZ d   1       1.173  -0.323   0.991  0.00  0.00     0.000 A 
ATOM      2  C2  BNZ d   1       2.016  -1.047   0.191  0.00  0.00     0.000 A 
ATOM      3  C3  BNZ d   1       1.620  -2.239  -0.347  0.00  0.00     0.000 A 
ATOM      4  C4  BNZ d   1       0.397  -2.726  -0.051  0.00  0.00     0.000 A 
ATOM      5  C5  BNZ d   1      -0.461  -2.013   0.762  0.00  0.00     0.000 A 
ATOM      6  C6  BNZ d   1      -0.073  -0.795   1.270  0.00  0.00     0.000 A 
ENDROOT
TORSDOF 0
ENDMDL
