MODEL 1
REMARK minimizedAffinity -2.68940639
REMARK minimizedRMSD -1
REMARK  0 active torsions:
REMARK  status: ('A' for Active; 'I' for Inactive)
ROOT
ATOM      1  C1  BNZ d   1      -0.064  -0.356   0.830  0.00  0.00     0.000 A 
ATOM      2  C2  BNZ d   1      -0.537  -1.598   0.500  0.00  0.00     0.000 A 
ATOM      3  C3  BNZ d   1       0.306  -2.566   0.031  0.00  0.00     0.000 A 
ATOM      4  C4  BNZ d   1       1.612  -2.280  -0.145  0.00  0.00     0.000 A 
ATOM      5  C5  BNZ d   1       2.103  -1.030   0.174  0.00  0.00     0.000 A 
ATOM      6  C6  BNZ d   1       1.259  -0.070   0.683  0.00  0.00     0.000 A 
ENDROOT
TORSDOF 0
ENDMDL
