MODEL 1
REMARK minimizedAffinity -1.17167497
REMARK minimizedRMSD -1
REMARK  0 active torsions:
REMARK  status: ('A' for Active; 'I' for Inactive)
ROOT
ATOM      1  C1  BNZ d   1       1.940  -0.779   0.193  0.00  0.00     0.000 A 
ATOM      2  C2  BNZ d   1       1.013  -1.629  -0.349  0.00  0.00     0.000 A 
ATOM      3  C3  BNZ d   1      -0.239  -1.735   0.191  0.00  0.00     0.000 A 
ATOM      4  C4  BNZ d   1      -0.549  -1.021   1.293  0.00  0.00     0.000 A 
ATOM      5  C5  BNZ d   1       0.378  -0.167   1.856  0.00  0.00     0.000 A 
ATOM      6  C6  BNZ d   1       1.624  -0.034   1.287  0.00  0.00     0.000 A 
ENDROOT
TORSDOF 0
ENDMDL
