MODEL 1
REMARK minimizedAffinity -1.85995293
REMARK minimizedRMSD -1
REMARK  0 active torsions:
REMARK  status: ('A' for Active; 'I' for Inactive)
ROOT
ATOM      1  C1  BNZ d   1      -5.926  -3.646   4.427  0.00  0.00     0.000 A 
ATOM      2  C2  BNZ d   1      -5.775  -3.670   3.066  0.00  0.00     0.000 A 
ATOM      3  C3  BNZ d   1      -5.573  -4.849   2.405  0.00  0.00     0.000 A 
ATOM      4  C4  BNZ d   1      -5.483  -5.996   3.108  0.00  0.00     0.000 A 
ATOM      5  C5  BNZ d   1      -5.624  -5.988   4.481  0.00  0.00     0.000 A 
ATOM      6  C6  BNZ d   1      -5.865  -4.804   5.139  0.00  0.00     0.000 A 
ENDROOT
TORSDOF 0
ENDMDL
