MODEL 1
REMARK minimizedAffinity -3.56904531
REMARK minimizedRMSD -1
REMARK  3 active torsions:
REMARK  status: ('A' for Active; 'I' for Inactive)
REMARK    1  A    between atoms: C3'_2  and  C2'_3 
REMARK    2  A    between atoms: C2'_3  and  C1'_4 
REMARK    3  A    between atoms: C1'_4  and  C1_5 
ROOT
ATOM      1  C1  N4B d   1       2.110  -0.222   1.227  0.00  0.00    -0.075 A 
ATOM      2  C2  N4B d   1       2.759  -1.154   2.066  0.00  0.00     0.002 A 
ATOM      3  C3  N4B d   1       2.140  -2.337   2.388  0.00  0.00     0.002 A 
ATOM      4  C4  N4B d   1       0.869  -2.600   1.900  0.00  0.00    -0.004 A 
ATOM      5  C5  N4B d   1       0.259  -1.706   1.069  0.00  0.00     0.002 A 
ATOM      6  C6  N4B d   1       0.871  -0.515   0.734  0.00  0.00     0.002 A 
ENDROOT
BRANCH   1   7
ATOM      7  C1' N4B d   1       2.711   1.121   0.917  0.00  0.00     0.057 C 
BRANCH   7   8
ATOM      8  C2' N4B d   1       2.007   1.717  -0.299  0.00  0.00     0.009 C 
BRANCH   8   9
ATOM      9  C3' N4B d   1       1.212   2.961   0.058  0.00  0.00     0.004 C 
ATOM     10  C4' N4B d   1      -0.267   2.772  -0.106  0.00  0.00     0.003 C 
ENDBRANCH   8   9
ENDBRANCH   7   8
ENDBRANCH   1   7
TORSDOF 3
ENDMDL
