MODEL 1
REMARK minimizedAffinity 1.91033494
REMARK minimizedRMSD -1
REMARK  3 active torsions:
REMARK  status: ('A' for Active; 'I' for Inactive)
REMARK    1  A    between atoms: C3'_2  and  C2'_3 
REMARK    2  A    between atoms: C2'_3  and  C1'_4 
REMARK    3  A    between atoms: C1'_4  and  C1_5 
ROOT
ATOM      1  C1  N4B d   1      -1.768  -2.229  -1.455  0.00  0.00    -0.075 A 
ATOM      2  C2  N4B d   1      -1.698  -2.345  -0.050  0.00  0.00     0.002 A 
ATOM      3  C3  N4B d   1      -0.485  -2.543   0.563  0.00  0.00     0.002 A 
ATOM      4  C4  N4B d   1       0.664  -2.646  -0.207  0.00  0.00    -0.004 A 
ATOM      5  C5  N4B d   1       0.591  -2.508  -1.562  0.00  0.00     0.002 A 
ATOM      6  C6  N4B d   1      -0.621  -2.305  -2.191  0.00  0.00     0.002 A 
ENDROOT
BRANCH   1   7
ATOM      7  C1' N4B d   1      -3.082  -2.098  -2.177  0.00  0.00     0.057 C 
BRANCH   7   8
ATOM      8  C2' N4B d   1      -3.062  -0.832  -3.027  0.00  0.00     0.009 C 
BRANCH   8   9
ATOM      9  C3' N4B d   1      -3.343   0.412  -2.201  0.00  0.00     0.004 C 
ATOM     10  C4' N4B d   1      -3.895   1.540  -3.020  0.00  0.00     0.003 C 
ENDBRANCH   8   9
ENDBRANCH   7   8
ENDBRANCH   1   7
TORSDOF 3
ENDMDL
