MODEL 1
REMARK minimizedAffinity 3.93076539
REMARK minimizedRMSD -1
REMARK  3 active torsions:
REMARK  status: ('A' for Active; 'I' for Inactive)
REMARK    1  A    between atoms: C3'_2  and  C2'_3 
REMARK    2  A    between atoms: C2'_3  and  C1'_4 
REMARK    3  A    between atoms: C1'_4  and  C1_5 
ROOT
ATOM      1  C1  N4B d   1       2.064   0.556   1.595  0.00  0.00    -0.075 A 
ATOM      2  C2  N4B d   1       1.028  -0.179   0.978  0.00  0.00     0.002 A 
ATOM      3  C3  N4B d   1       0.582  -1.347   1.546  0.00  0.00     0.002 A 
ATOM      4  C4  N4B d   1       1.167  -1.808   2.716  0.00  0.00    -0.004 A 
ATOM      5  C5  N4B d   1       2.149  -1.079   3.320  0.00  0.00     0.002 A 
ATOM      6  C6  N4B d   1       2.605   0.099   2.762  0.00  0.00     0.002 A 
ENDROOT
BRANCH   1   7
ATOM      7  C1' N4B d   1       2.644   1.793   0.966  0.00  0.00     0.057 C 
BRANCH   7   8
ATOM      8  C2' N4B d   1       1.517   2.614   0.346  0.00  0.00     0.009 C 
BRANCH   8   9
ATOM      9  C3' N4B d   1       1.841   3.039  -1.076  0.00  0.00     0.004 C 
ATOM     10  C4' N4B d   1       1.907   4.529  -1.236  0.00  0.00     0.003 C 
ENDBRANCH   8   9
ENDBRANCH   7   8
ENDBRANCH   1   7
TORSDOF 3
ENDMDL
