MODEL 1
REMARK minimizedAffinity 9.94086361
REMARK minimizedRMSD -1
REMARK  3 active torsions:
REMARK  status: ('A' for Active; 'I' for Inactive)
REMARK    1  A    between atoms: C3'_2  and  C2'_3 
REMARK    2  A    between atoms: C2'_3  and  C1'_4 
REMARK    3  A    between atoms: C1'_4  and  C1_5 
ROOT
ATOM      1  C1  N4B d   1       1.402  -0.371   1.538  0.00  0.00    -0.075 A 
ATOM      2  C2  N4B d   1       2.130  -0.402   2.747  0.00  0.00     0.002 A 
ATOM      3  C3  N4B d   1       3.287   0.329   2.871  0.00  0.00     0.002 A 
ATOM      4  C4  N4B d   1       3.742   1.079   1.797  0.00  0.00    -0.004 A 
ATOM      5  C5  N4B d   1       3.019   1.124   0.641  0.00  0.00     0.002 A 
ATOM      6  C6  N4B d   1       1.853   0.398   0.504  0.00  0.00     0.002 A 
ENDROOT
BRANCH   1   7
ATOM      7  C1' N4B d   1       0.178  -1.220   1.326  0.00  0.00     0.057 C 
BRANCH   7   8
ATOM      8  C2' N4B d   1       0.578  -2.692   1.365  0.00  0.00     0.009 C 
BRANCH   8   9
ATOM      9  C3' N4B d   1       0.719  -3.205   2.788  0.00  0.00     0.004 C 
ATOM     10  C4' N4B d   1       1.864  -4.160   2.950  0.00  0.00     0.003 C 
ENDBRANCH   8   9
ENDBRANCH   7   8
ENDBRANCH   1   7
TORSDOF 3
ENDMDL
