MODEL 1
REMARK minimizedAffinity 10.7696962
REMARK minimizedRMSD -1
REMARK  3 active torsions:
REMARK  status: ('A' for Active; 'I' for Inactive)
REMARK    1  A    between atoms: C3'_2  and  C2'_3 
REMARK    2  A    between atoms: C2'_3  and  C1'_4 
REMARK    3  A    between atoms: C1'_4  and  C1_5 
ROOT
ATOM      1  C1  N4B d   1       0.691  -0.891   1.569  0.00  0.00    -0.075 A 
ATOM      2  C2  N4B d   1       0.342  -2.225   1.263  0.00  0.00     0.002 A 
ATOM      3  C3  N4B d   1      -0.890  -2.506   0.724  0.00  0.00     0.002 A 
ATOM      4  C4  N4B d   1      -1.791  -1.476   0.500  0.00  0.00    -0.004 A 
ATOM      5  C5  N4B d   1      -1.437  -0.188   0.774  0.00  0.00     0.002 A 
ATOM      6  C6  N4B d   1      -0.201   0.110   1.313  0.00  0.00     0.002 A 
ENDROOT
BRANCH   1   7
ATOM      7  C1' N4B d   1       1.992  -0.545   2.240  0.00  0.00     0.057 C 
BRANCH   7   8
ATOM      8  C2' N4B d   1       2.240   0.955   2.107  0.00  0.00     0.009 C 
BRANCH   8   9
ATOM      9  C3' N4B d   1       3.013   1.294   0.844  0.00  0.00     0.004 C 
ATOM     10  C4' N4B d   1       2.583   2.593   0.231  0.00  0.00     0.003 C 
ENDBRANCH   8   9
ENDBRANCH   7   8
ENDBRANCH   1   7
TORSDOF 3
ENDMDL
