MODEL 1
REMARK minimizedAffinity -0.714698732
REMARK minimizedRMSD -1
REMARK  3 active torsions:
REMARK  status: ('A' for Active; 'I' for Inactive)
REMARK    1  A    between atoms: C3'_2  and  C2'_3 
REMARK    2  A    between atoms: C2'_3  and  C1'_4 
REMARK    3  A    between atoms: C1'_4  and  C1_5 
ROOT
ATOM      1  C1  N4B d   1       0.491  -1.653  -1.852  0.00  0.00    -0.075 A 
ATOM      2  C2  N4B d   1       0.627  -1.408  -0.468  0.00  0.00     0.002 A 
ATOM      3  C3  N4B d   1      -0.479  -1.439   0.346  0.00  0.00     0.002 A 
ATOM      4  C4  N4B d   1      -1.727  -1.694  -0.202  0.00  0.00    -0.004 A 
ATOM      5  C5  N4B d   1      -1.846  -1.955  -1.536  0.00  0.00     0.002 A 
ATOM      6  C6  N4B d   1      -0.742  -1.931  -2.365  0.00  0.00     0.002 A 
ENDROOT
BRANCH   1   7
ATOM      7  C1' N4B d   1       1.658  -1.545  -2.796  0.00  0.00     0.057 C 
BRANCH   7   8
ATOM      8  C2' N4B d   1       2.001  -2.932  -3.329  0.00  0.00     0.009 C 
BRANCH   8   9
ATOM      9  C3' N4B d   1       2.960  -3.673  -2.413  0.00  0.00     0.004 C 
ATOM     10  C4' N4B d   1       3.488  -4.936  -3.024  0.00  0.00     0.003 C 
ENDBRANCH   8   9
ENDBRANCH   7   8
ENDBRANCH   1   7
TORSDOF 3
ENDMDL
