MODEL 1
REMARK minimizedAffinity 0.359056413
REMARK minimizedRMSD -1
REMARK  1 active torsions:
REMARK  status: ('A' for Active; 'I' for Inactive)
REMARK    1  A    between atoms: N_2  and  C1_3 
ROOT
ATOM      1  C1  UNL d   1       2.354  -2.478  -1.869  0.00  0.00     0.143 A 
ATOM      2  C2  UNL d   1       2.726  -2.814  -3.175  0.00  0.00    -0.057 A 
ATOM      3  C3  UNL d   1       3.626  -3.857  -3.427  0.00  0.00     0.033 A 
ATOM      4  C4  UNL d   1       4.194  -4.564  -2.373  0.00  0.00    -0.042 A 
ATOM      5  C5  UNL d   1       3.858  -4.231  -1.066  0.00  0.00     0.033 A 
ATOM      6  C6  UNL d   1       2.954  -3.193  -0.820  0.00  0.00    -0.057 A 
ENDROOT
BRANCH   1   7
ATOM      7  N   UNL d   1       1.541  -1.388  -1.548  0.00  0.00    -0.732 N 
ATOM      8  C   UNL d   1       2.090  -0.050  -1.490  0.00  0.00     0.284 C 
ATOM      9  H3  UNL d   1       0.626  -1.443  -1.989  0.00  0.00     0.395 HD
ENDBRANCH   1   7
TORSDOF 1
ENDMDL
