MODEL 1
REMARK minimizedAffinity 0.702629209
REMARK minimizedRMSD -1
REMARK  1 active torsions:
REMARK  status: ('A' for Active; 'I' for Inactive)
REMARK    1  A    between atoms: N_2  and  C1_3 
ROOT
ATOM      1  C1  UNL d   1      -5.516  -4.166   2.525  0.00  0.00     0.143 A 
ATOM      2  C2  UNL d   1      -4.474  -4.176   3.458  0.00  0.00    -0.057 A 
ATOM      3  C3  UNL d   1      -3.964  -2.986   3.991  0.00  0.00     0.033 A 
ATOM      4  C4  UNL d   1      -4.470  -1.759   3.577  0.00  0.00    -0.042 A 
ATOM      5  C5  UNL d   1      -5.489  -1.723   2.632  0.00  0.00     0.033 A 
ATOM      6  C6  UNL d   1      -5.999  -2.915   2.109  0.00  0.00    -0.057 A 
ENDROOT
BRANCH   1   7
ATOM      7  N   UNL d   1      -5.999  -5.310   1.885  0.00  0.00    -0.732 N 
ATOM      8  C   UNL d   1      -5.999  -5.402   0.441  0.00  0.00     0.284 C 
ATOM      9  H3  UNL d   1      -5.718  -6.166   2.357  0.00  0.00     0.395 HD
ENDBRANCH   1   7
TORSDOF 1
ENDMDL
