MODEL 1
REMARK minimizedAffinity 3.55951142
REMARK minimizedRMSD -1
REMARK  1 active torsions:
REMARK  status: ('A' for Active; 'I' for Inactive)
REMARK    1  A    between atoms: N_2  and  C1_3 
ROOT
ATOM      1  C1  UNL d   1       3.962  -5.076  -1.994  0.00  0.00     0.143 A 
ATOM      2  C2  UNL d   1       2.660  -4.568  -2.055  0.00  0.00    -0.057 A 
ATOM      3  C3  UNL d   1       2.152  -4.014  -3.236  0.00  0.00     0.033 A 
ATOM      4  C4  UNL d   1       2.950  -3.931  -4.372  0.00  0.00    -0.042 A 
ATOM      5  C5  UNL d   1       4.255  -4.406  -4.327  0.00  0.00     0.033 A 
ATOM      6  C6  UNL d   1       4.755  -4.965  -3.147  0.00  0.00    -0.057 A 
ENDROOT
BRANCH   1   7
ATOM      7  N   UNL d   1       4.558  -5.550  -0.823  0.00  0.00    -0.732 N 
ATOM      8  C   UNL d   1       5.296  -4.655   0.043  0.00  0.00     0.284 C 
ATOM      9  H3  UNL d   1       3.967  -6.214  -0.328  0.00  0.00     0.395 HD
ENDBRANCH   1   7
TORSDOF 1
ENDMDL
