MODEL 1
REMARK minimizedAffinity 5.25653744
REMARK minimizedRMSD -1
REMARK  1 active torsions:
REMARK  status: ('A' for Active; 'I' for Inactive)
REMARK    1  A    between atoms: N_2  and  C1_3 
ROOT
ATOM      1  C1  UNL d   1       3.768  -4.525  -1.017  0.00  0.00     0.143 A 
ATOM      2  C2  UNL d   1       2.692  -3.634  -1.099  0.00  0.00    -0.057 A 
ATOM      3  C3  UNL d   1       2.046  -3.384  -2.316  0.00  0.00     0.033 A 
ATOM      4  C4  UNL d   1       2.485  -4.002  -3.482  0.00  0.00    -0.042 A 
ATOM      5  C5  UNL d   1       3.568  -4.872  -3.430  0.00  0.00     0.033 A 
ATOM      6  C6  UNL d   1       4.205  -5.122  -2.210  0.00  0.00    -0.057 A 
ENDROOT
BRANCH   1   7
ATOM      7  N   UNL d   1       4.513  -4.740   0.144  0.00  0.00    -0.732 N 
ATOM      8  C   UNL d   1       5.221  -5.986   0.346  0.00  0.00     0.284 C 
ATOM      9  H3  UNL d   1       5.036  -3.914   0.428  0.00  0.00     0.395 HD
ENDBRANCH   1   7
TORSDOF 1
ENDMDL
