MODEL 1
REMARK minimizedAffinity -0.974527717
REMARK minimizedRMSD -1
REMARK  1 active torsions:
REMARK  status: ('A' for Active; 'I' for Inactive)
REMARK    1  A    between atoms: N_2  and  C1_3 
ROOT
ATOM      1  C1  UNL d   1       3.339  -3.745  -1.635  0.00  0.00     0.143 A 
ATOM      2  C2  UNL d   1       2.283  -3.025  -2.201  0.00  0.00    -0.057 A 
ATOM      3  C3  UNL d   1       2.204  -2.819  -3.584  0.00  0.00     0.033 A 
ATOM      4  C4  UNL d   1       3.199  -3.306  -4.424  0.00  0.00    -0.042 A 
ATOM      5  C5  UNL d   1       4.272  -4.004  -3.880  0.00  0.00     0.033 A 
ATOM      6  C6  UNL d   1       4.342  -4.212  -2.499  0.00  0.00    -0.057 A 
ENDROOT
BRANCH   1   7
ATOM      7  N   UNL d   1       3.526  -3.899  -0.259  0.00  0.00    -0.732 N 
ATOM      8  C   UNL d   1       4.822  -3.662   0.341  0.00  0.00     0.284 C 
ATOM      9  H3  UNL d   1       2.745  -3.536   0.282  0.00  0.00     0.395 HD
ENDBRANCH   1   7
TORSDOF 1
ENDMDL
