MODEL 1
REMARK minimizedAffinity 0.230164856
REMARK minimizedRMSD -1
REMARK  1 active torsions:
REMARK  status: ('A' for Active; 'I' for Inactive)
REMARK    1  A    between atoms: N_2  and  C1_3 
ROOT
ATOM      1  C1  UNL d   1       3.867  -4.744  -1.943  0.00  0.00     0.143 A 
ATOM      2  C2  UNL d   1       2.714  -3.994  -2.196  0.00  0.00    -0.057 A 
ATOM      3  C3  UNL d   1       2.416  -3.534  -3.484  0.00  0.00     0.033 A 
ATOM      4  C4  UNL d   1       3.283  -3.793  -4.540  0.00  0.00    -0.042 A 
ATOM      5  C5  UNL d   1       4.448  -4.516  -4.307  0.00  0.00     0.033 A 
ATOM      6  C6  UNL d   1       4.737  -4.978  -3.019  0.00  0.00    -0.057 A 
ENDROOT
BRANCH   1   7
ATOM      7  N   UNL d   1       4.269  -5.146  -0.666  0.00  0.00    -0.732 N 
ATOM      8  C   UNL d   1       4.536  -4.166   0.365  0.00  0.00     0.284 C 
ATOM      9  H3  UNL d   1       3.763  -5.965  -0.339  0.00  0.00     0.395 HD
ENDBRANCH   1   7
TORSDOF 1
ENDMDL
