MODEL 1
REMARK minimizedAffinity 2.31301117
REMARK minimizedRMSD -1
REMARK  1 active torsions:
REMARK  status: ('A' for Active; 'I' for Inactive)
REMARK    1  A    between atoms: N_2  and  C1_3 
ROOT
ATOM      1  C1  UNL d   1      -5.523  -3.543   3.211  0.00  0.00     0.143 A 
ATOM      2  C2  UNL d   1      -6.000  -4.824   2.914  0.00  0.00    -0.057 A 
ATOM      3  C3  UNL d   1      -5.415  -5.965   3.477  0.00  0.00     0.033 A 
ATOM      4  C4  UNL d   1      -4.321  -5.846   4.327  0.00  0.00    -0.042 A 
ATOM      5  C5  UNL d   1      -3.815  -4.584   4.617  0.00  0.00     0.033 A 
ATOM      6  C6  UNL d   1      -4.407  -3.448   4.057  0.00  0.00    -0.057 A 
ENDROOT
BRANCH   1   7
ATOM      7  N   UNL d   1      -5.999  -2.377   2.606  0.00  0.00    -0.732 N 
ATOM      8  C   UNL d   1      -5.169  -1.194   2.533  0.00  0.00     0.284 C 
ATOM      9  H3  UNL d   1      -6.528  -2.567   1.758  0.00  0.00     0.395 HD
ENDBRANCH   1   7
TORSDOF 1
ENDMDL
