MODEL 1
REMARK minimizedAffinity -1.65915251
REMARK minimizedRMSD -1
REMARK  1 active torsions:
REMARK  status: ('A' for Active; 'I' for Inactive)
REMARK    1  A    between atoms: N_2  and  C1_3 
ROOT
ATOM      1  C1  UNL d   1       3.451  -4.249  -1.301  0.00  0.00     0.143 A 
ATOM      2  C2  UNL d   1       2.232  -3.579  -1.453  0.00  0.00    -0.057 A 
ATOM      3  C3  UNL d   1       1.783  -3.167  -2.714  0.00  0.00     0.033 A 
ATOM      4  C4  UNL d   1       2.561  -3.394  -3.844  0.00  0.00    -0.042 A 
ATOM      5  C5  UNL d   1       3.787  -4.036  -3.713  0.00  0.00     0.033 A 
ATOM      6  C6  UNL d   1       4.227  -4.451  -2.453  0.00  0.00    -0.057 A 
ENDROOT
BRANCH   1   7
ATOM      7  N   UNL d   1       3.998  -4.596  -0.063  0.00  0.00    -0.732 N 
ATOM      8  C   UNL d   1       5.298  -4.098   0.334  0.00  0.00     0.284 C 
ATOM      9  H3  UNL d   1       3.306  -4.591   0.683  0.00  0.00     0.395 HD
ENDBRANCH   1   7
TORSDOF 1
ENDMDL
