MODEL 1
REMARK minimizedAffinity 4.09846544
REMARK minimizedRMSD -1
REMARK  1 active torsions:
REMARK  status: ('A' for Active; 'I' for Inactive)
REMARK    1  A    between atoms: N_2  and  C1_3 
ROOT
ATOM      1  C1  UNL d   1       3.459  -5.006  -1.655  0.00  0.00     0.143 A 
ATOM      2  C2  UNL d   1       2.168  -4.512  -1.869  0.00  0.00    -0.057 A 
ATOM      3  C3  UNL d   1       1.746  -4.112  -3.142  0.00  0.00     0.033 A 
ATOM      4  C4  UNL d   1       2.620  -4.172  -4.222  0.00  0.00    -0.042 A 
ATOM      5  C5  UNL d   1       3.916  -4.636  -4.028  0.00  0.00     0.033 A 
ATOM      6  C6  UNL d   1       4.329  -5.041  -2.755  0.00  0.00    -0.057 A 
ENDROOT
BRANCH   1   7
ATOM      7  N   UNL d   1       3.970  -5.328  -0.395  0.00  0.00    -0.732 N 
ATOM      8  C   UNL d   1       5.009  -4.520   0.207  0.00  0.00     0.284 C 
ATOM      9  H3  UNL d   1       3.244  -5.623   0.255  0.00  0.00     0.395 HD
ENDBRANCH   1   7
TORSDOF 1
ENDMDL
