MODEL 1
REMARK minimizedAffinity 6.1208601
REMARK minimizedRMSD -1
REMARK  1 active torsions:
REMARK  status: ('A' for Active; 'I' for Inactive)
REMARK    1  A    between atoms: N_2  and  C1_3 
ROOT
ATOM      1  C1  UNL d   1      -2.583  -4.068  -5.480  0.00  0.00     0.143 A 
ATOM      2  C2  UNL d   1      -2.937  -2.715  -5.507  0.00  0.00    -0.057 A 
ATOM      3  C3  UNL d   1      -4.256  -2.313  -5.749  0.00  0.00     0.033 A 
ATOM      4  C4  UNL d   1      -5.244  -3.261  -5.997  0.00  0.00    -0.042 A 
ATOM      5  C5  UNL d   1      -4.910  -4.611  -5.999  0.00  0.00     0.033 A 
ATOM      6  C6  UNL d   1      -3.592  -5.006  -5.751  0.00  0.00    -0.057 A 
ENDROOT
BRANCH   1   7
ATOM      7  N   UNL d   1      -1.271  -4.527  -5.343  0.00  0.00    -0.732 N 
ATOM      8  C   UNL d   1      -0.724  -4.817  -4.035  0.00  0.00     0.284 C 
ATOM      9  H3  UNL d   1      -1.020  -5.205  -6.058  0.00  0.00     0.395 HD
ENDBRANCH   1   7
TORSDOF 1
ENDMDL
