MODEL 1
REMARK minimizedAffinity 15.644412
REMARK minimizedRMSD -1
REMARK  1 active torsions:
REMARK  status: ('A' for Active; 'I' for Inactive)
REMARK    1  A    between atoms: N_2  and  C1_3 
ROOT
ATOM      1  C1  UNL d   1       1.859   3.773  -0.785  0.00  0.00     0.143 A 
ATOM      2  C2  UNL d   1       1.512   4.923  -1.503  0.00  0.00    -0.057 A 
ATOM      3  C3  UNL d   1       0.839   5.987  -0.890  0.00  0.00     0.033 A 
ATOM      4  C4  UNL d   1       0.475   5.907   0.451  0.00  0.00    -0.042 A 
ATOM      5  C5  UNL d   1       0.788   4.764   1.177  0.00  0.00     0.033 A 
ATOM      6  C6  UNL d   1       1.465   3.707   0.561  0.00  0.00    -0.057 A 
ENDROOT
BRANCH   1   7
ATOM      7  N   UNL d   1       2.440   2.642  -1.362  0.00  0.00    -0.732 N 
ATOM      8  C   UNL d   1       2.510   1.395  -0.631  0.00  0.00     0.284 C 
ATOM      9  H3  UNL d   1       2.192   2.535  -2.343  0.00  0.00     0.395 HD
ENDBRANCH   1   7
TORSDOF 1
ENDMDL
