MODEL 1
REMARK minimizedAffinity 19.0556698
REMARK minimizedRMSD -1
REMARK  1 active torsions:
REMARK  status: ('A' for Active; 'I' for Inactive)
REMARK    1  A    between atoms: N_2  and  C1_3 
ROOT
ATOM      1  C1  UNL d   1      -4.774   2.256   4.748  0.00  0.00     0.143 A 
ATOM      2  C2  UNL d   1      -4.162   1.869   5.945  0.00  0.00    -0.057 A 
ATOM      3  C3  UNL d   1      -3.315   0.755   6.000  0.00  0.00     0.033 A 
ATOM      4  C4  UNL d   1      -3.088  -0.011   4.861  0.00  0.00    -0.042 A 
ATOM      5  C5  UNL d   1      -3.706   0.341   3.666  0.00  0.00     0.033 A 
ATOM      6  C6  UNL d   1      -4.545   1.458   3.616  0.00  0.00    -0.057 A 
ENDROOT
BRANCH   1   7
ATOM      7  N   UNL d   1      -5.703   3.295   4.650  0.00  0.00    -0.732 N 
ATOM      8  C   UNL d   1      -6.000   3.900   3.369  0.00  0.00     0.284 C 
ATOM      9  H3  UNL d   1      -6.520   3.141   5.236  0.00  0.00     0.395 HD
ENDBRANCH   1   7
TORSDOF 1
ENDMDL
