MODEL 1
REMARK minimizedAffinity -4.90792608
REMARK minimizedRMSD -1
REMARK  2 active torsions:
REMARK  status: ('A' for Active; 'I' for Inactive)
REMARK    1  A    between atoms: C2'_3  and  C1'_4 
REMARK    2  A    between atoms: C1'_4  and  C1_5 
ROOT
ATOM      1  C1  I4B d   1      -0.542  -0.502   1.019  0.00  0.00    -0.075 A 
ATOM      2  C2  I4B d   1      -0.075  -0.659   2.300  0.00  0.00     0.003 A 
ATOM      3  C3  I4B d   1      -0.898  -0.328   3.404  0.00  0.00     0.002 A 
ATOM      4  C4  I4B d   1      -2.154   0.200   3.182  0.00  0.00    -0.004 A 
ATOM      5  C5  I4B d   1      -2.634   0.337   1.882  0.00  0.00     0.002 A 
ATOM      6  C6  I4B d   1      -1.828  -0.028   0.794  0.00  0.00     0.003 A 
ENDROOT
BRANCH   1   7
ATOM      7  C1' I4B d   1       0.365  -0.830  -0.124  0.00  0.00     0.060 C 
BRANCH   7   8
ATOM      8  C2' I4B d   1       0.545   0.426  -0.953  0.00  0.00    -0.013 C 
ATOM      9  C4' I4B d   1       1.468   1.401  -0.271  0.00  0.00     0.013 C 
ATOM     10  C3' I4B d   1       1.079   0.022  -2.295  0.00  0.00     0.013 C 
ENDBRANCH   7   8
ENDBRANCH   1   7
TORSDOF 2
ENDMDL
