MODEL 1
REMARK minimizedAffinity -2.33511543
REMARK minimizedRMSD -1
REMARK  2 active torsions:
REMARK  status: ('A' for Active; 'I' for Inactive)
REMARK    1  A    between atoms: C2'_3  and  C1'_4 
REMARK    2  A    between atoms: C1'_4  and  C1_5 
ROOT
ATOM      1  C1  I4B d   1       0.279   0.108  -0.777  0.00  0.00    -0.075 A 
ATOM      2  C2  I4B d   1       1.291  -0.086   0.130  0.00  0.00     0.003 A 
ATOM      3  C3  I4B d   1       1.043   0.058   1.517  0.00  0.00     0.002 A 
ATOM      4  C4  I4B d   1      -0.210   0.446   1.947  0.00  0.00    -0.004 A 
ATOM      5  C5  I4B d   1      -1.240   0.620   1.027  0.00  0.00     0.002 A 
ATOM      6  C6  I4B d   1      -0.998   0.439  -0.342  0.00  0.00     0.003 A 
ENDROOT
BRANCH   1   7
ATOM      7  C1' I4B d   1       0.583  -0.020  -2.235  0.00  0.00     0.060 C 
BRANCH   7   8
ATOM      8  C2' I4B d   1       1.012  -1.450  -2.498  0.00  0.00    -0.013 C 
ATOM      9  C4' I4B d   1      -0.101  -2.246  -3.127  0.00  0.00     0.013 C 
ATOM     10  C3' I4B d   1       2.221  -1.415  -3.385  0.00  0.00     0.013 C 
ENDBRANCH   7   8
ENDBRANCH   1   7
TORSDOF 2
ENDMDL
