MODEL 1
REMARK minimizedAffinity -2.93027258
REMARK minimizedRMSD -1
REMARK  2 active torsions:
REMARK  status: ('A' for Active; 'I' for Inactive)
REMARK    1  A    between atoms: C2'_3  and  C1'_4 
REMARK    2  A    between atoms: C1'_4  and  C1_5 
ROOT
ATOM      1  C1  I4B d   1       0.632   0.229  -1.006  0.00  0.00    -0.075 A 
ATOM      2  C2  I4B d   1       0.482   1.275  -0.130  0.00  0.00     0.003 A 
ATOM      3  C3  I4B d   1       0.552   1.051   1.266  0.00  0.00     0.002 A 
ATOM      4  C4  I4B d   1       0.720  -0.234   1.741  0.00  0.00    -0.004 A 
ATOM      5  C5  I4B d   1       0.895  -1.290   0.851  0.00  0.00     0.002 A 
ATOM      6  C6  I4B d   1       0.863  -1.056  -0.531  0.00  0.00     0.003 A 
ENDROOT
BRANCH   1   7
ATOM      7  C1' I4B d   1       0.521   0.496  -2.474  0.00  0.00     0.060 C 
BRANCH   7   8
ATOM      8  C2' I4B d   1       1.300  -0.578  -3.204  0.00  0.00    -0.013 C 
ATOM      9  C4' I4B d   1       0.477  -1.196  -4.304  0.00  0.00     0.013 C 
ATOM     10  C3' I4B d   1       2.550   0.046  -3.749  0.00  0.00     0.013 C 
ENDBRANCH   7   8
ENDBRANCH   1   7
TORSDOF 2
ENDMDL
