MODEL 1
REMARK minimizedAffinity 11.4680519
REMARK minimizedRMSD -1
REMARK  2 active torsions:
REMARK  status: ('A' for Active; 'I' for Inactive)
REMARK    1  A    between atoms: C2'_3  and  C1'_4 
REMARK    2  A    between atoms: C1'_4  and  C1_5 
ROOT
ATOM      1  C1  I4B d   1       1.391  -0.056   1.273  0.00  0.00    -0.075 A 
ATOM      2  C2  I4B d   1       0.974   0.373   2.508  0.00  0.00     0.003 A 
ATOM      3  C3  I4B d   1       0.874   1.759   2.784  0.00  0.00     0.002 A 
ATOM      4  C4  I4B d   1       1.247   2.673   1.820  0.00  0.00    -0.004 A 
ATOM      5  C5  I4B d   1       1.648   2.235   0.561  0.00  0.00     0.002 A 
ATOM      6  C6  I4B d   1       1.708   0.862   0.281  0.00  0.00     0.003 A 
ENDROOT
BRANCH   1   7
ATOM      7  C1' I4B d   1       1.517  -1.526   1.026  0.00  0.00     0.060 C 
BRANCH   7   8
ATOM      8  C2' I4B d   1       0.234  -2.188   1.487  0.00  0.00    -0.013 C 
ATOM      9  C4' I4B d   1      -0.811  -2.167   0.403  0.00  0.00     0.013 C 
ATOM     10  C3' I4B d   1       0.560  -3.594   1.897  0.00  0.00     0.013 C 
ENDBRANCH   7   8
ENDBRANCH   1   7
TORSDOF 2
ENDMDL
