MODEL 1
REMARK minimizedAffinity 0.67130959
REMARK minimizedRMSD -1
REMARK  2 active torsions:
REMARK  status: ('A' for Active; 'I' for Inactive)
REMARK    1  A    between atoms: C2'_3  and  C1'_4 
REMARK    2  A    between atoms: C1'_4  and  C1_5 
ROOT
ATOM      1  C1  I4B d   1       0.295  -0.468  -0.823  0.00  0.00    -0.075 A 
ATOM      2  C2  I4B d   1       1.156  -1.082   0.051  0.00  0.00     0.003 A 
ATOM      3  C3  I4B d   1       1.322  -0.575   1.363  0.00  0.00     0.002 A 
ATOM      4  C4  I4B d   1       0.649   0.570   1.739  0.00  0.00    -0.004 A 
ATOM      5  C5  I4B d   1      -0.241   1.178   0.858  0.00  0.00     0.002 A 
ATOM      6  C6  I4B d   1      -0.429   0.649  -0.427  0.00  0.00     0.003 A 
ENDROOT
BRANCH   1   7
ATOM      7  C1' I4B d   1       0.170  -1.011  -2.212  0.00  0.00     0.060 C 
BRANCH   7   8
ATOM      8  C2' I4B d   1       1.543  -0.978  -2.851  0.00  0.00    -0.013 C 
ATOM      9  C4' I4B d   1       1.613  -1.902  -4.039  0.00  0.00     0.013 C 
ATOM     10  C3' I4B d   1       1.835   0.438  -3.249  0.00  0.00     0.013 C 
ENDBRANCH   7   8
ENDBRANCH   1   7
TORSDOF 2
ENDMDL
