MODEL 1
REMARK minimizedAffinity -1.94075489
REMARK minimizedRMSD -1
REMARK  2 active torsions:
REMARK  status: ('A' for Active; 'I' for Inactive)
REMARK    1  A    between atoms: C2'_3  and  C1'_4 
REMARK    2  A    between atoms: C1'_4  and  C1_5 
ROOT
ATOM      1  C1  I4B d   1       0.067  -0.594  -1.537  0.00  0.00    -0.075 A 
ATOM      2  C2  I4B d   1       1.271  -0.550  -2.195  0.00  0.00     0.003 A 
ATOM      3  C3  I4B d   1       1.577  -1.513  -3.186  0.00  0.00     0.002 A 
ATOM      4  C4  I4B d   1       0.677  -2.525  -3.451  0.00  0.00    -0.004 A 
ATOM      5  C5  I4B d   1      -0.553  -2.555  -2.800  0.00  0.00     0.002 A 
ATOM      6  C6  I4B d   1      -0.865  -1.576  -1.846  0.00  0.00     0.003 A 
ENDROOT
BRANCH   1   7
ATOM      7  C1' I4B d   1      -0.211   0.420  -0.472  0.00  0.00     0.060 C 
BRANCH   7   8
ATOM      8  C2' I4B d   1       0.952   0.406   0.499  0.00  0.00    -0.013 C 
ATOM      9  C4' I4B d   1       0.795   1.471   1.552  0.00  0.00     0.013 C 
ATOM     10  C3' I4B d   1       1.025  -0.959   1.115  0.00  0.00     0.013 C 
ENDBRANCH   7   8
ENDBRANCH   1   7
TORSDOF 2
ENDMDL
