MODEL 1
REMARK minimizedAffinity -2.18049455
REMARK minimizedRMSD -1
REMARK  2 active torsions:
REMARK  status: ('A' for Active; 'I' for Inactive)
REMARK    1  A    between atoms: C2'_3  and  C1'_4 
REMARK    2  A    between atoms: C1'_4  and  C1_5 
ROOT
ATOM      1  C1  I4B d   1       0.595  -0.583  -0.668  0.00  0.00    -0.075 A 
ATOM      2  C2  I4B d   1      -0.159   0.539  -0.429  0.00  0.00     0.003 A 
ATOM      3  C3  I4B d   1      -0.016   1.247   0.789  0.00  0.00     0.002 A 
ATOM      4  C4  I4B d   1       0.849   0.773   1.754  0.00  0.00    -0.004 A 
ATOM      5  C5  I4B d   1       1.628  -0.352   1.501  0.00  0.00     0.002 A 
ATOM      6  C6  I4B d   1       1.510  -1.028   0.277  0.00  0.00     0.003 A 
ENDROOT
BRANCH   1   7
ATOM      7  C1' I4B d   1       0.395  -1.326  -1.951  0.00  0.00     0.060 C 
BRANCH   7   8
ATOM      8  C2' I4B d   1       1.757  -1.563  -2.570  0.00  0.00    -0.013 C 
ATOM      9  C4' I4B d   1       1.717  -2.700  -3.557  0.00  0.00     0.013 C 
ATOM     10  C3' I4B d   1       2.195  -0.289  -3.229  0.00  0.00     0.013 C 
ENDBRANCH   7   8
ENDBRANCH   1   7
TORSDOF 2
ENDMDL
