MODEL 1
REMARK minimizedAffinity -3.70146728
REMARK minimizedRMSD -1
REMARK  2 active torsions:
REMARK  status: ('A' for Active; 'I' for Inactive)
REMARK    1  A    between atoms: C2'_3  and  C1'_4 
REMARK    2  A    between atoms: C1'_4  and  C1_5 
ROOT
ATOM      1  C1  I4B d   1       0.354   0.256  -1.224  0.00  0.00    -0.075 A 
ATOM      2  C2  I4B d   1       1.126   0.028  -0.112  0.00  0.00     0.003 A 
ATOM      3  C3  I4B d   1       0.543   0.059   1.179  0.00  0.00     0.002 A 
ATOM      4  C4  I4B d   1      -0.795   0.369   1.313  0.00  0.00    -0.004 A 
ATOM      5  C5  I4B d   1      -1.580   0.577   0.183  0.00  0.00     0.002 A 
ATOM      6  C6  I4B d   1      -1.005   0.509  -1.094  0.00  0.00     0.003 A 
ENDROOT
BRANCH   1   7
ATOM      7  C1' I4B d   1       1.009   0.249  -2.569  0.00  0.00     0.060 C 
BRANCH   7   8
ATOM      8  C2' I4B d   1       1.687  -1.093  -2.750  0.00  0.00    -0.013 C 
ATOM      9  C4' I4B d   1       0.873  -2.000  -3.635  0.00  0.00     0.013 C 
ATOM     10  C3' I4B d   1       3.048  -0.849  -3.332  0.00  0.00     0.013 C 
ENDBRANCH   7   8
ENDBRANCH   1   7
TORSDOF 2
ENDMDL
