MODEL 1
REMARK minimizedAffinity -2.11279941
REMARK minimizedRMSD -1
REMARK  2 active torsions:
REMARK  status: ('A' for Active; 'I' for Inactive)
REMARK    1  A    between atoms: C2'_3  and  C1'_4 
REMARK    2  A    between atoms: C1'_4  and  C1_5 
ROOT
ATOM      1  C1  I4B d   1      -0.390  -0.383   0.116  0.00  0.00    -0.075 A 
ATOM      2  C2  I4B d   1       0.598  -0.006   0.991  0.00  0.00     0.003 A 
ATOM      3  C3  I4B d   1       0.345   0.016   2.384  0.00  0.00     0.002 A 
ATOM      4  C4  I4B d   1      -0.915  -0.297   2.851  0.00  0.00    -0.004 A 
ATOM      5  C5  I4B d   1      -1.908  -0.702   1.964  0.00  0.00     0.002 A 
ATOM      6  C6  I4B d   1      -1.641  -0.757   0.589  0.00  0.00     0.003 A 
ENDROOT
BRANCH   1   7
ATOM      7  C1' I4B d   1      -0.099  -0.363  -1.352  0.00  0.00     0.060 C 
BRANCH   7   8
ATOM      8  C2' I4B d   1       0.374  -1.745  -1.753  0.00  0.00    -0.013 C 
ATOM      9  C4' I4B d   1      -0.615  -2.414  -2.671  0.00  0.00     0.013 C 
ATOM     10  C3' I4B d   1       1.714  -1.603  -2.412  0.00  0.00     0.013 C 
ENDBRANCH   7   8
ENDBRANCH   1   7
TORSDOF 2
ENDMDL
