MODEL 1
REMARK minimizedAffinity -2.8452971
REMARK minimizedRMSD -1
REMARK  2 active torsions:
REMARK  status: ('A' for Active; 'I' for Inactive)
REMARK    1  A    between atoms: C2'_3  and  C1'_4 
REMARK    2  A    between atoms: C1'_4  and  C1_5 
ROOT
ATOM      1  C1  I4B d   1       0.025   0.330   1.179  0.00  0.00    -0.075 A 
ATOM      2  C2  I4B d   1      -0.995   0.278   0.262  0.00  0.00     0.003 A 
ATOM      3  C3  I4B d   1      -2.321   0.586   0.652  0.00  0.00     0.002 A 
ATOM      4  C4  I4B d   1      -2.588   0.890   1.971  0.00  0.00    -0.004 A 
ATOM      5  C5  I4B d   1      -1.550   0.964   2.895  0.00  0.00     0.002 A 
ATOM      6  C6  I4B d   1      -0.233   0.695   2.494  0.00  0.00     0.003 A 
ENDROOT
BRANCH   1   7
ATOM      7  C1' I4B d   1       1.408  -0.033   0.740  0.00  0.00     0.060 C 
BRANCH   7   8
ATOM      8  C2' I4B d   1       1.364  -1.437   0.172  0.00  0.00    -0.013 C 
ATOM      9  C4' I4B d   1       2.746  -2.025   0.063  0.00  0.00     0.013 C 
ATOM     10  C3' I4B d   1       0.489  -2.269   1.061  0.00  0.00     0.013 C 
ENDBRANCH   7   8
ENDBRANCH   1   7
TORSDOF 2
ENDMDL
