MODEL 1
REMARK minimizedAffinity -3.82608914
REMARK minimizedRMSD -1
REMARK  2 active torsions:
REMARK  status: ('A' for Active; 'I' for Inactive)
REMARK    1  A    between atoms: C2'_3  and  C1'_4 
REMARK    2  A    between atoms: C1'_4  and  C1_5 
ROOT
ATOM      1  C1  I4B d   1      -0.809  -0.773   1.564  0.00  0.00    -0.075 A 
ATOM      2  C2  I4B d   1      -0.742  -0.761   2.935  0.00  0.00     0.003 A 
ATOM      3  C3  I4B d   1      -1.869  -0.378   3.701  0.00  0.00     0.002 A 
ATOM      4  C4  I4B d   1      -3.021   0.029   3.058  0.00  0.00    -0.004 A 
ATOM      5  C5  I4B d   1      -3.095  -0.006   1.669  0.00  0.00     0.002 A 
ATOM      6  C6  I4B d   1      -1.987  -0.422   0.917  0.00  0.00     0.003 A 
ENDROOT
BRANCH   1   7
ATOM      7  C1' I4B d   1       0.411  -1.151   0.785  0.00  0.00     0.060 C 
BRANCH   7   8
ATOM      8  C2' I4B d   1       0.857   0.065  -0.002  0.00  0.00    -0.013 C 
ATOM      9  C4' I4B d   1       1.752   0.951   0.825  0.00  0.00     0.013 C 
ATOM     10  C3' I4B d   1       1.561  -0.416  -1.236  0.00  0.00     0.013 C 
ENDBRANCH   7   8
ENDBRANCH   1   7
TORSDOF 2
ENDMDL
