MODEL 1
REMARK minimizedAffinity -1.50257516
REMARK minimizedRMSD -1
REMARK  0 active torsions:
REMARK  status: ('A' for Active; 'I' for Inactive)
ROOT
ATOM      1  C1  DEN d   1       1.238  -1.818  -2.176  0.00  0.00     0.130 A 
ATOM      2  C2  DEN d   1       0.396  -2.984  -2.431  0.00  0.00    -0.031 A 
ATOM      3  C3  DEN d   1      -0.557  -3.112  -1.310  0.00  0.00     0.027 A 
ATOM      4  C4  DEN d   1      -0.812  -1.625   0.781  0.00  0.00     0.027 A 
ATOM      5  C5  DEN d   1      -0.315  -0.524   1.443  0.00  0.00    -0.003 A 
ATOM      6  C6  DEN d   1       0.748   0.197   0.966  0.00  0.00     0.001 A 
ATOM      7  C7  DEN d   1       1.320  -0.149  -0.230  0.00  0.00     0.017 A 
ATOM      8  C8  DEN d   1       0.829  -1.262  -0.899  0.00  0.00    -0.094 A 
ATOM      9  C9  DEN d   1      -0.254  -1.970  -0.407  0.00  0.00    -0.072 A 
ENDROOT
TORSDOF 0
ENDMDL
