MODEL 1
REMARK minimizedAffinity -0.115010351
REMARK minimizedRMSD -1
REMARK  0 active torsions:
REMARK  status: ('A' for Active; 'I' for Inactive)
ROOT
ATOM      1  C1  DEN d   1       0.037   2.926   0.819  0.00  0.00     0.130 A 
ATOM      2  C2  DEN d   1      -0.565   3.086   2.140  0.00  0.00    -0.031 A 
ATOM      3  C3  DEN d   1      -0.788   1.741   2.706  0.00  0.00     0.027 A 
ATOM      4  C4  DEN d   1      -0.258  -0.563   1.674  0.00  0.00     0.027 A 
ATOM      5  C5  DEN d   1       0.247  -1.207   0.566  0.00  0.00    -0.003 A 
ATOM      6  C6  DEN d   1       0.683  -0.526  -0.539  0.00  0.00     0.001 A 
ATOM      7  C7  DEN d   1       0.663   0.844  -0.544  0.00  0.00     0.017 A 
ATOM      8  C8  DEN d   1       0.148   1.500   0.566  0.00  0.00    -0.094 A 
ATOM      9  C9  DEN d   1      -0.276   0.794   1.679  0.00  0.00    -0.072 A 
ENDROOT
TORSDOF 0
ENDMDL
