MODEL 1
REMARK minimizedAffinity -4.98422956
REMARK minimizedRMSD -1
REMARK  0 active torsions:
REMARK  status: ('A' for Active; 'I' for Inactive)
ROOT
ATOM      1  C1  DEN d   1      -0.021  -0.271   0.723  0.00  0.00     0.130 A 
ATOM      2  C2  DEN d   1      -0.719  -0.661   1.944  0.00  0.00    -0.031 A 
ATOM      3  C3  DEN d   1      -1.061   0.568   2.688  0.00  0.00     0.027 A 
ATOM      4  C4  DEN d   1      -0.582   3.025   2.067  0.00  0.00     0.027 A 
ATOM      5  C5  DEN d   1      -0.005   3.855   1.131  0.00  0.00    -0.003 A 
ATOM      6  C6  DEN d   1       0.633   3.370   0.020  0.00  0.00     0.001 A 
ATOM      7  C7  DEN d   1       0.668   2.019  -0.207  0.00  0.00     0.017 A 
ATOM      8  C8  DEN d   1       0.095   1.176   0.736  0.00  0.00    -0.094 A 
ATOM      9  C9  DEN d   1      -0.556   1.687   1.846  0.00  0.00    -0.072 A 
ENDROOT
TORSDOF 0
ENDMDL
