MODEL 1
REMARK minimizedAffinity -2.74645114
REMARK minimizedRMSD -1
REMARK  0 active torsions:
REMARK  status: ('A' for Active; 'I' for Inactive)
ROOT
ATOM      1  C1  DEN d   1       0.849   0.667  -0.927  0.00  0.00     0.130 A 
ATOM      2  C2  DEN d   1       0.753  -0.680  -0.373  0.00  0.00    -0.031 A 
ATOM      3  C3  DEN d   1      -0.005  -0.601   0.891  0.00  0.00     0.027 A 
ATOM      4  C4  DEN d   1      -1.037   1.466   2.038  0.00  0.00     0.027 A 
ATOM      5  C5  DEN d   1      -1.205   2.831   1.951  0.00  0.00    -0.003 A 
ATOM      6  C6  DEN d   1      -0.676   3.568   0.926  0.00  0.00     0.001 A 
ATOM      7  C7  DEN d   1       0.009   2.939  -0.080  0.00  0.00     0.017 A 
ATOM      8  C8  DEN d   1       0.190   1.564   0.004  0.00  0.00    -0.094 A 
ATOM      9  C9  DEN d   1      -0.364   0.835   1.043  0.00  0.00    -0.072 A 
ENDROOT
TORSDOF 0
ENDMDL
