MODEL 1
REMARK minimizedAffinity -2.19154358
REMARK minimizedRMSD -1
REMARK  0 active torsions:
REMARK  status: ('A' for Active; 'I' for Inactive)
ROOT
ATOM      1  C1  DEN d   1      -0.992   1.345   1.753  0.00  0.00     0.130 A 
ATOM      2  C2  DEN d   1      -0.972   0.081   2.485  0.00  0.00    -0.031 A 
ATOM      3  C3  DEN d   1      -0.097  -0.856   1.753  0.00  0.00     0.027 A 
ATOM      4  C4  DEN d   1       1.224  -0.475  -0.429  0.00  0.00     0.027 A 
ATOM      5  C5  DEN d   1       1.511   0.433  -1.423  0.00  0.00    -0.003 A 
ATOM      6  C6  DEN d   1       0.962   1.688  -1.447  0.00  0.00     0.001 A 
ATOM      7  C7  DEN d   1       0.131   2.084  -0.432  0.00  0.00     0.017 A 
ATOM      8  C8  DEN d   1      -0.169   1.171   0.570  0.00  0.00    -0.094 A 
ATOM      9  C9  DEN d   1       0.407  -0.088   0.583  0.00  0.00    -0.072 A 
ENDROOT
TORSDOF 0
ENDMDL
