MODEL 1
REMARK minimizedAffinity 4.58119202
REMARK minimizedRMSD -1
REMARK  0 active torsions:
REMARK  status: ('A' for Active; 'I' for Inactive)
ROOT
ATOM      1  C1  DEN d   1      -0.629   0.739   3.086  0.00  0.00     0.130 A 
ATOM      2  C2  DEN d   1      -0.593   2.197   3.026  0.00  0.00    -0.031 A 
ATOM      3  C3  DEN d   1      -0.096   2.588   1.691  0.00  0.00     0.027 A 
ATOM      4  C4  DEN d   1       0.614   1.083  -0.279  0.00  0.00     0.027 A 
ATOM      5  C5  DEN d   1       0.768  -0.220  -0.698  0.00  0.00    -0.003 A 
ATOM      6  C6  DEN d   1       0.502  -1.286   0.120  0.00  0.00     0.001 A 
ATOM      7  C7  DEN d   1       0.024  -1.068   1.385  0.00  0.00     0.017 A 
ATOM      8  C8  DEN d   1      -0.127   0.243   1.817  0.00  0.00    -0.094 A 
ATOM      9  C9  DEN d   1       0.136   1.307   0.971  0.00  0.00    -0.072 A 
ENDROOT
TORSDOF 0
ENDMDL
