MODEL 1
REMARK minimizedAffinity -4.05361462
REMARK minimizedRMSD -1
REMARK  0 active torsions:
REMARK  status: ('A' for Active; 'I' for Inactive)
ROOT
ATOM      1  C1  DEN d   1       1.045  -0.100  -2.208  0.00  0.00     0.130 A 
ATOM      2  C2  DEN d   1       1.416   0.226  -0.833  0.00  0.00    -0.031 A 
ATOM      3  C3  DEN d   1       1.342  -1.014  -0.034  0.00  0.00     0.027 A 
ATOM      4  C4  DEN d   1       0.700  -3.395  -0.790  0.00  0.00     0.027 A 
ATOM      5  C5  DEN d   1       0.296  -4.163  -1.860  0.00  0.00    -0.003 A 
ATOM      6  C6  DEN d   1       0.083  -3.628  -3.103  0.00  0.00     0.001 A 
ATOM      7  C7  DEN d   1       0.316  -2.296  -3.317  0.00  0.00     0.017 A 
ATOM      8  C8  DEN d   1       0.716  -1.514  -2.242  0.00  0.00    -0.094 A 
ATOM      9  C9  DEN d   1       0.938  -2.075  -0.996  0.00  0.00    -0.072 A 
ENDROOT
TORSDOF 0
ENDMDL
