MODEL 1
REMARK minimizedAffinity -3.23141646
REMARK minimizedRMSD -1
REMARK  0 active torsions:
REMARK  status: ('A' for Active; 'I' for Inactive)
ROOT
ATOM      1  C1  DEN d   1       0.725   0.489  -1.437  0.00  0.00     0.130 A 
ATOM      2  C2  DEN d   1       1.351  -0.824  -1.311  0.00  0.00    -0.031 A 
ATOM      3  C3  DEN d   1       1.064  -1.339   0.042  0.00  0.00     0.027 A 
ATOM      4  C4  DEN d   1      -0.288  -0.239   1.944  0.00  0.00     0.027 A 
ATOM      5  C5  DEN d   1      -1.003   0.879   2.311  0.00  0.00    -0.003 A 
ATOM      6  C6  DEN d   1      -1.162   1.952   1.474  0.00  0.00     0.001 A 
ATOM      7  C7  DEN d   1      -0.637   1.910   0.210  0.00  0.00     0.017 A 
ATOM      8  C8  DEN d   1       0.092   0.789  -0.165  0.00  0.00    -0.094 A 
ATOM      9  C9  DEN d   1       0.231  -0.290   0.691  0.00  0.00    -0.072 A 
ENDROOT
TORSDOF 0
ENDMDL
