MODEL 1
REMARK minimizedAffinity -2.39997053
REMARK minimizedRMSD -1
REMARK  0 active torsions:
REMARK  status: ('A' for Active; 'I' for Inactive)
ROOT
ATOM      1  C1  DEN d   1       1.112  -0.643  -0.526  0.00  0.00     0.130 A 
ATOM      2  C2  DEN d   1       0.873   0.534  -1.358  0.00  0.00    -0.031 A 
ATOM      3  C3  DEN d   1       0.337   0.075  -2.655  0.00  0.00     0.027 A 
ATOM      4  C4  DEN d   1      -0.149  -2.331  -3.450  0.00  0.00     0.027 A 
ATOM      5  C5  DEN d   1      -0.096  -3.661  -3.098  0.00  0.00    -0.003 A 
ATOM      6  C6  DEN d   1       0.391  -4.078  -1.887  0.00  0.00     0.001 A 
ATOM      7  C7  DEN d   1       0.803  -3.151  -0.966  0.00  0.00     0.017 A 
ATOM      8  C8  DEN d   1       0.759  -1.808  -1.316  0.00  0.00    -0.094 A 
ATOM      9  C9  DEN d   1       0.252  -1.406  -2.540  0.00  0.00    -0.072 A 
ENDROOT
TORSDOF 0
ENDMDL
