MODEL 1
REMARK minimizedAffinity 3.69233441
REMARK minimizedRMSD -1
REMARK  0 active torsions:
REMARK  status: ('A' for Active; 'I' for Inactive)
ROOT
ATOM      1  C1  DEN d   1      -0.142   4.748   0.229  0.00  0.00     0.130 A 
ATOM      2  C2  DEN d   1       0.526   5.999   0.579  0.00  0.00    -0.031 A 
ATOM      3  C3  DEN d   1       0.980   5.898   1.980  0.00  0.00     0.027 A 
ATOM      4  C4  DEN d   1       0.720   3.935   3.633  0.00  0.00     0.027 A 
ATOM      5  C5  DEN d   1       0.213   2.664   3.796  0.00  0.00    -0.003 A 
ATOM      6  C6  DEN d   1      -0.471   2.018   2.801  0.00  0.00     0.001 A 
ATOM      7  C7  DEN d   1      -0.629   2.623   1.582  0.00  0.00     0.017 A 
ATOM      8  C8  DEN d   1      -0.127   3.907   1.412  0.00  0.00    -0.094 A 
ATOM      9  C9  DEN d   1       0.572   4.538   2.426  0.00  0.00    -0.072 A 
ENDROOT
TORSDOF 0
ENDMDL
