MODEL 1
REMARK minimizedAffinity -4.13492155
REMARK minimizedRMSD -1
REMARK  0 active torsions:
REMARK  status: ('A' for Active; 'I' for Inactive)
ROOT
ATOM      1  C1  DEN d   1      -0.790  -0.630  -1.610  0.00  0.00     0.130 A 
ATOM      2  C2  DEN d   1      -0.509  -2.062  -1.558  0.00  0.00    -0.031 A 
ATOM      3  C3  DEN d   1      -0.282  -2.432  -0.147  0.00  0.00     0.027 A 
ATOM      4  C4  DEN d   1      -0.344  -0.936   1.953  0.00  0.00     0.027 A 
ATOM      5  C5  DEN d   1      -0.530   0.350   2.410  0.00  0.00    -0.003 A 
ATOM      6  C6  DEN d   1      -0.781   1.397   1.563  0.00  0.00     0.001 A 
ATOM      7  C7  DEN d   1      -0.897   1.168   0.217  0.00  0.00     0.017 A 
ATOM      8  C8  DEN d   1      -0.702  -0.124  -0.252  0.00  0.00    -0.094 A 
ATOM      9  C9  DEN d   1      -0.462  -1.171   0.622  0.00  0.00    -0.072 A 
ENDROOT
TORSDOF 0
ENDMDL
