MODEL 1
REMARK minimizedAffinity 6.11837578
REMARK minimizedRMSD -1
REMARK  0 active torsions:
REMARK  status: ('A' for Active; 'I' for Inactive)
ROOT
ATOM      1  C1  DEN d   1      -0.574   0.538  -0.652  0.00  0.00     0.130 A 
ATOM      2  C2  DEN d   1       0.325  -0.446  -1.249  0.00  0.00    -0.031 A 
ATOM      3  C3  DEN d   1       0.903  -1.258  -0.159  0.00  0.00     0.027 A 
ATOM      4  C4  DEN d   1       0.491  -1.091   2.382  0.00  0.00     0.027 A 
ATOM      5  C5  DEN d   1      -0.182  -0.402   3.367  0.00  0.00    -0.003 A 
ATOM      6  C6  DEN d   1      -1.000   0.660   3.087  0.00  0.00     0.001 A 
ATOM      7  C7  DEN d   1      -1.201   1.037   1.786  0.00  0.00     0.017 A 
ATOM      8  C8  DEN d   1      -0.520   0.353   0.787  0.00  0.00    -0.094 A 
ATOM      9  C9  DEN d   1       0.293  -0.726   1.090  0.00  0.00    -0.072 A 
ENDROOT
TORSDOF 0
ENDMDL
