MODEL 1
REMARK minimizedAffinity 17.1329422
REMARK minimizedRMSD -1
REMARK  1 active torsions:
REMARK  status: ('A' for Active; 'I' for Inactive)
REMARK    1  A    between atoms: C1_2  and  C2_3 
ROOT
ATOM      1  C2  UNL d   1      -3.166  -5.978  -2.085  0.00  0.00    -0.081 A 
ATOM      2  C3  UNL d   1      -3.181  -5.984  -0.685  0.00  0.00     0.006 A 
ATOM      3  C4  UNL d   1      -1.985  -5.993   0.036  0.00  0.00     0.002 A 
ATOM      4  C5  UNL d   1      -0.755  -5.987  -0.630  0.00  0.00    -0.080 A 
ATOM      5  C6  UNL d   1       0.537  -5.966   0.132  0.00  0.00     0.076 C 
ATOM      6  C7  UNL d   1      -0.740  -5.999  -2.029  0.00  0.00     0.002 A 
ATOM      7  C8  UNL d   1      -1.935  -5.991  -2.750  0.00  0.00     0.006 A 
ENDROOT
BRANCH   1   8
ATOM      8  C1  UNL d   1      -4.454  -5.904  -2.865  0.00  0.00     0.054 C 
ATOM      9  C   UNL d   1      -4.200  -5.999  -4.363  0.00  0.00     0.018 C 
ENDBRANCH   1   8
TORSDOF 1
ENDMDL
