MODEL 1
REMARK minimizedAffinity 9.85563564
REMARK minimizedRMSD -1
REMARK  1 active torsions:
REMARK  status: ('A' for Active; 'I' for Inactive)
REMARK    1  A    between atoms: C1_2  and  C2_3 
ROOT
ATOM      1  C2  UNL d   1       3.040   2.294  -1.218  0.00  0.00    -0.081 A 
ATOM      2  C3  UNL d   1       3.867   2.037  -0.118  0.00  0.00     0.006 A 
ATOM      3  C4  UNL d   1       3.573   0.990   0.759  0.00  0.00     0.002 A 
ATOM      4  C5  UNL d   1       2.454   0.179   0.547  0.00  0.00    -0.080 A 
ATOM      5  C6  UNL d   1       2.144  -0.967   1.463  0.00  0.00     0.076 C 
ATOM      6  C7  UNL d   1       1.618   0.447  -0.543  0.00  0.00     0.002 A 
ATOM      7  C8  UNL d   1       1.910   1.494  -1.420  0.00  0.00     0.006 A 
ENDROOT
BRANCH   1   8
ATOM      8  C1  UNL d   1       3.389   3.382  -2.202  0.00  0.00     0.054 C 
ATOM      9  C   UNL d   1       4.838   3.272  -2.657  0.00  0.00     0.018 C 
ENDBRANCH   1   8
TORSDOF 1
ENDMDL
