MODEL 1
REMARK minimizedAffinity 9.98647785
REMARK minimizedRMSD -1
REMARK  1 active torsions:
REMARK  status: ('A' for Active; 'I' for Inactive)
REMARK    1  A    between atoms: C1_2  and  C2_3 
ROOT
ATOM      1  C2  UNL d   1       3.115   0.572  -0.261  0.00  0.00    -0.081 A 
ATOM      2  C3  UNL d   1       3.198  -0.205   0.901  0.00  0.00     0.006 A 
ATOM      3  C4  UNL d   1       2.577  -1.455   0.963  0.00  0.00     0.002 A 
ATOM      4  C5  UNL d   1       1.869  -1.951  -0.138  0.00  0.00    -0.080 A 
ATOM      5  C6  UNL d   1       1.223  -3.304  -0.095  0.00  0.00     0.076 C 
ATOM      6  C7  UNL d   1       1.771  -1.167  -1.292  0.00  0.00     0.002 A 
ATOM      7  C8  UNL d   1       2.392   0.083  -1.354  0.00  0.00     0.006 A 
ENDROOT
BRANCH   1   8
ATOM      8  C1  UNL d   1       3.838   1.892  -0.354  0.00  0.00     0.054 C 
ATOM      9  C   UNL d   1       4.242   2.202  -1.788  0.00  0.00     0.018 C 
ENDBRANCH   1   8
TORSDOF 1
ENDMDL
