MODEL 1
REMARK minimizedAffinity 9.82468319
REMARK minimizedRMSD -1
REMARK  1 active torsions:
REMARK  status: ('A' for Active; 'I' for Inactive)
REMARK    1  A    between atoms: C1_2  and  C2_3 
ROOT
ATOM      1  C2  UNL d   1       4.997   2.611  -1.033  0.00  0.00    -0.081 A 
ATOM      2  C3  UNL d   1       4.825   2.356   0.333  0.00  0.00     0.006 A 
ATOM      3  C4  UNL d   1       3.939   1.364   0.761  0.00  0.00     0.002 A 
ATOM      4  C5  UNL d   1       3.217   0.608  -0.167  0.00  0.00    -0.080 A 
ATOM      5  C6  UNL d   1       2.285  -0.479   0.279  0.00  0.00     0.076 C 
ATOM      6  C7  UNL d   1       3.375   0.876  -1.532  0.00  0.00     0.002 A 
ATOM      7  C8  UNL d   1       4.260   1.867  -1.961  0.00  0.00     0.006 A 
ENDROOT
BRANCH   1   8
ATOM      8  C1  UNL d   1       6.000   3.635  -1.501  0.00  0.00     0.054 C 
ATOM      9  C   UNL d   1       6.000   4.862  -0.600  0.00  0.00     0.018 C 
ENDBRANCH   1   8
TORSDOF 1
ENDMDL
