MODEL 1
REMARK minimizedAffinity 10.4167566
REMARK minimizedRMSD -1
REMARK  1 active torsions:
REMARK  status: ('A' for Active; 'I' for Inactive)
REMARK    1  A    between atoms: C1_2  and  C2_3 
ROOT
ATOM      1  C2  UNL d   1      -0.322  -4.643   5.167  0.00  0.00    -0.081 A 
ATOM      2  C3  UNL d   1       0.815  -3.908   5.522  0.00  0.00     0.006 A 
ATOM      3  C4  UNL d   1       1.165  -2.758   4.811  0.00  0.00     0.002 A 
ATOM      4  C5  UNL d   1       0.380  -2.319   3.739  0.00  0.00    -0.080 A 
ATOM      5  C6  UNL d   1       0.728  -1.069   2.987  0.00  0.00     0.076 C 
ATOM      6  C7  UNL d   1      -0.746  -3.064   3.373  0.00  0.00     0.002 A 
ATOM      7  C8  UNL d   1      -1.096  -4.214   4.083  0.00  0.00     0.006 A 
ENDROOT
BRANCH   1   8
ATOM      8  C1  UNL d   1      -0.738  -5.848   5.972  0.00  0.00     0.054 C 
ATOM      9  C   UNL d   1      -2.252  -5.999   6.000  0.00  0.00     0.018 C 
ENDBRANCH   1   8
TORSDOF 1
ENDMDL
