MODEL 1
REMARK minimizedAffinity -6.69599247
REMARK minimizedRMSD -1
REMARK  3 active torsions:
REMARK  status: ('A' for Active; 'I' for Inactive)
REMARK    1  A    between atoms: C3'_2  and  C2'_3 
REMARK    2  A    between atoms: C2'_3  and  C1'_4 
REMARK    3  A    between atoms: C1'_4  and  C1_5 
ROOT
ATOM      1  C1  N4B d   1      -0.503  -0.626   0.443  0.00  0.00    -0.075 A 
ATOM      2  C2  N4B d   1      -0.632  -2.001   0.740  0.00  0.00     0.002 A 
ATOM      3  C3  N4B d   1      -1.708  -2.448   1.467  0.00  0.00     0.002 A 
ATOM      4  C4  N4B d   1      -2.653  -1.541   1.922  0.00  0.00    -0.004 A 
ATOM      5  C5  N4B d   1      -2.534  -0.218   1.608  0.00  0.00     0.002 A 
ATOM      6  C6  N4B d   1      -1.460   0.245   0.875  0.00  0.00     0.002 A 
ENDROOT
BRANCH   1   7
ATOM      7  C1' N4B d   1       0.700  -0.079  -0.275  0.00  0.00     0.057 C 
BRANCH   7   8
ATOM      8  C2' N4B d   1       0.443   1.379  -0.645  0.00  0.00     0.009 C 
BRANCH   8   9
ATOM      9  C3' N4B d   1       1.320   1.837  -1.797  0.00  0.00     0.004 C 
ATOM     10  C4' N4B d   1       0.529   2.235  -3.007  0.00  0.00     0.003 C 
ENDBRANCH   8   9
ENDBRANCH   7   8
ENDBRANCH   1   7
TORSDOF 3
ENDMDL
