MODEL 1
REMARK minimizedAffinity -4.33479834
REMARK minimizedRMSD -1
REMARK  3 active torsions:
REMARK  status: ('A' for Active; 'I' for Inactive)
REMARK    1  A    between atoms: C3'_2  and  C2'_3 
REMARK    2  A    between atoms: C2'_3  and  C1'_4 
REMARK    3  A    between atoms: C1'_4  and  C1_5 
ROOT
ATOM      1  C1  N4B d   1      -0.213  -0.397  -0.039  0.00  0.00    -0.075 A 
ATOM      2  C2  N4B d   1      -1.558  -0.078   0.250  0.00  0.00     0.002 A 
ATOM      3  C3  N4B d   1      -2.283  -0.870   1.105  0.00  0.00     0.002 A 
ATOM      4  C4  N4B d   1      -1.693  -1.993   1.667  0.00  0.00    -0.004 A 
ATOM      5  C5  N4B d   1      -0.386  -2.280   1.403  0.00  0.00     0.002 A 
ATOM      6  C6  N4B d   1       0.356  -1.490   0.548  0.00  0.00     0.002 A 
ENDROOT
BRANCH   1   7
ATOM      7  C1' N4B d   1       0.594   0.390  -1.035  0.00  0.00     0.057 C 
BRANCH   7   8
ATOM      8  C2' N4B d   1      -0.278   0.708  -2.246  0.00  0.00     0.009 C 
BRANCH   8   9
ATOM      9  C3' N4B d   1       0.497   1.441  -3.327  0.00  0.00     0.004 C 
ATOM     10  C4' N4B d   1       1.866   1.859  -2.879  0.00  0.00     0.003 C 
ENDBRANCH   8   9
ENDBRANCH   7   8
ENDBRANCH   1   7
TORSDOF 3
ENDMDL
