MODEL 1
REMARK minimizedAffinity -5.31078911
REMARK minimizedRMSD -1
REMARK  3 active torsions:
REMARK  status: ('A' for Active; 'I' for Inactive)
REMARK    1  A    between atoms: C3'_2  and  C2'_3 
REMARK    2  A    between atoms: C2'_3  and  C1'_4 
REMARK    3  A    between atoms: C1'_4  and  C1_5 
ROOT
ATOM      1  C1  N4B d   1      -0.495  -0.380   0.471  0.00  0.00    -0.075 A 
ATOM      2  C2  N4B d   1      -0.324  -1.781   0.494  0.00  0.00     0.002 A 
ATOM      3  C3  N4B d   1      -1.307  -2.585   1.016  0.00  0.00     0.002 A 
ATOM      4  C4  N4B d   1      -2.458  -2.010   1.536  0.00  0.00    -0.004 A 
ATOM      5  C5  N4B d   1      -2.626  -0.657   1.487  0.00  0.00     0.002 A 
ATOM      6  C6  N4B d   1      -1.648   0.162   0.961  0.00  0.00     0.002 A 
ENDROOT
BRANCH   1   7
ATOM      7  C1' N4B d   1       0.589   0.545  -0.012  0.00  0.00     0.057 C 
BRANCH   7   8
ATOM      8  C2' N4B d   1      -0.012   1.561  -0.978  0.00  0.00     0.009 C 
BRANCH   8   9
ATOM      9  C3' N4B d   1       0.827   1.716  -2.235  0.00  0.00     0.004 C 
ATOM     10  C4' N4B d   1       0.043   2.254  -3.394  0.00  0.00     0.003 C 
ENDBRANCH   8   9
ENDBRANCH   7   8
ENDBRANCH   1   7
TORSDOF 3
ENDMDL
