MODEL 1
REMARK minimizedAffinity -1.40659964
REMARK minimizedRMSD -1
REMARK  3 active torsions:
REMARK  status: ('A' for Active; 'I' for Inactive)
REMARK    1  A    between atoms: C3'_2  and  C2'_3 
REMARK    2  A    between atoms: C2'_3  and  C1'_4 
REMARK    3  A    between atoms: C1'_4  and  C1_5 
ROOT
ATOM      1  C1  N4B d   1       0.460   1.419  -1.391  0.00  0.00    -0.075 A 
ATOM      2  C2  N4B d   1      -0.618   1.914  -2.157  0.00  0.00     0.002 A 
ATOM      3  C3  N4B d   1      -0.425   2.256  -3.473  0.00  0.00     0.002 A 
ATOM      4  C4  N4B d   1       0.835   2.130  -4.036  0.00  0.00    -0.004 A 
ATOM      5  C5  N4B d   1       1.866   1.627  -3.297  0.00  0.00     0.002 A 
ATOM      6  C6  N4B d   1       1.685   1.276  -1.974  0.00  0.00     0.002 A 
ENDROOT
BRANCH   1   7
ATOM      7  C1' N4B d   1       0.318   1.114   0.075  0.00  0.00     0.057 C 
BRANCH   7   8
ATOM      8  C2' N4B d   1      -0.370  -0.238   0.241  0.00  0.00     0.009 C 
BRANCH   8   9
ATOM      9  C3' N4B d   1       0.628  -1.357   0.486  0.00  0.00     0.004 C 
ATOM     10  C4' N4B d   1       0.058  -2.474   1.308  0.00  0.00     0.003 C 
ENDBRANCH   8   9
ENDBRANCH   7   8
ENDBRANCH   1   7
TORSDOF 3
ENDMDL
