MODEL 1
REMARK minimizedAffinity -2.49980545
REMARK minimizedRMSD -1
REMARK  3 active torsions:
REMARK  status: ('A' for Active; 'I' for Inactive)
REMARK    1  A    between atoms: C3'_2  and  C2'_3 
REMARK    2  A    between atoms: C2'_3  and  C1'_4 
REMARK    3  A    between atoms: C1'_4  and  C1_5 
ROOT
ATOM      1  C1  N4B d   1       1.022   1.871  -1.768  0.00  0.00    -0.075 A 
ATOM      2  C2  N4B d   1       2.362   1.601  -2.126  0.00  0.00     0.002 A 
ATOM      3  C3  N4B d   1       2.770   1.763  -3.427  0.00  0.00     0.002 A 
ATOM      4  C4  N4B d   1       1.857   2.173  -4.387  0.00  0.00    -0.004 A 
ATOM      5  C5  N4B d   1       0.571   2.456  -4.028  0.00  0.00     0.002 A 
ATOM      6  C6  N4B d   1       0.148   2.302  -2.723  0.00  0.00     0.002 A 
ENDROOT
BRANCH   1   7
ATOM      7  C1' N4B d   1       0.508   1.626  -0.376  0.00  0.00     0.057 C 
BRANCH   7   8
ATOM      8  C2' N4B d   1       0.374   0.123  -0.148  0.00  0.00     0.009 C 
BRANCH   8   9
ATOM      9  C3' N4B d   1      -1.078  -0.306  -0.026  0.00  0.00     0.004 C 
ATOM     10  C4' N4B d   1      -1.245  -1.573   0.758  0.00  0.00     0.003 C 
ENDBRANCH   8   9
ENDBRANCH   7   8
ENDBRANCH   1   7
TORSDOF 3
ENDMDL
