MODEL 1
REMARK minimizedAffinity -4.93808317
REMARK minimizedRMSD -1
REMARK  3 active torsions:
REMARK  status: ('A' for Active; 'I' for Inactive)
REMARK    1  A    between atoms: C3'_2  and  C2'_3 
REMARK    2  A    between atoms: C2'_3  and  C1'_4 
REMARK    3  A    between atoms: C1'_4  and  C1_5 
ROOT
ATOM      1  C1  N4B d   1      -0.714  -0.491   0.453  0.00  0.00    -0.075 A 
ATOM      2  C2  N4B d   1      -0.942  -1.820   0.875  0.00  0.00     0.002 A 
ATOM      3  C3  N4B d   1      -2.049  -2.119   1.632  0.00  0.00     0.002 A 
ATOM      4  C4  N4B d   1      -2.927  -1.108   1.993  0.00  0.00    -0.004 A 
ATOM      5  C5  N4B d   1      -2.712   0.168   1.560  0.00  0.00     0.002 A 
ATOM      6  C6  N4B d   1      -1.607   0.483   0.795  0.00  0.00     0.002 A 
ENDROOT
BRANCH   1   7
ATOM      7  C1' N4B d   1       0.527  -0.101  -0.303  0.00  0.00     0.057 C 
BRANCH   7   8
ATOM      8  C2' N4B d   1       0.640   1.421  -0.327  0.00  0.00     0.009 C 
BRANCH   8   9
ATOM      9  C3' N4B d   1       1.596   1.902  -1.405  0.00  0.00     0.004 C 
ATOM     10  C4' N4B d   1       0.897   2.276  -2.677  0.00  0.00     0.003 C 
ENDBRANCH   8   9
ENDBRANCH   7   8
ENDBRANCH   1   7
TORSDOF 3
ENDMDL
