MODEL 1
REMARK minimizedAffinity -4.67608213
REMARK minimizedRMSD -1
REMARK  0 active torsions:
REMARK  status: ('A' for Active; 'I' for Inactive)
ROOT
ATOM      1  C4' PXY d   1      -4.516  -2.637  -3.323  0.00  0.00     0.077 C 
ATOM      2  C1' PXY d   1      -1.698   2.374  -3.921  0.00  0.00     0.077 C 
ATOM      3  C1  PXY d   1      -2.432   1.059  -3.752  0.00  0.00    -0.082 A 
ATOM      4  C2  PXY d   1      -2.802   0.375  -4.822  0.00  0.00     0.003 A 
ATOM      5  C3  PXY d   1      -3.495  -0.801  -4.689  0.00  0.00     0.003 A 
ATOM      6  C4  PXY d   1      -3.764  -1.309  -3.446  0.00  0.00    -0.082 A 
ATOM      7  C5  PXY d   1      -3.380  -0.623  -2.349  0.00  0.00     0.003 A 
ATOM      8  C6  PXY d   1      -2.714   0.590  -2.506  0.00  0.00     0.003 A 
ENDROOT
TORSDOF 0
ENDMDL
