MODEL 1
REMARK minimizedAffinity 3.92630672
REMARK minimizedRMSD -1
REMARK  0 active torsions:
REMARK  status: ('A' for Active; 'I' for Inactive)
ROOT
ATOM      1  C4' PXY d   1       0.268   5.953  -5.559  0.00  0.00     0.077 C 
ATOM      2  C1' PXY d   1       5.469   3.463  -5.962  0.00  0.00     0.077 C 
ATOM      3  C1  PXY d   1       4.100   4.107  -5.864  0.00  0.00    -0.082 A 
ATOM      4  C2  PXY d   1       4.003   5.407  -5.639  0.00  0.00     0.003 A 
ATOM      5  C3  PXY d   1       2.773   5.999  -5.515  0.00  0.00     0.003 A 
ATOM      6  C4  PXY d   1       1.630   5.263  -5.676  0.00  0.00    -0.082 A 
ATOM      7  C5  PXY d   1       1.720   3.938  -5.916  0.00  0.00     0.003 A 
ATOM      8  C6  PXY d   1       2.978   3.348  -5.997  0.00  0.00     0.003 A 
ENDROOT
TORSDOF 0
ENDMDL
