MODEL 1
REMARK minimizedAffinity 2.8978076
REMARK minimizedRMSD -1
REMARK  0 active torsions:
REMARK  status: ('A' for Active; 'I' for Inactive)
ROOT
ATOM      1  C4' PXY d   1      -4.491  -1.534  -6.000  0.00  0.00     0.077 C 
ATOM      2  C1' PXY d   1      -3.271   0.783  -0.847  0.00  0.00     0.077 C 
ATOM      3  C1  PXY d   1      -3.597   0.187  -2.202  0.00  0.00    -0.082 A 
ATOM      4  C2  PXY d   1      -3.726  -1.124  -2.326  0.00  0.00     0.003 A 
ATOM      5  C3  PXY d   1      -3.989  -1.683  -3.550  0.00  0.00     0.003 A 
ATOM      6  C4  PXY d   1      -4.173  -0.887  -4.649  0.00  0.00    -0.082 A 
ATOM      7  C5  PXY d   1      -4.052   0.452  -4.529  0.00  0.00     0.003 A 
ATOM      8  C6  PXY d   1      -3.745   0.996  -3.286  0.00  0.00     0.003 A 
ENDROOT
TORSDOF 0
ENDMDL
