MODEL 1
REMARK minimizedAffinity 4.52477121
REMARK minimizedRMSD -1
REMARK  0 active torsions:
REMARK  status: ('A' for Active; 'I' for Inactive)
ROOT
ATOM      1  C4' PXY d   1      -3.751  -1.849  -6.000  0.00  0.00     0.077 C 
ATOM      2  C1' PXY d   1      -3.699   1.297  -1.150  0.00  0.00     0.077 C 
ATOM      3  C1  PXY d   1      -3.718   0.482  -2.428  0.00  0.00    -0.082 A 
ATOM      4  C2  PXY d   1      -3.744  -0.839  -2.361  0.00  0.00     0.003 A 
ATOM      5  C3  PXY d   1      -3.729  -1.592  -3.507  0.00  0.00     0.003 A 
ATOM      6  C4  PXY d   1      -3.741  -0.985  -4.735  0.00  0.00    -0.082 A 
ATOM      7  C5  PXY d   1      -3.725   0.362  -4.811  0.00  0.00     0.003 A 
ATOM      8  C6  PXY d   1      -3.698   1.108  -3.636  0.00  0.00     0.003 A 
ENDROOT
TORSDOF 0
ENDMDL
