MODEL 1
REMARK minimizedAffinity -1.33618355
REMARK minimizedRMSD -1
REMARK  0 active torsions:
REMARK  status: ('A' for Active; 'I' for Inactive)
ROOT
ATOM      1  C4' PXY d   1      -0.188   4.319  -6.000  0.00  0.00     0.077 C 
ATOM      2  C1' PXY d   1      -5.952   4.304  -5.558  0.00  0.00     0.077 C 
ATOM      3  C1  PXY d   1      -4.440   4.297  -5.667  0.00  0.00    -0.082 A 
ATOM      4  C2  PXY d   1      -3.793   5.434  -5.866  0.00  0.00     0.003 A 
ATOM      5  C3  PXY d   1      -2.428   5.441  -5.999  0.00  0.00     0.003 A 
ATOM      6  C4  PXY d   1      -1.714   4.280  -5.874  0.00  0.00    -0.082 A 
ATOM      7  C5  PXY d   1      -2.366   3.117  -5.660  0.00  0.00     0.003 A 
ATOM      8  C6  PXY d   1      -3.755   3.125  -5.569  0.00  0.00     0.003 A 
ENDROOT
TORSDOF 0
ENDMDL
