MODEL 1
REMARK minimizedAffinity 0.213624179
REMARK minimizedRMSD -1
REMARK  0 active torsions:
REMARK  status: ('A' for Active; 'I' for Inactive)
ROOT
ATOM      1  C4' PXY d   1      -6.000   1.635  -4.875  0.00  0.00     0.077 C 
ATOM      2  C1' PXY d   1      -1.482  -1.970  -4.927  0.00  0.00     0.077 C 
ATOM      3  C1  PXY d   1      -2.673  -1.033  -4.907  0.00  0.00    -0.082 A 
ATOM      4  C2  PXY d   1      -2.809  -0.126  -5.860  0.00  0.00     0.003 A 
ATOM      5  C3  PXY d   1      -3.864   0.750  -5.839  0.00  0.00     0.003 A 
ATOM      6  C4  PXY d   1      -4.818   0.662  -4.861  0.00  0.00    -0.082 A 
ATOM      7  C5  PXY d   1      -4.692  -0.267  -3.890  0.00  0.00     0.003 A 
ATOM      8  C6  PXY d   1      -3.592  -1.120  -3.907  0.00  0.00     0.003 A 
ENDROOT
TORSDOF 0
ENDMDL
