MODEL 1
REMARK minimizedAffinity 7.49419594
REMARK minimizedRMSD -1
REMARK  0 active torsions:
REMARK  status: ('A' for Active; 'I' for Inactive)
ROOT
ATOM      1  C4' PXY d   1      -6.000   3.671  -5.090  0.00  0.00     0.077 C 
ATOM      2  C1' PXY d   1      -2.872  -1.179  -5.424  0.00  0.00     0.077 C 
ATOM      3  C1  PXY d   1      -3.703   0.086  -5.339  0.00  0.00    -0.082 A 
ATOM      4  C2  PXY d   1      -3.132   1.260  -5.554  0.00  0.00     0.003 A 
ATOM      5  C3  PXY d   1      -3.861   2.417  -5.450  0.00  0.00     0.003 A 
ATOM      6  C4  PXY d   1      -5.202   2.367  -5.175  0.00  0.00    -0.082 A 
ATOM      7  C5  PXY d   1      -5.795   1.173  -4.964  0.00  0.00     0.003 A 
ATOM      8  C6  PXY d   1      -5.028   0.014  -5.035  0.00  0.00     0.003 A 
ENDROOT
TORSDOF 0
ENDMDL
