MODEL 1
REMARK minimizedAffinity -0.841545701
REMARK minimizedRMSD -1
REMARK  0 active torsions:
REMARK  status: ('A' for Active; 'I' for Inactive)
ROOT
ATOM      1  C4' PXY d   1       5.987  -4.271   6.000  0.00  0.00     0.077 C 
ATOM      2  C1' PXY d   1       2.981  -3.027   1.221  0.00  0.00     0.077 C 
ATOM      3  C1  PXY d   1       3.773  -3.341   2.475  0.00  0.00    -0.082 A 
ATOM      4  C2  PXY d   1       4.177  -4.580   2.701  0.00  0.00     0.003 A 
ATOM      5  C3  PXY d   1       4.867  -4.888   3.845  0.00  0.00     0.003 A 
ATOM      6  C4  PXY d   1       5.193  -3.906   4.743  0.00  0.00    -0.082 A 
ATOM      7  C5  PXY d   1       4.793  -2.637   4.514  0.00  0.00     0.003 A 
ATOM      8  C6  PXY d   1       4.058  -2.353   3.367  0.00  0.00     0.003 A 
ENDROOT
TORSDOF 0
ENDMDL
