MODEL 1
REMARK minimizedAffinity -4.35946608
REMARK minimizedRMSD -1
REMARK  0 active torsions:
REMARK  status: ('A' for Active; 'I' for Inactive)
ROOT
ATOM      1  C   UNL d   1       2.437  -1.920   0.105  0.00  0.00     0.020 A 
ATOM      2  C1  UNL d   1       1.295  -2.485  -0.461  0.00  0.00     0.020 A 
ATOM      3  C2  UNL d   1       0.144  -1.711  -0.628  0.00  0.00     0.034 A 
ATOM      4  C3  UNL d   1       0.133  -0.370  -0.230  0.00  0.00     0.017 A 
ATOM      5  C4  UNL d   1       1.280   0.196   0.338  0.00  0.00     0.017 A 
ATOM      6  C5  UNL d   1       2.430  -0.583   0.503  0.00  0.00     0.034 A 
ATOM      7 Cl   UNL d   1       1.343   1.844   0.854  0.00  0.00    -0.070 Cl
ATOM      8 Cl1  UNL d   1      -1.325   0.527  -0.468  0.00  0.00    -0.070 Cl
ENDROOT
TORSDOF 0
ENDMDL
