MODEL 1
REMARK minimizedAffinity -3.51286149
REMARK minimizedRMSD -1
REMARK  0 active torsions:
REMARK  status: ('A' for Active; 'I' for Inactive)
ROOT
ATOM      1  C   UNL d   1      -0.120   1.493  -0.507  0.00  0.00     0.020 A 
ATOM      2  C1  UNL d   1       1.013   1.829   0.233  0.00  0.00     0.020 A 
ATOM      3  C2  UNL d   1       1.844   0.824   0.733  0.00  0.00     0.034 A 
ATOM      4  C3  UNL d   1       1.543  -0.522   0.493  0.00  0.00     0.017 A 
ATOM      5  C4  UNL d   1       0.405  -0.858  -0.250  0.00  0.00     0.017 A 
ATOM      6  C5  UNL d   1      -0.423   0.153  -0.748  0.00  0.00     0.034 A 
ATOM      7 Cl   UNL d   1      -0.031  -2.496  -0.586  0.00  0.00    -0.070 Cl
ATOM      8 Cl1  UNL d   1       2.614  -1.713   1.141  0.00  0.00    -0.070 Cl
ENDROOT
TORSDOF 0
ENDMDL
