MODEL 1
REMARK minimizedAffinity -2.46653485
REMARK minimizedRMSD -1
REMARK  0 active torsions:
REMARK  status: ('A' for Active; 'I' for Inactive)
ROOT
ATOM      1  C   UNL d   1       2.584  -1.199  -0.672  0.00  0.00     0.020 A 
ATOM      2  C1  UNL d   1       1.436  -1.988  -0.599  0.00  0.00     0.020 A 
ATOM      3  C2  UNL d   1       0.182  -1.386  -0.480  0.00  0.00     0.034 A 
ATOM      4  C3  UNL d   1       0.072   0.008  -0.435  0.00  0.00     0.017 A 
ATOM      5  C4  UNL d   1       1.224   0.799  -0.508  0.00  0.00     0.017 A 
ATOM      6  C5  UNL d   1       2.478   0.192  -0.627  0.00  0.00     0.034 A 
ATOM      7 Cl   UNL d   1       1.168   2.526  -0.458  0.00  0.00    -0.070 Cl
ATOM      8 Cl1  UNL d   1      -1.511   0.685  -0.287  0.00  0.00    -0.070 Cl
ENDROOT
TORSDOF 0
ENDMDL
