MODEL 1
REMARK minimizedAffinity 0.565267384
REMARK minimizedRMSD -1
REMARK  0 active torsions:
REMARK  status: ('A' for Active; 'I' for Inactive)
ROOT
ATOM      1  C   UNL d   1      -0.489   1.438  -0.419  0.00  0.00     0.020 A 
ATOM      2  C1  UNL d   1       0.721   1.760   0.194  0.00  0.00     0.020 A 
ATOM      3  C2  UNL d   1       1.690   0.773   0.388  0.00  0.00     0.034 A 
ATOM      4  C3  UNL d   1       1.450  -0.541  -0.031  0.00  0.00     0.017 A 
ATOM      5  C4  UNL d   1       0.235  -0.863  -0.647  0.00  0.00     0.017 A 
ATOM      6  C5  UNL d   1      -0.731   0.129  -0.839  0.00  0.00     0.034 A 
ATOM      7 Cl   UNL d   1      -0.132  -2.462  -1.192  0.00  0.00    -0.070 Cl
ATOM      8 Cl1  UNL d   1       2.693  -1.710   0.240  0.00  0.00    -0.070 Cl
ENDROOT
TORSDOF 0
ENDMDL
