MODEL 1
REMARK minimizedAffinity -4.40320873
REMARK minimizedRMSD -1
REMARK  0 active torsions:
REMARK  status: ('A' for Active; 'I' for Inactive)
ROOT
ATOM      1  C   UNL d   1      -0.613  -1.369  -0.652  0.00  0.00     0.020 A 
ATOM      2  C1  UNL d   1      -1.023  -0.050  -0.842  0.00  0.00     0.020 A 
ATOM      3  C2  UNL d   1      -0.199   1.002  -0.437  0.00  0.00     0.034 A 
ATOM      4  C3  UNL d   1       1.040   0.737   0.158  0.00  0.00     0.017 A 
ATOM      5  C4  UNL d   1       1.451  -0.587   0.348  0.00  0.00     0.017 A 
ATOM      6  C5  UNL d   1       0.622  -1.637  -0.059  0.00  0.00     0.034 A 
ATOM      7 Cl   UNL d   1       2.965  -0.992   1.075  0.00  0.00    -0.070 Cl
ATOM      8 Cl1  UNL d   1       2.007   2.088   0.633  0.00  0.00    -0.070 Cl
ENDROOT
TORSDOF 0
ENDMDL
