MODEL 1
REMARK minimizedAffinity -4.46246338
REMARK minimizedRMSD -1
REMARK  0 active torsions:
REMARK  status: ('A' for Active; 'I' for Inactive)
ROOT
ATOM      1  C   UNL d   1       2.679   0.383   0.655  0.00  0.00     0.020 A 
ATOM      2  C1  UNL d   1       3.021  -0.952   0.442  0.00  0.00     0.020 A 
ATOM      3  C2  UNL d   1       2.047  -1.866   0.035  0.00  0.00     0.034 A 
ATOM      4  C3  UNL d   1       0.726  -1.447  -0.161  0.00  0.00     0.017 A 
ATOM      5  C4  UNL d   1       0.384  -0.107   0.053  0.00  0.00     0.017 A 
ATOM      6  C5  UNL d   1       1.363   0.804   0.460  0.00  0.00     0.034 A 
ATOM      7 Cl   UNL d   1      -1.225   0.485  -0.168  0.00  0.00    -0.070 Cl
ATOM      8 Cl1  UNL d   1      -0.426  -2.632  -0.665  0.00  0.00    -0.070 Cl
ENDROOT
TORSDOF 0
ENDMDL
