MODEL 1
REMARK minimizedAffinity -3.00625443
REMARK minimizedRMSD -1
REMARK  0 active torsions:
REMARK  status: ('A' for Active; 'I' for Inactive)
ROOT
ATOM      1  C   UNL d   1      -0.900   0.405  -0.883  0.00  0.00     0.020 A 
ATOM      2  C1  UNL d   1      -0.630  -0.958  -0.998  0.00  0.00     0.020 A 
ATOM      3  C2  UNL d   1       0.570  -1.476  -0.506  0.00  0.00     0.034 A 
ATOM      4  C3  UNL d   1       1.504  -0.631   0.103  0.00  0.00     0.017 A 
ATOM      5  C4  UNL d   1       1.233   0.738   0.218  0.00  0.00     0.017 A 
ATOM      6  C5  UNL d   1       0.030   1.251  -0.277  0.00  0.00     0.034 A 
ATOM      7 Cl   UNL d   1       2.337   1.843   0.957  0.00  0.00    -0.070 Cl
ATOM      8 Cl1  UNL d   1       2.967  -1.340   0.689  0.00  0.00    -0.070 Cl
ENDROOT
TORSDOF 0
ENDMDL
