MODEL 1
REMARK minimizedAffinity -3.26002336
REMARK minimizedRMSD -1
REMARK  0 active torsions:
REMARK  status: ('A' for Active; 'I' for Inactive)
ROOT
ATOM      1  C   UNL d   1       2.671  -1.182   0.197  0.00  0.00     0.020 A 
ATOM      2  C1  UNL d   1       1.520  -1.969   0.207  0.00  0.00     0.020 A 
ATOM      3  C2  UNL d   1       0.270  -1.376   0.399  0.00  0.00     0.034 A 
ATOM      4  C3  UNL d   1       0.168   0.008   0.581  0.00  0.00     0.017 A 
ATOM      5  C4  UNL d   1       1.324   0.797   0.570  0.00  0.00     0.017 A 
ATOM      6  C5  UNL d   1       2.573   0.198   0.378  0.00  0.00     0.034 A 
ATOM      7 Cl   UNL d   1       1.279   2.511   0.788  0.00  0.00    -0.070 Cl
ATOM      8 Cl1  UNL d   1      -1.409   0.674   0.813  0.00  0.00    -0.070 Cl
ENDROOT
TORSDOF 0
ENDMDL
