MODEL 1
REMARK minimizedAffinity -0.397025585
REMARK minimizedRMSD -1
REMARK  0 active torsions:
REMARK  status: ('A' for Active; 'I' for Inactive)
ROOT
ATOM      1  C   UNL d   1       2.367  -2.254  -0.586  0.00  0.00     0.020 A 
ATOM      2  C1  UNL d   1       3.542  -1.506  -0.543  0.00  0.00     0.020 A 
ATOM      3  C2  UNL d   1       3.483  -0.124  -0.347  0.00  0.00     0.034 A 
ATOM      4  C3  UNL d   1       2.247   0.513  -0.193  0.00  0.00     0.017 A 
ATOM      5  C4  UNL d   1       1.067  -0.239  -0.236  0.00  0.00     0.017 A 
ATOM      6  C5  UNL d   1       1.132  -1.622  -0.432  0.00  0.00     0.034 A 
ATOM      7 Cl   UNL d   1      -0.495   0.476  -0.054  0.00  0.00    -0.070 Cl
ATOM      8 Cl1  UNL d   1       2.249   2.224   0.046  0.00  0.00    -0.070 Cl
ENDROOT
TORSDOF 0
ENDMDL
