MODEL 1
REMARK minimizedAffinity -3.36705422
REMARK minimizedRMSD -1
REMARK  0 active torsions:
REMARK  status: ('A' for Active; 'I' for Inactive)
ROOT
ATOM      1  C   UNL d   1       1.919  -1.946   0.013  0.00  0.00     0.020 A 
ATOM      2  C1  UNL d   1       0.706  -2.195  -0.629  0.00  0.00     0.020 A 
ATOM      3  C2  UNL d   1      -0.205  -1.155  -0.828  0.00  0.00     0.034 A 
ATOM      4  C3  UNL d   1       0.096   0.138  -0.384  0.00  0.00     0.017 A 
ATOM      5  C4  UNL d   1       1.313   0.387   0.260  0.00  0.00     0.017 A 
ATOM      6  C5  UNL d   1       2.221  -0.658   0.456  0.00  0.00     0.034 A 
ATOM      7 Cl   UNL d   1       1.754   1.956   0.835  0.00  0.00    -0.070 Cl
ATOM      8 Cl1  UNL d   1      -1.077   1.376  -0.664  0.00  0.00    -0.070 Cl
ENDROOT
TORSDOF 0
ENDMDL
