MODEL 1
REMARK minimizedAffinity -3.76796961
REMARK minimizedRMSD -1
REMARK  0 active torsions:
REMARK  status: ('A' for Active; 'I' for Inactive)
ROOT
ATOM      1  C   UNL d   1       2.740  -1.495  -0.356  0.00  0.00     0.020 A 
ATOM      2  C1  UNL d   1       1.468  -2.060  -0.447  0.00  0.00     0.020 A 
ATOM      3  C2  UNL d   1       0.341  -1.237  -0.507  0.00  0.00     0.034 A 
ATOM      4  C3  UNL d   1       0.484   0.155  -0.476  0.00  0.00     0.017 A 
ATOM      5  C4  UNL d   1       1.760   0.721  -0.384  0.00  0.00     0.017 A 
ATOM      6  C5  UNL d   1       2.885  -0.108  -0.324  0.00  0.00     0.034 A 
ATOM      7 Cl   UNL d   1       2.016   2.430  -0.340  0.00  0.00    -0.070 Cl
ATOM      8 Cl1  UNL d   1      -0.953   1.111  -0.554  0.00  0.00    -0.070 Cl
ENDROOT
TORSDOF 0
ENDMDL
