MODEL 1
REMARK minimizedAffinity -2.38498592
REMARK minimizedRMSD -1
REMARK  0 active torsions:
REMARK  status: ('A' for Active; 'I' for Inactive)
ROOT
ATOM      1  C   UNL d   1       1.039  -1.580   0.003  0.00  0.00     0.020 A 
ATOM      2  C1  UNL d   1      -0.019  -2.045   0.782  0.00  0.00     0.020 A 
ATOM      3  C2  UNL d   1      -1.033  -1.170   1.178  0.00  0.00     0.034 A 
ATOM      4  C3  UNL d   1      -0.990   0.176   0.794  0.00  0.00     0.017 A 
ATOM      5  C4  UNL d   1       0.073   0.642   0.012  0.00  0.00     0.017 A 
ATOM      6  C5  UNL d   1       1.085  -0.239  -0.381  0.00  0.00     0.034 A 
ATOM      7 Cl   UNL d   1       0.194   2.288  -0.500  0.00  0.00    -0.070 Cl
ATOM      8 Cl1  UNL d   1      -2.277   1.202   1.319  0.00  0.00    -0.070 Cl
ENDROOT
TORSDOF 0
ENDMDL
