MODEL 1
REMARK minimizedAffinity 4.76374626
REMARK minimizedRMSD -1
REMARK  0 active torsions:
REMARK  status: ('A' for Active; 'I' for Inactive)
ROOT
ATOM      1  C   UNL d   1      -0.626  -1.069  -0.759  0.00  0.00     0.020 A 
ATOM      2  C1  UNL d   1      -0.438  -1.072  -2.141  0.00  0.00     0.020 A 
ATOM      3  C2  UNL d   1       0.760  -1.544  -2.681  0.00  0.00     0.034 A 
ATOM      4  C3  UNL d   1       1.775  -2.014  -1.840  0.00  0.00     0.017 A 
ATOM      5  C4  UNL d   1       1.585  -2.011  -0.453  0.00  0.00     0.017 A 
ATOM      6  C5  UNL d   1       0.383  -1.538   0.083  0.00  0.00     0.034 A 
ATOM      7 Cl   UNL d   1       2.791  -2.576   0.649  0.00  0.00    -0.070 Cl
ATOM      8 Cl1  UNL d   1       3.231  -2.584  -2.576  0.00  0.00    -0.070 Cl
ENDROOT
TORSDOF 0
ENDMDL
