MODEL 1
REMARK minimizedAffinity 6.56652069
REMARK minimizedRMSD -1
REMARK  1 active torsions:
REMARK  status: ('A' for Active; 'I' for Inactive)
REMARK    1  A    between atoms: C1_2  and  C2_3 
ROOT
ATOM      1  C2  UNL d   1       1.135  -3.312   0.521  0.00  0.00    -0.077 A 
ATOM      2  C3  UNL d   1       0.528  -3.224   1.781  0.00  0.00     0.002 A 
ATOM      3  C4  UNL d   1       0.610  -2.045   2.524  0.00  0.00     0.002 A 
ATOM      4  C5  UNL d   1       1.295  -0.944   2.014  0.00  0.00    -0.004 A 
ATOM      5  C6  UNL d   1       1.904  -1.022   0.762  0.00  0.00     0.002 A 
ATOM      6  C7  UNL d   1       1.824  -2.200   0.019  0.00  0.00     0.002 A 
ENDROOT
BRANCH   1   7
ATOM      7  C1  UNL d   1       1.006  -4.566  -0.303  0.00  0.00     0.055 C 
ATOM      8  C   UNL d   1       1.500  -5.785   0.462  0.00  0.00     0.019 C 
ENDBRANCH   1   7
TORSDOF 1
ENDMDL
