MODEL 1
REMARK minimizedAffinity -1.24528396
REMARK minimizedRMSD -1
REMARK  1 active torsions:
REMARK  status: ('A' for Active; 'I' for Inactive)
REMARK    1  A    between atoms: C1_2  and  C2_3 
ROOT
ATOM      1  C2  UNL d   1       4.836   4.877  -4.605  0.00  0.00    -0.077 A 
ATOM      2  C3  UNL d   1       5.982   5.507  -4.099  0.00  0.00     0.002 A 
ATOM      3  C4  UNL d   1       6.000   5.996  -2.791  0.00  0.00     0.002 A 
ATOM      4  C5  UNL d   1       4.877   5.855  -1.978  0.00  0.00    -0.004 A 
ATOM      5  C6  UNL d   1       3.733   5.231  -2.473  0.00  0.00     0.002 A 
ATOM      6  C7  UNL d   1       3.713   4.744  -3.780  0.00  0.00     0.002 A 
ENDROOT
BRANCH   1   7
ATOM      7  C1  UNL d   1       4.832   4.306  -5.999  0.00  0.00     0.055 C 
ATOM      8  C   UNL d   1       4.541   2.812  -5.985  0.00  0.00     0.019 C 
ENDBRANCH   1   7
TORSDOF 1
ENDMDL
