MODEL 1
REMARK minimizedAffinity 6.0784359
REMARK minimizedRMSD -1
REMARK  1 active torsions:
REMARK  status: ('A' for Active; 'I' for Inactive)
REMARK    1  A    between atoms: C1_2  and  C2_3 
ROOT
ATOM      1  C2  UNL d   1       1.681  -3.092   2.667  0.00  0.00    -0.077 A 
ATOM      2  C3  UNL d   1       0.772  -2.520   3.568  0.00  0.00     0.002 A 
ATOM      3  C4  UNL d   1       0.473  -1.158   3.499  0.00  0.00     0.002 A 
ATOM      4  C5  UNL d   1       1.075  -0.358   2.530  0.00  0.00    -0.004 A 
ATOM      5  C6  UNL d   1       1.982  -0.918   1.632  0.00  0.00     0.002 A 
ATOM      6  C7  UNL d   1       2.284  -2.279   1.699  0.00  0.00     0.002 A 
ENDROOT
BRANCH   1   7
ATOM      7  C1  UNL d   1       1.968  -4.571   2.708  0.00  0.00     0.055 C 
ATOM      8  C   UNL d   1       1.882  -5.190   1.321  0.00  0.00     0.019 C 
ENDBRANCH   1   7
TORSDOF 1
ENDMDL
