MODEL 1
REMARK minimizedAffinity 0.05025528
REMARK minimizedRMSD -1
REMARK  1 active torsions:
REMARK  status: ('A' for Active; 'I' for Inactive)
REMARK    1  A    between atoms: C1_2  and  C2_3 
ROOT
ATOM      1  C2  UNL d   1      -3.470   2.900   0.538  0.00  0.00    -0.077 A 
ATOM      2  C3  UNL d   1      -4.080   2.818   1.798  0.00  0.00     0.002 A 
ATOM      3  C4  UNL d   1      -5.333   3.396   2.015  0.00  0.00     0.002 A 
ATOM      4  C5  UNL d   1      -5.987   4.055   0.977  0.00  0.00    -0.004 A 
ATOM      5  C6  UNL d   1      -5.388   4.143  -0.279  0.00  0.00     0.002 A 
ATOM      6  C7  UNL d   1      -4.136   3.568  -0.498  0.00  0.00     0.002 A 
ENDROOT
BRANCH   1   7
ATOM      7  C1  UNL d   1      -2.141   2.236   0.288  0.00  0.00     0.055 C 
ATOM      8  C   UNL d   1      -2.164   1.417  -0.993  0.00  0.00     0.019 C 
ENDBRANCH   1   7
TORSDOF 1
ENDMDL
