MODEL 1
REMARK minimizedAffinity -3.31949306
REMARK minimizedRMSD -1
REMARK  1 active torsions:
REMARK  status: ('A' for Active; 'I' for Inactive)
REMARK    1  A    between atoms: C1_2  and  C2_3 
ROOT
ATOM      1  C2  UNL d   1      -4.665  -4.920  -3.197  0.00  0.00    -0.077 A 
ATOM      2  C3  UNL d   1      -5.254  -3.863  -3.904  0.00  0.00     0.002 A 
ATOM      3  C4  UNL d   1      -5.279  -3.875  -5.300  0.00  0.00     0.002 A 
ATOM      4  C5  UNL d   1      -4.721  -4.942  -6.000  0.00  0.00    -0.004 A 
ATOM      5  C6  UNL d   1      -4.130  -5.997  -5.306  0.00  0.00     0.002 A 
ATOM      6  C7  UNL d   1      -4.103  -5.987  -3.910  0.00  0.00     0.002 A 
ENDROOT
BRANCH   1   7
ATOM      7  C1  UNL d   1      -4.680  -4.934  -1.691  0.00  0.00     0.055 C 
ATOM      8  C   UNL d   1      -5.628  -5.997  -1.156  0.00  0.00     0.019 C 
ENDBRANCH   1   7
TORSDOF 1
ENDMDL
