MODEL 1
REMARK minimizedAffinity 12.5671043
REMARK minimizedRMSD -1
REMARK  2 active torsions:
REMARK  status: ('A' for Active; 'I' for Inactive)
REMARK    1  A    between atoms: C2'_3  and  C1'_4 
REMARK    2  A    between atoms: C1'_4  and  C1_5 
ROOT
ATOM      1  C1  I4B d   1       2.851   0.880  -0.491  0.00  0.00    -0.075 A 
ATOM      2  C2  I4B d   1       2.159   2.063  -0.429  0.00  0.00     0.003 A 
ATOM      3  C3  I4B d   1       1.594   2.496   0.795  0.00  0.00     0.002 A 
ATOM      4  C4  I4B d   1       1.700   1.694   1.913  0.00  0.00    -0.004 A 
ATOM      5  C5  I4B d   1       2.422   0.505   1.855  0.00  0.00     0.002 A 
ATOM      6  C6  I4B d   1       3.012   0.101   0.648  0.00  0.00     0.003 A 
ENDROOT
BRANCH   1   7
ATOM      7  C1' I4B d   1       3.407   0.437  -1.807  0.00  0.00     0.060 C 
BRANCH   7   8
ATOM      8  C2' I4B d   1       3.793   1.676  -2.590  0.00  0.00    -0.013 C 
ATOM      9  C4' I4B d   1       5.271   1.698  -2.880  0.00  0.00     0.013 C 
ATOM     10  C3' I4B d   1       2.992   1.690  -3.858  0.00  0.00     0.013 C 
ENDBRANCH   7   8
ENDBRANCH   1   7
TORSDOF 2
ENDMDL
