MODEL 1
REMARK minimizedAffinity 13.4645624
REMARK minimizedRMSD -1
REMARK  2 active torsions:
REMARK  status: ('A' for Active; 'I' for Inactive)
REMARK    1  A    between atoms: C2'_3  and  C1'_4 
REMARK    2  A    between atoms: C1'_4  and  C1_5 
ROOT
ATOM      1  C1  I4B d   1       1.663   1.332   1.620  0.00  0.00    -0.075 A 
ATOM      2  C2  I4B d   1       2.755   0.516   1.779  0.00  0.00     0.003 A 
ATOM      3  C3  I4B d   1       3.666   0.328   0.712  0.00  0.00     0.002 A 
ATOM      4  C4  I4B d   1       3.422   0.932  -0.504  0.00  0.00    -0.004 A 
ATOM      5  C5  I4B d   1       2.328   1.778  -0.657  0.00  0.00     0.002 A 
ATOM      6  C6  I4B d   1       1.449   1.990   0.415  0.00  0.00     0.003 A 
ENDROOT
BRANCH   1   7
ATOM      7  C1' I4B d   1       0.703   1.482   2.757  0.00  0.00     0.060 C 
BRANCH   7   8
ATOM      8  C2' I4B d   1       0.850   0.271   3.655  0.00  0.00    -0.013 C 
ATOM      9  C4' I4B d   1       1.216   0.675   5.059  0.00  0.00     0.013 C 
ATOM     10  C3' I4B d   1      -0.444  -0.485   3.630  0.00  0.00     0.013 C 
ENDBRANCH   7   8
ENDBRANCH   1   7
TORSDOF 2
ENDMDL
