MODEL 1
REMARK minimizedAffinity 17.9497948
REMARK minimizedRMSD -1
REMARK  2 active torsions:
REMARK  status: ('A' for Active; 'I' for Inactive)
REMARK    1  A    between atoms: C2'_3  and  C1'_4 
REMARK    2  A    between atoms: C1'_4  and  C1_5 
ROOT
ATOM      1  C1  I4B d   1      -1.778  -4.934  -3.720  0.00  0.00    -0.075 A 
ATOM      2  C2  I4B d   1      -0.702  -5.775  -3.577  0.00  0.00     0.003 A 
ATOM      3  C3  I4B d   1       0.196  -5.973  -4.653  0.00  0.00     0.002 A 
ATOM      4  C4  I4B d   1      -0.046  -5.354  -5.862  0.00  0.00    -0.004 A 
ATOM      5  C5  I4B d   1      -1.124  -4.483  -5.999  0.00  0.00     0.002 A 
ATOM      6  C6  I4B d   1      -1.988  -4.262  -4.917  0.00  0.00     0.003 A 
ENDROOT
BRANCH   1   7
ATOM      7  C1' I4B d   1      -2.725  -4.773  -2.573  0.00  0.00     0.060 C 
BRANCH   7   8
ATOM      8  C2' I4B d   1      -3.500  -3.488  -2.784  0.00  0.00    -0.013 C 
ATOM      9  C4' I4B d   1      -4.983  -3.746  -2.819  0.00  0.00     0.013 C 
ATOM     10  C3' I4B d   1      -3.140  -2.543  -1.676  0.00  0.00     0.013 C 
ENDBRANCH   7   8
ENDBRANCH   1   7
TORSDOF 2
ENDMDL
