MODEL 1
REMARK minimizedAffinity 8.7575655
REMARK minimizedRMSD -1
REMARK  2 active torsions:
REMARK  status: ('A' for Active; 'I' for Inactive)
REMARK    1  A    between atoms: C2'_3  and  C1'_4 
REMARK    2  A    between atoms: C1'_4  and  C1_5 
ROOT
ATOM      1  C1  I4B d   1       5.267   3.113  -4.810  0.00  0.00    -0.075 A 
ATOM      2  C2  I4B d   1       4.107   2.461  -5.149  0.00  0.00     0.003 A 
ATOM      3  C3  I4B d   1       3.545   1.504  -4.270  0.00  0.00     0.002 A 
ATOM      4  C4  I4B d   1       4.197   1.195  -3.094  0.00  0.00    -0.004 A 
ATOM      5  C5  I4B d   1       5.360   1.874  -2.741  0.00  0.00     0.002 A 
ATOM      6  C6  I4B d   1       5.892   2.848  -3.598  0.00  0.00     0.003 A 
ENDROOT
BRANCH   1   7
ATOM      7  C1' I4B d   1       5.851   4.094  -5.776  0.00  0.00     0.060 C 
BRANCH   7   8
ATOM      8  C2' I4B d   1       5.049   5.376  -5.682  0.00  0.00    -0.013 C 
ATOM      9  C4' I4B d   1       3.582   5.120  -5.909  0.00  0.00     0.013 C 
ATOM     10  C3' I4B d   1       5.291   5.975  -4.328  0.00  0.00     0.013 C 
ENDBRANCH   7   8
ENDBRANCH   1   7
TORSDOF 2
ENDMDL
