MODEL 1
REMARK minimizedAffinity 17.9988441
REMARK minimizedRMSD -1
REMARK  2 active torsions:
REMARK  status: ('A' for Active; 'I' for Inactive)
REMARK    1  A    between atoms: C2'_3  and  C1'_4 
REMARK    2  A    between atoms: C1'_4  and  C1_5 
ROOT
ATOM      1  C1  I4B d   1       2.664   0.735   1.912  0.00  0.00    -0.075 A 
ATOM      2  C2  I4B d   1       2.988   0.504   0.598  0.00  0.00     0.003 A 
ATOM      3  C3  I4B d   1       4.134  -0.259   0.271  0.00  0.00     0.002 A 
ATOM      4  C4  I4B d   1       4.950  -0.728   1.280  0.00  0.00    -0.004 A 
ATOM      5  C5  I4B d   1       4.608  -0.512   2.612  0.00  0.00     0.002 A 
ATOM      6  C6  I4B d   1       3.450   0.213   2.931  0.00  0.00     0.003 A 
ENDROOT
BRANCH   1   7
ATOM      7  C1' I4B d   1       1.464   1.573   2.222  0.00  0.00     0.060 C 
BRANCH   7   8
ATOM      8  C2' I4B d   1       1.462   2.754   1.272  0.00  0.00    -0.013 C 
ATOM      9  C4' I4B d   1       0.277   3.650   1.518  0.00  0.00     0.013 C 
ATOM     10  C3' I4B d   1       2.751   3.498   1.455  0.00  0.00     0.013 C 
ENDBRANCH   7   8
ENDBRANCH   1   7
TORSDOF 2
ENDMDL
