MODEL 1
REMARK minimizedAffinity 15.727109
REMARK minimizedRMSD -1
REMARK  2 active torsions:
REMARK  status: ('A' for Active; 'I' for Inactive)
REMARK    1  A    between atoms: C2'_3  and  C1'_4 
REMARK    2  A    between atoms: C1'_4  and  C1_5 
ROOT
ATOM      1  C1  I4B d   1       2.966   2.987  -4.426  0.00  0.00    -0.075 A 
ATOM      2  C2  I4B d   1       3.258   3.495  -5.667  0.00  0.00     0.003 A 
ATOM      3  C3  I4B d   1       2.888   4.821  -6.000  0.00  0.00     0.002 A 
ATOM      4  C4  I4B d   1       2.189   5.581  -5.085  0.00  0.00    -0.004 A 
ATOM      5  C5  I4B d   1       1.915   5.073  -3.819  0.00  0.00     0.002 A 
ATOM      6  C6  I4B d   1       2.316   3.772  -3.482  0.00  0.00     0.003 A 
ENDROOT
BRANCH   1   7
ATOM      7  C1' I4B d   1       3.342   1.572  -4.120  0.00  0.00     0.060 C 
BRANCH   7   8
ATOM      8  C2' I4B d   1       4.202   1.061  -5.258  0.00  0.00    -0.013 C 
ATOM      9  C4' I4B d   1       5.657   1.027  -4.869  0.00  0.00     0.013 C 
ATOM     10  C3' I4B d   1       3.710  -0.305  -5.633  0.00  0.00     0.013 C 
ENDBRANCH   7   8
ENDBRANCH   1   7
TORSDOF 2
ENDMDL
