MODEL 1
REMARK minimizedAffinity 11.2278442
REMARK minimizedRMSD -1
REMARK  2 active torsions:
REMARK  status: ('A' for Active; 'I' for Inactive)
REMARK    1  A    between atoms: C2'_3  and  C1'_4 
REMARK    2  A    between atoms: C1'_4  and  C1_5 
ROOT
ATOM      1  C1  I4B d   1      -3.351  -5.564  -1.175  0.00  0.00    -0.075 A 
ATOM      2  C2  I4B d   1      -4.646  -6.000  -1.047  0.00  0.00     0.003 A 
ATOM      3  C3  I4B d   1      -5.632  -5.592  -1.978  0.00  0.00     0.002 A 
ATOM      4  C4  I4B d   1      -5.292  -4.712  -2.986  0.00  0.00    -0.004 A 
ATOM      5  C5  I4B d   1      -3.973  -4.289  -3.128  0.00  0.00     0.002 A 
ATOM      6  C6  I4B d   1      -2.994  -4.727  -2.225  0.00  0.00     0.003 A 
ENDROOT
BRANCH   1   7
ATOM      7  C1' I4B d   1      -2.343  -5.988  -0.155  0.00  0.00     0.060 C 
BRANCH   7   8
ATOM      8  C2' I4B d   1      -2.547  -5.139   1.084  0.00  0.00    -0.013 C 
ATOM      9  C4' I4B d   1      -2.755  -5.997   2.304  0.00  0.00     0.013 C 
ATOM     10  C3' I4B d   1      -1.346  -4.255   1.241  0.00  0.00     0.013 C 
ENDBRANCH   7   8
ENDBRANCH   1   7
TORSDOF 2
ENDMDL
