MODEL 1
REMARK minimizedAffinity 27.1082458
REMARK minimizedRMSD -1
REMARK  2 active torsions:
REMARK  status: ('A' for Active; 'I' for Inactive)
REMARK    1  A    between atoms: C2'_3  and  C1'_4 
REMARK    2  A    between atoms: C1'_4  and  C1_5 
ROOT
ATOM      1  C1  I4B d   1      -3.041  -4.352  -1.726  0.00  0.00    -0.075 A 
ATOM      2  C2  I4B d   1      -3.474  -3.488  -2.700  0.00  0.00     0.003 A 
ATOM      3  C3  I4B d   1      -4.709  -3.714  -3.355  0.00  0.00     0.002 A 
ATOM      4  C4  I4B d   1      -5.450  -4.836  -3.043  0.00  0.00    -0.004 A 
ATOM      5  C5  I4B d   1      -5.020  -5.698  -2.038  0.00  0.00     0.002 A 
ATOM      6  C6  I4B d   1      -3.814  -5.449  -1.367  0.00  0.00     0.003 A 
ENDROOT
BRANCH   1   7
ATOM      7  C1' I4B d   1      -1.716  -4.102  -1.077  0.00  0.00     0.060 C 
BRANCH   7   8
ATOM      8  C2' I4B d   1      -1.945  -3.970   0.415  0.00  0.00    -0.013 C 
ATOM      9  C4' I4B d   1      -1.559  -5.233   1.139  0.00  0.00     0.013 C 
ATOM     10  C3' I4B d   1      -1.144  -2.800   0.903  0.00  0.00     0.013 C 
ENDBRANCH   7   8
ENDBRANCH   1   7
TORSDOF 2
ENDMDL
