MODEL 1
REMARK minimizedAffinity 13.1002302
REMARK minimizedRMSD -1
REMARK  2 active torsions:
REMARK  status: ('A' for Active; 'I' for Inactive)
REMARK    1  A    between atoms: C2'_3  and  C1'_4 
REMARK    2  A    between atoms: C1'_4  and  C1_5 
ROOT
ATOM      1  C1  I4B d   1      -1.662  -2.313  -1.053  0.00  0.00    -0.075 A 
ATOM      2  C2  I4B d   1      -2.718  -2.057  -0.215  0.00  0.00     0.003 A 
ATOM      3  C3  I4B d   1      -2.630  -2.376   1.162  0.00  0.00     0.002 A 
ATOM      4  C4  I4B d   1      -1.495  -2.994   1.645  0.00  0.00    -0.004 A 
ATOM      5  C5  I4B d   1      -0.416  -3.232   0.798  0.00  0.00     0.002 A 
ATOM      6  C6  I4B d   1      -0.495  -2.879  -0.557  0.00  0.00     0.003 A 
ENDROOT
BRANCH   1   7
ATOM      7  C1' I4B d   1      -1.801  -1.993  -2.507  0.00  0.00     0.060 C 
BRANCH   7   8
ATOM      8  C2' I4B d   1      -2.195  -3.266  -3.230  0.00  0.00    -0.013 C 
ATOM      9  C4' I4B d   1      -3.692  -3.396  -3.328  0.00  0.00     0.013 C 
ATOM     10  C3' I4B d   1      -1.563  -3.240  -4.590  0.00  0.00     0.013 C 
ENDBRANCH   7   8
ENDBRANCH   1   7
TORSDOF 2
ENDMDL
