MODEL 1
REMARK minimizedAffinity 16.0259876
REMARK minimizedRMSD -1
REMARK  2 active torsions:
REMARK  status: ('A' for Active; 'I' for Inactive)
REMARK    1  A    between atoms: C2'_3  and  C1'_4 
REMARK    2  A    between atoms: C1'_4  and  C1_5 
ROOT
ATOM      1  C1  I4B d   1       3.884   0.699  -4.182  0.00  0.00    -0.075 A 
ATOM      2  C2  I4B d   1       4.179   0.529  -2.852  0.00  0.00     0.003 A 
ATOM      3  C3  I4B d   1       3.608   1.386  -1.881  0.00  0.00     0.002 A 
ATOM      4  C4  I4B d   1       2.795   2.425  -2.284  0.00  0.00    -0.004 A 
ATOM      5  C5  I4B d   1       2.479   2.582  -3.631  0.00  0.00     0.002 A 
ATOM      6  C6  I4B d   1       3.017   1.706  -4.585  0.00  0.00     0.003 A 
ENDROOT
BRANCH   1   7
ATOM      7  C1' I4B d   1       4.529  -0.204  -5.185  0.00  0.00     0.060 C 
BRANCH   7   8
ATOM      8  C2' I4B d   1       3.802  -1.533  -5.152  0.00  0.00    -0.013 C 
ATOM      9  C4' I4B d   1       2.418  -1.411  -5.732  0.00  0.00     0.013 C 
ATOM     10  C3' I4B d   1       4.623  -2.529  -5.916  0.00  0.00     0.013 C 
ENDBRANCH   7   8
ENDBRANCH   1   7
TORSDOF 2
ENDMDL
