MODEL 1
REMARK minimizedAffinity 6.50323153
REMARK minimizedRMSD -1
REMARK  2 active torsions:
REMARK  status: ('A' for Active; 'I' for Inactive)
REMARK    1  A    between atoms: C2'_3  and  C1'_4 
REMARK    2  A    between atoms: C1'_4  and  C1_5 
ROOT
ATOM      1  C1  I4B d   1       4.248   0.540   1.704  0.00  0.00    -0.075 A 
ATOM      2  C2  I4B d   1       5.020  -0.323   0.968  0.00  0.00     0.003 A 
ATOM      3  C3  I4B d   1       5.929   0.177   0.005  0.00  0.00     0.002 A 
ATOM      4  C4  I4B d   1       5.997   1.537  -0.224  0.00  0.00    -0.004 A 
ATOM      5  C5  I4B d   1       5.230   2.412   0.540  0.00  0.00     0.002 A 
ATOM      6  C6  I4B d   1       4.359   1.912   1.519  0.00  0.00     0.003 A 
ENDROOT
BRANCH   1   7
ATOM      7  C1' I4B d   1       3.275  -0.024   2.690  0.00  0.00     0.060 C 
BRANCH   7   8
ATOM      8  C2' I4B d   1       1.877   0.258   2.179  0.00  0.00    -0.013 C 
ATOM      9  C4' I4B d   1       0.839  -0.073   3.220  0.00  0.00     0.013 C 
ATOM     10  C3' I4B d   1       1.810   1.705   1.790  0.00  0.00     0.013 C 
ENDBRANCH   7   8
ENDBRANCH   1   7
TORSDOF 2
ENDMDL
