MODEL 1
REMARK minimizedAffinity 21.9432526
REMARK minimizedRMSD -1
REMARK  2 active torsions:
REMARK  status: ('A' for Active; 'I' for Inactive)
REMARK    1  A    between atoms: C2'_3  and  C1'_4 
REMARK    2  A    between atoms: C1'_4  and  C1_5 
ROOT
ATOM      1  C1  I4B d   1       2.238   0.362   2.985  0.00  0.00    -0.075 A 
ATOM      2  C2  I4B d   1       2.418   0.388   1.624  0.00  0.00     0.003 A 
ATOM      3  C3  I4B d   1       3.597  -0.147   1.051  0.00  0.00     0.002 A 
ATOM      4  C4  I4B d   1       4.585  -0.648   1.873  0.00  0.00    -0.004 A 
ATOM      5  C5  I4B d   1       4.391  -0.694   3.251  0.00  0.00     0.002 A 
ATOM      6  C6  I4B d   1       3.205  -0.197   3.810  0.00  0.00     0.003 A 
ENDROOT
BRANCH   1   7
ATOM      7  C1' I4B d   1       0.995   0.966   3.559  0.00  0.00     0.060 C 
BRANCH   7   8
ATOM      8  C2' I4B d   1       0.644   0.201   4.819  0.00  0.00    -0.013 C 
ATOM      9  C4' I4B d   1       0.514   1.127   6.000  0.00  0.00     0.013 C 
ATOM     10  C3' I4B d   1      -0.635  -0.540   4.569  0.00  0.00     0.013 C 
ENDBRANCH   7   8
ENDBRANCH   1   7
TORSDOF 2
ENDMDL
