MODEL 1
REMARK minimizedAffinity 15.0297279
REMARK minimizedRMSD -1
REMARK  2 active torsions:
REMARK  status: ('A' for Active; 'I' for Inactive)
REMARK    1  A    between atoms: C2'_3  and  C1'_4 
REMARK    2  A    between atoms: C1'_4  and  C1_5 
ROOT
ATOM      1  C1  I4B d   1       1.308   1.899   2.378  0.00  0.00    -0.075 A 
ATOM      2  C2  I4B d   1       1.883   0.737   1.928  0.00  0.00     0.003 A 
ATOM      3  C3  I4B d   1       2.839   0.772   0.884  0.00  0.00     0.002 A 
ATOM      4  C4  I4B d   1       3.150   1.978   0.288  0.00  0.00    -0.004 A 
ATOM      5  C5  I4B d   1       2.583   3.157   0.761  0.00  0.00     0.002 A 
ATOM      6  C6  I4B d   1       1.665   3.120   1.821  0.00  0.00     0.003 A 
ENDROOT
BRANCH   1   7
ATOM      7  C1' I4B d   1       0.278   1.822   3.460  0.00  0.00     0.060 C 
BRANCH   7   8
ATOM      8  C2' I4B d   1       0.654   0.680   4.382  0.00  0.00    -0.013 C 
ATOM      9  C4' I4B d   1       0.804   1.154   5.804  0.00  0.00     0.013 C 
ATOM     10  C3' I4B d   1      -0.407  -0.374   4.272  0.00  0.00     0.013 C 
ENDBRANCH   7   8
ENDBRANCH   1   7
TORSDOF 2
ENDMDL
