MODEL 1
REMARK minimizedAffinity 12.188592
REMARK minimizedRMSD -1
REMARK  2 active torsions:
REMARK  status: ('A' for Active; 'I' for Inactive)
REMARK    1  A    between atoms: C2'_3  and  C1'_4 
REMARK    2  A    between atoms: C1'_4  and  C1_5 
ROOT
ATOM      1  C1  I4B d   1       1.989   0.847   2.136  0.00  0.00    -0.075 A 
ATOM      2  C2  I4B d   1       2.299   1.804   1.202  0.00  0.00     0.003 A 
ATOM      3  C3  I4B d   1       3.403   1.621   0.334  0.00  0.00     0.002 A 
ATOM      4  C4  I4B d   1       4.193   0.498   0.467  0.00  0.00    -0.004 A 
ATOM      5  C5  I4B d   1       3.863  -0.482   1.399  0.00  0.00     0.002 A 
ATOM      6  C6  I4B d   1       2.747  -0.313   2.231  0.00  0.00     0.003 A 
ENDROOT
BRANCH   1   7
ATOM      7  C1' I4B d   1       0.837   1.087   3.059  0.00  0.00     0.060 C 
BRANCH   7   8
ATOM      8  C2' I4B d   1       0.856   0.007   4.121  0.00  0.00    -0.013 C 
ATOM      9  C4' I4B d   1       0.969   0.600   5.501  0.00  0.00     0.013 C 
ATOM     10  C3' I4B d   1      -0.399  -0.802   3.981  0.00  0.00     0.013 C 
ENDBRANCH   7   8
ENDBRANCH   1   7
TORSDOF 2
ENDMDL
