MODEL 1
REMARK minimizedAffinity 5.47676229
REMARK minimizedRMSD -1
REMARK  0 active torsions:
REMARK  status: ('A' for Active; 'I' for Inactive)
ROOT
ATOM      1  C2' OXE d   1      -0.920  -5.999  -1.670  0.00  0.00     0.078 C 
ATOM      2  C1' OXE d   1       1.374  -5.980  -3.288  0.00  0.00     0.078 C 
ATOM      3  C1  OXE d   1       1.568  -5.981  -1.792  0.00  0.00    -0.078 A 
ATOM      4  C2  OXE d   1       0.440  -5.944  -1.008  0.00  0.00    -0.078 A 
ATOM      5  C3  OXE d   1       0.561  -5.999   0.377  0.00  0.00     0.003 A 
ATOM      6  C4  OXE d   1       1.823  -5.937   0.981  0.00  0.00    -0.002 A 
ATOM      7  C5  OXE d   1       2.984  -5.935   0.201  0.00  0.00    -0.002 A 
ATOM      8  C6  OXE d   1       2.875  -6.000  -1.183  0.00  0.00     0.003 A 
ENDROOT
TORSDOF 0
ENDMDL
