MODEL 1
REMARK minimizedAffinity 1.28304815
REMARK minimizedRMSD -1
REMARK  0 active torsions:
REMARK  status: ('A' for Active; 'I' for Inactive)
ROOT
ATOM      1  C2' OXE d   1       4.562  -5.285  -1.694  0.00  0.00     0.078 C 
ATOM      2  C1' OXE d   1       2.150  -6.000  -2.939  0.00  0.00     0.078 C 
ATOM      3  C1  OXE d   1       3.361  -5.802  -3.815  0.00  0.00    -0.078 A 
ATOM      4  C2  OXE d   1       4.526  -5.406  -3.202  0.00  0.00    -0.078 A 
ATOM      5  C3  OXE d   1       5.687  -5.262  -3.957  0.00  0.00     0.003 A 
ATOM      6  C4  OXE d   1       5.643  -5.367  -5.352  0.00  0.00    -0.002 A 
ATOM      7  C5  OXE d   1       4.457  -5.729  -6.000  0.00  0.00    -0.002 A 
ATOM      8  C6  OXE d   1       3.320  -5.992  -5.244  0.00  0.00     0.003 A 
ENDROOT
TORSDOF 0
ENDMDL
