MODEL 1
REMARK minimizedAffinity 1.89498556
REMARK minimizedRMSD -1
REMARK  0 active torsions:
REMARK  status: ('A' for Active; 'I' for Inactive)
ROOT
ATOM      1  C2' OXE d   1       2.627  -1.025   2.266  0.00  0.00     0.078 C 
ATOM      2  C1' OXE d   1       4.611  -2.607   3.468  0.00  0.00     0.078 C 
ATOM      3  C1  OXE d   1       3.170  -2.965   3.731  0.00  0.00    -0.078 A 
ATOM      4  C2  OXE d   1       2.206  -2.158   3.177  0.00  0.00    -0.078 A 
ATOM      5  C3  OXE d   1       0.861  -2.475   3.344  0.00  0.00     0.003 A 
ATOM      6  C4  OXE d   1       0.480  -3.519   4.196  0.00  0.00    -0.002 A 
ATOM      7  C5  OXE d   1       1.445  -4.329   4.803  0.00  0.00    -0.002 A 
ATOM      8  C6  OXE d   1       2.791  -4.093   4.547  0.00  0.00     0.003 A 
ENDROOT
TORSDOF 0
ENDMDL
