MODEL 1
REMARK minimizedAffinity 3.29479766
REMARK minimizedRMSD -1
REMARK  0 active torsions:
REMARK  status: ('A' for Active; 'I' for Inactive)
ROOT
ATOM      1  C2' OXE d   1       1.060  -5.998  -4.692  0.00  0.00     0.078 C 
ATOM      2  C1' OXE d   1       3.568  -5.996  -5.954  0.00  0.00     0.078 C 
ATOM      3  C1  OXE d   1       3.539  -5.985  -4.446  0.00  0.00    -0.078 A 
ATOM      4  C2  OXE d   1       2.308  -5.939  -3.837  0.00  0.00    -0.078 A 
ATOM      5  C3  OXE d   1       2.224  -5.982  -2.449  0.00  0.00     0.003 A 
ATOM      6  C4  OXE d   1       3.383  -5.917  -1.666  0.00  0.00    -0.002 A 
ATOM      7  C5  OXE d   1       4.646  -5.923  -2.266  0.00  0.00    -0.002 A 
ATOM      8  C6  OXE d   1       4.742  -6.000  -3.651  0.00  0.00     0.003 A 
ENDROOT
TORSDOF 0
ENDMDL
