MODEL 1
REMARK minimizedAffinity 2.04732513
REMARK minimizedRMSD -1
REMARK  0 active torsions:
REMARK  status: ('A' for Active; 'I' for Inactive)
ROOT
ATOM      1  C2' OXE d   1       5.371  -2.617   3.457  0.00  0.00     0.078 C 
ATOM      2  C1' OXE d   1       3.430  -4.481   4.256  0.00  0.00     0.078 C 
ATOM      3  C1  OXE d   1       2.959  -3.235   3.549  0.00  0.00    -0.078 A 
ATOM      4  C2  OXE d   1       3.911  -2.306   3.203  0.00  0.00    -0.078 A 
ATOM      5  C3  OXE d   1       3.538  -1.165   2.501  0.00  0.00     0.003 A 
ATOM      6  C4  OXE d   1       2.185  -0.880   2.279  0.00  0.00    -0.002 A 
ATOM      7  C5  OXE d   1       1.196  -1.793   2.658  0.00  0.00    -0.002 A 
ATOM      8  C6  OXE d   1       1.568  -2.993   3.255  0.00  0.00     0.003 A 
ENDROOT
TORSDOF 0
ENDMDL
