MODEL 1
REMARK minimizedAffinity 8.41759109
REMARK minimizedRMSD -1
REMARK  0 active torsions:
REMARK  status: ('A' for Active; 'I' for Inactive)
ROOT
ATOM      1  C2' OXE d   1       1.674  -0.803   2.726  0.00  0.00     0.078 C 
ATOM      2  C1' OXE d   1       0.081  -3.083   2.342  0.00  0.00     0.078 C 
ATOM      3  C1  OXE d   1       1.329  -3.229   3.176  0.00  0.00    -0.078 A 
ATOM      4  C2  OXE d   1       2.127  -2.120   3.320  0.00  0.00    -0.078 A 
ATOM      5  C3  OXE d   1       3.261  -2.186   4.125  0.00  0.00     0.003 A 
ATOM      6  C4  OXE d   1       3.678  -3.410   4.662  0.00  0.00    -0.002 A 
ATOM      7  C5  OXE d   1       2.901  -4.561   4.494  0.00  0.00    -0.002 A 
ATOM      8  C6  OXE d   1       1.704  -4.478   3.791  0.00  0.00     0.003 A 
ENDROOT
TORSDOF 0
ENDMDL
