MODEL 1
REMARK minimizedAffinity 4.04380798
REMARK minimizedRMSD -1
REMARK  0 active torsions:
REMARK  status: ('A' for Active; 'I' for Inactive)
ROOT
ATOM      1  C2' OXE d   1       4.877  -3.003   3.375  0.00  0.00     0.078 C 
ATOM      2  C1' OXE d   1       2.608  -4.548   3.964  0.00  0.00     0.078 C 
ATOM      3  C1  OXE d   1       2.392  -3.176   3.377  0.00  0.00    -0.078 A 
ATOM      4  C2  OXE d   1       3.506  -2.408   3.135  0.00  0.00    -0.078 A 
ATOM      5  C3  OXE d   1       3.365  -1.156   2.543  0.00  0.00     0.003 A 
ATOM      6  C4  OXE d   1       2.093  -0.610   2.333  0.00  0.00    -0.002 A 
ATOM      7  C5  OXE d   1       0.945  -1.359   2.609  0.00  0.00    -0.002 A 
ATOM      8  C6  OXE d   1       1.077  -2.657   3.090  0.00  0.00     0.003 A 
ENDROOT
TORSDOF 0
ENDMDL
