MODEL 1
REMARK minimizedAffinity -4.58808947
REMARK minimizedRMSD -1
REMARK  0 active torsions:
REMARK  status: ('A' for Active; 'I' for Inactive)
ROOT
ATOM      1  N1  IND d   1       1.125   0.825  -0.894  0.00  0.00    -0.196 N 
ATOM      2  C2  IND d   1       0.675   1.070   0.373  0.00  0.00     0.054 A 
ATOM      3  C3  IND d   1      -0.653   0.830   0.456  0.00  0.00    -0.031 A 
ATOM      4  C4  IND d   1      -2.266  -0.070  -1.338  0.00  0.00     0.051 A 
ATOM      5  C5  IND d   1      -2.326  -0.407  -2.661  0.00  0.00    -0.031 A 
ATOM      6  C6  IND d   1      -1.216  -0.353  -3.478  0.00  0.00     0.015 A 
ATOM      7  C7  IND d   1       0.004   0.032  -2.998  0.00  0.00    -0.016 A 
ATOM      8  C8  IND d   1       0.067   0.382  -1.657  0.00  0.00    -0.047 A 
ATOM      9  C9  IND d   1      -1.065   0.370  -0.833  0.00  0.00    -0.096 A 
ATOM     10  HN1 IND d   1       1.934   0.929  -1.168  0.00  0.00     0.298 HD
ENDROOT
TORSDOF 0
ENDMDL
