MODEL 1
REMARK minimizedAffinity 0.441702008
REMARK minimizedRMSD -1
REMARK  0 active torsions:
REMARK  status: ('A' for Active; 'I' for Inactive)
ROOT
ATOM      1  N1  IND d   1      -0.980   0.742  -3.100  0.00  0.00    -0.196 N 
ATOM      2  C2  IND d   1      -2.154   0.245  -3.594  0.00  0.00     0.054 A 
ATOM      3  C3  IND d   1      -2.778  -0.506  -2.658  0.00  0.00    -0.031 A 
ATOM      4  C4  IND d   1      -2.102  -0.971  -0.218  0.00  0.00     0.051 A 
ATOM      5  C5  IND d   1      -1.092  -0.763   0.678  0.00  0.00    -0.031 A 
ATOM      6  C6  IND d   1       0.029  -0.025   0.355  0.00  0.00     0.015 A 
ATOM      7  C7  IND d   1       0.176   0.544  -0.878  0.00  0.00    -0.016 A 
ATOM      8  C8  IND d   1      -0.845   0.328  -1.793  0.00  0.00    -0.047 A 
ATOM      9  C9  IND d   1      -1.965  -0.455  -1.485  0.00  0.00    -0.096 A 
ATOM     10  HN1 IND d   1      -0.421   1.230  -3.533  0.00  0.00     0.298 HD
ENDROOT
TORSDOF 0
ENDMDL
