MODEL 1
REMARK minimizedAffinity -4.08109379
REMARK minimizedRMSD -1
REMARK  0 active torsions:
REMARK  status: ('A' for Active; 'I' for Inactive)
ROOT
ATOM      1  N1  IND d   1       0.042   0.385   0.009  0.00  0.00    -0.196 N 
ATOM      2  C2  IND d   1       0.963   1.369  -0.217  0.00  0.00     0.054 A 
ATOM      3  C3  IND d   1       2.029   1.212   0.601  0.00  0.00    -0.031 A 
ATOM      4  C4  IND d   1       2.516  -0.647   2.314  0.00  0.00     0.051 A 
ATOM      5  C5  IND d   1       1.954  -1.746   2.899  0.00  0.00    -0.031 A 
ATOM      6  C6  IND d   1       0.701  -2.202   2.542  0.00  0.00     0.015 A 
ATOM      7  C7  IND d   1      -0.034  -1.580   1.574  0.00  0.00    -0.016 A 
ATOM      8  C8  IND d   1       0.531  -0.459   0.982  0.00  0.00    -0.047 A 
ATOM      9  C9  IND d   1       1.783   0.034   1.370  0.00  0.00    -0.096 A 
ATOM     10  HN1 IND d   1      -0.716   0.306  -0.390  0.00  0.00     0.298 HD
ENDROOT
TORSDOF 0
ENDMDL
