MODEL 1
REMARK minimizedAffinity -0.110282198
REMARK minimizedRMSD -1
REMARK  0 active torsions:
REMARK  status: ('A' for Active; 'I' for Inactive)
ROOT
ATOM      1  N1  IND d   1      -1.841  -1.057  -0.378  0.00  0.00    -0.196 N 
ATOM      2  C2  IND d   1      -1.354  -0.128   0.499  0.00  0.00     0.054 A 
ATOM      3  C3  IND d   1      -1.584   1.121   0.038  0.00  0.00    -0.031 A 
ATOM      4  C4  IND d   1      -2.834   1.877  -2.082  0.00  0.00     0.051 A 
ATOM      5  C5  IND d   1      -3.427   1.392  -3.214  0.00  0.00    -0.031 A 
ATOM      6  C6  IND d   1      -3.527   0.038  -3.461  0.00  0.00     0.015 A 
ATOM      7  C7  IND d   1      -3.044  -0.885  -2.577  0.00  0.00    -0.016 A 
ATOM      8  C8  IND d   1      -2.435  -0.396  -1.431  0.00  0.00    -0.047 A 
ATOM      9  C9  IND d   1      -2.293   0.978  -1.194  0.00  0.00    -0.096 A 
ATOM     10  HN1 IND d   1      -1.787  -1.910  -0.287  0.00  0.00     0.298 HD
ENDROOT
TORSDOF 0
ENDMDL
