MODEL 1
REMARK minimizedAffinity -1.50977099
REMARK minimizedRMSD -1
REMARK  0 active torsions:
REMARK  status: ('A' for Active; 'I' for Inactive)
ROOT
ATOM      1  N1  IND d   1       1.794  -0.049   1.352  0.00  0.00    -0.196 N 
ATOM      2  C2  IND d   1       2.196   1.098   0.725  0.00  0.00     0.054 A 
ATOM      3  C3  IND d   1       1.219   1.554  -0.091  0.00  0.00    -0.031 A 
ATOM      4  C4  IND d   1      -1.156   0.635  -0.472  0.00  0.00     0.051 A 
ATOM      5  C5  IND d   1      -1.969  -0.415  -0.149  0.00  0.00    -0.031 A 
ATOM      6  C6  IND d   1      -1.563  -1.415   0.711  0.00  0.00     0.015 A 
ATOM      7  C7  IND d   1      -0.326  -1.396   1.291  0.00  0.00    -0.016 A 
ATOM      8  C8  IND d   1       0.506  -0.336   0.959  0.00  0.00    -0.047 A 
ATOM      9  C9  IND d   1       0.114   0.659   0.054  0.00  0.00    -0.096 A 
ATOM     10  HN1 IND d   1       2.267  -0.512   1.901  0.00  0.00     0.298 HD
ENDROOT
TORSDOF 0
ENDMDL
