MODEL 1
REMARK minimizedAffinity -2.95425463
REMARK minimizedRMSD -1
REMARK  0 active torsions:
REMARK  status: ('A' for Active; 'I' for Inactive)
ROOT
ATOM      1  N1  IND d   1      -0.339  -1.299  -0.602  0.00  0.00    -0.196 N 
ATOM      2  C2  IND d   1       0.209  -0.270   0.112  0.00  0.00     0.054 A 
ATOM      3  C3  IND d   1      -0.301   0.912  -0.299  0.00  0.00    -0.031 A 
ATOM      4  C4  IND d   1      -2.121   1.386  -2.057  0.00  0.00     0.051 A 
ATOM      5  C5  IND d   1      -2.896   0.769  -2.998  0.00  0.00    -0.031 A 
ATOM      6  C6  IND d   1      -2.859  -0.597  -3.192  0.00  0.00     0.015 A 
ATOM      7  C7  IND d   1      -2.051  -1.401  -2.439  0.00  0.00    -0.016 A 
ATOM      8  C8  IND d   1      -1.258  -0.777  -1.486  0.00  0.00    -0.047 A 
ATOM      9  C9  IND d   1      -1.259   0.613  -1.315  0.00  0.00    -0.096 A 
ATOM     10  HN1 IND d   1      -0.144  -2.131  -0.514  0.00  0.00     0.298 HD
ENDROOT
TORSDOF 0
ENDMDL
