MODEL 1
REMARK minimizedAffinity -2.02519321
REMARK minimizedRMSD -1
REMARK  0 active torsions:
REMARK  status: ('A' for Active; 'I' for Inactive)
ROOT
ATOM      1  N1  IND d   1      -1.153  -0.697   0.616  0.00  0.00    -0.196 N 
ATOM      2  C2  IND d   1      -1.805   0.084  -0.297  0.00  0.00     0.054 A 
ATOM      3  C3  IND d   1      -0.998   1.081  -0.724  0.00  0.00    -0.031 A 
ATOM      4  C4  IND d   1       1.462   1.561  -0.136  0.00  0.00     0.051 A 
ATOM      5  C5  IND d   1       2.475   1.144   0.681  0.00  0.00    -0.031 A 
ATOM      6  C6  IND d   1       2.329   0.068   1.533  0.00  0.00     0.015 A 
ATOM      7  C7  IND d   1       1.162  -0.640   1.592  0.00  0.00    -0.016 A 
ATOM      8  C8  IND d   1       0.129  -0.215   0.769  0.00  0.00    -0.047 A 
ATOM      9  C9  IND d   1       0.257   0.902  -0.067  0.00  0.00    -0.096 A 
ATOM     10  HN1 IND d   1      -1.487  -1.375   1.025  0.00  0.00     0.298 HD
ENDROOT
TORSDOF 0
ENDMDL
