MODEL 1
REMARK minimizedAffinity -2.27955055
REMARK minimizedRMSD -1
REMARK  0 active torsions:
REMARK  status: ('A' for Active; 'I' for Inactive)
ROOT
ATOM      1  N1  IND d   1      -0.394  -1.107  -0.752  0.00  0.00    -0.196 N 
ATOM      2  C2  IND d   1      -0.249  -0.310   0.349  0.00  0.00     0.054 A 
ATOM      3  C3  IND d   1      -1.083   0.752   0.273  0.00  0.00    -0.031 A 
ATOM      4  C4  IND d   1      -2.842   1.326  -1.516  0.00  0.00     0.051 A 
ATOM      5  C5  IND d   1      -3.317   0.916  -2.731  0.00  0.00    -0.031 A 
ATOM      6  C6  IND d   1      -2.834  -0.214  -3.359  0.00  0.00     0.015 A 
ATOM      7  C7  IND d   1      -1.862  -0.985  -2.788  0.00  0.00    -0.016 A 
ATOM      8  C8  IND d   1      -1.372  -0.568  -1.558  0.00  0.00    -0.047 A 
ATOM      9  C9  IND d   1      -1.828   0.601  -0.936  0.00  0.00    -0.096 A 
ATOM     10  HN1 IND d   1       0.051  -1.825  -0.913  0.00  0.00     0.298 HD
ENDROOT
TORSDOF 0
ENDMDL
