MODEL 1
REMARK minimizedAffinity -0.617736101
REMARK minimizedRMSD -1
REMARK  0 active torsions:
REMARK  status: ('A' for Active; 'I' for Inactive)
ROOT
ATOM      1  N1  IND d   1       1.694  -0.926   1.892  0.00  0.00    -0.196 N 
ATOM      2  C2  IND d   1       2.628   0.071   1.937  0.00  0.00     0.054 A 
ATOM      3  C3  IND d   1       2.211   1.139   1.222  0.00  0.00    -0.031 A 
ATOM      4  C4  IND d   1      -0.015   1.509  -0.019  0.00  0.00     0.051 A 
ATOM      5  C5  IND d   1      -1.170   0.869  -0.373  0.00  0.00    -0.031 A 
ATOM      6  C6  IND d   1      -1.436  -0.426   0.021  0.00  0.00     0.015 A 
ATOM      7  C7  IND d   1      -0.558  -1.130   0.795  0.00  0.00    -0.016 A 
ATOM      8  C8  IND d   1       0.619  -0.486   1.151  0.00  0.00    -0.047 A 
ATOM      9  C9  IND d   1       0.914   0.813   0.719  0.00  0.00    -0.096 A 
ATOM     10  HN1 IND d   1       1.765  -1.697   2.265  0.00  0.00     0.298 HD
ENDROOT
TORSDOF 0
ENDMDL
