MODEL 1
REMARK minimizedAffinity -2.55517507
REMARK minimizedRMSD -1
REMARK  0 active torsions:
REMARK  status: ('A' for Active; 'I' for Inactive)
ROOT
ATOM      1  N1  IND d   1       0.798  -0.128   1.441  0.00  0.00    -0.196 N 
ATOM      2  C2  IND d   1       1.642   0.771   0.852  0.00  0.00     0.054 A 
ATOM      3  C3  IND d   1       1.032   1.376  -0.191  0.00  0.00    -0.031 A 
ATOM      4  C4  IND d   1      -1.383   1.119  -1.047  0.00  0.00     0.051 A 
ATOM      5  C5  IND d   1      -2.522   0.389  -0.854  0.00  0.00    -0.031 A 
ATOM      6  C6  IND d   1      -2.616  -0.568   0.135  0.00  0.00     0.015 A 
ATOM      7  C7  IND d   1      -1.573  -0.824   0.980  0.00  0.00    -0.016 A 
ATOM      8  C8  IND d   1      -0.412  -0.090   0.782  0.00  0.00    -0.047 A 
ATOM      9  C9  IND d   1      -0.296   0.853  -0.248  0.00  0.00    -0.096 A 
ATOM     10  HN1 IND d   1       0.990  -0.633   2.110  0.00  0.00     0.298 HD
ENDROOT
TORSDOF 0
ENDMDL
