MODEL 1
REMARK minimizedAffinity -1.94551063
REMARK minimizedRMSD -1
REMARK  1 active torsions:
REMARK  status: ('A' for Active; 'I' for Inactive)
REMARK    1  A    between atoms: C1_2  and  C2_3 
ROOT
ATOM      1  C2  UNL d   1      -0.305  -0.941   3.323  0.00  0.00    -0.077 A 
ATOM      2  C3  UNL d   1       0.033  -1.455   4.583  0.00  0.00     0.002 A 
ATOM      3  C4  UNL d   1       1.356  -1.794   4.875  0.00  0.00     0.002 A 
ATOM      4  C5  UNL d   1       2.350  -1.620   3.915  0.00  0.00    -0.004 A 
ATOM      5  C6  UNL d   1       2.023  -1.111   2.658  0.00  0.00     0.002 A 
ATOM      6  C7  UNL d   1       0.701  -0.773   2.364  0.00  0.00     0.002 A 
ENDROOT
BRANCH   1   7
ATOM      7  C1  UNL d   1      -1.723  -0.528   3.023  0.00  0.00     0.055 C 
ATOM      8  C   UNL d   1      -1.852   0.021   1.609  0.00  0.00     0.019 C 
ENDBRANCH   1   7
TORSDOF 1
ENDMDL
