MODEL 1
REMARK minimizedAffinity 3.05175805
REMARK minimizedRMSD -1
REMARK  1 active torsions:
REMARK  status: ('A' for Active; 'I' for Inactive)
REMARK    1  A    between atoms: C1_2  and  C2_3 
ROOT
ATOM      1  C2  UNL d   1      -0.142   0.263   0.636  0.00  0.00    -0.077 A 
ATOM      2  C3  UNL d   1      -0.628   0.292   1.951  0.00  0.00     0.002 A 
ATOM      3  C4  UNL d   1      -1.960  -0.029   2.219  0.00  0.00     0.002 A 
ATOM      4  C5  UNL d   1      -2.816  -0.385   1.178  0.00  0.00    -0.004 A 
ATOM      5  C6  UNL d   1      -2.343  -0.415  -0.133  0.00  0.00     0.002 A 
ATOM      6  C7  UNL d   1      -1.012  -0.093  -0.403  0.00  0.00     0.002 A 
ENDROOT
BRANCH   1   7
ATOM      7  C1  UNL d   1       1.306   0.561   0.351  0.00  0.00     0.055 C 
ATOM      8  C   UNL d   1       1.663   1.990   0.730  0.00  0.00     0.019 C 
ENDBRANCH   1   7
TORSDOF 1
ENDMDL
