MODEL 1
REMARK minimizedAffinity 6.00586748
REMARK minimizedRMSD -1
REMARK  1 active torsions:
REMARK  status: ('A' for Active; 'I' for Inactive)
REMARK    1  A    between atoms: C1_2  and  C2_3 
ROOT
ATOM      1  C2  UNL d   1      -0.198  -0.356   0.796  0.00  0.00    -0.077 A 
ATOM      2  C3  UNL d   1      -1.064   0.394   1.604  0.00  0.00     0.002 A 
ATOM      3  C4  UNL d   1      -2.427   0.456   1.311  0.00  0.00     0.002 A 
ATOM      4  C5  UNL d   1      -2.938  -0.234   0.213  0.00  0.00    -0.004 A 
ATOM      5  C6  UNL d   1      -2.084  -0.981  -0.598  0.00  0.00     0.002 A 
ATOM      6  C7  UNL d   1      -0.721  -1.043  -0.307  0.00  0.00     0.002 A 
ENDROOT
BRANCH   1   7
ATOM      7  C1  UNL d   1       1.265  -0.464   1.139  0.00  0.00     0.055 C 
ATOM      8  C   UNL d   1       2.065   0.671   0.516  0.00  0.00     0.019 C 
ENDBRANCH   1   7
TORSDOF 1
ENDMDL
