MODEL 1
REMARK minimizedAffinity -3.84251761
REMARK minimizedRMSD -1
REMARK  0 active torsions:
REMARK  status: ('A' for Active; 'I' for Inactive)
ROOT
ATOM      1  C1  BNZ d   1      -0.101  -2.385  -2.066  0.00  0.00     0.000 A 
ATOM      2  C2  BNZ d   1      -0.298  -1.244  -1.334  0.00  0.00     0.000 A 
ATOM      3  C3  BNZ d   1       0.633  -0.828  -0.424  0.00  0.00     0.000 A 
ATOM      4  C4  BNZ d   1       1.737  -1.573  -0.216  0.00  0.00     0.000 A 
ATOM      5  C5  BNZ d   1       1.945  -2.731  -0.939  0.00  0.00     0.000 A 
ATOM      6  C6  BNZ d   1       1.025  -3.126  -1.883  0.00  0.00     0.000 A 
ENDROOT
TORSDOF 0
ENDMDL
