MODEL 1
REMARK minimizedAffinity -0.937330842
REMARK minimizedRMSD -1
REMARK  0 active torsions:
REMARK  status: ('A' for Active; 'I' for Inactive)
ROOT
ATOM      1  C1  BNZ d   1       0.965  -0.279  -0.912  0.00  0.00     0.000 A 
ATOM      2  C2  BNZ d   1       0.475   0.375   0.188  0.00  0.00     0.000 A 
ATOM      3  C3  BNZ d   1      -0.572  -0.140   0.899  0.00  0.00     0.000 A 
ATOM      4  C4  BNZ d   1      -1.153  -1.285   0.489  0.00  0.00     0.000 A 
ATOM      5  C5  BNZ d   1      -0.678  -1.952  -0.623  0.00  0.00     0.000 A 
ATOM      6  C6  BNZ d   1       0.402  -1.451  -1.314  0.00  0.00     0.000 A 
ENDROOT
TORSDOF 0
ENDMDL
