MODEL 1
REMARK minimizedAffinity -3.51717162
REMARK minimizedRMSD -1
REMARK  0 active torsions:
REMARK  status: ('A' for Active; 'I' for Inactive)
ROOT
ATOM      1  C1  BNZ d   1      -1.422  -0.730   1.467  0.00  0.00     0.000 A 
ATOM      2  C2  BNZ d   1      -0.633  -0.722   0.348  0.00  0.00     0.000 A 
ATOM      3  C3  BNZ d   1       0.050   0.404  -0.018  0.00  0.00     0.000 A 
ATOM      4  C4  BNZ d   1      -0.089   1.530   0.711  0.00  0.00     0.000 A 
ATOM      5  C5  BNZ d   1      -0.888   1.540   1.837  0.00  0.00     0.000 A 
ATOM      6  C6  BNZ d   1      -1.543   0.394   2.225  0.00  0.00     0.000 A 
ENDROOT
TORSDOF 0
ENDMDL
