MODEL 1
REMARK minimizedAffinity -3.40869021
REMARK minimizedRMSD -1
REMARK  0 active torsions:
REMARK  status: ('A' for Active; 'I' for Inactive)
ROOT
ATOM      1  C1  BNZ d   1      -1.003   1.920   0.965  0.00  0.00     0.000 A 
ATOM      2  C2  BNZ d   1      -0.353   1.587  -0.193  0.00  0.00     0.000 A 
ATOM      3  C3  BNZ d   1       0.149   0.329  -0.378  0.00  0.00     0.000 A 
ATOM      4  C4  BNZ d   1       0.038  -0.581   0.611  0.00  0.00     0.000 A 
ATOM      5  C5  BNZ d   1      -0.606  -0.258   1.789  0.00  0.00     0.000 A 
ATOM      6  C6  BNZ d   1      -1.145   0.997   1.956  0.00  0.00     0.000 A 
ENDROOT
TORSDOF 0
ENDMDL
