MODEL 1
REMARK minimizedAffinity -0.807669401
REMARK minimizedRMSD -1
REMARK  0 active torsions:
REMARK  status: ('A' for Active; 'I' for Inactive)
ROOT
ATOM      1  C1  BNZ d   1       1.291  -3.860  -1.601  0.00  0.00     0.000 A 
ATOM      2  C2  BNZ d   1       1.559  -2.795  -0.783  0.00  0.00     0.000 A 
ATOM      3  C3  BNZ d   1       1.131  -1.538  -1.107  0.00  0.00     0.000 A 
ATOM      4  C4  BNZ d   1       0.472  -1.341  -2.267  0.00  0.00     0.000 A 
ATOM      5  C5  BNZ d   1       0.202  -2.403  -3.107  0.00  0.00     0.000 A 
ATOM      6  C6  BNZ d   1       0.600  -3.673  -2.759  0.00  0.00     0.000 A 
ENDROOT
TORSDOF 0
ENDMDL
