MODEL 1
REMARK minimizedAffinity -2.83097029
REMARK minimizedRMSD -1
REMARK  0 active torsions:
REMARK  status: ('A' for Active; 'I' for Inactive)
ROOT
ATOM      1  C1  BNZ d   1      -0.902   0.069   1.450  0.00  0.00     0.000 A 
ATOM      2  C2  BNZ d   1      -0.635  -1.024   0.670  0.00  0.00     0.000 A 
ATOM      3  C3  BNZ d   1      -0.001  -0.887  -0.533  0.00  0.00     0.000 A 
ATOM      4  C4  BNZ d   1       0.328   0.345  -0.973  0.00  0.00     0.000 A 
ATOM      5  C5  BNZ d   1       0.057   1.458  -0.202  0.00  0.00     0.000 A 
ATOM      6  C6  BNZ d   1      -0.546   1.313   1.026  0.00  0.00     0.000 A 
ENDROOT
TORSDOF 0
ENDMDL
