MODEL 1
REMARK minimizedAffinity -3.92011571
REMARK minimizedRMSD -1
REMARK  0 active torsions:
REMARK  status: ('A' for Active; 'I' for Inactive)
ROOT
ATOM      1  C1  BNZ d   1      -0.122   1.390   0.602  0.00  0.00     0.000 A 
ATOM      2  C2  BNZ d   1      -1.112   1.438   1.546  0.00  0.00     0.000 A 
ATOM      3  C3  BNZ d   1      -1.793   0.307   1.904  0.00  0.00     0.000 A 
ATOM      4  C4  BNZ d   1      -1.510  -0.859   1.289  0.00  0.00     0.000 A 
ATOM      5  C5  BNZ d   1      -0.521  -0.921   0.328  0.00  0.00     0.000 A 
ATOM      6  C6  BNZ d   1       0.189   0.211  -0.001  0.00  0.00     0.000 A 
ENDROOT
TORSDOF 0
ENDMDL
