MODEL 1
REMARK minimizedAffinity -3.47833872
REMARK minimizedRMSD -1
REMARK  0 active torsions:
REMARK  status: ('A' for Active; 'I' for Inactive)
ROOT
ATOM      1  C1  BNZ d   1      -1.105  -1.698  -1.751  0.00  0.00     0.000 A 
ATOM      2  C2  BNZ d   1      -0.160  -0.976  -1.072  0.00  0.00     0.000 A 
ATOM      3  C3  BNZ d   1       1.114  -1.449  -0.930  0.00  0.00     0.000 A 
ATOM      4  C4  BNZ d   1       1.431  -2.660  -1.432  0.00  0.00     0.000 A 
ATOM      5  C5  BNZ d   1       0.487  -3.404  -2.111  0.00  0.00     0.000 A 
ATOM      6  C6  BNZ d   1      -0.784  -2.907  -2.286  0.00  0.00     0.000 A 
ENDROOT
TORSDOF 0
ENDMDL
