MODEL 1
REMARK minimizedAffinity -4.41726971
REMARK minimizedRMSD -1
REMARK  0 active torsions:
REMARK  status: ('A' for Active; 'I' for Inactive)
ROOT
ATOM      1  C1  BNZ d   1      -0.719   3.059   1.138  0.00  0.00     0.000 A 
ATOM      2  C2  BNZ d   1      -0.975   1.800   1.612  0.00  0.00     0.000 A 
ATOM      3  C3  BNZ d   1      -0.495   0.697   0.963  0.00  0.00     0.000 A 
ATOM      4  C4  BNZ d   1       0.204   0.853  -0.180  0.00  0.00     0.000 A 
ATOM      5  C5  BNZ d   1       0.462   2.115  -0.676  0.00  0.00     0.000 A 
ATOM      6  C6  BNZ d   1       0.011   3.225   0.002  0.00  0.00     0.000 A 
ENDROOT
TORSDOF 0
ENDMDL
