MODEL 1
REMARK minimizedAffinity -3.99405169
REMARK minimizedRMSD -1
REMARK  0 active torsions:
REMARK  status: ('A' for Active; 'I' for Inactive)
ROOT
ATOM      1  C1  BNZ d   1      -1.207   0.748   2.138  0.00  0.00     0.000 A 
ATOM      2  C2  BNZ d   1      -0.791  -0.448   1.617  0.00  0.00     0.000 A 
ATOM      3  C3  BNZ d   1      -0.137  -0.499   0.417  0.00  0.00     0.000 A 
ATOM      4  C4  BNZ d   1       0.063   0.640  -0.278  0.00  0.00     0.000 A 
ATOM      5  C5  BNZ d   1      -0.359   1.852   0.230  0.00  0.00     0.000 A 
ATOM      6  C6  BNZ d   1      -0.982   1.904   1.456  0.00  0.00     0.000 A 
ENDROOT
TORSDOF 0
ENDMDL
