MODEL 1
REMARK minimizedAffinity -3.50898051
REMARK minimizedRMSD -1
REMARK  0 active torsions:
REMARK  status: ('A' for Active; 'I' for Inactive)
ROOT
ATOM      1  C1  BNZ d   1      -1.317   1.106   2.042  0.00  0.00     0.000 A 
ATOM      2  C2  BNZ d   1      -0.999  -0.137   1.564  0.00  0.00     0.000 A 
ATOM      3  C3  BNZ d   1      -0.197  -0.280   0.466  0.00  0.00     0.000 A 
ATOM      4  C4  BNZ d   1       0.252   0.818  -0.175  0.00  0.00     0.000 A 
ATOM      5  C5  BNZ d   1      -0.068   2.078   0.289  0.00  0.00     0.000 A 
ATOM      6  C6  BNZ d   1      -0.843   2.218   1.418  0.00  0.00     0.000 A 
ENDROOT
TORSDOF 0
ENDMDL
