MODEL 1
REMARK minimizedAffinity -3.68479013
REMARK minimizedRMSD -1
REMARK  0 active torsions:
REMARK  status: ('A' for Active; 'I' for Inactive)
ROOT
ATOM      1  C1  BNZ d   1      -0.692  -1.195  -1.145  0.00  0.00     0.000 A 
ATOM      2  C2  BNZ d   1      -1.309  -0.762  -0.002  0.00  0.00     0.000 A 
ATOM      3  C3  BNZ d   1      -0.577  -0.415   1.100  0.00  0.00     0.000 A 
ATOM      4  C4  BNZ d   1       0.765  -0.540   1.070  0.00  0.00     0.000 A 
ATOM      5  C5  BNZ d   1       1.401  -0.984  -0.073  0.00  0.00     0.000 A 
ATOM      6  C6  BNZ d   1       0.664  -1.295  -1.192  0.00  0.00     0.000 A 
ENDROOT
TORSDOF 0
ENDMDL
