MODEL 1
REMARK minimizedAffinity -2.54110074
REMARK minimizedRMSD -1
REMARK  0 active torsions:
REMARK  status: ('A' for Active; 'I' for Inactive)
ROOT
ATOM      1  C1  BNZ d   1       1.426   1.550  -1.590  0.00  0.00     0.000 A 
ATOM      2  C2  BNZ d   1       1.618   0.202  -1.450  0.00  0.00     0.000 A 
ATOM      3  C3  BNZ d   1       0.863  -0.525  -0.572  0.00  0.00     0.000 A 
ATOM      4  C4  BNZ d   1      -0.053   0.103   0.192  0.00  0.00     0.000 A 
ATOM      5  C5  BNZ d   1      -0.252   1.464   0.069  0.00  0.00     0.000 A 
ATOM      6  C6  BNZ d   1       0.483   2.186  -0.843  0.00  0.00     0.000 A 
ENDROOT
TORSDOF 0
ENDMDL
