MODEL 1
REMARK minimizedAffinity -4.18374777
REMARK minimizedRMSD -1
REMARK  0 active torsions:
REMARK  status: ('A' for Active; 'I' for Inactive)
ROOT
ATOM      1  C   UNL d   1       3.639  -0.898  -2.705  0.00  0.00     0.078 C 
ATOM      2  C1  UNL d   1       2.162  -0.683  -2.558  0.00  0.00    -0.077 A 
ATOM      3  C2  UNL d   1       1.660   0.326  -1.727  0.00  0.00    -0.001 A 
ATOM      4  C3  UNL d   1       0.283   0.508  -1.592  0.00  0.00     0.003 A 
ATOM      5  C4  UNL d   1      -0.603  -0.315  -2.284  0.00  0.00    -0.005 A 
ATOM      6  C5  UNL d   1      -0.113  -1.323  -3.111  0.00  0.00     0.003 A 
ATOM      7  C6  UNL d   1       1.264  -1.507  -3.248  0.00  0.00    -0.001 A 
ENDROOT
TORSDOF 0
ENDMDL
