MODEL 1
REMARK minimizedAffinity -3.62067175
REMARK minimizedRMSD -1
REMARK  0 active torsions:
REMARK  status: ('A' for Active; 'I' for Inactive)
ROOT
ATOM      1  C   UNL d   1       0.004   1.011  -1.600  0.00  0.00     0.078 C 
ATOM      2  C1  UNL d   1       0.771   0.114  -2.525  0.00  0.00    -0.077 A 
ATOM      3  C2  UNL d   1       2.167   0.184  -2.605  0.00  0.00    -0.001 A 
ATOM      4  C3  UNL d   1       2.867  -0.651  -3.478  0.00  0.00     0.003 A 
ATOM      5  C4  UNL d   1       2.179  -1.561  -4.278  0.00  0.00    -0.005 A 
ATOM      6  C5  UNL d   1       0.789  -1.637  -4.206  0.00  0.00     0.003 A 
ATOM      7  C6  UNL d   1       0.088  -0.803  -3.334  0.00  0.00    -0.001 A 
ENDROOT
TORSDOF 0
ENDMDL
