MODEL 1
REMARK minimizedAffinity -4.55979156
REMARK minimizedRMSD -1
REMARK  0 active torsions:
REMARK  status: ('A' for Active; 'I' for Inactive)
ROOT
ATOM      1  C   UNL d   1       0.283  -0.320  -0.194  0.00  0.00     0.078 C 
ATOM      2  C1  UNL d   1      -0.747  -0.116   0.877  0.00  0.00    -0.077 A 
ATOM      3  C2  UNL d   1      -2.046   0.299   0.560  0.00  0.00    -0.001 A 
ATOM      4  C3  UNL d   1      -2.991   0.494   1.568  0.00  0.00     0.003 A 
ATOM      5  C4  UNL d   1      -2.646   0.277   2.901  0.00  0.00    -0.005 A 
ATOM      6  C5  UNL d   1      -1.356  -0.134   3.227  0.00  0.00     0.003 A 
ATOM      7  C6  UNL d   1      -0.409  -0.329   2.220  0.00  0.00    -0.001 A 
ENDROOT
TORSDOF 0
ENDMDL
