MODEL 1
REMARK minimizedAffinity -6.00326443
REMARK minimizedRMSD -1
REMARK  0 active torsions:
REMARK  status: ('A' for Active; 'I' for Inactive)
ROOT
ATOM      1  C   UNL d   1       0.952  -0.421   0.195  0.00  0.00     0.078 C 
ATOM      2  C1  UNL d   1      -0.171  -0.110   1.138  0.00  0.00    -0.077 A 
ATOM      3  C2  UNL d   1      -1.501  -0.104   0.699  0.00  0.00    -0.001 A 
ATOM      4  C3  UNL d   1      -2.536   0.197   1.586  0.00  0.00     0.003 A 
ATOM      5  C4  UNL d   1      -2.252   0.494   2.917  0.00  0.00    -0.005 A 
ATOM      6  C5  UNL d   1      -0.932   0.492   3.363  0.00  0.00     0.003 A 
ATOM      7  C6  UNL d   1       0.105   0.192   2.477  0.00  0.00    -0.001 A 
ENDROOT
TORSDOF 0
ENDMDL
