MODEL 1
REMARK minimizedAffinity -4.90405655
REMARK minimizedRMSD -1
REMARK  0 active torsions:
REMARK  status: ('A' for Active; 'I' for Inactive)
ROOT
ATOM      1  C   UNL d   1      -0.097   1.065  -1.198  0.00  0.00     0.078 C 
ATOM      2  C1  UNL d   1      -0.189   0.485   0.181  0.00  0.00    -0.077 A 
ATOM      3  C2  UNL d   1       0.867   0.616   1.091  0.00  0.00    -0.001 A 
ATOM      4  C3  UNL d   1       0.771   0.063   2.369  0.00  0.00     0.003 A 
ATOM      5  C4  UNL d   1      -0.379  -0.627   2.748  0.00  0.00    -0.005 A 
ATOM      6  C5  UNL d   1      -1.434  -0.765   1.848  0.00  0.00     0.003 A 
ATOM      7  C6  UNL d   1      -1.340  -0.212   0.570  0.00  0.00    -0.001 A 
ENDROOT
TORSDOF 0
ENDMDL
