MODEL 1
REMARK minimizedAffinity -4.0433054
REMARK minimizedRMSD -1
REMARK  0 active torsions:
REMARK  status: ('A' for Active; 'I' for Inactive)
ROOT
ATOM      1  C   UNL d   1       0.233  -0.022  -1.500  0.00  0.00     0.078 C 
ATOM      2  C1  UNL d   1       0.131   0.028  -0.005  0.00  0.00    -0.077 A 
ATOM      3  C2  UNL d   1      -0.843  -0.711   0.677  0.00  0.00    -0.001 A 
ATOM      4  C3  UNL d   1      -0.933  -0.647   2.068  0.00  0.00     0.003 A 
ATOM      5  C4  UNL d   1      -0.053   0.157   2.790  0.00  0.00    -0.005 A 
ATOM      6  C5  UNL d   1       0.919   0.898   2.120  0.00  0.00     0.003 A 
ATOM      7  C6  UNL d   1       1.010   0.835   0.729  0.00  0.00    -0.001 A 
ENDROOT
TORSDOF 0
ENDMDL
