MODEL 1
REMARK minimizedAffinity -4.52047968
REMARK minimizedRMSD -1
REMARK  0 active torsions:
REMARK  status: ('A' for Active; 'I' for Inactive)
ROOT
ATOM      1  C   UNL d   1       0.547   0.533  -1.232  0.00  0.00     0.078 C 
ATOM      2  C1  UNL d   1       0.200   0.227   0.195  0.00  0.00    -0.077 A 
ATOM      3  C2  UNL d   1       0.943   0.769   1.250  0.00  0.00    -0.001 A 
ATOM      4  C3  UNL d   1       0.615   0.468   2.573  0.00  0.00     0.003 A 
ATOM      5  C4  UNL d   1      -0.456  -0.377   2.853  0.00  0.00    -0.005 A 
ATOM      6  C5  UNL d   1      -1.201  -0.924   1.809  0.00  0.00     0.003 A 
ATOM      7  C6  UNL d   1      -0.874  -0.624   0.486  0.00  0.00    -0.001 A 
ENDROOT
TORSDOF 0
ENDMDL
