MODEL 1
REMARK minimizedAffinity -4.17705441
REMARK minimizedRMSD -1
REMARK  0 active torsions:
REMARK  status: ('A' for Active; 'I' for Inactive)
ROOT
ATOM      1  C   UNL d   1       0.841  -0.020  -1.772  0.00  0.00     0.078 C 
ATOM      2  C1  UNL d   1       0.405  -0.207  -0.349  0.00  0.00    -0.077 A 
ATOM      3  C2  UNL d   1       1.315  -0.073   0.707  0.00  0.00    -0.001 A 
ATOM      4  C3  UNL d   1       0.898  -0.259   2.026  0.00  0.00     0.003 A 
ATOM      5  C4  UNL d   1      -0.429  -0.583   2.301  0.00  0.00    -0.005 A 
ATOM      6  C5  UNL d   1      -1.341  -0.721   1.256  0.00  0.00     0.003 A 
ATOM      7  C6  UNL d   1      -0.926  -0.535  -0.063  0.00  0.00    -0.001 A 
ENDROOT
TORSDOF 0
ENDMDL
