MODEL 1
REMARK minimizedAffinity -4.61530542
REMARK minimizedRMSD -1
REMARK  0 active torsions:
REMARK  status: ('A' for Active; 'I' for Inactive)
ROOT
ATOM      1  C   UNL d   1      -4.182  -0.034   1.112  0.00  0.00     0.078 C 
ATOM      2  C1  UNL d   1      -2.741  -0.218   1.487  0.00  0.00    -0.077 A 
ATOM      3  C2  UNL d   1      -2.380  -0.667   2.763  0.00  0.00    -0.001 A 
ATOM      4  C3  UNL d   1      -1.035  -0.824   3.102  0.00  0.00     0.003 A 
ATOM      5  C4  UNL d   1      -0.041  -0.532   2.171  0.00  0.00    -0.005 A 
ATOM      6  C5  UNL d   1      -0.390  -0.082   0.899  0.00  0.00     0.003 A 
ATOM      7  C6  UNL d   1      -1.735   0.075   0.559  0.00  0.00    -0.001 A 
ENDROOT
TORSDOF 0
ENDMDL
