MODEL 1
REMARK minimizedAffinity -3.85652304
REMARK minimizedRMSD -1
REMARK  0 active torsions:
REMARK  status: ('A' for Active; 'I' for Inactive)
ROOT
ATOM      1  C   UNL d   1       0.036   0.027  -0.223  0.00  0.00     0.078 C 
ATOM      2  C1  UNL d   1       0.544  -0.385  -1.573  0.00  0.00    -0.077 A 
ATOM      3  C2  UNL d   1      -0.283  -0.331  -2.702  0.00  0.00    -0.001 A 
ATOM      4  C3  UNL d   1       0.200  -0.727  -3.950  0.00  0.00     0.003 A 
ATOM      5  C4  UNL d   1       1.511  -1.182  -4.081  0.00  0.00    -0.005 A 
ATOM      6  C5  UNL d   1       2.340  -1.242  -2.963  0.00  0.00     0.003 A 
ATOM      7  C6  UNL d   1       1.859  -0.846  -1.714  0.00  0.00    -0.001 A 
ENDROOT
TORSDOF 0
ENDMDL
