MODEL 1
REMARK minimizedAffinity -4.15727663
REMARK minimizedRMSD -1
REMARK  0 active torsions:
REMARK  status: ('A' for Active; 'I' for Inactive)
ROOT
ATOM      1  C   UNL d   1       0.242   0.330  -1.505  0.00  0.00     0.078 C 
ATOM      2  C1  UNL d   1      -0.256  -0.033  -0.138  0.00  0.00    -0.077 A 
ATOM      3  C2  UNL d   1       0.635  -0.278   0.914  0.00  0.00    -0.001 A 
ATOM      4  C3  UNL d   1       0.157  -0.624   2.178  0.00  0.00     0.003 A 
ATOM      5  C4  UNL d   1      -1.214  -0.729   2.404  0.00  0.00    -0.005 A 
ATOM      6  C5  UNL d   1      -2.109  -0.489   1.363  0.00  0.00     0.003 A 
ATOM      7  C6  UNL d   1      -1.633  -0.143   0.097  0.00  0.00    -0.001 A 
ENDROOT
TORSDOF 0
ENDMDL
