MODEL 1
REMARK minimizedAffinity -3.80917645
REMARK minimizedRMSD -1
REMARK  0 active torsions:
REMARK  status: ('A' for Active; 'I' for Inactive)
ROOT
ATOM      1  C   UNL d   1       0.601   0.515  -1.437  0.00  0.00     0.078 C 
ATOM      2  C1  UNL d   1       0.253   0.097  -0.039  0.00  0.00    -0.077 A 
ATOM      3  C2  UNL d   1      -0.965  -0.532   0.243  0.00  0.00    -0.001 A 
ATOM      4  C3  UNL d   1      -1.280  -0.907   1.551  0.00  0.00     0.003 A 
ATOM      5  C4  UNL d   1      -0.381  -0.655   2.586  0.00  0.00    -0.005 A 
ATOM      6  C5  UNL d   1       0.833  -0.028   2.315  0.00  0.00     0.003 A 
ATOM      7  C6  UNL d   1       1.149   0.347   1.008  0.00  0.00    -0.001 A 
ENDROOT
TORSDOF 0
ENDMDL
