MODEL 1
REMARK minimizedAffinity -2.1854949
REMARK minimizedRMSD -1
REMARK  0 active torsions:
REMARK  status: ('A' for Active; 'I' for Inactive)
ROOT
ATOM      1  C   UNL d   1       0.334   0.011  -0.987  0.00  0.00     0.078 C 
ATOM      2  C1  UNL d   1      -0.070  -0.111   0.452  0.00  0.00    -0.077 A 
ATOM      3  C2  UNL d   1       0.338   0.836   1.399  0.00  0.00    -0.001 A 
ATOM      4  C3  UNL d   1      -0.038   0.705   2.736  0.00  0.00     0.003 A 
ATOM      5  C4  UNL d   1      -0.823  -0.374   3.140  0.00  0.00    -0.005 A 
ATOM      6  C5  UNL d   1      -1.233  -1.322   2.205  0.00  0.00     0.003 A 
ATOM      7  C6  UNL d   1      -0.858  -1.192   0.867  0.00  0.00    -0.001 A 
ENDROOT
TORSDOF 0
ENDMDL
