MODEL 1
REMARK minimizedAffinity -4.01630068
REMARK minimizedRMSD -1
REMARK  0 active torsions:
REMARK  status: ('A' for Active; 'I' for Inactive)
ROOT
ATOM      1  C   UNL d   1      -2.082  -0.196  -0.658  0.00  0.00     0.078 C 
ATOM      2  C1  UNL d   1      -1.080  -0.023   0.444  0.00  0.00    -0.077 A 
ATOM      3  C2  UNL d   1      -1.258  -0.647   1.685  0.00  0.00    -0.001 A 
ATOM      4  C3  UNL d   1      -0.322  -0.469   2.705  0.00  0.00     0.003 A 
ATOM      5  C4  UNL d   1       0.797   0.334   2.496  0.00  0.00    -0.005 A 
ATOM      6  C5  UNL d   1       0.982   0.961   1.265  0.00  0.00     0.003 A 
ATOM      7  C6  UNL d   1       0.047   0.784   0.244  0.00  0.00    -0.001 A 
ENDROOT
TORSDOF 0
ENDMDL
