MODEL 1
REMARK minimizedAffinity -1.50151479
REMARK minimizedRMSD -1
REMARK  3 active torsions:
REMARK  status: ('A' for Active; 'I' for Inactive)
REMARK    1  A    between atoms: C3'_2  and  C2'_3 
REMARK    2  A    between atoms: C2'_3  and  C1'_4 
REMARK    3  A    between atoms: C1'_4  and  C1_5 
ROOT
ATOM      1  C1  N4B d   1       2.235   0.230   1.711  0.00  0.00    -0.075 A 
ATOM      2  C2  N4B d   1       1.610  -1.024   1.889  0.00  0.00     0.002 A 
ATOM      3  C3  N4B d   1       1.579  -1.606   3.132  0.00  0.00     0.002 A 
ATOM      4  C4  N4B d   1       2.180  -0.964   4.205  0.00  0.00    -0.004 A 
ATOM      5  C5  N4B d   1       2.759   0.259   4.030  0.00  0.00     0.002 A 
ATOM      6  C6  N4B d   1       2.794   0.857   2.786  0.00  0.00     0.002 A 
ENDROOT
BRANCH   1   7
ATOM      7  C1' N4B d   1       2.369   0.865   0.354  0.00  0.00     0.057 C 
BRANCH   7   8
ATOM      8  C2' N4B d   1       2.244   2.380   0.496  0.00  0.00     0.009 C 
BRANCH   8   9
ATOM      9  C3' N4B d   1       0.823   2.858   0.256  0.00  0.00     0.004 C 
ATOM     10  C4' N4B d   1       0.761   4.101  -0.580  0.00  0.00     0.003 C 
ENDBRANCH   8   9
ENDBRANCH   7   8
ENDBRANCH   1   7
TORSDOF 3
ENDMDL
