MODEL 1
REMARK minimizedAffinity 12.2535686
REMARK minimizedRMSD -1
REMARK  3 active torsions:
REMARK  status: ('A' for Active; 'I' for Inactive)
REMARK    1  A    between atoms: C3'_2  and  C2'_3 
REMARK    2  A    between atoms: C2'_3  and  C1'_4 
REMARK    3  A    between atoms: C1'_4  and  C1_5 
ROOT
ATOM      1  C1  N4B d   1      -0.393  -2.840  -1.148  0.00  0.00    -0.075 A 
ATOM      2  C2  N4B d   1      -0.029  -2.051  -2.262  0.00  0.00     0.002 A 
ATOM      3  C3  N4B d   1       1.110  -2.347  -2.969  0.00  0.00     0.002 A 
ATOM      4  C4  N4B d   1       1.907  -3.410  -2.573  0.00  0.00    -0.004 A 
ATOM      5  C5  N4B d   1       1.535  -4.182  -1.512  0.00  0.00     0.002 A 
ATOM      6  C6  N4B d   1       0.391  -3.899  -0.794  0.00  0.00     0.002 A 
ENDROOT
BRANCH   1   7
ATOM      7  C1' N4B d   1      -1.583  -2.504  -0.292  0.00  0.00     0.057 C 
BRANCH   7   8
ATOM      8  C2' N4B d   1      -1.199  -1.400   0.689  0.00  0.00     0.009 C 
BRANCH   8   9
ATOM      9  C3' N4B d   1       0.302  -1.172   0.728  0.00  0.00     0.004 C 
ATOM     10  C4' N4B d   1       0.924  -1.621   2.017  0.00  0.00     0.003 C 
ENDBRANCH   8   9
ENDBRANCH   7   8
ENDBRANCH   1   7
TORSDOF 3
ENDMDL
