MODEL 1
REMARK minimizedAffinity 2.99416757
REMARK minimizedRMSD -1
REMARK  3 active torsions:
REMARK  status: ('A' for Active; 'I' for Inactive)
REMARK    1  A    between atoms: C3'_2  and  C2'_3 
REMARK    2  A    between atoms: C2'_3  and  C1'_4 
REMARK    3  A    between atoms: C1'_4  and  C1_5 
ROOT
ATOM      1  C1  N4B d   1      -0.794  -2.009  -0.584  0.00  0.00    -0.075 A 
ATOM      2  C2  N4B d   1      -0.034  -3.119  -1.013  0.00  0.00     0.002 A 
ATOM      3  C3  N4B d   1      -0.518  -3.942  -1.999  0.00  0.00     0.002 A 
ATOM      4  C4  N4B d   1      -1.762  -3.688  -2.556  0.00  0.00    -0.004 A 
ATOM      5  C5  N4B d   1      -2.479  -2.599  -2.154  0.00  0.00     0.002 A 
ATOM      6  C6  N4B d   1      -2.003  -1.760  -1.167  0.00  0.00     0.002 A 
ENDROOT
BRANCH   1   7
ATOM      7  C1' N4B d   1      -0.345  -1.129   0.551  0.00  0.00     0.057 C 
BRANCH   7   8
ATOM      8  C2' N4B d   1      -0.358   0.326   0.093  0.00  0.00     0.009 C 
BRANCH   8   9
ATOM      9  C3' N4B d   1       1.044   0.902  -0.009  0.00  0.00     0.004 C 
ATOM     10  C4' N4B d   1       1.104   2.353   0.367  0.00  0.00     0.003 C 
ENDBRANCH   8   9
ENDBRANCH   7   8
ENDBRANCH   1   7
TORSDOF 3
ENDMDL
