MODEL 1
REMARK minimizedAffinity -4.96136761
REMARK minimizedRMSD -1
REMARK  3 active torsions:
REMARK  status: ('A' for Active; 'I' for Inactive)
REMARK    1  A    between atoms: C3'_2  and  C2'_3 
REMARK    2  A    between atoms: C2'_3  and  C1'_4 
REMARK    3  A    between atoms: C1'_4  and  C1_5 
ROOT
ATOM      1  C1  N4B d   1       2.612  -0.796   2.797  0.00  0.00    -0.075 A 
ATOM      2  C2  N4B d   1       1.528  -1.564   2.317  0.00  0.00     0.002 A 
ATOM      3  C3  N4B d   1       0.860  -1.174   1.183  0.00  0.00     0.002 A 
ATOM      4  C4  N4B d   1       1.243  -0.014   0.526  0.00  0.00    -0.004 A 
ATOM      5  C5  N4B d   1       2.306   0.708   0.982  0.00  0.00     0.002 A 
ATOM      6  C6  N4B d   1       2.990   0.325   2.118  0.00  0.00     0.002 A 
ENDROOT
BRANCH   1   7
ATOM      7  C1' N4B d   1       3.319  -1.137   4.081  0.00  0.00     0.057 C 
BRANCH   7   8
ATOM      8  C2' N4B d   1       3.538  -2.645   4.147  0.00  0.00     0.009 C 
BRANCH   8   9
ATOM      9  C3' N4B d   1       4.949  -2.996   4.587  0.00  0.00     0.004 C 
ATOM     10  C4' N4B d   1       6.000  -2.275   3.796  0.00  0.00     0.003 C 
ENDBRANCH   8   9
ENDBRANCH   7   8
ENDBRANCH   1   7
TORSDOF 3
ENDMDL
