MODEL 1
REMARK minimizedAffinity 3.6640358
REMARK minimizedRMSD -1
REMARK  3 active torsions:
REMARK  status: ('A' for Active; 'I' for Inactive)
REMARK    1  A    between atoms: C3'_2  and  C2'_3 
REMARK    2  A    between atoms: C2'_3  and  C1'_4 
REMARK    3  A    between atoms: C1'_4  and  C1_5 
ROOT
ATOM      1  C1  N4B d   1       0.662  -0.331   0.406  0.00  0.00    -0.075 A 
ATOM      2  C2  N4B d   1       1.846   0.430   0.288  0.00  0.00     0.002 A 
ATOM      3  C3  N4B d   1       1.773   1.792   0.126  0.00  0.00     0.002 A 
ATOM      4  C4  N4B d   1       0.534   2.410   0.060  0.00  0.00    -0.004 A 
ATOM      5  C5  N4B d   1      -0.605   1.671   0.201  0.00  0.00     0.002 A 
ATOM      6  C6  N4B d   1      -0.547   0.302   0.368  0.00  0.00     0.002 A 
ENDROOT
BRANCH   1   7
ATOM      7  C1' N4B d   1       0.688  -1.832   0.499  0.00  0.00     0.057 C 
BRANCH   7   8
ATOM      8  C2' N4B d   1       0.032  -2.422  -0.746  0.00  0.00     0.009 C 
BRANCH   8   9
ATOM      9  C3' N4B d   1       0.630  -3.767  -1.120  0.00  0.00     0.004 C 
ATOM     10  C4' N4B d   1      -0.154  -4.476  -2.185  0.00  0.00     0.003 C 
ENDBRANCH   8   9
ENDBRANCH   7   8
ENDBRANCH   1   7
TORSDOF 3
ENDMDL
