MODEL 1
REMARK minimizedAffinity -0.438038319
REMARK minimizedRMSD -1
REMARK  0 active torsions:
REMARK  status: ('A' for Active; 'I' for Inactive)
ROOT
ATOM      1  C1  DEN d   1      -0.038  -0.757  -2.108  0.00  0.00     0.130 A 
ATOM      2  C2  DEN d   1       1.356  -1.093  -1.833  0.00  0.00    -0.031 A 
ATOM      3  C3  DEN d   1       1.535  -1.130  -0.368  0.00  0.00     0.027 A 
ATOM      4  C4  DEN d   1      -0.202  -0.708   1.491  0.00  0.00     0.027 A 
ATOM      5  C5  DEN d   1      -1.515  -0.379   1.747  0.00  0.00    -0.003 A 
ATOM      6  C6  DEN d   1      -2.412  -0.122   0.744  0.00  0.00     0.001 A 
ATOM      7  C7  DEN d   1      -2.019  -0.234  -0.563  0.00  0.00     0.017 A 
ATOM      8  C8  DEN d   1      -0.695  -0.558  -0.829  0.00  0.00    -0.094 A 
ATOM      9  C9  DEN d   1       0.194  -0.826   0.199  0.00  0.00    -0.072 A 
ENDROOT
TORSDOF 0
ENDMDL
