MODEL 1
REMARK minimizedAffinity 2.35171604
REMARK minimizedRMSD -1
REMARK  0 active torsions:
REMARK  status: ('A' for Active; 'I' for Inactive)
ROOT
ATOM      1  C1  DEN d   1      -0.741  -4.921   2.443  0.00  0.00     0.130 A 
ATOM      2  C2  DEN d   1      -1.637  -3.833   2.827  0.00  0.00    -0.031 A 
ATOM      3  C3  DEN d   1      -0.910  -2.560   2.652  0.00  0.00     0.027 A 
ATOM      4  C4  DEN d   1       1.501  -2.168   1.823  0.00  0.00     0.027 A 
ATOM      5  C5  DEN d   1       2.653  -2.786   1.390  0.00  0.00    -0.003 A 
ATOM      6  C6  DEN d   1       2.765  -4.149   1.311  0.00  0.00     0.001 A 
ATOM      7  C7  DEN d   1       1.691  -4.938   1.627  0.00  0.00     0.017 A 
ATOM      8  C8  DEN d   1       0.528  -4.323   2.071  0.00  0.00    -0.094 A 
ATOM      9  C9  DEN d   1       0.430  -2.943   2.133  0.00  0.00    -0.072 A 
ENDROOT
TORSDOF 0
ENDMDL
