MODEL 1
REMARK minimizedAffinity 5.8637476
REMARK minimizedRMSD -1
REMARK  0 active torsions:
REMARK  status: ('A' for Active; 'I' for Inactive)
ROOT
ATOM      1  C1  DEN d   1       2.235  -3.053   0.272  0.00  0.00     0.130 A 
ATOM      2  C2  DEN d   1       2.681  -4.003   1.287  0.00  0.00    -0.031 A 
ATOM      3  C3  DEN d   1       1.949  -3.715   2.536  0.00  0.00     0.027 A 
ATOM      4  C4  DEN d   1       0.174  -1.901   2.995  0.00  0.00     0.027 A 
ATOM      5  C5  DEN d   1      -0.525  -0.849   2.445  0.00  0.00    -0.003 A 
ATOM      6  C6  DEN d   1      -0.329  -0.440   1.152  0.00  0.00     0.001 A 
ATOM      7  C7  DEN d   1       0.555  -1.115   0.353  0.00  0.00     0.017 A 
ATOM      8  C8  DEN d   1       1.268  -2.172   0.903  0.00  0.00    -0.094 A 
ATOM      9  C9  DEN d   1       1.047  -2.579   2.208  0.00  0.00    -0.072 A 
ENDROOT
TORSDOF 0
ENDMDL
