MODEL 1
REMARK minimizedAffinity -3.26487708
REMARK minimizedRMSD -1
REMARK  0 active torsions:
REMARK  status: ('A' for Active; 'I' for Inactive)
ROOT
ATOM      1  C1  DEN d   1       0.923  -1.946  -0.174  0.00  0.00     0.130 A 
ATOM      2  C2  DEN d   1       1.730  -2.559   0.877  0.00  0.00    -0.031 A 
ATOM      3  C3  DEN d   1       1.044  -2.341   2.166  0.00  0.00     0.027 A 
ATOM      4  C4  DEN d   1      -1.182  -1.125   2.633  0.00  0.00     0.027 A 
ATOM      5  C5  DEN d   1      -2.224  -0.430   2.059  0.00  0.00    -0.003 A 
ATOM      6  C6  DEN d   1      -2.272  -0.165   0.717  0.00  0.00     0.001 A 
ATOM      7  C7  DEN d   1      -1.282  -0.636  -0.105  0.00  0.00     0.017 A 
ATOM      8  C8  DEN d   1      -0.225  -1.331   0.468  0.00  0.00    -0.094 A 
ATOM      9  C9  DEN d   1      -0.200  -1.600   1.826  0.00  0.00    -0.072 A 
ENDROOT
TORSDOF 0
ENDMDL
