MODEL 1
REMARK minimizedAffinity 7.71319723
REMARK minimizedRMSD -1
REMARK  0 active torsions:
REMARK  status: ('A' for Active; 'I' for Inactive)
ROOT
ATOM      1  C1  DEN d   1       0.387  -0.517   0.756  0.00  0.00     0.130 A 
ATOM      2  C2  DEN d   1      -0.724   0.361   1.114  0.00  0.00    -0.031 A 
ATOM      3  C3  DEN d   1      -1.540  -0.328   2.133  0.00  0.00     0.027 A 
ATOM      4  C4  DEN d   1      -1.193  -2.655   3.190  0.00  0.00     0.027 A 
ATOM      5  C5  DEN d   1      -0.394  -3.778   3.195  0.00  0.00    -0.003 A 
ATOM      6  C6  DEN d   1       0.692  -3.905   2.370  0.00  0.00     0.001 A 
ATOM      7  C7  DEN d   1       1.036  -2.874   1.537  0.00  0.00     0.017 A 
ATOM      8  C8  DEN d   1       0.232  -1.742   1.521  0.00  0.00    -0.094 A 
ATOM      9  C9  DEN d   1      -0.855  -1.627   2.371  0.00  0.00    -0.072 A 
ENDROOT
TORSDOF 0
ENDMDL
