MODEL 1
REMARK minimizedAffinity 0.116048336
REMARK minimizedRMSD -1
REMARK  0 active torsions:
REMARK  status: ('A' for Active; 'I' for Inactive)
ROOT
ATOM      1  C1  DEN d   1      -0.286   0.104  -0.630  0.00  0.00     0.130 A 
ATOM      2  C2  DEN d   1      -1.386  -0.855  -0.671  0.00  0.00    -0.031 A 
ATOM      3  C3  DEN d   1      -1.368  -1.624   0.589  0.00  0.00     0.027 A 
ATOM      4  C4  DEN d   1       0.245  -1.421   2.592  0.00  0.00     0.027 A 
ATOM      5  C5  DEN d   1       1.347  -0.756   3.082  0.00  0.00    -0.003 A 
ATOM      6  C6  DEN d   1       1.998   0.210   2.362  0.00  0.00     0.001 A 
ATOM      7  C7  DEN d   1       1.524   0.571   1.128  0.00  0.00     0.017 A 
ATOM      8  C8  DEN d   1       0.417  -0.099   0.624  0.00  0.00    -0.094 A 
ATOM      9  C9  DEN d   1      -0.234  -1.065   1.373  0.00  0.00    -0.072 A 
ENDROOT
TORSDOF 0
ENDMDL
