MODEL 1
REMARK minimizedAffinity 7.28548622
REMARK minimizedRMSD -1
REMARK  1 active torsions:
REMARK  status: ('A' for Active; 'I' for Inactive)
REMARK    1  A    between atoms: C1_2  and  C2_3 
ROOT
ATOM      1  C2  UNL d   1       2.769  -1.880   3.914  0.00  0.00    -0.076 A 
ATOM      2  C3  UNL d   1       4.109  -1.458   3.921  0.00  0.00     0.004 A 
ATOM      3  C4  UNL d   1       4.970  -1.820   4.956  0.00  0.00    -0.003 A 
ATOM      4  C5  UNL d   1       4.504  -2.612   6.000  0.00  0.00     0.000 A 
ATOM      5  C6  UNL d   1       3.182  -3.054   6.000  0.00  0.00     0.000 A 
ATOM      6  C7  UNL d   1       2.306  -2.712   4.956  0.00  0.00    -0.073 A 
ATOM      7  C8  UNL d   1       0.888  -3.212   5.010  0.00  0.00     0.078 C 
ENDROOT
BRANCH   1   8
ATOM      8  C1  UNL d   1       1.875  -1.434   2.779  0.00  0.00     0.053 C 
ATOM      9  C   UNL d   1       1.848   0.079   2.619  0.00  0.00     0.018 C 
ENDBRANCH   1   8
TORSDOF 1
ENDMDL
