MODEL 1
REMARK minimizedAffinity 1.60123694
REMARK minimizedRMSD -1
REMARK  1 active torsions:
REMARK  status: ('A' for Active; 'I' for Inactive)
REMARK    1  A    between atoms: C1_2  and  C2_3 
ROOT
ATOM      1  C2  UNL d   1       4.249  -1.871   3.856  0.00  0.00    -0.076 A 
ATOM      2  C3  UNL d   1       3.502  -2.867   4.508  0.00  0.00     0.004 A 
ATOM      3  C4  UNL d   1       2.138  -3.015   4.266  0.00  0.00    -0.003 A 
ATOM      4  C5  UNL d   1       1.498  -2.170   3.366  0.00  0.00     0.000 A 
ATOM      5  C6  UNL d   1       2.227  -1.188   2.696  0.00  0.00     0.000 A 
ATOM      6  C7  UNL d   1       3.606  -1.036   2.917  0.00  0.00    -0.073 A 
ATOM      7  C8  UNL d   1       4.342   0.044   2.172  0.00  0.00     0.078 C 
ENDROOT
BRANCH   1   8
ATOM      8  C1  UNL d   1       5.721  -1.740   4.179  0.00  0.00     0.053 C 
ATOM      9  C   UNL d   1       5.999  -1.822   5.672  0.00  0.00     0.018 C 
ENDBRANCH   1   8
TORSDOF 1
ENDMDL
