MODEL 1
REMARK minimizedAffinity 6.11916733
REMARK minimizedRMSD -1
REMARK  1 active torsions:
REMARK  status: ('A' for Active; 'I' for Inactive)
REMARK    1  A    between atoms: C1_2  and  C2_3 
ROOT
ATOM      1  C2  UNL d   1       3.638  -1.753   3.927  0.00  0.00    -0.076 A 
ATOM      2  C3  UNL d   1       5.010  -1.465   3.826  0.00  0.00     0.004 A 
ATOM      3  C4  UNL d   1       5.911  -1.922   4.786  0.00  0.00    -0.003 A 
ATOM      4  C5  UNL d   1       5.455  -2.674   5.863  0.00  0.00     0.000 A 
ATOM      5  C6  UNL d   1       4.099  -2.984   5.969  0.00  0.00     0.000 A 
ATOM      6  C7  UNL d   1       3.180  -2.545   5.001  0.00  0.00    -0.073 A 
ATOM      7  C8  UNL d   1       1.729  -2.903   5.169  0.00  0.00     0.078 C 
ENDROOT
BRANCH   1   8
ATOM      8  C1  UNL d   1       2.704  -1.208   2.870  0.00  0.00     0.053 C 
ATOM      9  C   UNL d   1       2.814   0.301   2.718  0.00  0.00     0.018 C 
ENDBRANCH   1   8
TORSDOF 1
ENDMDL
