MODEL 1
REMARK minimizedAffinity -1.67941618
REMARK minimizedRMSD -1
REMARK  1 active torsions:
REMARK  status: ('A' for Active; 'I' for Inactive)
REMARK    1  A    between atoms: C1_2  and  C2_3 
ROOT
ATOM      1  C2  UNL d   1       3.637  -1.648   3.881  0.00  0.00    -0.076 A 
ATOM      2  C3  UNL d   1       4.994  -1.479   3.555  0.00  0.00     0.004 A 
ATOM      3  C4  UNL d   1       5.998  -1.865   4.441  0.00  0.00    -0.003 A 
ATOM      4  C5  UNL d   1       5.662  -2.428   5.667  0.00  0.00     0.000 A 
ATOM      5  C6  UNL d   1       4.321  -2.619   6.000  0.00  0.00     0.000 A 
ATOM      6  C7  UNL d   1       3.297  -2.250   5.111  0.00  0.00    -0.073 A 
ATOM      7  C8  UNL d   1       1.868  -2.474   5.524  0.00  0.00     0.078 C 
ENDROOT
BRANCH   1   8
ATOM      8  C1  UNL d   1       2.591  -1.186   2.892  0.00  0.00     0.053 C 
ATOM      9  C   UNL d   1       2.977   0.114   2.201  0.00  0.00     0.018 C 
ENDBRANCH   1   8
TORSDOF 1
ENDMDL
