MODEL 1
REMARK minimizedAffinity 8.09037209
REMARK minimizedRMSD -1
REMARK  1 active torsions:
REMARK  status: ('A' for Active; 'I' for Inactive)
REMARK    1  A    between atoms: C1_2  and  C2_3 
ROOT
ATOM      1  C2  UNL d   1       2.815  -2.276   4.536  0.00  0.00    -0.076 A 
ATOM      2  C3  UNL d   1       2.608  -0.888   4.618  0.00  0.00     0.004 A 
ATOM      3  C4  UNL d   1       2.027  -0.186   3.563  0.00  0.00    -0.003 A 
ATOM      4  C5  UNL d   1       1.642  -0.861   2.410  0.00  0.00     0.000 A 
ATOM      5  C6  UNL d   1       1.823  -2.240   2.319  0.00  0.00     0.000 A 
ATOM      6  C7  UNL d   1       2.393  -2.966   3.379  0.00  0.00    -0.073 A 
ATOM      7  C8  UNL d   1       2.570  -4.451   3.224  0.00  0.00     0.078 C 
ENDROOT
BRANCH   1   8
ATOM      8  C1  UNL d   1       3.474  -2.980   5.700  0.00  0.00     0.053 C 
ATOM      9  C   UNL d   1       4.862  -2.435   6.000  0.00  0.00     0.018 C 
ENDBRANCH   1   8
TORSDOF 1
ENDMDL
