MODEL 1
REMARK minimizedAffinity 1.00346518
REMARK minimizedRMSD -1
REMARK  0 active torsions:
REMARK  status: ('A' for Active; 'I' for Inactive)
ROOT
ATOM      1  C4' PXY d   1       6.000  -5.703   2.663  0.00  0.00     0.077 C 
ATOM      2  C1' PXY d   1       0.220  -5.605   2.643  0.00  0.00     0.077 C 
ATOM      3  C1  PXY d   1       1.736  -5.632   2.635  0.00  0.00    -0.082 A 
ATOM      4  C2  PXY d   1       2.389  -6.000   3.725  0.00  0.00     0.003 A 
ATOM      5  C3  PXY d   1       3.760  -6.000   3.746  0.00  0.00     0.003 A 
ATOM      6  C4  PXY d   1       4.470  -5.670   2.622  0.00  0.00    -0.082 A 
ATOM      7  C5  PXY d   1       3.810  -5.304   1.503  0.00  0.00     0.003 A 
ATOM      8  C6  PXY d   1       2.419  -5.271   1.515  0.00  0.00     0.003 A 
ENDROOT
TORSDOF 0
ENDMDL
