MODEL 1
REMARK minimizedAffinity 12.499362
REMARK minimizedRMSD -1
REMARK  0 active torsions:
REMARK  status: ('A' for Active; 'I' for Inactive)
ROOT
ATOM      1  C4' PXY d   1       0.111  -0.978   3.516  0.00  0.00     0.077 C 
ATOM      2  C1' PXY d   1      -3.379   0.000  -0.987  0.00  0.00     0.077 C 
ATOM      3  C1  PXY d   1      -2.460  -0.244   0.193  0.00  0.00    -0.082 A 
ATOM      4  C2  PXY d   1      -2.044  -1.472   0.456  0.00  0.00     0.003 A 
ATOM      5  C3  PXY d   1      -1.238  -1.716   1.538  0.00  0.00     0.003 A 
ATOM      6  C4  PXY d   1      -0.810  -0.683   2.329  0.00  0.00    -0.082 A 
ATOM      7  C5  PXY d   1      -1.221   0.575   2.061  0.00  0.00     0.003 A 
ATOM      8  C6  PXY d   1      -2.072   0.795   0.982  0.00  0.00     0.003 A 
ENDROOT
TORSDOF 0
ENDMDL
