MODEL 1
REMARK minimizedAffinity 5.79343367
REMARK minimizedRMSD -1
REMARK  0 active torsions:
REMARK  status: ('A' for Active; 'I' for Inactive)
ROOT
ATOM      1  C4' PXY d   1      -3.949  -1.101   0.061  0.00  0.00     0.077 C 
ATOM      2  C1' PXY d   1      -1.000   2.923   2.980  0.00  0.00     0.077 C 
ATOM      3  C1  PXY d   1      -1.784   1.872   2.220  0.00  0.00    -0.082 A 
ATOM      4  C2  PXY d   1      -1.168   0.787   1.780  0.00  0.00     0.003 A 
ATOM      5  C3  PXY d   1      -1.855  -0.158   1.063  0.00  0.00     0.003 A 
ATOM      6  C4  PXY d   1      -3.199  -0.018   0.841  0.00  0.00    -0.082 A 
ATOM      7  C5  PXY d   1      -3.837   1.081   1.296  0.00  0.00     0.003 A 
ATOM      8  C6  PXY d   1      -3.113   2.049   1.986  0.00  0.00     0.003 A 
ENDROOT
TORSDOF 0
ENDMDL
