MODEL 1
REMARK minimizedAffinity 4.87104797
REMARK minimizedRMSD -1
REMARK  0 active torsions:
REMARK  status: ('A' for Active; 'I' for Inactive)
ROOT
ATOM      1  C4' PXY d   1      -3.882  -4.680  -5.995  0.00  0.00     0.077 C 
ATOM      2  C1' PXY d   1      -1.488   0.581  -5.926  0.00  0.00     0.077 C 
ATOM      3  C1  PXY d   1      -2.105  -0.803  -5.950  0.00  0.00    -0.082 A 
ATOM      4  C2  PXY d   1      -3.422  -0.933  -5.948  0.00  0.00     0.003 A 
ATOM      5  C3  PXY d   1      -3.996  -2.178  -5.936  0.00  0.00     0.003 A 
ATOM      6  C4  PXY d   1      -3.215  -3.302  -5.981  0.00  0.00    -0.082 A 
ATOM      7  C5  PXY d   1      -1.871  -3.178  -5.995  0.00  0.00     0.003 A 
ATOM      8  C6  PXY d   1      -1.307  -1.906  -5.964  0.00  0.00     0.003 A 
ENDROOT
TORSDOF 0
ENDMDL
