MODEL 1
REMARK minimizedAffinity 6.79168367
REMARK minimizedRMSD -1
REMARK  0 active torsions:
REMARK  status: ('A' for Active; 'I' for Inactive)
ROOT
ATOM      1  C4' PXY d   1       5.997  -5.913   6.000  0.00  0.00     0.077 C 
ATOM      2  C1' PXY d   1       5.843  -1.006   2.948  0.00  0.00     0.077 C 
ATOM      3  C1  PXY d   1       5.878  -2.299   3.738  0.00  0.00    -0.082 A 
ATOM      4  C2  PXY d   1       5.926  -2.257   5.060  0.00  0.00     0.003 A 
ATOM      5  C3  PXY d   1       5.990  -3.416   5.789  0.00  0.00     0.003 A 
ATOM      6  C4  PXY d   1       5.951  -4.632   5.161  0.00  0.00    -0.082 A 
ATOM      7  C5  PXY d   1       5.891  -4.684   3.814  0.00  0.00     0.003 A 
ATOM      8  C6  PXY d   1       5.868  -3.496   3.090  0.00  0.00     0.003 A 
ENDROOT
TORSDOF 0
ENDMDL
