MODEL 1
REMARK minimizedAffinity 4.95721102
REMARK minimizedRMSD -1
REMARK  0 active torsions:
REMARK  status: ('A' for Active; 'I' for Inactive)
ROOT
ATOM      1  C4' PXY d   1      -5.219  -2.159  -0.210  0.00  0.00     0.077 C 
ATOM      2  C1' PXY d   1      -4.358   2.579   2.988  0.00  0.00     0.077 C 
ATOM      3  C1  PXY d   1      -4.573   1.339   2.143  0.00  0.00    -0.082 A 
ATOM      4  C2  PXY d   1      -5.792   0.842   2.009  0.00  0.00     0.003 A 
ATOM      5  C3  PXY d   1      -6.000  -0.297   1.274  0.00  0.00     0.003 A 
ATOM      6  C4  PXY d   1      -4.957  -0.903   0.626  0.00  0.00    -0.082 A 
ATOM      7  C5  PXY d   1      -3.712  -0.396   0.750  0.00  0.00     0.003 A 
ATOM      8  C6  PXY d   1      -3.516   0.737   1.534  0.00  0.00     0.003 A 
ENDROOT
TORSDOF 0
ENDMDL
