MODEL 1
REMARK minimizedAffinity 8.80995369
REMARK minimizedRMSD -1
REMARK  0 active torsions:
REMARK  status: ('A' for Active; 'I' for Inactive)
ROOT
ATOM      1  C4' PXY d   1       4.488   2.613  -6.000  0.00  0.00     0.077 C 
ATOM      2  C1' PXY d   1       1.894   1.044  -1.078  0.00  0.00     0.077 C 
ATOM      3  C1  PXY d   1       2.576   1.443  -2.372  0.00  0.00    -0.082 A 
ATOM      4  C2  PXY d   1       3.122   2.644  -2.480  0.00  0.00     0.003 A 
ATOM      5  C3  PXY d   1       3.714   3.032  -3.654  0.00  0.00     0.003 A 
ATOM      6  C4  PXY d   1       3.797   2.164  -4.709  0.00  0.00    -0.082 A 
ATOM      7  C5  PXY d   1       3.252   0.934  -4.603  0.00  0.00     0.003 A 
ATOM      8  C6  PXY d   1       2.619   0.573  -3.417  0.00  0.00     0.003 A 
ENDROOT
TORSDOF 0
ENDMDL
