MODEL 1
REMARK minimizedAffinity 10.3868465
REMARK minimizedRMSD -1
REMARK  0 active torsions:
REMARK  status: ('A' for Active; 'I' for Inactive)
ROOT
ATOM      1  C4' PXY d   1      -1.030  -4.101  -5.853  0.00  0.00     0.077 C 
ATOM      2  C1' PXY d   1      -5.948  -1.068  -5.999  0.00  0.00     0.077 C 
ATOM      3  C1  PXY d   1      -4.665  -1.874  -5.956  0.00  0.00    -0.082 A 
ATOM      4  C2  PXY d   1      -3.500  -1.247  -5.915  0.00  0.00     0.003 A 
ATOM      5  C3  PXY d   1      -2.329  -1.960  -5.908  0.00  0.00     0.003 A 
ATOM      6  C4  PXY d   1      -2.351  -3.329  -5.888  0.00  0.00    -0.082 A 
ATOM      7  C5  PXY d   1      -3.536  -3.975  -5.919  0.00  0.00     0.003 A 
ATOM      8  C6  PXY d   1      -4.712  -3.233  -5.967  0.00  0.00     0.003 A 
ENDROOT
TORSDOF 0
ENDMDL
