MODEL 1
REMARK minimizedAffinity 7.15826988
REMARK minimizedRMSD -1
REMARK  0 active torsions:
REMARK  status: ('A' for Active; 'I' for Inactive)
ROOT
ATOM      1  C4' PXY d   1      -3.006   1.506   0.820  0.00  0.00     0.077 C 
ATOM      2  C1' PXY d   1      -4.153  -0.789   6.000  0.00  0.00     0.077 C 
ATOM      3  C1  PXY d   1      -3.865  -0.184   4.640  0.00  0.00    -0.082 A 
ATOM      4  C2  PXY d   1      -2.789  -0.564   3.970  0.00  0.00     0.003 A 
ATOM      5  C3  PXY d   1      -2.497  -0.004   2.753  0.00  0.00     0.003 A 
ATOM      6  C4  PXY d   1      -3.342   0.916   2.192  0.00  0.00    -0.082 A 
ATOM      7  C5  PXY d   1      -4.447   1.301   2.865  0.00  0.00     0.003 A 
ATOM      8  C6  PXY d   1      -4.704   0.751   4.117  0.00  0.00     0.003 A 
ENDROOT
TORSDOF 0
ENDMDL
