MODEL 1
REMARK minimizedAffinity 0.394636422
REMARK minimizedRMSD -1
REMARK  0 active torsions:
REMARK  status: ('A' for Active; 'I' for Inactive)
ROOT
ATOM      1  C4' PXY d   1      -5.166  -4.730  -5.968  0.00  0.00     0.077 C 
ATOM      2  C1' PXY d   1      -2.244   0.258  -5.991  0.00  0.00     0.077 C 
ATOM      3  C1  PXY d   1      -3.000  -1.057  -5.991  0.00  0.00    -0.082 A 
ATOM      4  C2  PXY d   1      -4.323  -1.050  -5.982  0.00  0.00     0.003 A 
ATOM      5  C3  PXY d   1      -5.023  -2.229  -5.949  0.00  0.00     0.003 A 
ATOM      6  C4  PXY d   1      -4.362  -3.428  -5.979  0.00  0.00    -0.082 A 
ATOM      7  C5  PXY d   1      -3.012  -3.443  -5.999  0.00  0.00     0.003 A 
ATOM      8  C6  PXY d   1      -2.320  -2.235  -5.990  0.00  0.00     0.003 A 
ENDROOT
TORSDOF 0
ENDMDL
