MODEL 1
REMARK minimizedAffinity 6.12251377
REMARK minimizedRMSD -1
REMARK  0 active torsions:
REMARK  status: ('A' for Active; 'I' for Inactive)
ROOT
ATOM      1  C4' PXY d   1      -3.690  -2.623  -6.000  0.00  0.00     0.077 C 
ATOM      2  C1' PXY d   1       1.306  -0.166  -4.444  0.00  0.00     0.077 C 
ATOM      3  C1  PXY d   1      -0.011  -0.801  -4.846  0.00  0.00    -0.082 A 
ATOM      4  C2  PXY d   1      -0.053  -2.091  -5.137  0.00  0.00     0.003 A 
ATOM      5  C3  PXY d   1      -1.229  -2.675  -5.533  0.00  0.00     0.003 A 
ATOM      6  C4  PXY d   1      -2.385  -1.942  -5.580  0.00  0.00    -0.082 A 
ATOM      7  C5  PXY d   1      -2.352  -0.628  -5.274  0.00  0.00     0.003 A 
ATOM      8  C6  PXY d   1      -1.140  -0.045  -4.914  0.00  0.00     0.003 A 
ENDROOT
TORSDOF 0
ENDMDL
