MODEL 1
REMARK minimizedAffinity -0.0952895358
REMARK minimizedRMSD -1
REMARK  0 active torsions:
REMARK  status: ('A' for Active; 'I' for Inactive)
ROOT
ATOM      1  C4' PXY d   1      -5.583  -3.082  -5.983  0.00  0.00     0.077 C 
ATOM      2  C1' PXY d   1      -0.175  -1.042  -5.995  0.00  0.00     0.077 C 
ATOM      3  C1  PXY d   1      -1.589  -1.588  -5.997  0.00  0.00    -0.082 A 
ATOM      4  C2  PXY d   1      -2.614  -0.751  -5.998  0.00  0.00     0.003 A 
ATOM      5  C3  PXY d   1      -3.899  -1.228  -5.968  0.00  0.00     0.003 A 
ATOM      6  C4  PXY d   1      -4.138  -2.576  -5.990  0.00  0.00    -0.082 A 
ATOM      7  C5  PXY d   1      -3.099  -3.436  -6.000  0.00  0.00     0.003 A 
ATOM      8  C6  PXY d   1      -1.801  -2.932  -5.989  0.00  0.00     0.003 A 
ENDROOT
TORSDOF 0
ENDMDL
