MODEL 1
REMARK minimizedAffinity 8.38189125
REMARK minimizedRMSD -1
REMARK  0 active torsions:
REMARK  status: ('A' for Active; 'I' for Inactive)
ROOT
ATOM      1  C4' PXY d   1      -4.104   1.857   1.044  0.00  0.00     0.077 C 
ATOM      2  C1' PXY d   1      -3.554  -1.071   5.998  0.00  0.00     0.077 C 
ATOM      3  C1  PXY d   1      -3.711  -0.302   4.701  0.00  0.00    -0.082 A 
ATOM      4  C2  PXY d   1      -2.805  -0.438   3.746  0.00  0.00     0.003 A 
ATOM      5  C3  PXY d   1      -2.915   0.274   2.579  0.00  0.00     0.003 A 
ATOM      6  C4  PXY d   1      -3.991   1.094   2.366  0.00  0.00    -0.082 A 
ATOM      7  C5  PXY d   1      -4.925   1.229   3.331  0.00  0.00     0.003 A 
ATOM      8  C6  PXY d   1      -4.774   0.529   4.525  0.00  0.00     0.003 A 
ENDROOT
TORSDOF 0
ENDMDL
