MODEL 1
REMARK minimizedAffinity 2.95050693
REMARK minimizedRMSD -1
REMARK  0 active torsions:
REMARK  status: ('A' for Active; 'I' for Inactive)
ROOT
ATOM      1  C4' PXY d   1      -3.746  -5.622  -6.000  0.00  0.00     0.077 C 
ATOM      2  C1' PXY d   1      -2.771   0.076  -5.979  0.00  0.00     0.077 C 
ATOM      3  C1  PXY d   1      -3.015  -1.420  -5.990  0.00  0.00    -0.082 A 
ATOM      4  C2  PXY d   1      -4.256  -1.881  -6.000  0.00  0.00     0.003 A 
ATOM      5  C3  PXY d   1      -4.494  -3.231  -5.977  0.00  0.00     0.003 A 
ATOM      6  C4  PXY d   1      -3.453  -4.119  -5.998  0.00  0.00    -0.082 A 
ATOM      7  C5  PXY d   1      -2.184  -3.657  -5.999  0.00  0.00     0.003 A 
ATOM      8  C6  PXY d   1      -1.963  -2.283  -5.980  0.00  0.00     0.003 A 
ENDROOT
TORSDOF 0
ENDMDL
