MODEL 1
REMARK minimizedAffinity -0.810712874
REMARK minimizedRMSD -1
REMARK  0 active torsions:
REMARK  status: ('A' for Active; 'I' for Inactive)
ROOT
ATOM      1  C4' PXY d   1      -5.988   3.758   1.784  0.00  0.00     0.077 C 
ATOM      2  C1' PXY d   1      -4.731  -1.139   4.586  0.00  0.00     0.077 C 
ATOM      3  C1  PXY d   1      -5.051   0.143   3.843  0.00  0.00    -0.082 A 
ATOM      4  C2  PXY d   1      -5.673   1.126   4.472  0.00  0.00     0.003 A 
ATOM      5  C3  PXY d   1      -5.999   2.280   3.806  0.00  0.00     0.003 A 
ATOM      6  C4  PXY d   1      -5.636   2.450   2.497  0.00  0.00    -0.082 A 
ATOM      7  C5  PXY d   1      -4.991   1.456   1.851  0.00  0.00     0.003 A 
ATOM      8  C6  PXY d   1      -4.707   0.276   2.533  0.00  0.00     0.003 A 
ENDROOT
TORSDOF 0
ENDMDL
