MODEL 1
REMARK minimizedAffinity 6.90848255
REMARK minimizedRMSD -1
REMARK  0 active torsions:
REMARK  status: ('A' for Active; 'I' for Inactive)
ROOT
ATOM      1  C4' PXY d   1      -5.452  -3.434  -5.999  0.00  0.00     0.077 C 
ATOM      2  C1' PXY d   1      -0.604  -0.285  -5.981  0.00  0.00     0.077 C 
ATOM      3  C1  PXY d   1      -1.869  -1.121  -5.991  0.00  0.00    -0.082 A 
ATOM      4  C2  PXY d   1      -3.049  -0.522  -6.000  0.00  0.00     0.003 A 
ATOM      5  C3  PXY d   1      -4.202  -1.263  -5.976  0.00  0.00     0.003 A 
ATOM      6  C4  PXY d   1      -4.148  -2.631  -5.998  0.00  0.00    -0.082 A 
ATOM      7  C5  PXY d   1      -2.948  -3.249  -6.000  0.00  0.00     0.003 A 
ATOM      8  C6  PXY d   1      -1.789  -2.479  -5.982  0.00  0.00     0.003 A 
ENDROOT
TORSDOF 0
ENDMDL
