MODEL 1
REMARK minimizedAffinity 7.77884436
REMARK minimizedRMSD -1
REMARK  0 active torsions:
REMARK  status: ('A' for Active; 'I' for Inactive)
ROOT
ATOM      1  C4' PXY d   1       5.285  -6.000   3.490  0.00  0.00     0.077 C 
ATOM      2  C1' PXY d   1      -0.077  -4.917   1.622  0.00  0.00     0.077 C 
ATOM      3  C1  PXY d   1       1.333  -5.201   2.099  0.00  0.00    -0.082 A 
ATOM      4  C2  PXY d   1       1.522  -5.765   3.281  0.00  0.00     0.003 A 
ATOM      5  C3  PXY d   1       2.792  -6.000   3.742  0.00  0.00     0.003 A 
ATOM      6  C4  PXY d   1       3.878  -5.703   2.963  0.00  0.00    -0.082 A 
ATOM      7  C5  PXY d   1       3.693  -5.137   1.752  0.00  0.00     0.003 A 
ATOM      8  C6  PXY d   1       2.397  -4.869   1.319  0.00  0.00     0.003 A 
ENDROOT
TORSDOF 0
ENDMDL
