MODEL 1
REMARK minimizedAffinity -1.80382454
REMARK minimizedRMSD -1
REMARK  0 active torsions:
REMARK  status: ('A' for Active; 'I' for Inactive)
ROOT
ATOM      1  C4' PXY d   1      -5.999  -4.480  -5.999  0.00  0.00     0.077 C 
ATOM      2  C1' PXY d   1      -1.903  -0.401  -5.978  0.00  0.00     0.077 C 
ATOM      3  C1  PXY d   1      -2.969  -1.480  -5.989  0.00  0.00    -0.082 A 
ATOM      4  C2  PXY d   1      -4.246  -1.136  -5.998  0.00  0.00     0.003 A 
ATOM      5  C3  PXY d   1      -5.223  -2.098  -5.975  0.00  0.00     0.003 A 
ATOM      6  C4  PXY d   1      -4.889  -3.425  -5.998  0.00  0.00    -0.082 A 
ATOM      7  C5  PXY d   1      -3.588  -3.784  -5.999  0.00  0.00     0.003 A 
ATOM      8  C6  PXY d   1      -2.611  -2.792  -5.980  0.00  0.00     0.003 A 
ENDROOT
TORSDOF 0
ENDMDL
