MODEL 1
REMARK minimizedAffinity 1.01217747
REMARK minimizedRMSD -1
REMARK  0 active torsions:
REMARK  status: ('A' for Active; 'I' for Inactive)
ROOT
ATOM      1  C4' PXY d   1      -5.970  -3.418  -5.972  0.00  0.00     0.077 C 
ATOM      2  C1' PXY d   1      -0.315  -2.218  -6.000  0.00  0.00     0.077 C 
ATOM      3  C1  PXY d   1      -1.801  -2.521  -5.987  0.00  0.00    -0.082 A 
ATOM      4  C2  PXY d   1      -2.211  -3.778  -5.979  0.00  0.00     0.003 A 
ATOM      5  C3  PXY d   1      -3.551  -4.071  -6.000  0.00  0.00     0.003 A 
ATOM      6  C4  PXY d   1      -4.480  -3.065  -5.976  0.00  0.00    -0.082 A 
ATOM      7  C5  PXY d   1      -4.069  -1.779  -5.974  0.00  0.00     0.003 A 
ATOM      8  C6  PXY d   1      -2.704  -1.504  -5.994  0.00  0.00     0.003 A 
ENDROOT
TORSDOF 0
ENDMDL
