MODEL 1
REMARK minimizedAffinity -0.639645576
REMARK minimizedRMSD -1
REMARK  1 active torsions:
REMARK  status: ('A' for Active; 'I' for Inactive)
REMARK    1  A    between atoms: C1_2  and  C2_3 
ROOT
ATOM      1  C2  UNL d   1      -0.546  -0.386   0.363  0.00  0.00    -0.076 A 
ATOM      2  C3  UNL d   1       0.454  -0.604  -0.601  0.00  0.00     0.004 A 
ATOM      3  C4  UNL d   1       1.803  -0.467  -0.279  0.00  0.00    -0.003 A 
ATOM      4  C5  UNL d   1       2.174  -0.109   1.013  0.00  0.00     0.000 A 
ATOM      5  C6  UNL d   1       1.196   0.094   1.986  0.00  0.00     0.000 A 
ATOM      6  C7  UNL d   1      -0.168  -0.057   1.682  0.00  0.00    -0.073 A 
ATOM      7  C8  UNL d   1      -1.181   0.180   2.768  0.00  0.00     0.078 C 
ENDROOT
BRANCH   1   8
ATOM      8  C1  UNL d   1      -1.994  -0.523  -0.052  0.00  0.00     0.053 C 
ATOM      9  C   UNL d   1      -2.323  -1.916  -0.568  0.00  0.00     0.018 C 
ENDBRANCH   1   8
TORSDOF 1
ENDMDL
