MODEL 1
REMARK minimizedAffinity -3.93993568
REMARK minimizedRMSD -1
REMARK  1 active torsions:
REMARK  status: ('A' for Active; 'I' for Inactive)
REMARK    1  A    between atoms: C1_2  and  C2_3 
ROOT
ATOM      1  C2  UNL d   1       0.439   0.175   0.752  0.00  0.00    -0.076 A 
ATOM      2  C3  UNL d   1      -0.926  -0.014   1.031  0.00  0.00     0.004 A 
ATOM      3  C4  UNL d   1      -1.534   0.632   2.105  0.00  0.00    -0.003 A 
ATOM      4  C5  UNL d   1      -0.788   1.479   2.918  0.00  0.00     0.000 A 
ATOM      5  C6  UNL d   1       0.563   1.691   2.645  0.00  0.00     0.000 A 
ATOM      6  C7  UNL d   1       1.188   1.060   1.556  0.00  0.00    -0.073 A 
ATOM      7  C8  UNL d   1       2.649   1.320   1.312  0.00  0.00     0.078 C 
ENDROOT
BRANCH   1   8
ATOM      8  C1  UNL d   1       1.051  -0.574  -0.411  0.00  0.00     0.053 C 
ATOM      9  C   UNL d   1       0.954   0.198  -1.717  0.00  0.00     0.018 C 
ENDBRANCH   1   8
TORSDOF 1
ENDMDL
