MODEL 1
REMARK minimizedAffinity 2.58062625
REMARK minimizedRMSD -1
REMARK  1 active torsions:
REMARK  status: ('A' for Active; 'I' for Inactive)
REMARK    1  A    between atoms: C1_2  and  C2_3 
ROOT
ATOM      1  C2  UNL d   1       0.510  -0.851  -0.335  0.00  0.00    -0.076 A 
ATOM      2  C3  UNL d   1      -0.695  -0.401   0.231  0.00  0.00     0.004 A 
ATOM      3  C4  UNL d   1      -0.710   0.251   1.463  0.00  0.00    -0.003 A 
ATOM      4  C5  UNL d   1       0.481   0.464   2.149  0.00  0.00     0.000 A 
ATOM      5  C6  UNL d   1       1.687   0.039   1.595  0.00  0.00     0.000 A 
ATOM      6  C7  UNL d   1       1.722  -0.605   0.346  0.00  0.00    -0.073 A 
ATOM      7  C8  UNL d   1       3.051  -1.048  -0.202  0.00  0.00     0.078 C 
ENDROOT
BRANCH   1   8
ATOM      8  C1  UNL d   1       0.461  -1.576  -1.661  0.00  0.00     0.053 C 
ATOM      9  C   UNL d   1      -0.337  -2.869  -1.589  0.00  0.00     0.018 C 
ENDBRANCH   1   8
TORSDOF 1
ENDMDL
