MODEL 1
REMARK minimizedAffinity -5.05607367
REMARK minimizedRMSD -1
REMARK  1 active torsions:
REMARK  status: ('A' for Active; 'I' for Inactive)
REMARK    1  A    between atoms: C1_2  and  C2_3 
ROOT
ATOM      1  C2  UNL d   1      -1.345   0.050   0.872  0.00  0.00    -0.076 A 
ATOM      2  C3  UNL d   1      -1.936   0.439   2.087  0.00  0.00     0.004 A 
ATOM      3  C4  UNL d   1      -1.269   1.285   2.971  0.00  0.00    -0.003 A 
ATOM      4  C5  UNL d   1       0.001   1.755   2.655  0.00  0.00     0.000 A 
ATOM      5  C6  UNL d   1       0.595   1.393   1.446  0.00  0.00     0.000 A 
ATOM      6  C7  UNL d   1      -0.071   0.554   0.537  0.00  0.00    -0.073 A 
ATOM      7  C8  UNL d   1       0.620   0.191  -0.749  0.00  0.00     0.078 C 
ENDROOT
BRANCH   1   8
ATOM      8  C1  UNL d   1      -2.106  -0.891  -0.034  0.00  0.00     0.053 C 
ATOM      9  C   UNL d   1      -3.593  -0.577  -0.084  0.00  0.00     0.018 C 
ENDBRANCH   1   8
TORSDOF 1
ENDMDL
