MODEL 1
REMARK minimizedAffinity -3.6135416
REMARK minimizedRMSD -1
REMARK  1 active torsions:
REMARK  status: ('A' for Active; 'I' for Inactive)
REMARK    1  A    between atoms: C1_2  and  C2_3 
ROOT
ATOM      1  C2  UNL d   1      -1.439  -0.112   0.610  0.00  0.00    -0.076 A 
ATOM      2  C3  UNL d   1      -1.918  -0.055   1.931  0.00  0.00     0.004 A 
ATOM      3  C4  UNL d   1      -1.175   0.560   2.937  0.00  0.00    -0.003 A 
ATOM      4  C5  UNL d   1       0.058   1.129   2.640  0.00  0.00     0.000 A 
ATOM      5  C6  UNL d   1       0.540   1.097   1.332  0.00  0.00     0.000 A 
ATOM      6  C7  UNL d   1      -0.203   0.496   0.302  0.00  0.00    -0.073 A 
ATOM      7  C8  UNL d   1       0.368   0.485  -1.090  0.00  0.00     0.078 C 
ENDROOT
BRANCH   1   8
ATOM      8  C1  UNL d   1      -2.276  -0.815  -0.434  0.00  0.00     0.053 C 
ATOM      9  C   UNL d   1      -1.718  -2.180  -0.806  0.00  0.00     0.018 C 
ENDBRANCH   1   8
TORSDOF 1
ENDMDL
