MODEL 1
REMARK minimizedAffinity -3.12397647
REMARK minimizedRMSD -1
REMARK  1 active torsions:
REMARK  status: ('A' for Active; 'I' for Inactive)
REMARK    1  A    between atoms: C1_2  and  C2_3 
ROOT
ATOM      1  C2  UNL d   1       0.306   0.947   1.854  0.00  0.00    -0.076 A 
ATOM      2  C3  UNL d   1       1.595   0.552   2.253  0.00  0.00     0.004 A 
ATOM      3  C4  UNL d   1       2.391  -0.239   1.427  0.00  0.00    -0.003 A 
ATOM      4  C5  UNL d   1       1.911  -0.648   0.187  0.00  0.00     0.000 A 
ATOM      5  C6  UNL d   1       0.642  -0.251  -0.232  0.00  0.00     0.000 A 
ATOM      6  C7  UNL d   1      -0.167   0.560   0.582  0.00  0.00    -0.073 A 
ATOM      7  C8  UNL d   1      -1.530   0.953   0.083  0.00  0.00     0.078 C 
ENDROOT
BRANCH   1   8
ATOM      8  C1  UNL d   1      -0.522   1.782   2.804  0.00  0.00     0.053 C 
ATOM      9  C   UNL d   1      -1.566   0.960   3.545  0.00  0.00     0.018 C 
ENDBRANCH   1   8
TORSDOF 1
ENDMDL
