MODEL 1
REMARK minimizedAffinity 1.23664272
REMARK minimizedRMSD -1
REMARK  0 active torsions:
REMARK  status: ('A' for Active; 'I' for Inactive)
ROOT
ATOM      1  C1  BNZ d   1       2.368  -2.785   1.016  0.00  0.00     0.000 A 
ATOM      2  C2  BNZ d   1       1.682  -1.830   1.719  0.00  0.00     0.000 A 
ATOM      3  C3  BNZ d   1       0.634  -2.173   2.526  0.00  0.00     0.000 A 
ATOM      4  C4  BNZ d   1       0.248  -3.463   2.600  0.00  0.00     0.000 A 
ATOM      5  C5  BNZ d   1       0.924  -4.436   1.890  0.00  0.00     0.000 A 
ATOM      6  C6  BNZ d   1       2.003  -4.092   1.109  0.00  0.00     0.000 A 
ENDROOT
TORSDOF 0
ENDMDL
