MODEL 1
REMARK minimizedAffinity 2.60222101
REMARK minimizedRMSD -1
REMARK  0 active torsions:
REMARK  status: ('A' for Active; 'I' for Inactive)
ROOT
ATOM      1  C1  BNZ d   1       2.699  -2.539  -0.031  0.00  0.00     0.000 A 
ATOM      2  C2  BNZ d   1       2.067  -1.742   0.886  0.00  0.00     0.000 A 
ATOM      3  C3  BNZ d   1       1.447  -2.285   1.977  0.00  0.00     0.000 A 
ATOM      4  C4  BNZ d   1       1.425  -3.625   2.127  0.00  0.00     0.000 A 
ATOM      5  C5  BNZ d   1       2.050  -4.443   1.207  0.00  0.00     0.000 A 
ATOM      6  C6  BNZ d   1       2.706  -3.890   0.131  0.00  0.00     0.000 A 
ENDROOT
TORSDOF 0
ENDMDL
