MODEL 1
REMARK minimizedAffinity -1.7250756
REMARK minimizedRMSD -1
REMARK  0 active torsions:
REMARK  status: ('A' for Active; 'I' for Inactive)
ROOT
ATOM      1  C1  BNZ d   1      -0.230  -1.173   2.919  0.00  0.00     0.000 A 
ATOM      2  C2  BNZ d   1       0.333  -2.369   2.561  0.00  0.00     0.000 A 
ATOM      3  C3  BNZ d   1       1.297  -2.428   1.593  0.00  0.00     0.000 A 
ATOM      4  C4  BNZ d   1       1.667  -1.298   0.957  0.00  0.00     0.000 A 
ATOM      5  C5  BNZ d   1       1.102  -0.086   1.299  0.00  0.00     0.000 A 
ATOM      6  C6  BNZ d   1       0.160  -0.025   2.301  0.00  0.00     0.000 A 
ENDROOT
TORSDOF 0
ENDMDL
