MODEL 1
REMARK minimizedAffinity 1.62957048
REMARK minimizedRMSD -1
REMARK  0 active torsions:
REMARK  status: ('A' for Active; 'I' for Inactive)
ROOT
ATOM      1  C1  BNZ d   1       0.857   5.476   5.014  0.00  0.00     0.000 A 
ATOM      2  C2  BNZ d   1       0.463   4.548   4.087  0.00  0.00     0.000 A 
ATOM      3  C3  BNZ d   1       0.950   3.271   4.124  0.00  0.00     0.000 A 
ATOM      4  C4  BNZ d   1       1.858   2.935   5.062  0.00  0.00     0.000 A 
ATOM      5  C5  BNZ d   1       2.272   3.862   5.999  0.00  0.00     0.000 A 
ATOM      6  C6  BNZ d   1       1.751   5.135   5.982  0.00  0.00     0.000 A 
ENDROOT
TORSDOF 0
ENDMDL
