MODEL 1
REMARK minimizedAffinity -1.0408541
REMARK minimizedRMSD -1
REMARK  0 active torsions:
REMARK  status: ('A' for Active; 'I' for Inactive)
ROOT
ATOM      1  C1  BNZ d   1      -3.183   0.254   2.597  0.00  0.00     0.000 A 
ATOM      2  C2  BNZ d   1      -2.239   0.022   3.561  0.00  0.00     0.000 A 
ATOM      3  C3  BNZ d   1      -1.172  -0.796   3.314  0.00  0.00     0.000 A 
ATOM      4  C4  BNZ d   1      -1.073  -1.412   2.118  0.00  0.00     0.000 A 
ATOM      5  C5  BNZ d   1      -2.021  -1.196   1.139  0.00  0.00     0.000 A 
ATOM      6  C6  BNZ d   1      -3.073  -0.341   1.378  0.00  0.00     0.000 A 
ENDROOT
TORSDOF 0
ENDMDL
