MODEL 1
REMARK minimizedAffinity 1.52594233
REMARK minimizedRMSD -1
REMARK  0 active torsions:
REMARK  status: ('A' for Active; 'I' for Inactive)
ROOT
ATOM      1  C1  BNZ d   1       5.987   1.235  -0.772  0.00  0.00     0.000 A 
ATOM      2  C2  BNZ d   1       5.982   2.196   0.204  0.00  0.00     0.000 A 
ATOM      3  C3  BNZ d   1       6.000   1.850   1.526  0.00  0.00     0.000 A 
ATOM      4  C4  BNZ d   1       5.983   0.547   1.871  0.00  0.00     0.000 A 
ATOM      5  C5  BNZ d   1       5.978  -0.434   0.900  0.00  0.00     0.000 A 
ATOM      6  C6  BNZ d   1       5.999  -0.083  -0.431  0.00  0.00     0.000 A 
ENDROOT
TORSDOF 0
ENDMDL
