MODEL 1
REMARK minimizedAffinity 3.17901444
REMARK minimizedRMSD -1
REMARK  1 active torsions:
REMARK  status: ('A' for Active; 'I' for Inactive)
REMARK    1  A    between atoms: C1_2  and  C2_3 
ROOT
ATOM      1  C2  UNL d   1       1.474   3.782  -1.784  0.00  0.00    -0.077 A 
ATOM      2  C3  UNL d   1       1.207   2.838  -2.785  0.00  0.00     0.002 A 
ATOM      3  C4  UNL d   1       0.220   1.869  -2.597  0.00  0.00     0.002 A 
ATOM      4  C5  UNL d   1      -0.511   1.838  -1.411  0.00  0.00    -0.004 A 
ATOM      5  C6  UNL d   1      -0.252   2.772  -0.409  0.00  0.00     0.002 A 
ATOM      6  C7  UNL d   1       0.736   3.740  -0.595  0.00  0.00     0.002 A 
ENDROOT
BRANCH   1   7
ATOM      7  C1  UNL d   1       2.505   4.858  -2.005  0.00  0.00     0.055 C 
ATOM      8  C   UNL d   1       3.007   4.858  -3.442  0.00  0.00     0.019 C 
ENDBRANCH   1   7
TORSDOF 1
ENDMDL
