MODEL 1
REMARK minimizedAffinity 3.94693947
REMARK minimizedRMSD -1
REMARK  1 active torsions:
REMARK  status: ('A' for Active; 'I' for Inactive)
REMARK    1  A    between atoms: C1_2  and  C2_3 
ROOT
ATOM      1  C2  UNL d   1       3.570  -0.609   4.916  0.00  0.00    -0.077 A 
ATOM      2  C3  UNL d   1       3.747   0.121   3.732  0.00  0.00     0.002 A 
ATOM      3  C4  UNL d   1       4.956   0.769   3.477  0.00  0.00     0.002 A 
ATOM      4  C5  UNL d   1       5.999   0.691   4.397  0.00  0.00    -0.004 A 
ATOM      5  C6  UNL d   1       5.832  -0.031   5.579  0.00  0.00     0.002 A 
ATOM      6  C7  UNL d   1       4.623  -0.679   5.837  0.00  0.00     0.002 A 
ENDROOT
BRANCH   1   7
ATOM      7  C1  UNL d   1       2.283  -1.350   5.172  0.00  0.00     0.055 C 
ATOM      8  C   UNL d   1       1.650  -1.825   3.871  0.00  0.00     0.019 C 
ENDBRANCH   1   7
TORSDOF 1
ENDMDL
