MODEL 1
REMARK minimizedAffinity -1.39899623
REMARK minimizedRMSD -1
REMARK  1 active torsions:
REMARK  status: ('A' for Active; 'I' for Inactive)
REMARK    1  A    between atoms: C1_2  and  C2_3 
ROOT
ATOM      1  C2  UNL d   1       4.975   0.821   3.933  0.00  0.00    -0.077 A 
ATOM      2  C3  UNL d   1       4.077  -0.255   3.967  0.00  0.00     0.002 A 
ATOM      3  C4  UNL d   1       4.141  -1.196   4.996  0.00  0.00     0.002 A 
ATOM      4  C5  UNL d   1       5.099  -1.069   6.000  0.00  0.00    -0.004 A 
ATOM      5  C6  UNL d   1       5.998  -0.004   5.973  0.00  0.00     0.002 A 
ATOM      6  C7  UNL d   1       5.936   0.937   4.945  0.00  0.00     0.002 A 
ENDROOT
BRANCH   1   7
ATOM      7  C1  UNL d   1       4.875   1.864   2.851  0.00  0.00     0.055 C 
ATOM      8  C   UNL d   1       5.251   3.243   3.375  0.00  0.00     0.019 C 
ENDBRANCH   1   7
TORSDOF 1
ENDMDL
