MODEL 1
REMARK minimizedAffinity 1.86026335
REMARK minimizedRMSD -1
REMARK  1 active torsions:
REMARK  status: ('A' for Active; 'I' for Inactive)
REMARK    1  A    between atoms: C1_2  and  C2_3 
ROOT
ATOM      1  C2  UNL d   1       5.521   2.785   3.600  0.00  0.00    -0.077 A 
ATOM      2  C3  UNL d   1       4.613   2.185   2.716  0.00  0.00     0.002 A 
ATOM      3  C4  UNL d   1       4.135   0.896   2.961  0.00  0.00     0.002 A 
ATOM      4  C5  UNL d   1       4.556   0.199   4.091  0.00  0.00    -0.004 A 
ATOM      5  C6  UNL d   1       5.460   0.786   4.976  0.00  0.00     0.002 A 
ATOM      6  C7  UNL d   1       5.939   2.074   4.732  0.00  0.00     0.002 A 
ENDROOT
BRANCH   1   7
ATOM      7  C1  UNL d   1       5.999   4.194   3.364  0.00  0.00     0.055 C 
ATOM      8  C   UNL d   1       6.000   5.002   4.654  0.00  0.00     0.019 C 
ENDBRANCH   1   7
TORSDOF 1
ENDMDL
