MODEL 1
REMARK minimizedAffinity 4.25370979
REMARK minimizedRMSD -1
REMARK  1 active torsions:
REMARK  status: ('A' for Active; 'I' for Inactive)
REMARK    1  A    between atoms: C1_2  and  C2_3 
ROOT
ATOM      1  C2  UNL d   1       4.940   3.730  -5.218  0.00  0.00    -0.077 A 
ATOM      2  C3  UNL d   1       3.680   4.016  -5.762  0.00  0.00     0.002 A 
ATOM      3  C4  UNL d   1       2.768   4.803  -5.056  0.00  0.00     0.002 A 
ATOM      4  C5  UNL d   1       3.109   5.314  -3.805  0.00  0.00    -0.004 A 
ATOM      5  C6  UNL d   1       4.359   5.034  -3.255  0.00  0.00     0.002 A 
ATOM      6  C7  UNL d   1       5.271   4.246  -3.959  0.00  0.00     0.002 A 
ENDROOT
BRANCH   1   7
ATOM      7  C1  UNL d   1       5.943   2.921  -5.999  0.00  0.00     0.055 C 
ATOM      8  C   UNL d   1       6.000   1.483  -5.506  0.00  0.00     0.019 C 
ENDBRANCH   1   7
TORSDOF 1
ENDMDL
