MODEL 1
REMARK minimizedAffinity -0.886385322
REMARK minimizedRMSD -1
REMARK  1 active torsions:
REMARK  status: ('A' for Active; 'I' for Inactive)
REMARK    1  A    between atoms: C1_2  and  C2_3 
ROOT
ATOM      1  C2  UNL d   1      -2.621   1.548   0.642  0.00  0.00    -0.077 A 
ATOM      2  C3  UNL d   1      -2.933   0.333   0.017  0.00  0.00     0.002 A 
ATOM      3  C4  UNL d   1      -3.092  -0.830   0.772  0.00  0.00     0.002 A 
ATOM      4  C5  UNL d   1      -2.945  -0.789   2.157  0.00  0.00    -0.004 A 
ATOM      5  C6  UNL d   1      -2.632   0.414   2.789  0.00  0.00     0.002 A 
ATOM      6  C7  UNL d   1      -2.472   1.578   2.035  0.00  0.00     0.002 A 
ENDROOT
BRANCH   1   7
ATOM      7  C1  UNL d   1      -2.498   2.813  -0.166  0.00  0.00     0.055 C 
ATOM      8  C   UNL d   1      -3.323   3.939   0.440  0.00  0.00     0.019 C 
ENDBRANCH   1   7
TORSDOF 1
ENDMDL
