MODEL 1
REMARK minimizedAffinity -2.98297167
REMARK minimizedRMSD -1
REMARK  1 active torsions:
REMARK  status: ('A' for Active; 'I' for Inactive)
REMARK    1  A    between atoms: C1_2  and  C2_3 
ROOT
ATOM      1  C2  UNL d   1       4.959   0.191   3.623  0.00  0.00    -0.077 A 
ATOM      2  C3  UNL d   1       4.039   1.044   2.997  0.00  0.00     0.002 A 
ATOM      3  C4  UNL d   1       3.046   0.525   2.165  0.00  0.00     0.002 A 
ATOM      4  C5  UNL d   1       2.960  -0.850   1.954  0.00  0.00    -0.004 A 
ATOM      5  C6  UNL d   1       3.871  -1.707   2.570  0.00  0.00     0.002 A 
ATOM      6  C7  UNL d   1       4.865  -1.189   3.401  0.00  0.00     0.002 A 
ENDROOT
BRANCH   1   7
ATOM      7  C1  UNL d   1       6.000   0.745   4.560  0.00  0.00     0.055 C 
ATOM      8  C   UNL d   1       5.986   0.016   5.896  0.00  0.00     0.019 C 
ENDBRANCH   1   7
TORSDOF 1
ENDMDL
