MODEL 1
REMARK minimizedAffinity 0.971002162
REMARK minimizedRMSD -1
REMARK  1 active torsions:
REMARK  status: ('A' for Active; 'I' for Inactive)
REMARK    1  A    between atoms: C1_2  and  C2_3 
ROOT
ATOM      1  C2  UNL d   1      -3.631  -0.437   1.574  0.00  0.00    -0.077 A 
ATOM      2  C3  UNL d   1      -5.016  -0.463   1.362  0.00  0.00     0.002 A 
ATOM      3  C4  UNL d   1      -5.558   0.032   0.174  0.00  0.00     0.002 A 
ATOM      4  C5  UNL d   1      -4.723   0.552  -0.811  0.00  0.00    -0.004 A 
ATOM      5  C6  UNL d   1      -3.343   0.585  -0.609  0.00  0.00     0.002 A 
ATOM      6  C7  UNL d   1      -2.800   0.092   0.578  0.00  0.00     0.002 A 
ENDROOT
BRANCH   1   7
ATOM      7  C1  UNL d   1      -3.040  -1.015   2.833  0.00  0.00     0.055 C 
ATOM      8  C   UNL d   1      -2.749   0.072   3.858  0.00  0.00     0.019 C 
ENDBRANCH   1   7
TORSDOF 1
ENDMDL
