MODEL 1
REMARK minimizedAffinity -0.791898727
REMARK minimizedRMSD -1
REMARK  1 active torsions:
REMARK  status: ('A' for Active; 'I' for Inactive)
REMARK    1  A    between atoms: C1_2  and  C2_3 
ROOT
ATOM      1  C2  UNL d   1       3.806  -0.336   3.559  0.00  0.00    -0.077 A 
ATOM      2  C3  UNL d   1       3.667   0.842   2.811  0.00  0.00     0.002 A 
ATOM      3  C4  UNL d   1       4.499   1.936   3.057  0.00  0.00     0.002 A 
ATOM      4  C5  UNL d   1       5.476   1.863   4.046  0.00  0.00    -0.004 A 
ATOM      5  C6  UNL d   1       5.621   0.697   4.797  0.00  0.00     0.002 A 
ATOM      6  C7  UNL d   1       4.790  -0.398   4.554  0.00  0.00     0.002 A 
ENDROOT
BRANCH   1   7
ATOM      7  C1  UNL d   1       2.943  -1.535   3.263  0.00  0.00     0.055 C 
ATOM      8  C   UNL d   1       2.604  -1.620   1.782  0.00  0.00     0.019 C 
ENDBRANCH   1   7
TORSDOF 1
ENDMDL
