MODEL 1
REMARK minimizedAffinity 3.5580647
REMARK minimizedRMSD -1
REMARK  1 active torsions:
REMARK  status: ('A' for Active; 'I' for Inactive)
REMARK    1  A    between atoms: C1_2  and  C2_3 
ROOT
ATOM      1  C2  UNL d   1       4.650   2.917  -5.273  0.00  0.00    -0.077 A 
ATOM      2  C3  UNL d   1       4.421   4.089  -4.538  0.00  0.00     0.002 A 
ATOM      3  C4  UNL d   1       3.157   4.681  -4.529  0.00  0.00     0.002 A 
ATOM      4  C5  UNL d   1       2.111   4.107  -5.250  0.00  0.00    -0.004 A 
ATOM      5  C6  UNL d   1       2.330   2.943  -5.986  0.00  0.00     0.002 A 
ATOM      6  C7  UNL d   1       3.593   2.350  -5.996  0.00  0.00     0.002 A 
ENDROOT
BRANCH   1   7
ATOM      7  C1  UNL d   1       6.000   2.249  -5.244  0.00  0.00     0.055 C 
ATOM      8  C   UNL d   1       5.980   0.927  -5.997  0.00  0.00     0.019 C 
ENDBRANCH   1   7
TORSDOF 1
ENDMDL
