MODEL 1
REMARK minimizedAffinity -2.83006191
REMARK minimizedRMSD -1
REMARK  1 active torsions:
REMARK  status: ('A' for Active; 'I' for Inactive)
REMARK    1  A    between atoms: C1_2  and  C2_3 
ROOT
ATOM      1  C2  UNL d   1       2.131  -1.947   1.403  0.00  0.00    -0.077 A 
ATOM      2  C3  UNL d   1       1.866  -3.324   1.388  0.00  0.00     0.002 A 
ATOM      3  C4  UNL d   1       0.755  -3.822   0.704  0.00  0.00     0.002 A 
ATOM      4  C5  UNL d   1      -0.096  -2.951   0.026  0.00  0.00    -0.004 A 
ATOM      5  C6  UNL d   1       0.158  -1.580   0.036  0.00  0.00     0.002 A 
ATOM      6  C7  UNL d   1       1.267  -1.081   0.721  0.00  0.00     0.002 A 
ENDROOT
BRANCH   1   7
ATOM      7  C1  UNL d   1       3.355  -1.413   2.099  0.00  0.00     0.055 C 
ATOM      8  C   UNL d   1       3.059  -0.101   2.811  0.00  0.00     0.019 C 
ENDBRANCH   1   7
TORSDOF 1
ENDMDL
