MODEL 1
REMARK minimizedAffinity 5.96539783
REMARK minimizedRMSD -1
REMARK  1 active torsions:
REMARK  status: ('A' for Active; 'I' for Inactive)
REMARK    1  A    between atoms: C1_2  and  C2_3 
ROOT
ATOM      1  C2  UNL d   1      -3.197   1.279   1.717  0.00  0.00    -0.077 A 
ATOM      2  C3  UNL d   1      -3.230   2.513   2.382  0.00  0.00     0.002 A 
ATOM      3  C4  UNL d   1      -3.228   3.706   1.657  0.00  0.00     0.002 A 
ATOM      4  C5  UNL d   1      -3.198   3.677   0.264  0.00  0.00    -0.004 A 
ATOM      5  C6  UNL d   1      -3.164   2.455  -0.406  0.00  0.00     0.002 A 
ATOM      6  C7  UNL d   1      -3.164   1.261   0.317  0.00  0.00     0.002 A 
ENDROOT
BRANCH   1   7
ATOM      7  C1  UNL d   1      -3.249  -0.010   2.496  0.00  0.00     0.055 C 
ATOM      8  C   UNL d   1      -2.707   0.174   3.907  0.00  0.00     0.019 C 
ENDBRANCH   1   7
TORSDOF 1
ENDMDL
