MODEL 1
REMARK minimizedAffinity 1.43040276
REMARK minimizedRMSD -1
REMARK  1 active torsions:
REMARK  status: ('A' for Active; 'I' for Inactive)
REMARK    1  A    between atoms: C1_2  and  C2_3 
ROOT
ATOM      1  C2  UNL d   1       4.155   0.360   4.106  0.00  0.00    -0.077 A 
ATOM      2  C3  UNL d   1       3.818   1.438   3.276  0.00  0.00     0.002 A 
ATOM      3  C4  UNL d   1       4.565   2.617   3.312  0.00  0.00     0.002 A 
ATOM      4  C5  UNL d   1       5.656   2.727   4.172  0.00  0.00    -0.004 A 
ATOM      5  C6  UNL d   1       5.998   1.661   5.002  0.00  0.00     0.002 A 
ATOM      6  C7  UNL d   1       5.252   0.482   4.969  0.00  0.00     0.002 A 
ENDROOT
BRANCH   1   7
ATOM      7  C1  UNL d   1       3.381  -0.930   4.033  0.00  0.00     0.055 C 
ATOM      8  C   UNL d   1       2.045  -0.815   4.752  0.00  0.00     0.019 C 
ENDBRANCH   1   7
TORSDOF 1
ENDMDL
