MODEL 1
REMARK minimizedAffinity 1.04883873
REMARK minimizedRMSD -1
REMARK  1 active torsions:
REMARK  status: ('A' for Active; 'I' for Inactive)
REMARK    1  A    between atoms: C1_2  and  C2_3 
ROOT
ATOM      1  C2  UNL d   1      -4.833  -0.953   2.961  0.00  0.00    -0.077 A 
ATOM      2  C3  UNL d   1      -4.503  -0.691   4.299  0.00  0.00     0.002 A 
ATOM      3  C4  UNL d   1      -3.450   0.170   4.611  0.00  0.00     0.002 A 
ATOM      4  C5  UNL d   1      -2.720   0.779   3.593  0.00  0.00    -0.004 A 
ATOM      5  C6  UNL d   1      -3.038   0.523   2.259  0.00  0.00     0.002 A 
ATOM      6  C7  UNL d   1      -4.090  -0.338   1.945  0.00  0.00     0.002 A 
ENDROOT
BRANCH   1   7
ATOM      7  C1  UNL d   1      -6.000  -1.843   2.622  0.00  0.00     0.055 C 
ATOM      8  C   UNL d   1      -5.909  -3.176   3.350  0.00  0.00     0.019 C 
ENDBRANCH   1   7
TORSDOF 1
ENDMDL
