MODEL 1
REMARK minimizedAffinity -4.80660582
REMARK minimizedRMSD -1
REMARK  1 active torsions:
REMARK  status: ('A' for Active; 'I' for Inactive)
REMARK    1  A    between atoms: C1_2  and  C2_3 
ROOT
ATOM      1  C2  UNL d   1       0.383   0.232   0.164  0.00  0.00    -0.076 A 
ATOM      2  C3  UNL d   1       1.521   1.056   0.119  0.00  0.00     0.004 A 
ATOM      3  C4  UNL d   1       2.676   0.650  -0.547  0.00  0.00    -0.003 A 
ATOM      4  C5  UNL d   1       2.711  -0.588  -1.181  0.00  0.00     0.000 A 
ATOM      5  C6  UNL d   1       1.585  -1.411  -1.162  0.00  0.00     0.000 A 
ATOM      6  C7  UNL d   1       0.408  -1.009  -0.508  0.00  0.00    -0.073 A 
ATOM      7  C8  UNL d   1      -0.774  -1.939  -0.513  0.00  0.00     0.078 C 
ENDROOT
BRANCH   1   8
ATOM      8  C1  UNL d   1      -0.831   0.714   0.925  0.00  0.00     0.053 C 
ATOM      9  C   UNL d   1      -0.517   1.040   2.377  0.00  0.00     0.018 C 
ENDBRANCH   1   8
TORSDOF 1
ENDMDL
