MODEL 1
REMARK minimizedAffinity -5.62366486
REMARK minimizedRMSD -1
REMARK  1 active torsions:
REMARK  status: ('A' for Active; 'I' for Inactive)
REMARK    1  A    between atoms: C1_2  and  C2_3 
ROOT
ATOM      1  C2  UNL d   1       0.923  -0.514  -0.810  0.00  0.00    -0.076 A 
ATOM      2  C3  UNL d   1       0.945   0.876  -1.016  0.00  0.00     0.004 A 
ATOM      3  C4  UNL d   1      -0.153   1.668  -0.684  0.00  0.00    -0.003 A 
ATOM      4  C5  UNL d   1      -1.291   1.082  -0.140  0.00  0.00     0.000 A 
ATOM      5  C6  UNL d   1      -1.324  -0.293   0.087  0.00  0.00     0.000 A 
ATOM      6  C7  UNL d   1      -0.219  -1.104  -0.227  0.00  0.00    -0.073 A 
ATOM      7  C8  UNL d   1      -0.311  -2.582   0.034  0.00  0.00     0.078 C 
ENDROOT
BRANCH   1   8
ATOM      8  C1  UNL d   1       2.133  -1.325  -1.214  0.00  0.00     0.053 C 
ATOM      9  C   UNL d   1       3.410  -0.499  -1.229  0.00  0.00     0.018 C 
ENDBRANCH   1   8
TORSDOF 1
ENDMDL
