MODEL 1
REMARK minimizedAffinity -6.49440336
REMARK minimizedRMSD -1
REMARK  1 active torsions:
REMARK  status: ('A' for Active; 'I' for Inactive)
REMARK    1  A    between atoms: C1_2  and  C2_3 
ROOT
ATOM      1  C2  UNL d   1       0.087   0.005  -0.335  0.00  0.00    -0.076 A 
ATOM      2  C3  UNL d   1       0.759   1.090  -0.925  0.00  0.00     0.004 A 
ATOM      3  C4  UNL d   1       2.105   0.995  -1.274  0.00  0.00    -0.003 A 
ATOM      4  C5  UNL d   1       2.800  -0.187  -1.041  0.00  0.00     0.000 A 
ATOM      5  C6  UNL d   1       2.144  -1.278  -0.473  0.00  0.00     0.000 A 
ATOM      6  C7  UNL d   1       0.783  -1.205  -0.130  0.00  0.00    -0.073 A 
ATOM      7  C8  UNL d   1       0.128  -2.411   0.485  0.00  0.00     0.078 C 
ENDROOT
BRANCH   1   8
ATOM      8  C1  UNL d   1      -1.366   0.176   0.048  0.00  0.00     0.053 C 
ATOM      9  C   UNL d   1      -1.539   0.653   1.482  0.00  0.00     0.018 C 
ENDBRANCH   1   8
TORSDOF 1
ENDMDL
