MODEL 1
REMARK minimizedAffinity -4.90921688
REMARK minimizedRMSD -1
REMARK  1 active torsions:
REMARK  status: ('A' for Active; 'I' for Inactive)
REMARK    1  A    between atoms: C1_2  and  C2_3 
ROOT
ATOM      1  C2  UNL d   1      -0.095   0.742  -0.230  0.00  0.00    -0.076 A 
ATOM      2  C3  UNL d   1       1.241   1.080  -0.508  0.00  0.00     0.004 A 
ATOM      3  C4  UNL d   1       2.167   0.105  -0.872  0.00  0.00    -0.003 A 
ATOM      4  C5  UNL d   1       1.772  -1.225  -0.965  0.00  0.00     0.000 A 
ATOM      5  C6  UNL d   1       0.447  -1.576  -0.710  0.00  0.00     0.000 A 
ATOM      6  C7  UNL d   1      -0.503  -0.602  -0.357  0.00  0.00    -0.073 A 
ATOM      7  C8  UNL d   1      -1.918  -1.038  -0.087  0.00  0.00     0.078 C 
ENDROOT
BRANCH   1   8
ATOM      8  C1  UNL d   1      -1.048   1.840   0.187  0.00  0.00     0.053 C 
ATOM      9  C   UNL d   1      -1.025   2.093   1.687  0.00  0.00     0.018 C 
ENDBRANCH   1   8
TORSDOF 1
ENDMDL
