MODEL 1
REMARK minimizedAffinity -4.3994832
REMARK minimizedRMSD -1
REMARK  1 active torsions:
REMARK  status: ('A' for Active; 'I' for Inactive)
REMARK    1  A    between atoms: C1_2  and  C2_3 
ROOT
ATOM      1  C2  UNL d   1       1.119  -0.470  -1.094  0.00  0.00    -0.076 A 
ATOM      2  C3  UNL d   1       1.354   0.845  -1.529  0.00  0.00     0.004 A 
ATOM      3  C4  UNL d   1       0.421   1.855  -1.298  0.00  0.00    -0.003 A 
ATOM      4  C5  UNL d   1      -0.761   1.565  -0.626  0.00  0.00     0.000 A 
ATOM      5  C6  UNL d   1      -1.002   0.269  -0.171  0.00  0.00     0.000 A 
ATOM      6  C7  UNL d   1      -0.065  -0.757  -0.382  0.00  0.00    -0.073 A 
ATOM      7  C8  UNL d   1      -0.380  -2.137   0.125  0.00  0.00     0.078 C 
ENDROOT
BRANCH   1   8
ATOM      8  C1  UNL d   1       2.155  -1.529  -1.397  0.00  0.00     0.053 C 
ATOM      9  C   UNL d   1       3.385  -0.961  -2.088  0.00  0.00     0.018 C 
ENDBRANCH   1   8
TORSDOF 1
ENDMDL
