MODEL 1
REMARK minimizedAffinity -3.68036842
REMARK minimizedRMSD -1
REMARK  1 active torsions:
REMARK  status: ('A' for Active; 'I' for Inactive)
REMARK    1  A    between atoms: C1_2  and  C2_3 
ROOT
ATOM      1  C2  UNL d   1       0.619  -0.004   0.011  0.00  0.00    -0.076 A 
ATOM      2  C3  UNL d   1       1.648   0.928  -0.207  0.00  0.00     0.004 A 
ATOM      3  C4  UNL d   1       2.761   0.601  -0.980  0.00  0.00    -0.003 A 
ATOM      4  C5  UNL d   1       2.862  -0.664  -1.549  0.00  0.00     0.000 A 
ATOM      5  C6  UNL d   1       1.842  -1.595  -1.358  0.00  0.00     0.000 A 
ATOM      6  C7  UNL d   1       0.706  -1.276  -0.595  0.00  0.00    -0.073 A 
ATOM      7  C8  UNL d   1      -0.361  -2.321  -0.416  0.00  0.00     0.078 C 
ENDROOT
BRANCH   1   8
ATOM      8  C1  UNL d   1      -0.550   0.399   0.880  0.00  0.00     0.053 C 
ATOM      9  C   UNL d   1      -1.661   1.072   0.089  0.00  0.00     0.018 C 
ENDBRANCH   1   8
TORSDOF 1
ENDMDL
