MODEL 1
REMARK minimizedAffinity -6.15367126
REMARK minimizedRMSD -1
REMARK  1 active torsions:
REMARK  status: ('A' for Active; 'I' for Inactive)
REMARK    1  A    between atoms: C1_2  and  C2_3 
ROOT
ATOM      1  C2  UNL d   1       0.211   0.171  -0.475  0.00  0.00    -0.076 A 
ATOM      2  C3  UNL d   1       1.179   1.146  -0.776  0.00  0.00     0.004 A 
ATOM      3  C4  UNL d   1       2.488   0.784  -1.088  0.00  0.00    -0.003 A 
ATOM      4  C5  UNL d   1       2.851  -0.558  -1.105  0.00  0.00     0.000 A 
ATOM      5  C6  UNL d   1       1.901  -1.539  -0.826  0.00  0.00     0.000 A 
ATOM      6  C7  UNL d   1       0.572  -1.192  -0.525  0.00  0.00    -0.073 A 
ATOM      7  C8  UNL d   1      -0.410  -2.291  -0.226  0.00  0.00     0.078 C 
ENDROOT
BRANCH   1   8
ATOM      8  C1  UNL d   1      -1.186   0.624  -0.117  0.00  0.00     0.053 C 
ATOM      9  C   UNL d   1      -1.328   0.964   1.359  0.00  0.00     0.018 C 
ENDBRANCH   1   8
TORSDOF 1
ENDMDL
