MODEL 1
REMARK minimizedAffinity -1.89515889
REMARK minimizedRMSD -1
REMARK  1 active torsions:
REMARK  status: ('A' for Active; 'I' for Inactive)
REMARK    1  A    between atoms: C1_2  and  C2_3 
ROOT
ATOM      1  C2  UNL d   1       0.852  -0.626  -1.057  0.00  0.00    -0.076 A 
ATOM      2  C3  UNL d   1       1.169   0.734  -0.901  0.00  0.00     0.004 A 
ATOM      3  C4  UNL d   1       0.321   1.594  -0.205  0.00  0.00    -0.003 A 
ATOM      4  C5  UNL d   1      -0.859   1.107   0.347  0.00  0.00     0.000 A 
ATOM      5  C6  UNL d   1      -1.181  -0.243   0.217  0.00  0.00     0.000 A 
ATOM      6  C7  UNL d   1      -0.329  -1.127  -0.468  0.00  0.00    -0.073 A 
ATOM      7  C8  UNL d   1      -0.729  -2.572  -0.583  0.00  0.00     0.078 C 
ENDROOT
BRANCH   1   8
ATOM      8  C1  UNL d   1       1.797  -1.505  -1.845  0.00  0.00     0.053 C 
ATOM      9  C   UNL d   1       3.246  -1.061  -1.719  0.00  0.00     0.018 C 
ENDBRANCH   1   8
TORSDOF 1
ENDMDL
