MODEL 1
REMARK minimizedAffinity -4.72764874
REMARK minimizedRMSD -1
REMARK  1 active torsions:
REMARK  status: ('A' for Active; 'I' for Inactive)
REMARK    1  A    between atoms: C1_2  and  C2_3 
ROOT
ATOM      1  C2  UNL d   1       1.196  -0.527  -0.643  0.00  0.00    -0.076 A 
ATOM      2  C3  UNL d   1       1.325   0.870  -0.742  0.00  0.00     0.004 A 
ATOM      3  C4  UNL d   1       0.355   1.720  -0.213  0.00  0.00    -0.003 A 
ATOM      4  C5  UNL d   1      -0.760   1.187   0.424  0.00  0.00     0.000 A 
ATOM      5  C6  UNL d   1      -0.896  -0.195   0.548  0.00  0.00     0.000 A 
ATOM      6  C7  UNL d   1       0.081  -1.066   0.034  0.00  0.00    -0.073 A 
ATOM      7  C8  UNL d   1      -0.120  -2.548   0.190  0.00  0.00     0.078 C 
ENDROOT
BRANCH   1   8
ATOM      8  C1  UNL d   1       2.266  -1.399  -1.259  0.00  0.00     0.053 C 
ATOM      9  C   UNL d   1       3.570  -0.649  -1.485  0.00  0.00     0.018 C 
ENDBRANCH   1   8
TORSDOF 1
ENDMDL
