MODEL 1
REMARK minimizedAffinity -4.49006462
REMARK minimizedRMSD -1
REMARK  1 active torsions:
REMARK  status: ('A' for Active; 'I' for Inactive)
REMARK    1  A    between atoms: C1_2  and  C2_3 
ROOT
ATOM      1  C2  UNL d   1       1.293  -0.504  -0.836  0.00  0.00    -0.076 A 
ATOM      2  C3  UNL d   1       1.025   0.732  -1.449  0.00  0.00     0.004 A 
ATOM      3  C4  UNL d   1      -0.225   1.336  -1.330  0.00  0.00    -0.003 A 
ATOM      4  C5  UNL d   1      -1.229   0.713  -0.597  0.00  0.00     0.000 A 
ATOM      5  C6  UNL d   1      -0.976  -0.505   0.032  0.00  0.00     0.000 A 
ATOM      6  C7  UNL d   1       0.285  -1.120  -0.063  0.00  0.00    -0.073 A 
ATOM      7  C8  UNL d   1       0.500  -2.437   0.630  0.00  0.00     0.078 C 
ENDROOT
BRANCH   1   8
ATOM      8  C1  UNL d   1       2.659  -1.124  -1.022  0.00  0.00     0.053 C 
ATOM      9  C   UNL d   1       3.555  -0.298  -1.932  0.00  0.00     0.018 C 
ENDBRANCH   1   8
TORSDOF 1
ENDMDL
