MODEL 1
REMARK minimizedAffinity -4.23117542
REMARK minimizedRMSD -1
REMARK  1 active torsions:
REMARK  status: ('A' for Active; 'I' for Inactive)
REMARK    1  A    between atoms: C1_2  and  C2_3 
ROOT
ATOM      1  C2  UNL d   1       0.957   0.492  -1.056  0.00  0.00    -0.076 A 
ATOM      2  C3  UNL d   1      -0.326   0.530  -0.481  0.00  0.00     0.004 A 
ATOM      3  C4  UNL d   1      -0.842  -0.575   0.194  0.00  0.00    -0.003 A 
ATOM      4  C5  UNL d   1      -0.084  -1.735   0.307  0.00  0.00     0.000 A 
ATOM      5  C6  UNL d   1       1.198  -1.784  -0.241  0.00  0.00     0.000 A 
ATOM      6  C7  UNL d   1       1.739  -0.673  -0.911  0.00  0.00    -0.073 A 
ATOM      7  C8  UNL d   1       3.124  -0.783  -1.489  0.00  0.00     0.078 C 
ENDROOT
BRANCH   1   8
ATOM      8  C1  UNL d   1       1.453   1.711  -1.800  0.00  0.00     0.053 C 
ATOM      9  C   UNL d   1       0.318   2.556  -2.358  0.00  0.00     0.018 C 
ENDBRANCH   1   8
TORSDOF 1
ENDMDL
