MODEL 1
REMARK minimizedAffinity -5.25566626
REMARK minimizedRMSD -1
REMARK  1 active torsions:
REMARK  status: ('A' for Active; 'I' for Inactive)
REMARK    1  A    between atoms: C1_2  and  C2_3 
ROOT
ATOM      1  C2  UNL d   1       0.174   0.033  -0.420  0.00  0.00    -0.076 A 
ATOM      2  C3  UNL d   1       1.116   1.059  -0.604  0.00  0.00     0.004 A 
ATOM      3  C4  UNL d   1       2.431   0.769  -0.964  0.00  0.00    -0.003 A 
ATOM      4  C5  UNL d   1       2.825  -0.552  -1.147  0.00  0.00     0.000 A 
ATOM      5  C6  UNL d   1       1.898  -1.582  -0.986  0.00  0.00     0.000 A 
ATOM      6  C7  UNL d   1       0.565  -1.306  -0.639  0.00  0.00    -0.073 A 
ATOM      7  C8  UNL d   1      -0.391  -2.455  -0.472  0.00  0.00     0.078 C 
ENDROOT
BRANCH   1   8
ATOM      8  C1  UNL d   1      -1.231   0.406  -0.003  0.00  0.00     0.053 C 
ATOM      9  C   UNL d   1      -1.371   0.554   1.504  0.00  0.00     0.018 C 
ENDBRANCH   1   8
TORSDOF 1
ENDMDL
