MODEL 1
REMARK minimizedAffinity -4.69578266
REMARK minimizedRMSD -1
REMARK  1 active torsions:
REMARK  status: ('A' for Active; 'I' for Inactive)
REMARK    1  A    between atoms: C1_2  and  C2_3 
ROOT
ATOM      1  C2  UNL d   1      -0.410   0.068   0.145  0.00  0.00    -0.076 A 
ATOM      2  C3  UNL d   1       0.002  -1.147   0.719  0.00  0.00     0.004 A 
ATOM      3  C4  UNL d   1       1.073  -1.864   0.188  0.00  0.00    -0.003 A 
ATOM      4  C5  UNL d   1       1.749  -1.377  -0.925  0.00  0.00     0.000 A 
ATOM      5  C6  UNL d   1       1.365  -0.164  -1.497  0.00  0.00     0.000 A 
ATOM      6  C7  UNL d   1       0.298   0.579  -0.964  0.00  0.00    -0.073 A 
ATOM      7  C8  UNL d   1      -0.078   1.878  -1.623  0.00  0.00     0.078 C 
ENDROOT
BRANCH   1   8
ATOM      8  C1  UNL d   1      -1.595   0.788   0.748  0.00  0.00     0.053 C 
ATOM      9  C   UNL d   1      -1.947   0.272   2.134  0.00  0.00     0.018 C 
ENDBRANCH   1   8
TORSDOF 1
ENDMDL
