MODEL 1
REMARK minimizedAffinity -5.48575115
REMARK minimizedRMSD -1
REMARK  0 active torsions:
REMARK  status: ('A' for Active; 'I' for Inactive)
ROOT
ATOM      1  C   UNL d   1       0.063   3.489  -3.898  0.00  0.00     0.077 C 
ATOM      2  C1  UNL d   1      -0.834   3.533  -2.697  0.00  0.00    -0.074 A 
ATOM      3  C2  UNL d   1      -2.033   4.253  -2.721  0.00  0.00    -0.005 A 
ATOM      4  C3  UNL d   1      -2.862   4.277  -1.600  0.00  0.00     0.006 A 
ATOM      5  C4  UNL d   1      -2.501   3.583  -0.444  0.00  0.00    -0.005 A 
ATOM      6  C5  UNL d   1      -1.306   2.857  -0.402  0.00  0.00    -0.074 A 
ATOM      7  C6  UNL d   1      -0.908   2.098   0.829  0.00  0.00     0.077 C 
ATOM      8  C7  UNL d   1      -0.482   2.832  -1.535  0.00  0.00    -0.001 A 
ENDROOT
TORSDOF 0
ENDMDL
