MODEL 1
REMARK minimizedAffinity -2.44789553
REMARK minimizedRMSD -1
REMARK  0 active torsions:
REMARK  status: ('A' for Active; 'I' for Inactive)
ROOT
ATOM      1  C   UNL d   1      -0.649   0.373  -1.464  0.00  0.00     0.077 C 
ATOM      2  C1  UNL d   1      -0.977   1.745  -1.975  0.00  0.00    -0.074 A 
ATOM      3  C2  UNL d   1       0.030   2.605  -2.423  0.00  0.00    -0.005 A 
ATOM      4  C3  UNL d   1      -0.291   3.874  -2.905  0.00  0.00     0.006 A 
ATOM      5  C4  UNL d   1      -1.621   4.295  -2.943  0.00  0.00    -0.005 A 
ATOM      6  C5  UNL d   1      -2.642   3.448  -2.499  0.00  0.00    -0.074 A 
ATOM      7  C6  UNL d   1      -4.077   3.881  -2.543  0.00  0.00     0.077 C 
ATOM      8  C7  UNL d   1      -2.312   2.172  -2.023  0.00  0.00    -0.001 A 
ENDROOT
TORSDOF 0
ENDMDL
