MODEL 1
REMARK minimizedAffinity -2.42055225
REMARK minimizedRMSD -1
REMARK  0 active torsions:
REMARK  status: ('A' for Active; 'I' for Inactive)
ROOT
ATOM      1  C   UNL d   1       1.989  -1.534  -1.386  0.00  0.00     0.077 C 
ATOM      2  C1  UNL d   1       1.100  -1.032  -0.287  0.00  0.00    -0.074 A 
ATOM      3  C2  UNL d   1      -0.230  -0.684  -0.541  0.00  0.00    -0.005 A 
ATOM      4  C3  UNL d   1      -1.048  -0.228   0.493  0.00  0.00     0.006 A 
ATOM      5  C4  UNL d   1      -0.544  -0.116   1.789  0.00  0.00    -0.005 A 
ATOM      6  C5  UNL d   1       0.783  -0.461   2.063  0.00  0.00    -0.074 A 
ATOM      7  C6  UNL d   1       1.337  -0.356   3.452  0.00  0.00     0.077 C 
ATOM      8  C7  UNL d   1       1.596  -0.925   1.020  0.00  0.00    -0.001 A 
ENDROOT
TORSDOF 0
ENDMDL
