MODEL 1
REMARK minimizedAffinity -3.90937614
REMARK minimizedRMSD -1
REMARK  1 active torsions:
REMARK  status: ('A' for Active; 'I' for Inactive)
REMARK    1  A    between atoms: C1_2  and  C2_3 
ROOT
ATOM      1  C2  UNL d   1      -1.202   0.030  -0.263  0.00  0.00    -0.073 A 
ATOM      2  C3  UNL d   1      -1.192  -1.081   0.589  0.00  0.00    -0.002 A 
ATOM      3  C4  UNL d   1      -0.135  -1.278   1.478  0.00  0.00     0.004 A 
ATOM      4  C5  UNL d   1       0.919  -0.366   1.529  0.00  0.00    -0.004 A 
ATOM      5  C6  UNL d   1       0.922   0.757   0.695  0.00  0.00    -0.075 A 
ATOM      6  C7  UNL d   1       2.049   1.746   0.737  0.00  0.00     0.076 C 
ATOM      7  C8  UNL d   1      -0.143   0.947  -0.197  0.00  0.00     0.001 A 
ENDROOT
BRANCH   1   8
ATOM      8  C1  UNL d   1      -2.344   0.251  -1.219  0.00  0.00     0.053 C 
ATOM      9  C   UNL d   1      -2.538  -0.929  -2.159  0.00  0.00     0.018 C 
ENDBRANCH   1   8
TORSDOF 1
ENDMDL
