MODEL 1
REMARK minimizedAffinity -1.96780908
REMARK minimizedRMSD -1
REMARK  1 active torsions:
REMARK  status: ('A' for Active; 'I' for Inactive)
REMARK    1  A    between atoms: C1_2  and  C2_3 
ROOT
ATOM      1  C2  UNL d   1       1.426   1.220   1.024  0.00  0.00    -0.073 A 
ATOM      2  C3  UNL d   1       1.710   2.345   1.807  0.00  0.00    -0.002 A 
ATOM      3  C4  UNL d   1       2.255   2.196   3.083  0.00  0.00     0.004 A 
ATOM      4  C5  UNL d   1       2.526   0.924   3.586  0.00  0.00    -0.004 A 
ATOM      5  C6  UNL d   1       2.260  -0.212   2.814  0.00  0.00    -0.075 A 
ATOM      6  C7  UNL d   1       2.545  -1.587   3.342  0.00  0.00     0.076 C 
ATOM      7  C8  UNL d   1       1.711  -0.054   1.535  0.00  0.00     0.001 A 
ENDROOT
BRANCH   1   8
ATOM      8  C1  UNL d   1       0.844   1.377  -0.357  0.00  0.00     0.053 C 
ATOM      9  C   UNL d   1      -0.298   0.404  -0.608  0.00  0.00     0.018 C 
ENDBRANCH   1   8
TORSDOF 1
ENDMDL
