MODEL 1
REMARK minimizedAffinity -3.50454092
REMARK minimizedRMSD -1
REMARK  1 active torsions:
REMARK  status: ('A' for Active; 'I' for Inactive)
REMARK    1  A    between atoms: C1_2  and  C2_3 
ROOT
ATOM      1  C2  UNL d   1       2.245   1.067   1.956  0.00  0.00    -0.073 A 
ATOM      2  C3  UNL d   1       2.323   1.530   3.274  0.00  0.00    -0.002 A 
ATOM      3  C4  UNL d   1       2.291   0.630   4.340  0.00  0.00     0.004 A 
ATOM      4  C5  UNL d   1       2.187  -0.740   4.099  0.00  0.00    -0.004 A 
ATOM      5  C6  UNL d   1       2.120  -1.223   2.788  0.00  0.00    -0.075 A 
ATOM      6  C7  UNL d   1       2.005  -2.693   2.512  0.00  0.00     0.076 C 
ATOM      7  C8  UNL d   1       2.150  -0.312   1.723  0.00  0.00     0.001 A 
ENDROOT
BRANCH   1   8
ATOM      8  C1  UNL d   1       2.287   2.035   0.801  0.00  0.00     0.053 C 
ATOM      9  C   UNL d   1       1.051   1.926  -0.078  0.00  0.00     0.018 C 
ENDBRANCH   1   8
TORSDOF 1
ENDMDL
