MODEL 1
REMARK minimizedAffinity 1.54614937
REMARK minimizedRMSD -1
REMARK  1 active torsions:
REMARK  status: ('A' for Active; 'I' for Inactive)
REMARK    1  A    between atoms: C1_2  and  C2_3 
ROOT
ATOM      1  C2  UNL d   1       1.456   0.385   0.872  0.00  0.00    -0.073 A 
ATOM      2  C3  UNL d   1       1.022   1.632   0.406  0.00  0.00    -0.002 A 
ATOM      3  C4  UNL d   1      -0.227   1.761  -0.202  0.00  0.00     0.004 A 
ATOM      4  C5  UNL d   1      -1.057   0.650  -0.344  0.00  0.00    -0.004 A 
ATOM      5  C6  UNL d   1      -0.646  -0.602   0.126  0.00  0.00    -0.075 A 
ATOM      6  C7  UNL d   1      -1.527  -1.808  -0.022  0.00  0.00     0.076 C 
ATOM      7  C8  UNL d   1       0.611  -0.725   0.733  0.00  0.00     0.001 A 
ENDROOT
BRANCH   1   8
ATOM      8  C1  UNL d   1       2.802   0.242   1.535  0.00  0.00     0.053 C 
ATOM      9  C   UNL d   1       2.896   1.055   2.816  0.00  0.00     0.018 C 
ENDBRANCH   1   8
TORSDOF 1
ENDMDL
