MODEL 1
REMARK minimizedAffinity -1.67457747
REMARK minimizedRMSD -1
REMARK  1 active torsions:
REMARK  status: ('A' for Active; 'I' for Inactive)
REMARK    1  A    between atoms: C1_2  and  C2_3 
ROOT
ATOM      1  C2  UNL d   1      -0.886   1.036   0.460  0.00  0.00    -0.073 A 
ATOM      2  C3  UNL d   1      -1.742   0.920   1.561  0.00  0.00    -0.002 A 
ATOM      3  C4  UNL d   1      -3.124   0.862   1.377  0.00  0.00     0.004 A 
ATOM      4  C5  UNL d   1      -3.664   0.913   0.092  0.00  0.00    -0.004 A 
ATOM      5  C6  UNL d   1      -2.824   1.016  -1.022  0.00  0.00    -0.075 A 
ATOM      6  C7  UNL d   1      -3.389   1.074  -2.411  0.00  0.00     0.076 C 
ATOM      7  C8  UNL d   1      -1.438   1.077  -0.829  0.00  0.00     0.001 A 
ENDROOT
BRANCH   1   8
ATOM      8  C1  UNL d   1       0.607   1.092   0.653  0.00  0.00     0.053 C 
ATOM      9  C   UNL d   1       1.016   2.199   1.611  0.00  0.00     0.018 C 
ENDBRANCH   1   8
TORSDOF 1
ENDMDL
