MODEL 1
REMARK minimizedAffinity -2.35220003
REMARK minimizedRMSD -1
REMARK  0 active torsions:
REMARK  status: ('A' for Active; 'I' for Inactive)
ROOT
ATOM      1  C   UNL d   1      -1.692  -1.179   2.994  0.00  0.00    -0.002 A 
ATOM      2  C1  UNL d   1      -0.527  -0.851   3.674  0.00  0.00     0.010 A 
ATOM      3  C2  UNL d   1       0.532  -0.230   3.009  0.00  0.00     0.041 A 
ATOM      4  C3  UNL d   1       0.399   0.062   1.637  0.00  0.00    -0.075 A 
ATOM      5  S   UNL d   1       1.564   0.820   0.617  0.00  0.00     0.015 SA
ATOM      6  C4  UNL d   1       0.542   0.728  -0.744  0.00  0.00     0.022 A 
ATOM      7  C5  UNL d   1      -0.662   0.136  -0.446  0.00  0.00     0.026 A 
ATOM      8  C6  UNL d   1      -0.765  -0.257   0.932  0.00  0.00    -0.082 A 
ATOM      9  C7  UNL d   1      -1.820  -0.888   1.634  0.00  0.00     0.045 A 
ENDROOT
TORSDOF 0
ENDMDL
