MODEL 1
REMARK minimizedAffinity -5.97024918
REMARK minimizedRMSD -1
REMARK  0 active torsions:
REMARK  status: ('A' for Active; 'I' for Inactive)
ROOT
ATOM      1  C   UNL d   1      -2.999   0.413   2.307  0.00  0.00    -0.002 A 
ATOM      2  C1  UNL d   1      -3.157   0.717   0.962  0.00  0.00     0.010 A 
ATOM      3  C2  UNL d   1      -2.067   0.670   0.091  0.00  0.00     0.041 A 
ATOM      4  C3  UNL d   1      -0.804   0.307   0.598  0.00  0.00    -0.075 A 
ATOM      5  S   UNL d   1       0.673   0.181  -0.283  0.00  0.00     0.015 SA
ATOM      6  C4  UNL d   1       1.548  -0.280   1.105  0.00  0.00     0.022 A 
ATOM      7  C5  UNL d   1       0.749  -0.341   2.222  0.00  0.00     0.026 A 
ATOM      8  C6  UNL d   1      -0.620  -0.004   1.948  0.00  0.00    -0.082 A 
ATOM      9  C7  UNL d   1      -1.745   0.054   2.806  0.00  0.00     0.045 A 
ENDROOT
TORSDOF 0
ENDMDL
