MODEL 1
REMARK minimizedAffinity -4.70852852
REMARK minimizedRMSD -1
REMARK  0 active torsions:
REMARK  status: ('A' for Active; 'I' for Inactive)
ROOT
ATOM      1  C   UNL d   1      -1.069  -0.681   3.343  0.00  0.00    -0.002 A 
ATOM      2  C1  UNL d   1      -2.149  -0.477   2.496  0.00  0.00     0.010 A 
ATOM      3  C2  UNL d   1      -1.948  -0.105   1.165  0.00  0.00     0.041 A 
ATOM      4  C3  UNL d   1      -0.630   0.057   0.695  0.00  0.00    -0.075 A 
ATOM      5  S   UNL d   1      -0.142   0.507  -0.896  0.00  0.00     0.015 SA
ATOM      6  C4  UNL d   1       1.512   0.438  -0.490  0.00  0.00     0.022 A 
ATOM      7  C5  UNL d   1       1.705   0.083   0.824  0.00  0.00     0.026 A 
ATOM      8  C6  UNL d   1       0.474  -0.143   1.529  0.00  0.00    -0.082 A 
ATOM      9  C7  UNL d   1       0.237  -0.518   2.873  0.00  0.00     0.045 A 
ENDROOT
TORSDOF 0
ENDMDL
