MODEL 1
REMARK minimizedAffinity -0.490646005
REMARK minimizedRMSD -1
REMARK  0 active torsions:
REMARK  status: ('A' for Active; 'I' for Inactive)
ROOT
ATOM      1  C   UNL d   1      -0.194   0.520  -1.408  0.00  0.00    -0.002 A 
ATOM      2  C1  UNL d   1       1.110   0.887  -1.107  0.00  0.00     0.010 A 
ATOM      3  C2  UNL d   1       1.573   0.847   0.210  0.00  0.00     0.041 A 
ATOM      4  C3  UNL d   1       0.696   0.425   1.228  0.00  0.00    -0.075 A 
ATOM      5  S   UNL d   1       1.044   0.295   2.912  0.00  0.00     0.015 SA
ATOM      6  C4  UNL d   1      -0.530  -0.252   3.271  0.00  0.00     0.022 A 
ATOM      7  C5  UNL d   1      -1.315  -0.339   2.146  0.00  0.00     0.026 A 
ATOM      8  C6  UNL d   1      -0.621   0.049   0.950  0.00  0.00    -0.082 A 
ATOM      9  C7  UNL d   1      -1.061   0.102  -0.395  0.00  0.00     0.045 A 
ENDROOT
TORSDOF 0
ENDMDL
