MODEL 1
REMARK minimizedAffinity -4.51587009
REMARK minimizedRMSD -1
REMARK  0 active torsions:
REMARK  status: ('A' for Active; 'I' for Inactive)
ROOT
ATOM      1  C   UNL d   1      -2.963   0.001   2.490  0.00  0.00    -0.002 A 
ATOM      2  C1  UNL d   1      -1.903  -0.156   3.372  0.00  0.00     0.010 A 
ATOM      3  C2  UNL d   1      -0.592  -0.241   2.899  0.00  0.00     0.041 A 
ATOM      4  C3  UNL d   1      -0.362  -0.165   1.511  0.00  0.00    -0.075 A 
ATOM      5  S   UNL d   1       1.159  -0.245   0.703  0.00  0.00     0.015 SA
ATOM      6  C4  UNL d   1       0.438  -0.072  -0.831  0.00  0.00     0.022 A 
ATOM      7  C5  UNL d   1      -0.929   0.045  -0.748  0.00  0.00     0.026 A 
ATOM      8  C6  UNL d   1      -1.413  -0.006   0.603  0.00  0.00    -0.082 A 
ATOM      9  C7  UNL d   1      -2.731   0.077   1.114  0.00  0.00     0.045 A 
ENDROOT
TORSDOF 0
ENDMDL
