MODEL 1
REMARK minimizedAffinity 1.40202713
REMARK minimizedRMSD -1
REMARK  0 active torsions:
REMARK  status: ('A' for Active; 'I' for Inactive)
ROOT
ATOM      1  C   UNL d   1      -1.280  -0.985   3.038  0.00  0.00    -0.002 A 
ATOM      2  C1  UNL d   1      -1.699  -2.027   2.222  0.00  0.00     0.010 A 
ATOM      3  C2  UNL d   1      -1.371  -2.042   0.865  0.00  0.00     0.041 A 
ATOM      4  C3  UNL d   1      -0.608  -0.982   0.337  0.00  0.00    -0.075 A 
ATOM      5  S   UNL d   1      -0.087  -0.790  -1.296  0.00  0.00     0.015 SA
ATOM      6  C4  UNL d   1       0.703   0.680  -0.949  0.00  0.00     0.022 A 
ATOM      7  C5  UNL d   1       0.583   1.030   0.375  0.00  0.00     0.026 A 
ATOM      8  C6  UNL d   1      -0.174   0.078   1.138  0.00  0.00    -0.082 A 
ATOM      9  C7  UNL d   1      -0.523   0.064   2.510  0.00  0.00     0.045 A 
ENDROOT
TORSDOF 0
ENDMDL
