MODEL 1
REMARK minimizedAffinity -4.33352375
REMARK minimizedRMSD -1
REMARK  0 active torsions:
REMARK  status: ('A' for Active; 'I' for Inactive)
ROOT
ATOM      1  C   UNL d   1      -0.652  -0.507   3.319  0.00  0.00    -0.002 A 
ATOM      2  C1  UNL d   1      -1.882  -0.667   2.697  0.00  0.00     0.010 A 
ATOM      3  C2  UNL d   1      -2.011  -0.477   1.320  0.00  0.00     0.041 A 
ATOM      4  C3  UNL d   1      -0.872  -0.122   0.571  0.00  0.00    -0.075 A 
ATOM      5  S   UNL d   1      -0.792   0.161  -1.128  0.00  0.00     0.015 SA
ATOM      6  C4  UNL d   1       0.877   0.500  -1.068  0.00  0.00     0.022 A 
ATOM      7  C5  UNL d   1       1.377   0.404   0.209  0.00  0.00     0.026 A 
ATOM      8  C6  UNL d   1       0.377   0.044   1.175  0.00  0.00    -0.082 A 
ATOM      9  C7  UNL d   1       0.476  -0.155   2.573  0.00  0.00     0.045 A 
ENDROOT
TORSDOF 0
ENDMDL
