MODEL 1
REMARK minimizedAffinity -2.22538519
REMARK minimizedRMSD -1
REMARK  0 active torsions:
REMARK  status: ('A' for Active; 'I' for Inactive)
ROOT
ATOM      1  C   UNL d   1      -2.268  -0.464   2.539  0.00  0.00    -0.002 A 
ATOM      2  C1  UNL d   1      -1.144  -0.190   3.306  0.00  0.00     0.010 A 
ATOM      3  C2  UNL d   1       0.053   0.196   2.698  0.00  0.00     0.041 A 
ATOM      4  C3  UNL d   1       0.101   0.305   1.295  0.00  0.00    -0.075 A 
ATOM      5  S   UNL d   1       1.457   0.762   0.333  0.00  0.00     0.015 SA
ATOM      6  C4  UNL d   1       0.576   0.605  -1.117  0.00  0.00     0.022 A 
ATOM      7  C5  UNL d   1      -0.723   0.214  -0.892  0.00  0.00     0.026 A 
ATOM      8  C6  UNL d   1      -1.018   0.035   0.502  0.00  0.00    -0.082 A 
ATOM      9  C7  UNL d   1      -2.217  -0.355   1.147  0.00  0.00     0.045 A 
ENDROOT
TORSDOF 0
ENDMDL
