MODEL 1
REMARK minimizedAffinity 5.4132061
REMARK minimizedRMSD -1
REMARK  0 active torsions:
REMARK  status: ('A' for Active; 'I' for Inactive)
ROOT
ATOM      1  C   UNL d   1       0.957  -4.146   0.138  0.00  0.00     0.020 A 
ATOM      2  C1  UNL d   1       2.225  -3.576   0.025  0.00  0.00     0.020 A 
ATOM      3  C2  UNL d   1       2.434  -2.254   0.424  0.00  0.00     0.034 A 
ATOM      4  C3  UNL d   1       1.374  -1.498   0.938  0.00  0.00     0.017 A 
ATOM      5  C4  UNL d   1       0.102  -2.071   1.051  0.00  0.00     0.017 A 
ATOM      6  C5  UNL d   1      -0.102  -3.395   0.650  0.00  0.00     0.034 A 
ATOM      7 Cl   UNL d   1      -1.255  -1.201   1.675  0.00  0.00    -0.070 Cl
ATOM      8 Cl1  UNL d   1       1.704   0.131   1.411  0.00  0.00    -0.070 Cl
ENDROOT
TORSDOF 0
ENDMDL
