MODEL 1
REMARK minimizedAffinity 4.20303106
REMARK minimizedRMSD -1
REMARK  0 active torsions:
REMARK  status: ('A' for Active; 'I' for Inactive)
ROOT
ATOM      1  C   UNL d   1       0.489  -1.334  -0.292  0.00  0.00     0.020 A 
ATOM      2  C1  UNL d   1      -0.797  -1.303   0.248  0.00  0.00     0.020 A 
ATOM      3  C2  UNL d   1      -0.993  -0.863   1.559  0.00  0.00     0.034 A 
ATOM      4  C3  UNL d   1       0.097  -0.453   2.334  0.00  0.00     0.017 A 
ATOM      5  C4  UNL d   1       1.387  -0.484   1.792  0.00  0.00     0.017 A 
ATOM      6  C5  UNL d   1       1.578  -0.925   0.479  0.00  0.00     0.034 A 
ATOM      7 Cl   UNL d   1       2.781   0.007   2.687  0.00  0.00    -0.070 Cl
ATOM      8 Cl1  UNL d   1      -0.220   0.080   3.947  0.00  0.00    -0.070 Cl
ENDROOT
TORSDOF 0
ENDMDL
