MODEL 1
REMARK minimizedAffinity 5.58724689
REMARK minimizedRMSD -1
REMARK  0 active torsions:
REMARK  status: ('A' for Active; 'I' for Inactive)
ROOT
ATOM      1  C   UNL d   1      -0.939  -1.672   0.741  0.00  0.00     0.020 A 
ATOM      2  C1  UNL d   1      -0.352  -0.446   1.052  0.00  0.00     0.020 A 
ATOM      3  C2  UNL d   1       1.022  -0.266   0.880  0.00  0.00     0.034 A 
ATOM      4  C3  UNL d   1       1.813  -1.313   0.396  0.00  0.00     0.017 A 
ATOM      5  C4  UNL d   1       1.223  -2.544   0.084  0.00  0.00     0.017 A 
ATOM      6  C5  UNL d   1      -0.153  -2.718   0.258  0.00  0.00     0.034 A 
ATOM      7 Cl   UNL d   1       2.135  -3.883  -0.518  0.00  0.00    -0.070 Cl
ATOM      8 Cl1  UNL d   1       3.506  -1.021   0.207  0.00  0.00    -0.070 Cl
ENDROOT
TORSDOF 0
ENDMDL
