MODEL 1
REMARK minimizedAffinity -0.681307673
REMARK minimizedRMSD -1
REMARK  0 active torsions:
REMARK  status: ('A' for Active; 'I' for Inactive)
ROOT
ATOM      1  C   UNL d   1       0.963  -0.618   1.008  0.00  0.00     0.020 A 
ATOM      2  C1  UNL d   1      -0.354  -0.691   0.556  0.00  0.00     0.020 A 
ATOM      3  C2  UNL d   1      -0.799  -1.832  -0.116  0.00  0.00     0.034 A 
ATOM      4  C3  UNL d   1       0.073  -2.903  -0.337  0.00  0.00     0.017 A 
ATOM      5  C4  UNL d   1       1.395  -2.829   0.117  0.00  0.00     0.017 A 
ATOM      6  C5  UNL d   1       1.836  -1.685   0.789  0.00  0.00     0.034 A 
ATOM      7 Cl   UNL d   1       2.530  -4.111  -0.119  0.00  0.00    -0.070 Cl
ATOM      8 Cl1  UNL d   1      -0.545  -4.283  -1.175  0.00  0.00    -0.070 Cl
ENDROOT
TORSDOF 0
ENDMDL
