MODEL 1
REMARK minimizedAffinity -2.53643441
REMARK minimizedRMSD -1
REMARK  0 active torsions:
REMARK  status: ('A' for Active; 'I' for Inactive)
ROOT
ATOM      1  C   UNL d   1      -0.555  -2.604   0.434  0.00  0.00     0.020 A 
ATOM      2  C1  UNL d   1      -0.387  -1.262   0.774  0.00  0.00     0.020 A 
ATOM      3  C2  UNL d   1       0.892  -0.702   0.793  0.00  0.00     0.034 A 
ATOM      4  C3  UNL d   1       2.008  -1.483   0.473  0.00  0.00     0.017 A 
ATOM      5  C4  UNL d   1       1.838  -2.830   0.132  0.00  0.00     0.017 A 
ATOM      6  C5  UNL d   1       0.556  -3.386   0.114  0.00  0.00     0.034 A 
ATOM      7 Cl   UNL d   1       3.167  -3.858  -0.275  0.00  0.00    -0.070 Cl
ATOM      8 Cl1  UNL d   1       3.560  -0.725   0.517  0.00  0.00    -0.070 Cl
ENDROOT
TORSDOF 0
ENDMDL
