MODEL 1
REMARK minimizedAffinity 4.85396481
REMARK minimizedRMSD -1
REMARK  0 active torsions:
REMARK  status: ('A' for Active; 'I' for Inactive)
ROOT
ATOM      1  C   UNL d   1       0.337  -0.135   1.502  0.00  0.00     0.020 A 
ATOM      2  C1  UNL d   1      -0.695  -0.880   0.932  0.00  0.00     0.020 A 
ATOM      3  C2  UNL d   1      -0.399  -1.994   0.143  0.00  0.00     0.034 A 
ATOM      4  C3  UNL d   1       0.932  -2.366  -0.077  0.00  0.00     0.017 A 
ATOM      5  C4  UNL d   1       1.967  -1.618   0.496  0.00  0.00     0.017 A 
ATOM      6  C5  UNL d   1       1.665  -0.504   1.285  0.00  0.00     0.034 A 
ATOM      7 Cl   UNL d   1       3.633  -2.016   0.269  0.00  0.00    -0.070 Cl
ATOM      8 Cl1  UNL d   1       1.225  -3.755  -1.062  0.00  0.00    -0.070 Cl
ENDROOT
TORSDOF 0
ENDMDL
