MODEL 1
REMARK minimizedAffinity 1.90419018
REMARK minimizedRMSD -1
REMARK  0 active torsions:
REMARK  status: ('A' for Active; 'I' for Inactive)
ROOT
ATOM      1  C   UNL d   1      -1.109  -0.741   1.500  0.00  0.00     0.020 A 
ATOM      2  C1  UNL d   1      -1.545  -1.988   1.053  0.00  0.00     0.020 A 
ATOM      3  C2  UNL d   1      -0.633  -2.892   0.505  0.00  0.00     0.034 A 
ATOM      4  C3  UNL d   1       0.721  -2.551   0.403  0.00  0.00     0.017 A 
ATOM      5  C4  UNL d   1       1.158  -1.299   0.852  0.00  0.00     0.017 A 
ATOM      6  C5  UNL d   1       0.240  -0.398   1.400  0.00  0.00     0.034 A 
ATOM      7 Cl   UNL d   1       2.812  -0.807   0.759  0.00  0.00    -0.070 Cl
ATOM      8 Cl1  UNL d   1       1.794  -3.717  -0.285  0.00  0.00    -0.070 Cl
ENDROOT
TORSDOF 0
ENDMDL
