MODEL 1
REMARK minimizedAffinity -0.507953703
REMARK minimizedRMSD -1
REMARK  0 active torsions:
REMARK  status: ('A' for Active; 'I' for Inactive)
ROOT
ATOM      1  C   UNL d   1       1.493  -2.651  -0.532  0.00  0.00     0.020 A 
ATOM      2  C1  UNL d   1       2.178  -1.488  -0.183  0.00  0.00     0.020 A 
ATOM      3  C2  UNL d   1       1.536  -0.496   0.560  0.00  0.00     0.034 A 
ATOM      4  C3  UNL d   1       0.205  -0.664   0.957  0.00  0.00     0.017 A 
ATOM      5  C4  UNL d   1      -0.483  -1.831   0.606  0.00  0.00     0.017 A 
ATOM      6  C5  UNL d   1       0.165  -2.822  -0.138  0.00  0.00     0.034 A 
ATOM      7 Cl   UNL d   1      -2.127  -2.111   1.060  0.00  0.00    -0.070 Cl
ATOM      8 Cl1  UNL d   1      -0.526   0.604   1.875  0.00  0.00    -0.070 Cl
ENDROOT
TORSDOF 0
ENDMDL
