MODEL 1
REMARK minimizedAffinity -2.5742774
REMARK minimizedRMSD -1
REMARK  0 active torsions:
REMARK  status: ('A' for Active; 'I' for Inactive)
ROOT
ATOM      1  C   UNL d   1      -1.356  -1.113   0.704  0.00  0.00     0.020 A 
ATOM      2  C1  UNL d   1      -1.550  -2.426   0.279  0.00  0.00     0.020 A 
ATOM      3  C2  UNL d   1      -0.451  -3.229  -0.032  0.00  0.00     0.034 A 
ATOM      4  C3  UNL d   1       0.848  -2.719   0.080  0.00  0.00     0.017 A 
ATOM      5  C4  UNL d   1       1.042  -1.400   0.507  0.00  0.00     0.017 A 
ATOM      6  C5  UNL d   1      -0.063  -0.601   0.818  0.00  0.00     0.034 A 
ATOM      7 Cl   UNL d   1       2.614  -0.701   0.670  0.00  0.00    -0.070 Cl
ATOM      8 Cl1  UNL d   1       2.161  -3.768  -0.322  0.00  0.00    -0.070 Cl
ENDROOT
TORSDOF 0
ENDMDL
