MODEL 1
REMARK minimizedAffinity -0.296320438
REMARK minimizedRMSD -1
REMARK  0 active torsions:
REMARK  status: ('A' for Active; 'I' for Inactive)
ROOT
ATOM      1  C   UNL d   1      -1.331  -2.454   0.022  0.00  0.00     0.020 A 
ATOM      2  C1  UNL d   1      -1.034  -1.148   0.408  0.00  0.00     0.020 A 
ATOM      3  C2  UNL d   1       0.296  -0.745   0.545  0.00  0.00     0.034 A 
ATOM      4  C3  UNL d   1       1.334  -1.649   0.295  0.00  0.00     0.017 A 
ATOM      5  C4  UNL d   1       1.036  -2.960  -0.093  0.00  0.00     0.017 A 
ATOM      6  C5  UNL d   1      -0.298  -3.358  -0.228  0.00  0.00     0.034 A 
ATOM      7 Cl   UNL d   1       2.263  -4.133  -0.419  0.00  0.00    -0.070 Cl
ATOM      8 Cl1  UNL d   1       2.956  -1.083   0.484  0.00  0.00    -0.070 Cl
ENDROOT
TORSDOF 0
ENDMDL
