MODEL 1
REMARK minimizedAffinity 1.28896749
REMARK minimizedRMSD -1
REMARK  0 active torsions:
REMARK  status: ('A' for Active; 'I' for Inactive)
ROOT
ATOM      1  C   UNL d   1      -2.775   0.712   0.704  0.00  0.00     0.020 A 
ATOM      2  C1  UNL d   1      -2.314   1.449   1.793  0.00  0.00     0.020 A 
ATOM      3  C2  UNL d   1      -1.072   1.155   2.360  0.00  0.00     0.034 A 
ATOM      4  C3  UNL d   1      -0.287   0.121   1.836  0.00  0.00     0.017 A 
ATOM      5  C4  UNL d   1      -0.751  -0.618   0.742  0.00  0.00     0.017 A 
ATOM      6  C5  UNL d   1      -1.996  -0.319   0.179  0.00  0.00     0.034 A 
ATOM      7 Cl   UNL d   1       0.161  -1.909   0.041  0.00  0.00    -0.070 Cl
ATOM      8 Cl1  UNL d   1       1.239  -0.188   2.586  0.00  0.00    -0.070 Cl
ENDROOT
TORSDOF 0
ENDMDL
