MODEL 1
REMARK minimizedAffinity 1.20320594
REMARK minimizedRMSD -1
REMARK  0 active torsions:
REMARK  status: ('A' for Active; 'I' for Inactive)
ROOT
ATOM      1  C   UNL d   1      -0.288  -0.854   1.357  0.00  0.00     0.020 A 
ATOM      2  C1  UNL d   1      -0.708  -2.173   1.191  0.00  0.00     0.020 A 
ATOM      3  C2  UNL d   1       0.092  -3.077   0.489  0.00  0.00     0.034 A 
ATOM      4  C3  UNL d   1       1.316  -2.663  -0.049  0.00  0.00     0.017 A 
ATOM      5  C4  UNL d   1       1.737  -1.339   0.119  0.00  0.00     0.017 A 
ATOM      6  C5  UNL d   1       0.931  -0.438   0.822  0.00  0.00     0.034 A 
ATOM      7 Cl   UNL d   1       3.234  -0.755  -0.516  0.00  0.00    -0.070 Cl
ATOM      8 Cl1  UNL d   1       2.255  -3.835  -0.905  0.00  0.00    -0.070 Cl
ENDROOT
TORSDOF 0
ENDMDL
