MODEL 1
REMARK minimizedAffinity 4.85742998
REMARK minimizedRMSD -1
REMARK  0 active torsions:
REMARK  status: ('A' for Active; 'I' for Inactive)
ROOT
ATOM      1  C   UNL d   1      -2.203   1.127   1.797  0.00  0.00     0.020 A 
ATOM      2  C1  UNL d   1      -2.712   0.316   0.783  0.00  0.00     0.020 A 
ATOM      3  C2  UNL d   1      -1.912  -0.680   0.218  0.00  0.00     0.034 A 
ATOM      4  C3  UNL d   1      -0.600  -0.867   0.667  0.00  0.00     0.017 A 
ATOM      5  C4  UNL d   1      -0.090  -0.052   1.685  0.00  0.00     0.017 A 
ATOM      6  C5  UNL d   1      -0.895   0.943   2.246  0.00  0.00     0.034 A 
ATOM      7 Cl   UNL d   1       1.519  -0.224   2.291  0.00  0.00    -0.070 Cl
ATOM      8 Cl1  UNL d   1       0.333  -2.118  -0.076  0.00  0.00    -0.070 Cl
ENDROOT
TORSDOF 0
ENDMDL
