MODEL 1
REMARK minimizedAffinity 4.43220472
REMARK minimizedRMSD -1
REMARK  0 active torsions:
REMARK  status: ('A' for Active; 'I' for Inactive)
ROOT
ATOM      1  C   UNL d   1      -0.658  -1.875   1.132  0.00  0.00     0.020 A 
ATOM      2  C1  UNL d   1      -0.662  -3.116   0.496  0.00  0.00     0.020 A 
ATOM      3  C2  UNL d   1       0.498  -3.587  -0.123  0.00  0.00     0.034 A 
ATOM      4  C3  UNL d   1       1.666  -2.817  -0.107  0.00  0.00     0.017 A 
ATOM      5  C4  UNL d   1       1.670  -1.572   0.532  0.00  0.00     0.017 A 
ATOM      6  C5  UNL d   1       0.506  -1.105   1.150  0.00  0.00     0.034 A 
ATOM      7 Cl   UNL d   1       3.073  -0.565   0.593  0.00  0.00    -0.070 Cl
ATOM      8 Cl1  UNL d   1       3.064  -3.462  -0.891  0.00  0.00    -0.070 Cl
ENDROOT
TORSDOF 0
ENDMDL
