MODEL 1
REMARK minimizedAffinity 3.1042335
REMARK minimizedRMSD -1
REMARK  0 active torsions:
REMARK  status: ('A' for Active; 'I' for Inactive)
ROOT
ATOM      1  C   UNL d   1       2.101  -1.217   0.079  0.00  0.00     0.020 A 
ATOM      2  C1  UNL d   1       1.042  -1.515  -0.778  0.00  0.00     0.020 A 
ATOM      3  C2  UNL d   1      -0.253  -1.643  -0.270  0.00  0.00     0.034 A 
ATOM      4  C3  UNL d   1      -0.491  -1.473   1.099  0.00  0.00     0.017 A 
ATOM      5  C4  UNL d   1       0.572  -1.173   1.958  0.00  0.00     0.017 A 
ATOM      6  C5  UNL d   1       1.866  -1.046   1.444  0.00  0.00     0.034 A 
ATOM      7 Cl   UNL d   1       0.356  -0.949   3.658  0.00  0.00    -0.070 Cl
ATOM      8 Cl1  UNL d   1      -2.117  -1.645   1.658  0.00  0.00    -0.070 Cl
ENDROOT
TORSDOF 0
ENDMDL
