MODEL 1
REMARK minimizedAffinity 3.44838452
REMARK minimizedRMSD -1
REMARK  0 active torsions:
REMARK  status: ('A' for Active; 'I' for Inactive)
ROOT
ATOM      1  C   UNL d   1       2.420  -1.434   0.009  0.00  0.00     0.020 A 
ATOM      2  C1  UNL d   1       1.811  -2.567  -0.528  0.00  0.00     0.020 A 
ATOM      3  C2  UNL d   1       0.492  -2.878  -0.191  0.00  0.00     0.034 A 
ATOM      4  C3  UNL d   1      -0.223  -2.054   0.686  0.00  0.00     0.017 A 
ATOM      5  C4  UNL d   1       0.389  -0.917   1.225  0.00  0.00     0.017 A 
ATOM      6  C5  UNL d   1       1.710  -0.611   0.884  0.00  0.00     0.034 A 
ATOM      7 Cl   UNL d   1      -0.429   0.148   2.314  0.00  0.00    -0.070 Cl
ATOM      8 Cl1  UNL d   1      -1.851  -2.498   1.059  0.00  0.00    -0.070 Cl
ENDROOT
TORSDOF 0
ENDMDL
