MODEL 1
REMARK minimizedAffinity 3.44452143
REMARK minimizedRMSD -1
REMARK  0 active torsions:
REMARK  status: ('A' for Active; 'I' for Inactive)
ROOT
ATOM      1  C   UNL d   1      -0.468  -0.372   0.744  0.00  0.00     0.020 A 
ATOM      2  C1  UNL d   1      -1.066  -1.583   0.399  0.00  0.00     0.020 A 
ATOM      3  C2  UNL d   1      -0.275  -2.670   0.020  0.00  0.00     0.034 A 
ATOM      4  C3  UNL d   1       1.119  -2.547  -0.015  0.00  0.00     0.017 A 
ATOM      5  C4  UNL d   1       1.719  -1.331   0.331  0.00  0.00     0.017 A 
ATOM      6  C5  UNL d   1       0.921  -0.246   0.711  0.00  0.00     0.034 A 
ATOM      7 Cl   UNL d   1       3.432  -1.103   0.312  0.00  0.00    -0.070 Cl
ATOM      8 Cl1  UNL d   1       2.036  -3.931  -0.494  0.00  0.00    -0.070 Cl
ENDROOT
TORSDOF 0
ENDMDL
