MODEL 1
REMARK minimizedAffinity 1.69854105
REMARK minimizedRMSD -1
REMARK  0 active torsions:
REMARK  status: ('A' for Active; 'I' for Inactive)
ROOT
ATOM      1  C   UNL d   1      -4.910  -2.934   2.048  0.00  0.00     0.020 A 
ATOM      2  C1  UNL d   1      -5.301  -4.263   1.885  0.00  0.00     0.020 A 
ATOM      3  C2  UNL d   1      -5.633  -5.034   3.001  0.00  0.00     0.034 A 
ATOM      4  C3  UNL d   1      -5.574  -4.478   4.284  0.00  0.00     0.017 A 
ATOM      5  C4  UNL d   1      -5.181  -3.145   4.446  0.00  0.00     0.017 A 
ATOM      6  C5  UNL d   1      -4.850  -2.377   3.325  0.00  0.00     0.034 A 
ATOM      7 Cl   UNL d   1      -5.084  -2.389   5.997  0.00  0.00    -0.070 Cl
ATOM      8 Cl1  UNL d   1      -5.998  -5.490   5.619  0.00  0.00    -0.070 Cl
ENDROOT
TORSDOF 0
ENDMDL
