MODEL 1
REMARK minimizedAffinity 19.9526138
REMARK minimizedRMSD -1
REMARK  0 active torsions:
REMARK  status: ('A' for Active; 'I' for Inactive)
ROOT
ATOM      1  C   UNL d   1       0.896  -1.925   2.638  0.00  0.00     0.124 A 
ATOM      2  C1  UNL d   1       1.244  -2.794   3.662  0.00  0.00     0.062 A 
ATOM      3  C2  UNL d   1       2.584  -3.054   3.935  0.00  0.00     0.162 A 
ATOM      4  C3  UNL d   1       3.587  -2.442   3.183  0.00  0.00    -0.034 A 
ATOM      5  C4  UNL d   1       3.229  -1.570   2.153  0.00  0.00     0.162 A 
ATOM      6  C5  UNL d   1       1.888  -1.313   1.885  0.00  0.00     0.062 A 
ATOM      7  F   UNL d   1       1.554  -0.473   0.895  0.00  0.00    -0.097 F 
ATOM      8  F1  UNL d   1       4.168  -0.964   1.411  0.00  0.00    -0.096 F 
ATOM      9  I   UNL d   1       5.592  -2.828   3.587  0.00  0.00    -0.060 I 
ATOM     10  F2  UNL d   1       2.891  -3.899   4.931  0.00  0.00    -0.096 F 
ATOM     11  F3  UNL d   1       0.287  -3.387   4.391  0.00  0.00    -0.097 F 
ATOM     12  F4  UNL d   1      -0.394  -1.678   2.377  0.00  0.00    -0.092 F 
ENDROOT
TORSDOF 0
ENDMDL
