MODEL 1
REMARK minimizedAffinity 13.2928715
REMARK minimizedRMSD -1
REMARK  0 active torsions:
REMARK  status: ('A' for Active; 'I' for Inactive)
ROOT
ATOM      1  C   UNL d   1       2.661   1.798   0.374  0.00  0.00     0.124 A 
ATOM      2  C1  UNL d   1       3.740   1.011   0.752  0.00  0.00     0.062 A 
ATOM      3  C2  UNL d   1       3.555  -0.062   1.619  0.00  0.00     0.162 A 
ATOM      4  C3  UNL d   1       2.284  -0.356   2.113  0.00  0.00    -0.034 A 
ATOM      5  C4  UNL d   1       1.203   0.440   1.729  0.00  0.00     0.162 A 
ATOM      6  C5  UNL d   1       1.394   1.512   0.863  0.00  0.00     0.062 A 
ATOM      7  F   UNL d   1       0.350   2.270   0.499  0.00  0.00    -0.097 F 
ATOM      8  F1  UNL d   1      -0.032   0.185   2.185  0.00  0.00    -0.096 F 
ATOM      9  I   UNL d   1       2.002  -1.960   3.409  0.00  0.00    -0.060 I 
ATOM     10  F2  UNL d   1       4.616  -0.805   1.967  0.00  0.00    -0.096 F 
ATOM     11  F3  UNL d   1       4.966   1.286   0.283  0.00  0.00    -0.097 F 
ATOM     12  F4  UNL d   1       2.843   2.830  -0.459  0.00  0.00    -0.092 F 
ENDROOT
TORSDOF 0
ENDMDL
