MODEL 1
REMARK minimizedAffinity 19.1345901
REMARK minimizedRMSD -1
REMARK  0 active torsions:
REMARK  status: ('A' for Active; 'I' for Inactive)
ROOT
ATOM      1  C   UNL d   1       2.256  -0.709   2.016  0.00  0.00     0.124 A 
ATOM      2  C1  UNL d   1       2.146   0.644   1.729  0.00  0.00     0.062 A 
ATOM      3  C2  UNL d   1       0.932   1.174   1.303  0.00  0.00     0.162 A 
ATOM      4  C3  UNL d   1      -0.185   0.349   1.163  0.00  0.00    -0.034 A 
ATOM      5  C4  UNL d   1      -0.067  -1.012   1.452  0.00  0.00     0.162 A 
ATOM      6  C5  UNL d   1       1.150  -1.536   1.877  0.00  0.00     0.062 A 
ATOM      7  F   UNL d   1       1.254  -2.844   2.153  0.00  0.00    -0.097 F 
ATOM      8  F1  UNL d   1      -1.120  -1.833   1.327  0.00  0.00    -0.096 F 
ATOM      9  I   UNL d   1      -2.003   1.137   0.527  0.00  0.00    -0.060 I 
ATOM     10  F2  UNL d   1       0.855   2.485   1.034  0.00  0.00    -0.096 F 
ATOM     11  F3  UNL d   1       3.214   1.445   1.861  0.00  0.00    -0.097 F 
ATOM     12  F4  UNL d   1       3.426  -1.216   2.424  0.00  0.00    -0.092 F 
ENDROOT
TORSDOF 0
ENDMDL
