MODEL 1
REMARK minimizedAffinity 9.69105816
REMARK minimizedRMSD -1
REMARK  0 active torsions:
REMARK  status: ('A' for Active; 'I' for Inactive)
ROOT
ATOM      1  C   UNL d   1       2.550  -5.646  -1.853  0.00  0.00     0.124 A 
ATOM      2  C1  UNL d   1       3.934  -5.735  -1.815  0.00  0.00     0.062 A 
ATOM      3  C2  UNL d   1       4.663  -5.825  -2.998  0.00  0.00     0.162 A 
ATOM      4  C3  UNL d   1       4.008  -5.825  -4.229  0.00  0.00    -0.034 A 
ATOM      5  C4  UNL d   1       2.615  -5.736  -4.260  0.00  0.00     0.162 A 
ATOM      6  C5  UNL d   1       1.892  -5.646  -3.075  0.00  0.00     0.062 A 
ATOM      7  F   UNL d   1       0.554  -5.560  -3.114  0.00  0.00    -0.097 F 
ATOM      8  F1  UNL d   1       1.954  -5.734  -5.427  0.00  0.00    -0.096 F 
ATOM      9  I   UNL d   1       5.094  -5.960  -6.000  0.00  0.00    -0.060 I 
ATOM     10  F2  UNL d   1       6.000  -5.910  -2.931  0.00  0.00    -0.096 F 
ATOM     11  F3  UNL d   1       4.573  -5.736  -0.636  0.00  0.00    -0.097 F 
ATOM     12  F4  UNL d   1       1.851  -5.560  -0.714  0.00  0.00    -0.092 F 
ENDROOT
TORSDOF 0
ENDMDL
