MODEL 1
REMARK minimizedAffinity 20.2168255
REMARK minimizedRMSD -1
REMARK  0 active torsions:
REMARK  status: ('A' for Active; 'I' for Inactive)
ROOT
ATOM      1  C   UNL d   1       1.400  -2.247   3.126  0.00  0.00     0.124 A 
ATOM      2  C1  UNL d   1       2.451  -1.582   2.511  0.00  0.00     0.062 A 
ATOM      3  C2  UNL d   1       3.765  -1.962   2.766  0.00  0.00     0.162 A 
ATOM      4  C3  UNL d   1       4.036  -3.015   3.640  0.00  0.00    -0.034 A 
ATOM      5  C4  UNL d   1       2.973  -3.679   4.256  0.00  0.00     0.162 A 
ATOM      6  C5  UNL d   1       1.662  -3.294   3.998  0.00  0.00     0.062 A 
ATOM      7  F   UNL d   1       0.647  -3.938   4.593  0.00  0.00    -0.097 F 
ATOM      8  F1  UNL d   1       3.198  -4.695   5.102  0.00  0.00    -0.096 F 
ATOM      9  I   UNL d   1       6.000  -3.588   4.024  0.00  0.00    -0.060 I 
ATOM     10  F2  UNL d   1       4.762  -1.302   2.157  0.00  0.00    -0.096 F 
ATOM     11  F3  UNL d   1       2.201  -0.569   1.669  0.00  0.00    -0.097 F 
ATOM     12  F4  UNL d   1       0.136  -1.877   2.880  0.00  0.00    -0.092 F 
ENDROOT
TORSDOF 0
ENDMDL
