MODEL 1
REMARK minimizedAffinity 19.4262905
REMARK minimizedRMSD -1
REMARK  0 active torsions:
REMARK  status: ('A' for Active; 'I' for Inactive)
ROOT
ATOM      1  C   UNL d   1       2.432  -4.227   3.082  0.00  0.00     0.124 A 
ATOM      2  C1  UNL d   1       3.716  -4.738   2.953  0.00  0.00     0.062 A 
ATOM      3  C2  UNL d   1       4.737  -4.283   3.783  0.00  0.00     0.162 A 
ATOM      4  C3  UNL d   1       4.477  -3.313   4.752  0.00  0.00    -0.034 A 
ATOM      5  C4  UNL d   1       3.183  -2.804   4.875  0.00  0.00     0.162 A 
ATOM      6  C5  UNL d   1       2.166  -3.262   4.043  0.00  0.00     0.062 A 
ATOM      7  F   UNL d   1       0.926  -2.767   4.169  0.00  0.00    -0.097 F 
ATOM      8  F1  UNL d   1       2.898  -1.871   5.795  0.00  0.00    -0.096 F 
ATOM      9  I   UNL d   1       6.000  -2.631   5.995  0.00  0.00    -0.060 I 
ATOM     10  F2  UNL d   1       5.968  -4.794   3.636  0.00  0.00    -0.096 F 
ATOM     11  F3  UNL d   1       3.976  -5.670   2.025  0.00  0.00    -0.097 F 
ATOM     12  F4  UNL d   1       1.452  -4.666   2.281  0.00  0.00    -0.092 F 
ENDROOT
TORSDOF 0
ENDMDL
