MODEL 1
REMARK minimizedAffinity -3.4586637
REMARK minimizedRMSD -1
REMARK  0 active torsions:
REMARK  status: ('A' for Active; 'I' for Inactive)
ROOT
ATOM      1  C1  DEN d   1       1.278  -0.133  -0.001  0.00  0.00     0.130 A 
ATOM      2  C2  DEN d   1       1.140  -1.159   1.029  0.00  0.00    -0.031 A 
ATOM      3  C3  DEN d   1      -0.254  -1.646   1.003  0.00  0.00     0.027 A 
ATOM      4  C4  DEN d   1      -2.199  -0.921  -0.527  0.00  0.00     0.027 A 
ATOM      5  C5  DEN d   1      -2.568  -0.074  -1.549  0.00  0.00    -0.003 A 
ATOM      6  C6  DEN d   1      -1.697   0.829  -2.099  0.00  0.00     0.001 A 
ATOM      7  C7  DEN d   1      -0.400   0.875  -1.661  0.00  0.00     0.017 A 
ATOM      8  C8  DEN d   1      -0.023   0.029  -0.626  0.00  0.00    -0.094 A 
ATOM      9  C9  DEN d   1      -0.915  -0.885  -0.091  0.00  0.00    -0.072 A 
ENDROOT
TORSDOF 0
ENDMDL
