MODEL 1
REMARK minimizedAffinity -0.678327382
REMARK minimizedRMSD -1
REMARK  0 active torsions:
REMARK  status: ('A' for Active; 'I' for Inactive)
ROOT
ATOM      1  C1  DEN d   1      -1.808  -2.100   0.509  0.00  0.00     0.130 A 
ATOM      2  C2  DEN d   1      -2.887  -1.810  -0.432  0.00  0.00    -0.031 A 
ATOM      3  C3  DEN d   1      -2.431  -0.731  -1.331  0.00  0.00     0.027 A 
ATOM      4  C4  DEN d   1      -0.170   0.509  -1.361  0.00  0.00     0.027 A 
ATOM      5  C5  DEN d   1       1.058   0.619  -0.748  0.00  0.00    -0.003 A 
ATOM      6  C6  DEN d   1       1.402  -0.139   0.340  0.00  0.00     0.001 A 
ATOM      7  C7  DEN d   1       0.523  -1.075   0.820  0.00  0.00     0.017 A 
ATOM      8  C8  DEN d   1      -0.720  -1.186   0.211  0.00  0.00    -0.094 A 
ATOM      9  C9  DEN d   1      -1.044  -0.419  -0.895  0.00  0.00    -0.072 A 
ENDROOT
TORSDOF 0
ENDMDL
