MODEL 1
REMARK minimizedAffinity -2.39171314
REMARK minimizedRMSD -1
REMARK  0 active torsions:
REMARK  status: ('A' for Active; 'I' for Inactive)
ROOT
ATOM      1  C1  DEN d   1       1.581  -0.605   1.130  0.00  0.00     0.130 A 
ATOM      2  C2  DEN d   1       0.204  -1.037   0.906  0.00  0.00    -0.031 A 
ATOM      3  C3  DEN d   1      -0.562   0.123   0.406  0.00  0.00     0.027 A 
ATOM      4  C4  DEN d   1       0.247   2.530  -0.044  0.00  0.00     0.027 A 
ATOM      5  C5  DEN d   1       1.331   3.378   0.008  0.00  0.00    -0.003 A 
ATOM      6  C6  DEN d   1       2.556   2.970   0.466  0.00  0.00     0.001 A 
ATOM      7  C7  DEN d   1       2.738   1.667   0.848  0.00  0.00     0.017 A 
ATOM      8  C8  DEN d   1       1.648   0.808   0.805  0.00  0.00    -0.094 A 
ATOM      9  C9  DEN d   1       0.421   1.236   0.328  0.00  0.00    -0.072 A 
ENDROOT
TORSDOF 0
ENDMDL
