MODEL 1
REMARK minimizedAffinity -0.325098962
REMARK minimizedRMSD -1
REMARK  0 active torsions:
REMARK  status: ('A' for Active; 'I' for Inactive)
ROOT
ATOM      1  C1  DEN d   1      -1.038  -2.406   1.065  0.00  0.00     0.130 A 
ATOM      2  C2  DEN d   1       0.093  -2.726   1.931  0.00  0.00    -0.031 A 
ATOM      3  C3  DEN d   1       1.145  -1.715   1.701  0.00  0.00     0.027 A 
ATOM      4  C4  DEN d   1       1.129   0.307   0.101  0.00  0.00     0.027 A 
ATOM      5  C5  DEN d   1       0.393   0.983  -0.846  0.00  0.00    -0.003 A 
ATOM      6  C6  DEN d   1      -0.848   0.561  -1.245  0.00  0.00     0.001 A 
ATOM      7  C7  DEN d   1      -1.409  -0.543  -0.660  0.00  0.00     0.017 A 
ATOM      8  C8  DEN d   1      -0.670  -1.234   0.291  0.00  0.00    -0.094 A 
ATOM      9  C9  DEN d   1       0.578  -0.785   0.689  0.00  0.00    -0.072 A 
ENDROOT
TORSDOF 0
ENDMDL
