MODEL 1
REMARK minimizedAffinity -1.70972943
REMARK minimizedRMSD -1
REMARK  0 active torsions:
REMARK  status: ('A' for Active; 'I' for Inactive)
ROOT
ATOM      1  C1  DEN d   1       1.571   3.441   1.103  0.00  0.00     0.130 A 
ATOM      2  C2  DEN d   1       3.025   3.525   0.996  0.00  0.00    -0.031 A 
ATOM      3  C3  DEN d   1       3.533   2.191   0.617  0.00  0.00     0.027 A 
ATOM      4  C4  DEN d   1       2.215   0.016   0.184  0.00  0.00     0.027 A 
ATOM      5  C5  DEN d   1       0.959  -0.551   0.165  0.00  0.00    -0.003 A 
ATOM      6  C6  DEN d   1      -0.167   0.159   0.487  0.00  0.00     0.001 A 
ATOM      7  C7  DEN d   1      -0.066   1.489   0.799  0.00  0.00     0.017 A 
ATOM      8  C8  DEN d   1       1.197   2.065   0.828  0.00  0.00    -0.094 A 
ATOM      9  C9  DEN d   1       2.323   1.335   0.487  0.00  0.00    -0.072 A 
ENDROOT
TORSDOF 0
ENDMDL
