MODEL 1
REMARK minimizedAffinity 14.0083838
REMARK minimizedRMSD -1
REMARK  0 active torsions:
REMARK  status: ('A' for Active; 'I' for Inactive)
ROOT
ATOM      1  C1  DEN d   1      -0.923  -0.220  -1.871  0.00  0.00     0.130 A 
ATOM      2  C2  DEN d   1      -2.330  -0.586  -2.011  0.00  0.00    -0.031 A 
ATOM      3  C3  DEN d   1      -2.727  -1.343  -0.807  0.00  0.00     0.027 A 
ATOM      4  C4  DEN d   1      -1.309  -1.976   1.252  0.00  0.00     0.027 A 
ATOM      5  C5  DEN d   1      -0.057  -1.896   1.821  0.00  0.00    -0.003 A 
ATOM      6  C6  DEN d   1       0.994  -1.287   1.189  0.00  0.00     0.001 A 
ATOM      7  C7  DEN d   1       0.801  -0.693  -0.031  0.00  0.00     0.017 A 
ATOM      8  C8  DEN d   1      -0.456  -0.776  -0.613  0.00  0.00    -0.094 A 
ATOM      9  C9  DEN d   1      -1.509  -1.386   0.047  0.00  0.00    -0.072 A 
ENDROOT
TORSDOF 0
ENDMDL
