MODEL 1
REMARK minimizedAffinity -1.19956481
REMARK minimizedRMSD -1
REMARK  0 active torsions:
REMARK  status: ('A' for Active; 'I' for Inactive)
ROOT
ATOM      1  C1  DEN d   1      -1.454  -2.524   0.685  0.00  0.00     0.130 A 
ATOM      2  C2  DEN d   1      -0.421  -2.703   1.702  0.00  0.00    -0.031 A 
ATOM      3  C3  DEN d   1       0.547  -1.596   1.570  0.00  0.00     0.027 A 
ATOM      4  C4  DEN d   1       0.545   0.371  -0.099  0.00  0.00     0.027 A 
ATOM      5  C5  DEN d   1      -0.122   0.942  -1.160  0.00  0.00    -0.003 A 
ATOM      6  C6  DEN d   1      -1.251   0.384  -1.699  0.00  0.00     0.001 A 
ATOM      7  C7  DEN d   1      -1.774  -0.757  -1.148  0.00  0.00     0.017 A 
ATOM      8  C8  DEN d   1      -1.103  -1.342  -0.082  0.00  0.00    -0.094 A 
ATOM      9  C9  DEN d   1       0.030  -0.756   0.456  0.00  0.00    -0.072 A 
ENDROOT
TORSDOF 0
ENDMDL
