MODEL 1
REMARK minimizedAffinity -5.10032701
REMARK minimizedRMSD -1
REMARK  0 active torsions:
REMARK  status: ('A' for Active; 'I' for Inactive)
ROOT
ATOM      1  C1  DEN d   1      -1.042   0.906  -1.468  0.00  0.00     0.130 A 
ATOM      2  C2  DEN d   1      -2.196   0.035  -1.672  0.00  0.00    -0.031 A 
ATOM      3  C3  DEN d   1      -2.011  -1.171  -0.839  0.00  0.00     0.027 A 
ATOM      4  C4  DEN d   1      -0.061  -1.767   0.741  0.00  0.00     0.027 A 
ATOM      5  C5  DEN d   1       1.153  -1.344   1.235  0.00  0.00    -0.003 A 
ATOM      6  C6  DEN d   1       1.732  -0.167   0.840  0.00  0.00     0.001 A 
ATOM      7  C7  DEN d   1       1.076   0.650  -0.042  0.00  0.00     0.017 A 
ATOM      8  C8  DEN d   1      -0.146   0.227  -0.550  0.00  0.00    -0.094 A 
ATOM      9  C9  DEN d   1      -0.720  -0.960  -0.129  0.00  0.00    -0.072 A 
ENDROOT
TORSDOF 0
ENDMDL
