MODEL 1
REMARK minimizedAffinity -4.10183096
REMARK minimizedRMSD -1
REMARK  0 active torsions:
REMARK  status: ('A' for Active; 'I' for Inactive)
ROOT
ATOM      1  C1  DEN d   1       0.786   1.169  -0.960  0.00  0.00     0.130 A 
ATOM      2  C2  DEN d   1       1.709   0.658   0.051  0.00  0.00    -0.031 A 
ATOM      3  C3  DEN d   1       1.062  -0.487   0.723  0.00  0.00     0.027 A 
ATOM      4  C4  DEN d   1      -1.264  -1.516   0.296  0.00  0.00     0.027 A 
ATOM      5  C5  DEN d   1      -2.415  -1.417  -0.454  0.00  0.00    -0.003 A 
ATOM      6  C6  DEN d   1      -2.592  -0.436  -1.394  0.00  0.00     0.001 A 
ATOM      7  C7  DEN d   1      -1.583   0.458  -1.640  0.00  0.00     0.017 A 
ATOM      8  C8  DEN d   1      -0.423   0.369  -0.883  0.00  0.00    -0.094 A 
ATOM      9  C9  DEN d   1      -0.258  -0.637   0.054  0.00  0.00    -0.072 A 
ENDROOT
TORSDOF 0
ENDMDL
