MODEL 1
REMARK minimizedAffinity -4.24583864
REMARK minimizedRMSD -1
REMARK  0 active torsions:
REMARK  status: ('A' for Active; 'I' for Inactive)
ROOT
ATOM      1  C1  DEN d   1       0.007   1.136   1.498  0.00  0.00     0.130 A 
ATOM      2  C2  DEN d   1       0.196  -0.138   0.810  0.00  0.00    -0.031 A 
ATOM      3  C3  DEN d   1       1.425  -0.040  -0.003  0.00  0.00     0.027 A 
ATOM      4  C4  DEN d   1       3.048   1.948  -0.256  0.00  0.00     0.027 A 
ATOM      5  C5  DEN d   1       3.299   3.248   0.123  0.00  0.00    -0.003 A 
ATOM      6  C6  DEN d   1       2.459   3.941   0.954  0.00  0.00     0.001 A 
ATOM      7  C7  DEN d   1       1.351   3.322   1.469  0.00  0.00     0.017 A 
ATOM      8  C8  DEN d   1       1.087   2.013   1.085  0.00  0.00    -0.094 A 
ATOM      9  C9  DEN d   1       1.955   1.326   0.254  0.00  0.00    -0.072 A 
ENDROOT
TORSDOF 0
ENDMDL
