MODEL 1
REMARK minimizedAffinity -2.65510726
REMARK minimizedRMSD -1
REMARK  0 active torsions:
REMARK  status: ('A' for Active; 'I' for Inactive)
ROOT
ATOM      1  C1  DEN d   1      -1.395   0.091  -1.405  0.00  0.00     0.130 A 
ATOM      2  C2  DEN d   1      -2.537  -0.808  -1.264  0.00  0.00    -0.031 A 
ATOM      3  C3  DEN d   1      -2.186  -1.840  -0.268  0.00  0.00     0.027 A 
ATOM      4  C4  DEN d   1       0.002  -2.128   1.067  0.00  0.00     0.027 A 
ATOM      5  C5  DEN d   1       1.263  -1.616   1.279  0.00  0.00    -0.003 A 
ATOM      6  C6  DEN d   1       1.735  -0.529   0.593  0.00  0.00     0.001 A 
ATOM      7  C7  DEN d   1       0.924   0.110  -0.307  0.00  0.00     0.017 A 
ATOM      8  C8  DEN d   1      -0.346  -0.404  -0.532  0.00  0.00    -0.094 A 
ATOM      9  C9  DEN d   1      -0.809  -1.497   0.181  0.00  0.00    -0.072 A 
ENDROOT
TORSDOF 0
ENDMDL
