MODEL 1
REMARK minimizedAffinity 1.69036341
REMARK minimizedRMSD -1
REMARK  0 active torsions:
REMARK  status: ('A' for Active; 'I' for Inactive)
ROOT
ATOM      1  C1  DEN d   1      -2.190  -0.647  -1.369  0.00  0.00     0.130 A 
ATOM      2  C2  DEN d   1      -2.869  -1.526  -0.420  0.00  0.00    -0.031 A 
ATOM      3  C3  DEN d   1      -1.992  -1.693   0.755  0.00  0.00     0.027 A 
ATOM      4  C4  DEN d   1       0.338  -0.679   1.199  0.00  0.00     0.027 A 
ATOM      5  C5  DEN d   1       1.331   0.121   0.679  0.00  0.00    -0.003 A 
ATOM      6  C6  DEN d   1       1.236   0.689  -0.564  0.00  0.00     0.001 A 
ATOM      7  C7  DEN d   1       0.103   0.502  -1.311  0.00  0.00     0.017 A 
ATOM      8  C8  DEN d   1      -0.900  -0.310  -0.796  0.00  0.00    -0.094 A 
ATOM      9  C9  DEN d   1      -0.790  -0.865   0.467  0.00  0.00    -0.072 A 
ENDROOT
TORSDOF 0
ENDMDL
