MODEL 1
REMARK minimizedAffinity -3.25882459
REMARK minimizedRMSD -1
REMARK  0 active torsions:
REMARK  status: ('A' for Active; 'I' for Inactive)
ROOT
ATOM      1  C1  DEN d   1      -1.373   0.833  -0.191  0.00  0.00     0.130 A 
ATOM      2  C2  DEN d   1      -1.090  -0.260  -1.117  0.00  0.00    -0.031 A 
ATOM      3  C3  DEN d   1       0.375  -0.441  -1.175  0.00  0.00     0.027 A 
ATOM      4  C4  DEN d   1       2.221   0.857   0.075  0.00  0.00     0.027 A 
ATOM      5  C5  DEN d   1       2.468   1.881   0.962  0.00  0.00    -0.003 A 
ATOM      6  C6  DEN d   1       1.464   2.644   1.496  0.00  0.00     0.001 A 
ATOM      7  C7  DEN d   1       0.160   2.364   1.183  0.00  0.00     0.017 A 
ATOM      8  C8  DEN d   1      -0.098   1.338   0.284  0.00  0.00    -0.094 A 
ATOM      9  C9  DEN d   1       0.931   0.570  -0.236  0.00  0.00    -0.072 A 
ENDROOT
TORSDOF 0
ENDMDL
