MODEL 1
REMARK minimizedAffinity 0.0677544102
REMARK minimizedRMSD -1
REMARK  0 active torsions:
REMARK  status: ('A' for Active; 'I' for Inactive)
ROOT
ATOM      1  C1  DEN d   1      -0.007   1.341  -0.295  0.00  0.00     0.130 A 
ATOM      2  C2  DEN d   1       0.169  -0.102  -0.148  0.00  0.00    -0.031 A 
ATOM      3  C3  DEN d   1       1.444  -0.336   0.560  0.00  0.00     0.027 A 
ATOM      4  C4  DEN d   1       3.150   1.385   1.443  0.00  0.00     0.027 A 
ATOM      5  C5  DEN d   1       3.441   2.728   1.543  0.00  0.00    -0.003 A 
ATOM      6  C6  DEN d   1       2.627   3.693   1.013  0.00  0.00     0.001 A 
ATOM      7  C7  DEN d   1       1.458   3.331   0.396  0.00  0.00     0.017 A 
ATOM      8  C8  DEN d   1       1.162   1.979   0.285  0.00  0.00    -0.094 A 
ATOM      9  C9  DEN d   1       1.992   1.019   0.838  0.00  0.00    -0.072 A 
ENDROOT
TORSDOF 0
ENDMDL
