MODEL 1
REMARK minimizedAffinity -3.80650163
REMARK minimizedRMSD -1
REMARK  0 active torsions:
REMARK  status: ('A' for Active; 'I' for Inactive)
ROOT
ATOM      1  C   UNL d   1      -0.417  -2.109   1.485  0.00  0.00     0.172 C 
ATOM      2  N   UNL d   1      -0.788  -1.275   0.366  0.00  0.00    -0.070 N 
ATOM      3  C1  UNL d   1      -2.057  -1.112  -0.122  0.00  0.00    -0.004 A 
ATOM      4  C2  UNL d   1      -1.990  -0.241  -1.188  0.00  0.00    -0.047 A 
ATOM      5  C3  UNL d   1      -0.634   0.132  -1.346  0.00  0.00    -0.047 A 
ATOM      6  C4  UNL d   1       0.088  -0.522  -0.371  0.00  0.00    -0.004 A 
ENDROOT
TORSDOF 0
ENDMDL
