MODEL 1
REMARK minimizedAffinity -3.64253807
REMARK minimizedRMSD -1
REMARK  0 active torsions:
REMARK  status: ('A' for Active; 'I' for Inactive)
ROOT
ATOM      1  C   UNL d   1       1.087   0.089   0.004  0.00  0.00     0.172 C 
ATOM      2  N   UNL d   1      -0.286  -0.197  -0.340  0.00  0.00    -0.070 N 
ATOM      3  C1  UNL d   1      -1.302  -0.424   0.551  0.00  0.00    -0.004 A 
ATOM      4  C2  UNL d   1      -2.452  -0.657  -0.172  0.00  0.00    -0.047 A 
ATOM      5  C3  UNL d   1      -2.116  -0.569  -1.544  0.00  0.00    -0.047 A 
ATOM      6  C4  UNL d   1      -0.769  -0.283  -1.619  0.00  0.00    -0.004 A 
ENDROOT
TORSDOF 0
ENDMDL
