MODEL 1
REMARK minimizedAffinity -3.21801686
REMARK minimizedRMSD -1
REMARK  0 active torsions:
REMARK  status: ('A' for Active; 'I' for Inactive)
ROOT
ATOM      1  C   UNL d   1       1.298  -0.431   0.044  0.00  0.00     0.172 C 
ATOM      2  N   UNL d   1      -0.119  -0.480  -0.231  0.00  0.00    -0.070 N 
ATOM      3  C1  UNL d   1      -1.112  -0.569   0.708  0.00  0.00    -0.004 A 
ATOM      4  C2  UNL d   1      -2.319  -0.590   0.045  0.00  0.00    -0.047 A 
ATOM      5  C3  UNL d   1      -2.043  -0.511  -1.341  0.00  0.00    -0.047 A 
ATOM      6  C4  UNL d   1      -0.673  -0.444  -1.483  0.00  0.00    -0.004 A 
ENDROOT
TORSDOF 0
ENDMDL
