MODEL 1
REMARK minimizedAffinity -2.12541795
REMARK minimizedRMSD -1
REMARK  0 active torsions:
REMARK  status: ('A' for Active; 'I' for Inactive)
ROOT
ATOM      1  C   UNL d   1      -5.322   6.000   5.527  0.00  0.00     0.172 C 
ATOM      2  N   UNL d   1      -5.222   5.555   4.157  0.00  0.00    -0.070 N 
ATOM      3  C1  UNL d   1      -5.991   5.999   3.114  0.00  0.00    -0.004 A 
ATOM      4  C2  UNL d   1      -5.587   5.333   1.978  0.00  0.00    -0.047 A 
ATOM      5  C3  UNL d   1      -4.539   4.457   2.350  0.00  0.00    -0.047 A 
ATOM      6  C4  UNL d   1      -4.334   4.614   3.704  0.00  0.00    -0.004 A 
ENDROOT
TORSDOF 0
ENDMDL
