MODEL 1
REMARK minimizedAffinity -2.70638776
REMARK minimizedRMSD -1
REMARK  0 active torsions:
REMARK  status: ('A' for Active; 'I' for Inactive)
ROOT
ATOM      1  C   UNL d   1       0.489   0.277  -0.372  0.00  0.00     0.172 C 
ATOM      2  N   UNL d   1      -0.918   0.088  -0.635  0.00  0.00    -0.070 N 
ATOM      3  C1  UNL d   1      -1.780   1.047  -1.094  0.00  0.00    -0.004 A 
ATOM      4  C2  UNL d   1      -3.027   0.471  -1.215  0.00  0.00    -0.047 A 
ATOM      5  C3  UNL d   1      -2.909  -0.881  -0.814  0.00  0.00    -0.047 A 
ATOM      6  C4  UNL d   1      -1.593  -1.091  -0.461  0.00  0.00    -0.004 A 
ENDROOT
TORSDOF 0
ENDMDL
