MODEL 1
REMARK minimizedAffinity -3.79918218
REMARK minimizedRMSD -1
REMARK  0 active torsions:
REMARK  status: ('A' for Active; 'I' for Inactive)
ROOT
ATOM      1  C   UNL d   1       0.791   0.304   0.009  0.00  0.00     0.172 C 
ATOM      2  N   UNL d   1      -0.597   0.013  -0.263  0.00  0.00    -0.070 N 
ATOM      3  C1  UNL d   1      -1.517  -0.419   0.654  0.00  0.00    -0.004 A 
ATOM      4  C2  UNL d   1      -2.720  -0.580   0.002  0.00  0.00    -0.047 A 
ATOM      5  C3  UNL d   1      -2.516  -0.234  -1.355  0.00  0.00    -0.047 A 
ATOM      6  C4  UNL d   1      -1.192   0.130  -1.491  0.00  0.00    -0.004 A 
ENDROOT
TORSDOF 0
ENDMDL
