MODEL 1
REMARK minimizedAffinity -3.03945851
REMARK minimizedRMSD -1
REMARK  0 active torsions:
REMARK  status: ('A' for Active; 'I' for Inactive)
ROOT
ATOM      1  C   UNL d   1       1.527  -0.174   0.885  0.00  0.00     0.172 C 
ATOM      2  N   UNL d   1       2.235   1.071   1.073  0.00  0.00    -0.070 N 
ATOM      3  C1  UNL d   1       2.508   1.659   2.279  0.00  0.00    -0.004 A 
ATOM      4  C2  UNL d   1       3.197   2.827   2.032  0.00  0.00    -0.047 A 
ATOM      5  C3  UNL d   1       3.342   2.946   0.630  0.00  0.00    -0.047 A 
ATOM      6  C4  UNL d   1       2.737   1.845   0.060  0.00  0.00    -0.004 A 
ENDROOT
TORSDOF 0
ENDMDL
