MODEL 1
REMARK minimizedAffinity -1.08086419
REMARK minimizedRMSD -1
REMARK  0 active torsions:
REMARK  status: ('A' for Active; 'I' for Inactive)
ROOT
ATOM      1  C   UNL d   1       1.129   0.763   0.057  0.00  0.00     0.172 C 
ATOM      2  N   UNL d   1       0.226  -0.200   0.641  0.00  0.00    -0.070 N 
ATOM      3  C1  UNL d   1      -1.129  -0.046   0.774  0.00  0.00    -0.004 A 
ATOM      4  C2  UNL d   1      -1.625  -1.182   1.376  0.00  0.00    -0.047 A 
ATOM      5  C3  UNL d   1      -0.532  -2.048   1.613  0.00  0.00    -0.047 A 
ATOM      6  C4  UNL d   1       0.602  -1.416   1.149  0.00  0.00    -0.004 A 
ENDROOT
TORSDOF 0
ENDMDL
