MODEL 1
REMARK minimizedAffinity -1.98686349
REMARK minimizedRMSD -1
REMARK  0 active torsions:
REMARK  status: ('A' for Active; 'I' for Inactive)
ROOT
ATOM      1  C   UNL d   1       0.365   0.688  -0.384  0.00  0.00     0.172 C 
ATOM      2  N   UNL d   1       1.473   1.398   0.211  0.00  0.00    -0.070 N 
ATOM      3  C1  UNL d   1       2.725   0.887   0.425  0.00  0.00    -0.004 A 
ATOM      4  C2  UNL d   1       3.489   1.875   1.009  0.00  0.00    -0.047 A 
ATOM      5  C3  UNL d   1       2.667   3.018   1.151  0.00  0.00    -0.047 A 
ATOM      6  C4  UNL d   1       1.424   2.695   0.649  0.00  0.00    -0.004 A 
ENDROOT
TORSDOF 0
ENDMDL
