MODEL 1
REMARK minimizedAffinity -3.15964913
REMARK minimizedRMSD -1
REMARK  0 active torsions:
REMARK  status: ('A' for Active; 'I' for Inactive)
ROOT
ATOM      1  C   UNL d   1       1.552   0.103   0.274  0.00  0.00     0.172 C 
ATOM      2  N   UNL d   1       0.174   0.029  -0.154  0.00  0.00    -0.070 N 
ATOM      3  C1  UNL d   1      -0.844  -0.574   0.535  0.00  0.00    -0.004 A 
ATOM      4  C2  UNL d   1      -1.998  -0.427  -0.204  0.00  0.00    -0.047 A 
ATOM      5  C3  UNL d   1      -1.661   0.288  -1.378  0.00  0.00    -0.047 A 
ATOM      6  C4  UNL d   1      -0.310   0.558  -1.321  0.00  0.00    -0.004 A 
ENDROOT
TORSDOF 0
ENDMDL
