MODEL 1
REMARK minimizedAffinity -1.26456678
REMARK minimizedRMSD -1
REMARK  0 active torsions:
REMARK  status: ('A' for Active; 'I' for Inactive)
ROOT
ATOM      1  C   UNL d   1      -2.285  -0.948  -0.659  0.00  0.00     0.172 C 
ATOM      2  N   UNL d   1      -0.971  -0.349  -0.641  0.00  0.00    -0.070 N 
ATOM      3  C1  UNL d   1      -0.273   0.078  -1.740  0.00  0.00    -0.004 A 
ATOM      4  C2  UNL d   1       0.931   0.586  -1.303  0.00  0.00    -0.047 A 
ATOM      5  C3  UNL d   1       0.958   0.459   0.106  0.00  0.00    -0.047 A 
ATOM      6  C4  UNL d   1      -0.232  -0.122   0.489  0.00  0.00    -0.004 A 
ENDROOT
TORSDOF 0
ENDMDL
