MODEL 1
REMARK minimizedAffinity -3.13256931
REMARK minimizedRMSD -1
REMARK  0 active torsions:
REMARK  status: ('A' for Active; 'I' for Inactive)
ROOT
ATOM      1  C   UNL d   1       0.928   0.449  -0.289  0.00  0.00     0.172 C 
ATOM      2  N   UNL d   1      -0.464   0.065  -0.316  0.00  0.00    -0.070 N 
ATOM      3  C1  UNL d   1      -1.165  -0.469   0.732  0.00  0.00    -0.004 A 
ATOM      4  C2  UNL d   1      -2.456  -0.695   0.305  0.00  0.00    -0.047 A 
ATOM      5  C3  UNL d   1      -2.532  -0.283  -1.047  0.00  0.00    -0.047 A 
ATOM      6  C4  UNL d   1      -1.285   0.184  -1.405  0.00  0.00    -0.004 A 
ENDROOT
TORSDOF 0
ENDMDL
