MODEL 1
REMARK minimizedAffinity -3.69507861
REMARK minimizedRMSD -1
REMARK  0 active torsions:
REMARK  status: ('A' for Active; 'I' for Inactive)
ROOT
ATOM      1  C   UNL d   1       1.097   0.192   0.482  0.00  0.00     0.172 C 
ATOM      2  N   UNL d   1      -0.206  -0.085  -0.077  0.00  0.00    -0.070 N 
ATOM      3  C1  UNL d   1      -1.258  -0.649   0.592  0.00  0.00    -0.004 A 
ATOM      4  C2  UNL d   1      -2.316  -0.744  -0.287  0.00  0.00    -0.047 A 
ATOM      5  C3  UNL d   1      -1.883  -0.219  -1.528  0.00  0.00    -0.047 A 
ATOM      6  C4  UNL d   1      -0.573   0.182  -1.370  0.00  0.00    -0.004 A 
ENDROOT
TORSDOF 0
ENDMDL
