MODEL 1
REMARK minimizedAffinity -2.42431521
REMARK minimizedRMSD -1
REMARK  0 active torsions:
REMARK  status: ('A' for Active; 'I' for Inactive)
ROOT
ATOM      1  C   UNL d   1      -3.252  -0.837  -0.383  0.00  0.00     0.172 C 
ATOM      2  N   UNL d   1      -1.880  -0.390  -0.412  0.00  0.00    -0.070 N 
ATOM      3  C1  UNL d   1      -0.998  -0.450   0.634  0.00  0.00    -0.004 A 
ATOM      4  C2  UNL d   1       0.203   0.072   0.205  0.00  0.00    -0.047 A 
ATOM      5  C3  UNL d   1       0.037   0.461  -1.146  0.00  0.00    -0.047 A 
ATOM      6  C4  UNL d   1      -1.261   0.164  -1.502  0.00  0.00    -0.004 A 
ENDROOT
TORSDOF 0
ENDMDL
