MODEL 1
REMARK minimizedAffinity -3.18378401
REMARK minimizedRMSD -1
REMARK  0 active torsions:
REMARK  status: ('A' for Active; 'I' for Inactive)
ROOT
ATOM      1  C   UNL d   1       1.058  -0.024   0.381  0.00  0.00     0.172 C 
ATOM      2  N   UNL d   1      -0.332  -0.167   0.018  0.00  0.00    -0.070 N 
ATOM      3  C1  UNL d   1      -1.343  -0.540   0.862  0.00  0.00    -0.004 A 
ATOM      4  C2  UNL d   1      -2.514  -0.559   0.136  0.00  0.00    -0.047 A 
ATOM      5  C3  UNL d   1      -2.195  -0.186  -1.191  0.00  0.00    -0.047 A 
ATOM      6  C4  UNL d   1      -0.838   0.051  -1.237  0.00  0.00    -0.004 A 
ENDROOT
TORSDOF 0
ENDMDL
