MODEL 1
REMARK minimizedAffinity -3.24031949
REMARK minimizedRMSD -1
REMARK  0 active torsions:
REMARK  status: ('A' for Active; 'I' for Inactive)
ROOT
ATOM      1  C   UNL d   1      -2.924  -0.551  -0.695  0.00  0.00     0.172 C 
ATOM      2  N   UNL d   1      -1.512  -0.331  -0.489  0.00  0.00    -0.070 N 
ATOM      3  C1  UNL d   1      -0.780  -0.786   0.575  0.00  0.00    -0.004 A 
ATOM      4  C2  UNL d   1       0.522  -0.368   0.402  0.00  0.00    -0.047 A 
ATOM      5  C3  UNL d   1       0.574   0.366  -0.807  0.00  0.00    -0.047 A 
ATOM      6  C4  UNL d   1      -0.699   0.373  -1.338  0.00  0.00    -0.004 A 
ENDROOT
TORSDOF 0
ENDMDL
