MODEL 1
REMARK minimizedAffinity -3.08172846
REMARK minimizedRMSD -1
REMARK  0 active torsions:
REMARK  status: ('A' for Active; 'I' for Inactive)
ROOT
ATOM      1  C   UNL d   1       0.532   0.210   0.333  0.00  0.00     0.172 C 
ATOM      2  N   UNL d   1      -0.817  -0.113  -0.070  0.00  0.00    -0.070 N 
ATOM      3  C1  UNL d   1      -1.886  -0.267   0.771  0.00  0.00    -0.004 A 
ATOM      4  C2  UNL d   1      -2.988  -0.570   0.001  0.00  0.00    -0.047 A 
ATOM      5  C3  UNL d   1      -2.566  -0.600  -1.350  0.00  0.00    -0.047 A 
ATOM      6  C4  UNL d   1      -1.217  -0.314  -1.365  0.00  0.00    -0.004 A 
ENDROOT
TORSDOF 0
ENDMDL
