MODEL 1
REMARK minimizedAffinity -4.0848012
REMARK minimizedRMSD -1
REMARK  1 active torsions:
REMARK  status: ('A' for Active; 'I' for Inactive)
REMARK    1  A    between atoms: C3_4  and  O_7 
ROOT
ATOM      1  C   UNL d   1       2.382   4.563   0.222  0.00  0.00    -0.033 A 
ATOM      2  C1  UNL d   1       3.246   3.598  -0.299  0.00  0.00     0.039 A 
ATOM      3  C2  UNL d   1       2.788   2.300  -0.532  0.00  0.00    -0.080 A 
ATOM      4  C3  UNL d   1       1.464   1.980  -0.241  0.00  0.00     0.150 A 
ATOM      5  C4  UNL d   1       0.597   2.937   0.275  0.00  0.00    -0.007 A 
ATOM      6  C5  UNL d   1       1.057   4.233   0.507  0.00  0.00     0.039 A 
ENDROOT
BRANCH   4   7
ATOM      7  O   UNL d   1       0.973   0.725  -0.446  0.00  0.00    -0.526 OA
ATOM      8  H5  UNL d   1       1.692   0.163  -0.778  0.00  0.00     0.418 HD
ENDBRANCH   4   7
TORSDOF 1
ENDMDL
