MODEL 1
REMARK minimizedAffinity -3.01661325
REMARK minimizedRMSD -1
REMARK  1 active torsions:
REMARK  status: ('A' for Active; 'I' for Inactive)
REMARK    1  A    between atoms: C3_4  and  O_7 
ROOT
ATOM      1  C   UNL d   1      -1.723   3.300  -4.507  0.00  0.00    -0.033 A 
ATOM      2  C1  UNL d   1      -0.931   3.883  -3.516  0.00  0.00     0.039 A 
ATOM      3  C2  UNL d   1      -0.824   3.280  -2.261  0.00  0.00    -0.080 A 
ATOM      4  C3  UNL d   1      -1.512   2.096  -2.011  0.00  0.00     0.150 A 
ATOM      5  C4  UNL d   1      -2.299   1.507  -2.995  0.00  0.00    -0.007 A 
ATOM      6  C5  UNL d   1      -2.405   2.111  -4.247  0.00  0.00     0.039 A 
ENDROOT
BRANCH   4   7
ATOM      7  O   UNL d   1      -1.442   1.474  -0.800  0.00  0.00    -0.526 OA
ATOM      8  H5  UNL d   1      -0.885   2.009  -0.210  0.00  0.00     0.418 HD
ENDBRANCH   4   7
TORSDOF 1
ENDMDL
