MODEL 1
REMARK minimizedAffinity -3.4572506
REMARK minimizedRMSD -1
REMARK  1 active torsions:
REMARK  status: ('A' for Active; 'I' for Inactive)
REMARK    1  A    between atoms: C3_4  and  O_7 
ROOT
ATOM      1  C   UNL d   1      -0.375   0.440   0.271  0.00  0.00    -0.033 A 
ATOM      2  C1  UNL d   1      -1.026  -0.604   0.932  0.00  0.00     0.039 A 
ATOM      3  C2  UNL d   1      -0.367  -1.815   1.148  0.00  0.00    -0.080 A 
ATOM      4  C3  UNL d   1       0.942  -1.970   0.700  0.00  0.00     0.150 A 
ATOM      5  C4  UNL d   1       1.599  -0.933   0.045  0.00  0.00    -0.007 A 
ATOM      6  C5  UNL d   1       0.938   0.276  -0.170  0.00  0.00     0.039 A 
ENDROOT
BRANCH   4   7
ATOM      7  O   UNL d   1       1.625  -3.135   0.884  0.00  0.00    -0.526 OA
ATOM      8  H5  UNL d   1       1.037  -3.771   1.325  0.00  0.00     0.418 HD
ENDBRANCH   4   7
TORSDOF 1
ENDMDL
