MODEL 1
REMARK minimizedAffinity -2.23297739
REMARK minimizedRMSD -1
REMARK  1 active torsions:
REMARK  status: ('A' for Active; 'I' for Inactive)
REMARK    1  A    between atoms: C3_4  and  O_7 
ROOT
ATOM      1  C   UNL d   1      -0.578   0.186   0.012  0.00  0.00    -0.033 A 
ATOM      2  C1  UNL d   1      -1.171  -0.871   0.705  0.00  0.00     0.039 A 
ATOM      3  C2  UNL d   1      -0.411  -1.983   1.071  0.00  0.00    -0.080 A 
ATOM      4  C3  UNL d   1       0.941  -2.026   0.739  0.00  0.00     0.150 A 
ATOM      5  C4  UNL d   1       1.539  -0.975   0.052  0.00  0.00    -0.007 A 
ATOM      6  C5  UNL d   1       0.778   0.135  -0.313  0.00  0.00     0.039 A 
ENDROOT
BRANCH   4   7
ATOM      7  O   UNL d   1       1.723  -3.092   1.070  0.00  0.00    -0.526 OA
ATOM      8  H5  UNL d   1       1.168  -3.754   1.516  0.00  0.00     0.418 HD
ENDBRANCH   4   7
TORSDOF 1
ENDMDL
