MODEL 1
REMARK minimizedAffinity -3.50444889
REMARK minimizedRMSD -1
REMARK  1 active torsions:
REMARK  status: ('A' for Active; 'I' for Inactive)
REMARK    1  A    between atoms: C3_4  and  O_7 
ROOT
ATOM      1  C   UNL d   1       0.431  -2.491   1.300  0.00  0.00    -0.033 A 
ATOM      2  C1  UNL d   1       1.817  -2.351   1.386  0.00  0.00     0.039 A 
ATOM      3  C2  UNL d   1       2.459  -1.309   0.713  0.00  0.00    -0.080 A 
ATOM      4  C3  UNL d   1       1.704  -0.415  -0.040  0.00  0.00     0.150 A 
ATOM      5  C4  UNL d   1       0.322  -0.546  -0.128  0.00  0.00    -0.007 A 
ATOM      6  C5  UNL d   1      -0.317  -1.587   0.544  0.00  0.00     0.039 A 
ENDROOT
BRANCH   4   7
ATOM      7  O   UNL d   1       2.286   0.615  -0.718  0.00  0.00    -0.526 OA
ATOM      8  H5  UNL d   1       3.248   0.563  -0.589  0.00  0.00     0.418 HD
ENDBRANCH   4   7
TORSDOF 1
ENDMDL
