MODEL 1
REMARK minimizedAffinity -5.23801899
REMARK minimizedRMSD -1
REMARK  1 active torsions:
REMARK  status: ('A' for Active; 'I' for Inactive)
REMARK    1  A    between atoms: C3_4  and  O_7 
ROOT
ATOM      1  C   UNL d   1      -1.925   3.249  -2.165  0.00  0.00    -0.033 A 
ATOM      2  C1  UNL d   1      -1.222   2.876  -3.313  0.00  0.00     0.039 A 
ATOM      3  C2  UNL d   1      -1.746   1.907  -4.170  0.00  0.00    -0.080 A 
ATOM      4  C3  UNL d   1      -2.972   1.320  -3.870  0.00  0.00     0.150 A 
ATOM      5  C4  UNL d   1      -3.680   1.689  -2.731  0.00  0.00    -0.007 A 
ATOM      6  C5  UNL d   1      -3.154   2.657  -1.875  0.00  0.00     0.039 A 
ENDROOT
BRANCH   4   7
ATOM      7  O   UNL d   1      -3.522   0.366  -4.674  0.00  0.00    -0.526 OA
ATOM      8  H5  UNL d   1      -2.908   0.191  -5.408  0.00  0.00     0.418 HD
ENDBRANCH   4   7
TORSDOF 1
ENDMDL
