MODEL 1
REMARK minimizedAffinity -4.35900402
REMARK minimizedRMSD -1
REMARK  1 active torsions:
REMARK  status: ('A' for Active; 'I' for Inactive)
REMARK    1  A    between atoms: C3_4  and  O_7 
ROOT
ATOM      1  C   UNL d   1       1.410  -2.239   1.021  0.00  0.00    -0.033 A 
ATOM      2  C1  UNL d   1       1.913  -0.938   0.949  0.00  0.00     0.039 A 
ATOM      3  C2  UNL d   1       1.249   0.028   0.192  0.00  0.00    -0.080 A 
ATOM      4  C3  UNL d   1       0.083  -0.317  -0.487  0.00  0.00     0.150 A 
ATOM      5  C4  UNL d   1      -0.426  -1.610  -0.416  0.00  0.00    -0.007 A 
ATOM      6  C5  UNL d   1       0.239  -2.574   0.340  0.00  0.00     0.039 A 
ENDROOT
BRANCH   4   7
ATOM      7  O   UNL d   1      -0.597   0.590  -1.242  0.00  0.00    -0.526 OA
ATOM      8  H5  UNL d   1      -0.113   1.433  -1.221  0.00  0.00     0.418 HD
ENDBRANCH   4   7
TORSDOF 1
ENDMDL
