MODEL 1
REMARK minimizedAffinity -3.63370728
REMARK minimizedRMSD -1
REMARK  1 active torsions:
REMARK  status: ('A' for Active; 'I' for Inactive)
REMARK    1  A    between atoms: C3_4  and  O_7 
ROOT
ATOM      1  C   UNL d   1       0.398   1.145   0.281  0.00  0.00    -0.033 A 
ATOM      2  C1  UNL d   1       1.691   0.628   0.176  0.00  0.00     0.039 A 
ATOM      3  C2  UNL d   1       1.894  -0.754   0.183  0.00  0.00    -0.080 A 
ATOM      4  C3  UNL d   1       0.798  -1.605   0.294  0.00  0.00     0.150 A 
ATOM      5  C4  UNL d   1      -0.492  -1.097   0.395  0.00  0.00    -0.007 A 
ATOM      6  C5  UNL d   1      -0.693   0.283   0.389  0.00  0.00     0.039 A 
ENDROOT
BRANCH   4   7
ATOM      7  O   UNL d   1       0.948  -2.960   0.310  0.00  0.00    -0.526 OA
ATOM      8  H5  UNL d   1       1.896  -3.166   0.261  0.00  0.00     0.418 HD
ENDBRANCH   4   7
TORSDOF 1
ENDMDL
