MODEL 1
REMARK minimizedAffinity -4.19593906
REMARK minimizedRMSD -1
REMARK  1 active torsions:
REMARK  status: ('A' for Active; 'I' for Inactive)
REMARK    1  A    between atoms: C3_4  and  O_7 
ROOT
ATOM      1  C   UNL d   1      -0.210   1.542  -0.258  0.00  0.00    -0.033 A 
ATOM      2  C1  UNL d   1       0.845   0.630  -0.324  0.00  0.00     0.039 A 
ATOM      3  C2  UNL d   1       2.159   1.065  -0.140  0.00  0.00    -0.080 A 
ATOM      4  C3  UNL d   1       2.404   2.413   0.110  0.00  0.00     0.150 A 
ATOM      5  C4  UNL d   1       1.357   3.326   0.182  0.00  0.00    -0.007 A 
ATOM      6  C5  UNL d   1       0.046   2.890  -0.003  0.00  0.00     0.039 A 
ENDROOT
BRANCH   4   7
ATOM      7  O   UNL d   1       3.669   2.885   0.292  0.00  0.00    -0.526 OA
ATOM      8  H5  UNL d   1       4.292   2.146   0.186  0.00  0.00     0.418 HD
ENDBRANCH   4   7
TORSDOF 1
ENDMDL
