MODEL 1
REMARK minimizedAffinity -3.3173306
REMARK minimizedRMSD -1
REMARK  0 active torsions:
REMARK  status: ('A' for Active; 'I' for Inactive)
ROOT
ATOM      1  C   UNL d   1       1.740   4.678   0.187  0.00  0.00     0.023 A 
ATOM      2  C1  UNL d   1       2.747   3.768   0.508  0.00  0.00     0.003 A 
ATOM      3  C2  UNL d   1       2.479   2.398   0.504  0.00  0.00     0.048 A 
ATOM      4  C3  UNL d   1       1.201   1.944   0.176  0.00  0.00     0.023 A 
ATOM      5  C4  UNL d   1       0.191   2.851  -0.146  0.00  0.00     0.048 A 
ATOM      6  C5  UNL d   1       0.463   4.221  -0.140  0.00  0.00     0.003 A 
ATOM      7  I   UNL d   1       0.799  -0.095   0.169  0.00  0.00    -0.146 I 
ENDROOT
TORSDOF 0
ENDMDL
