MODEL 1
REMARK minimizedAffinity 0.984594285
REMARK minimizedRMSD -1
REMARK  0 active torsions:
REMARK  status: ('A' for Active; 'I' for Inactive)
ROOT
ATOM      1  C   UNL d   1       0.122   3.619   1.893  0.00  0.00     0.023 A 
ATOM      2  C1  UNL d   1       0.780   2.656   2.659  0.00  0.00     0.003 A 
ATOM      3  C2  UNL d   1       1.537   1.663   2.034  0.00  0.00     0.048 A 
ATOM      4  C3  UNL d   1       1.633   1.639   0.643  0.00  0.00     0.023 A 
ATOM      5  C4  UNL d   1       0.978   2.601  -0.127  0.00  0.00     0.048 A 
ATOM      6  C5  UNL d   1       0.221   3.591   0.502  0.00  0.00     0.003 A 
ATOM      7  I   UNL d   1       2.760   0.162  -0.289  0.00  0.00    -0.146 I 
ENDROOT
TORSDOF 0
ENDMDL
