MODEL 1
REMARK minimizedAffinity 6.25407457
REMARK minimizedRMSD -1
REMARK  0 active torsions:
REMARK  status: ('A' for Active; 'I' for Inactive)
ROOT
ATOM      1  C   UNL d   1      -0.113   3.504   0.336  0.00  0.00     0.023 A 
ATOM      2  C1  UNL d   1      -0.674   2.475   1.092  0.00  0.00     0.003 A 
ATOM      3  C2  UNL d   1      -0.143   1.186   1.023  0.00  0.00     0.048 A 
ATOM      4  C3  UNL d   1       0.950   0.932   0.195  0.00  0.00     0.023 A 
ATOM      5  C4  UNL d   1       1.516   1.959  -0.563  0.00  0.00     0.048 A 
ATOM      6  C5  UNL d   1       0.980   3.246  -0.491  0.00  0.00     0.003 A 
ATOM      7  I   UNL d   1       1.743  -0.986   0.090  0.00  0.00    -0.146 I 
ENDROOT
TORSDOF 0
ENDMDL
