MODEL 1
REMARK minimizedAffinity 9.48561096
REMARK minimizedRMSD -1
REMARK  0 active torsions:
REMARK  status: ('A' for Active; 'I' for Inactive)
ROOT
ATOM      1  C   UNL d   1      -2.440   2.884   0.870  0.00  0.00     0.023 A 
ATOM      2  C1  UNL d   1      -1.212   2.646   1.489  0.00  0.00     0.003 A 
ATOM      3  C2  UNL d   1      -0.901   1.368   1.957  0.00  0.00     0.048 A 
ATOM      4  C3  UNL d   1      -1.821   0.332   1.803  0.00  0.00     0.023 A 
ATOM      5  C4  UNL d   1      -3.050   0.565   1.184  0.00  0.00     0.048 A 
ATOM      6  C5  UNL d   1      -3.358   1.845   0.718  0.00  0.00     0.003 A 
ATOM      7  I   UNL d   1      -1.360  -1.571   2.499  0.00  0.00    -0.146 I 
ENDROOT
TORSDOF 0
ENDMDL
