MODEL 1
REMARK minimizedAffinity 8.39923859
REMARK minimizedRMSD -1
REMARK  0 active torsions:
REMARK  status: ('A' for Active; 'I' for Inactive)
ROOT
ATOM      1  C   UNL d   1      -1.808   2.890   1.089  0.00  0.00     0.023 A 
ATOM      2  C1  UNL d   1      -1.138   3.467   0.011  0.00  0.00     0.003 A 
ATOM      3  C2  UNL d   1       0.240   3.293  -0.131  0.00  0.00     0.048 A 
ATOM      4  C3  UNL d   1       0.942   2.539   0.809  0.00  0.00     0.023 A 
ATOM      5  C4  UNL d   1       0.275   1.959   1.890  0.00  0.00     0.048 A 
ATOM      6  C5  UNL d   1      -1.103   2.137   2.028  0.00  0.00     0.003 A 
ATOM      7  I   UNL d   1       2.993   2.277   0.601  0.00  0.00    -0.146 I 
ENDROOT
TORSDOF 0
ENDMDL
