MODEL 1
REMARK minimizedAffinity 4.7875886
REMARK minimizedRMSD -1
REMARK  0 active torsions:
REMARK  status: ('A' for Active; 'I' for Inactive)
ROOT
ATOM      1  C   UNL d   1      -5.849   2.846  -0.284  0.00  0.00     0.023 A 
ATOM      2  C1  UNL d   1      -5.957   4.213  -0.032  0.00  0.00     0.003 A 
ATOM      3  C2  UNL d   1      -5.999   5.119  -1.093  0.00  0.00     0.048 A 
ATOM      4  C3  UNL d   1      -5.934   4.651  -2.405  0.00  0.00     0.023 A 
ATOM      5  C4  UNL d   1      -5.828   3.283  -2.663  0.00  0.00     0.048 A 
ATOM      6  C5  UNL d   1      -5.785   2.381  -1.598  0.00  0.00     0.003 A 
ATOM      7  I   UNL d   1      -5.997   5.998  -3.987  0.00  0.00    -0.146 I 
ENDROOT
TORSDOF 0
ENDMDL
