MODEL 1
REMARK minimizedAffinity 1.46067643
REMARK minimizedRMSD -1
REMARK  0 active torsions:
REMARK  status: ('A' for Active; 'I' for Inactive)
ROOT
ATOM      1  C   UNL d   1      -2.105  -5.767   2.790  0.00  0.00     0.023 A 
ATOM      2  C1  UNL d   1      -1.251  -5.062   3.638  0.00  0.00     0.003 A 
ATOM      3  C2  UNL d   1      -0.511  -3.985   3.147  0.00  0.00     0.048 A 
ATOM      4  C3  UNL d   1      -0.632  -3.617   1.807  0.00  0.00     0.023 A 
ATOM      5  C4  UNL d   1      -1.486  -4.319   0.956  0.00  0.00     0.048 A 
ATOM      6  C5  UNL d   1      -2.223  -5.396   1.451  0.00  0.00     0.003 A 
ATOM      7  I   UNL d   1       0.468  -2.013   1.074  0.00  0.00    -0.146 I 
ENDROOT
TORSDOF 0
ENDMDL
