MODEL 1
REMARK minimizedAffinity 2.91863513
REMARK minimizedRMSD -1
REMARK  0 active torsions:
REMARK  status: ('A' for Active; 'I' for Inactive)
ROOT
ATOM      1  C   UNL d   1      -2.147   2.208   0.413  0.00  0.00     0.023 A 
ATOM      2  C1  UNL d   1      -1.490   3.426   0.236  0.00  0.00     0.003 A 
ATOM      3  C2  UNL d   1      -0.123   3.528   0.502  0.00  0.00     0.048 A 
ATOM      4  C3  UNL d   1       0.582   2.408   0.943  0.00  0.00     0.023 A 
ATOM      5  C4  UNL d   1      -0.071   1.187   1.120  0.00  0.00     0.048 A 
ATOM      6  C5  UNL d   1      -1.439   1.090   0.855  0.00  0.00     0.003 A 
ATOM      7  I   UNL d   1       2.617   2.558   1.339  0.00  0.00    -0.146 I 
ENDROOT
TORSDOF 0
ENDMDL
