MODEL 1
REMARK minimizedAffinity 8.98866177
REMARK minimizedRMSD -1
REMARK  0 active torsions:
REMARK  status: ('A' for Active; 'I' for Inactive)
ROOT
ATOM      1  C   UNL d   1       1.626  -1.179  -3.075  0.00  0.00     0.023 A 
ATOM      2  C1  UNL d   1       1.942   0.179  -3.111  0.00  0.00     0.003 A 
ATOM      3  C2  UNL d   1       2.165   0.877  -1.922  0.00  0.00     0.048 A 
ATOM      4  C3  UNL d   1       2.072   0.210  -0.701  0.00  0.00     0.023 A 
ATOM      5  C4  UNL d   1       1.756  -1.149  -0.660  0.00  0.00     0.048 A 
ATOM      6  C5  UNL d   1       1.533  -1.842  -1.851  0.00  0.00     0.003 A 
ATOM      7  I   UNL d   1       2.403   1.247   1.070  0.00  0.00    -0.146 I 
ENDROOT
TORSDOF 0
ENDMDL
