MODEL 1
REMARK minimizedAffinity 6.20959425
REMARK minimizedRMSD -1
REMARK  0 active torsions:
REMARK  status: ('A' for Active; 'I' for Inactive)
ROOT
ATOM      1  C   UNL d   1       2.076  -1.145  -2.349  0.00  0.00     0.023 A 
ATOM      2  C1  UNL d   1       1.452  -0.058  -2.959  0.00  0.00     0.003 A 
ATOM      3  C2  UNL d   1       1.015   1.021  -2.188  0.00  0.00     0.048 A 
ATOM      4  C3  UNL d   1       1.207   1.007  -0.807  0.00  0.00     0.023 A 
ATOM      5  C4  UNL d   1       1.833  -0.079  -0.192  0.00  0.00     0.048 A 
ATOM      6  C5  UNL d   1       2.267  -1.156  -0.967  0.00  0.00     0.003 A 
ATOM      7  I   UNL d   1       0.558   2.612   0.343  0.00  0.00    -0.146 I 
ENDROOT
TORSDOF 0
ENDMDL
