MODEL 1
REMARK minimizedAffinity 1.63266397
REMARK minimizedRMSD -1
REMARK  0 active torsions:
REMARK  status: ('A' for Active; 'I' for Inactive)
ROOT
ATOM      1  C   UNL d   1       0.030   3.654  -0.157  0.00  0.00     0.023 A 
ATOM      2  C1  UNL d   1      -0.215   2.602   0.725  0.00  0.00     0.003 A 
ATOM      3  C2  UNL d   1       0.739   1.597   0.898  0.00  0.00     0.048 A 
ATOM      4  C3  UNL d   1       1.936   1.651   0.185  0.00  0.00     0.023 A 
ATOM      5  C4  UNL d   1       2.186   2.703  -0.698  0.00  0.00     0.048 A 
ATOM      6  C5  UNL d   1       1.229   3.705  -0.868  0.00  0.00     0.003 A 
ATOM      7  I   UNL d   1       3.358   0.157   0.441  0.00  0.00    -0.146 I 
ENDROOT
TORSDOF 0
ENDMDL
