MODEL 1
REMARK minimizedAffinity 4.65706873
REMARK minimizedRMSD -1
REMARK  0 active torsions:
REMARK  status: ('A' for Active; 'I' for Inactive)
ROOT
ATOM      1  C   UNL d   1      -2.173   2.839   1.073  0.00  0.00     0.023 A 
ATOM      2  C1  UNL d   1      -1.072   3.514   0.546  0.00  0.00     0.003 A 
ATOM      3  C2  UNL d   1       0.116   2.825   0.292  0.00  0.00     0.048 A 
ATOM      4  C3  UNL d   1       0.195   1.460   0.565  0.00  0.00     0.023 A 
ATOM      5  C4  UNL d   1      -0.905   0.780   1.091  0.00  0.00     0.048 A 
ATOM      6  C5  UNL d   1      -2.090   1.473   1.345  0.00  0.00     0.003 A 
ATOM      7  I   UNL d   1       1.961   0.431   0.187  0.00  0.00    -0.146 I 
ENDROOT
TORSDOF 0
ENDMDL
