MODEL 1
REMARK minimizedAffinity 7.58381367
REMARK minimizedRMSD -1
REMARK  0 active torsions:
REMARK  status: ('A' for Active; 'I' for Inactive)
ROOT
ATOM      1  C   UNL d   1      -0.711   2.473   1.531  0.00  0.00     0.023 A 
ATOM      2  C1  UNL d   1      -1.123   1.180   1.851  0.00  0.00     0.003 A 
ATOM      3  C2  UNL d   1      -0.370   0.081   1.431  0.00  0.00     0.048 A 
ATOM      4  C3  UNL d   1       0.795   0.284   0.692  0.00  0.00     0.023 A 
ATOM      5  C4  UNL d   1       1.212   1.576   0.370  0.00  0.00     0.048 A 
ATOM      6  C5  UNL d   1       0.455   2.671   0.791  0.00  0.00     0.003 A 
ATOM      7  I   UNL d   1       1.918  -1.350   0.066  0.00  0.00    -0.146 I 
ENDROOT
TORSDOF 0
ENDMDL
