MODEL 1
REMARK minimizedAffinity 9.67280769
REMARK minimizedRMSD -1
REMARK  0 active torsions:
REMARK  status: ('A' for Active; 'I' for Inactive)
ROOT
ATOM      1  C   UNL d   1       3.123   3.000  -0.035  0.00  0.00     0.023 A 
ATOM      2  C1  UNL d   1       2.626   1.962   0.753  0.00  0.00     0.003 A 
ATOM      3  C2  UNL d   1       1.252   1.852   0.979  0.00  0.00     0.048 A 
ATOM      4  C3  UNL d   1       0.382   2.783   0.414  0.00  0.00     0.023 A 
ATOM      5  C4  UNL d   1       0.875   3.823  -0.376  0.00  0.00     0.048 A 
ATOM      6  C5  UNL d   1       2.249   3.929  -0.599  0.00  0.00     0.003 A 
ATOM      7  I   UNL d   1      -1.663   2.622   0.749  0.00  0.00    -0.146 I 
ENDROOT
TORSDOF 0
ENDMDL
