MODEL 1
REMARK minimizedAffinity 13.2898989
REMARK minimizedRMSD -1
REMARK  0 active torsions:
REMARK  status: ('A' for Active; 'I' for Inactive)
ROOT
ATOM      1  C   UNL d   1      -1.506   3.391   1.796  0.00  0.00     0.023 A 
ATOM      2  C1  UNL d   1      -0.707   2.709   2.713  0.00  0.00     0.003 A 
ATOM      3  C2  UNL d   1       0.493   2.127   2.299  0.00  0.00     0.048 A 
ATOM      4  C3  UNL d   1       0.888   2.232   0.966  0.00  0.00     0.023 A 
ATOM      5  C4  UNL d   1       0.092   2.914   0.044  0.00  0.00     0.048 A 
ATOM      6  C5  UNL d   1      -1.107   3.494   0.463  0.00  0.00     0.003 A 
ATOM      7  I   UNL d   1       2.673   1.367   0.346  0.00  0.00    -0.146 I 
ENDROOT
TORSDOF 0
ENDMDL
