MODEL 1
REMARK minimizedAffinity 26.4448872
REMARK minimizedRMSD -1
REMARK  0 active torsions:
REMARK  status: ('A' for Active; 'I' for Inactive)
ROOT
ATOM      1  C   UNL d   1       3.294  -0.087   1.533  0.00  0.00     0.124 A 
ATOM      2  C1  UNL d   1       4.392  -0.240   0.697  0.00  0.00     0.062 A 
ATOM      3  C2  UNL d   1       4.508   0.532  -0.455  0.00  0.00     0.162 A 
ATOM      4  C3  UNL d   1       3.524   1.466  -0.778  0.00  0.00    -0.034 A 
ATOM      5  C4  UNL d   1       2.422   1.614   0.067  0.00  0.00     0.162 A 
ATOM      6  C5  UNL d   1       2.311   0.840   1.217  0.00  0.00     0.062 A 
ATOM      7  F   UNL d   1       1.250   0.990   2.023  0.00  0.00    -0.097 F 
ATOM      8  F1  UNL d   1       1.458   2.503  -0.214  0.00  0.00    -0.096 F 
ATOM      9  I   UNL d   1       3.694   2.623  -2.500  0.00  0.00    -0.060 I 
ATOM     10  F2  UNL d   1       5.580   0.362  -1.244  0.00  0.00    -0.096 F 
ATOM     11  F3  UNL d   1       5.343  -1.136   1.000  0.00  0.00    -0.097 F 
ATOM     12  F4  UNL d   1       3.185  -0.832   2.640  0.00  0.00    -0.092 F 
ENDROOT
TORSDOF 0
ENDMDL
