MODEL 1
REMARK minimizedAffinity 26.4105625
REMARK minimizedRMSD -1
REMARK  0 active torsions:
REMARK  status: ('A' for Active; 'I' for Inactive)
ROOT
ATOM      1  C   UNL d   1      -1.277  -3.866   1.550  0.00  0.00     0.124 A 
ATOM      2  C1  UNL d   1      -1.305  -2.758   0.714  0.00  0.00     0.062 A 
ATOM      3  C2  UNL d   1      -2.194  -2.711  -0.356  0.00  0.00     0.162 A 
ATOM      4  C3  UNL d   1      -3.064  -3.776  -0.595  0.00  0.00    -0.034 A 
ATOM      5  C4  UNL d   1      -3.029  -4.887   0.249  0.00  0.00     0.162 A 
ATOM      6  C5  UNL d   1      -2.138  -4.929   1.317  0.00  0.00     0.062 A 
ATOM      7  F   UNL d   1      -2.112  -6.000   2.124  0.00  0.00    -0.097 F 
ATOM      8  F1  UNL d   1      -3.851  -5.927   0.048  0.00  0.00    -0.096 F 
ATOM      9  I   UNL d   1      -4.395  -3.709  -2.194  0.00  0.00    -0.060 I 
ATOM     10  F2  UNL d   1      -2.200  -1.629  -1.147  0.00  0.00    -0.096 F 
ATOM     11  F3  UNL d   1      -0.473  -1.731   0.937  0.00  0.00    -0.097 F 
ATOM     12  F4  UNL d   1      -0.419  -3.909   2.578  0.00  0.00    -0.092 F 
ENDROOT
TORSDOF 0
ENDMDL
