MODEL 1
REMARK minimizedAffinity 26.4656792
REMARK minimizedRMSD -1
REMARK  0 active torsions:
REMARK  status: ('A' for Active; 'I' for Inactive)
ROOT
ATOM      1  C   UNL d   1      -1.179  -2.064   3.923  0.00  0.00     0.124 A 
ATOM      2  C1  UNL d   1      -0.514  -1.013   4.540  0.00  0.00     0.062 A 
ATOM      3  C2  UNL d   1       0.178  -0.078   3.775  0.00  0.00     0.162 A 
ATOM      4  C3  UNL d   1       0.209  -0.190   2.385  0.00  0.00    -0.034 A 
ATOM      5  C4  UNL d   1      -0.461  -1.250   1.772  0.00  0.00     0.162 A 
ATOM      6  C5  UNL d   1      -1.152  -2.182   2.541  0.00  0.00     0.062 A 
ATOM      7  F   UNL d   1      -1.793  -3.196   1.943  0.00  0.00    -0.097 F 
ATOM      8  F1  UNL d   1      -0.452  -1.388   0.438  0.00  0.00    -0.096 F 
ATOM      9  I   UNL d   1       1.244   1.205   1.239  0.00  0.00    -0.060 I 
ATOM     10  F2  UNL d   1       0.812   0.927   4.397  0.00  0.00    -0.096 F 
ATOM     11  F3  UNL d   1      -0.538  -0.897   5.875  0.00  0.00    -0.097 F 
ATOM     12  F4  UNL d   1      -1.844  -2.962   4.661  0.00  0.00    -0.092 F 
ENDROOT
TORSDOF 0
ENDMDL
