MODEL 1
REMARK minimizedAffinity 32.6897964
REMARK minimizedRMSD -1
REMARK  0 active torsions:
REMARK  status: ('A' for Active; 'I' for Inactive)
ROOT
ATOM      1  C   UNL d   1      -3.209  -4.049  -0.080  0.00  0.00     0.124 A 
ATOM      2  C1  UNL d   1      -2.825  -2.924  -0.796  0.00  0.00     0.062 A 
ATOM      3  C2  UNL d   1      -3.388  -2.659  -2.041  0.00  0.00     0.162 A 
ATOM      4  C3  UNL d   1      -4.344  -3.522  -2.578  0.00  0.00    -0.034 A 
ATOM      5  C4  UNL d   1      -4.725  -4.652  -1.853  0.00  0.00     0.162 A 
ATOM      6  C5  UNL d   1      -4.159  -4.912  -0.609  0.00  0.00     0.062 A 
ATOM      7  F   UNL d   1      -4.531  -6.000   0.080  0.00  0.00    -0.097 F 
ATOM      8  F1  UNL d   1      -5.641  -5.502  -2.340  0.00  0.00    -0.096 F 
ATOM      9  I   UNL d   1      -5.189  -3.130  -4.439  0.00  0.00    -0.060 I 
ATOM     10  F2  UNL d   1      -2.998  -1.564  -2.710  0.00  0.00    -0.096 F 
ATOM     11  F3  UNL d   1      -1.907  -2.089  -0.287  0.00  0.00    -0.097 F 
ATOM     12  F4  UNL d   1      -2.665  -4.302   1.117  0.00  0.00    -0.092 F 
ENDROOT
TORSDOF 0
ENDMDL
