MODEL 1
REMARK minimizedAffinity 17.3682575
REMARK minimizedRMSD -1
REMARK  0 active torsions:
REMARK  status: ('A' for Active; 'I' for Inactive)
ROOT
ATOM      1  C   UNL d   1      -1.445  -2.907  -3.140  0.00  0.00     0.124 A 
ATOM      2  C1  UNL d   1      -0.211  -2.922  -2.504  0.00  0.00     0.062 A 
ATOM      3  C2  UNL d   1      -0.123  -2.652  -1.141  0.00  0.00     0.162 A 
ATOM      4  C3  UNL d   1      -1.273  -2.365  -0.405  0.00  0.00    -0.034 A 
ATOM      5  C4  UNL d   1      -2.509  -2.350  -1.052  0.00  0.00     0.162 A 
ATOM      6  C5  UNL d   1      -2.592  -2.621  -2.414  0.00  0.00     0.062 A 
ATOM      7  F   UNL d   1      -3.785  -2.605  -3.028  0.00  0.00    -0.097 F 
ATOM      8  F1  UNL d   1      -3.634  -2.077  -0.375  0.00  0.00    -0.096 F 
ATOM      9  I   UNL d   1      -1.145  -1.960   1.632  0.00  0.00    -0.060 I 
ATOM     10  F2  UNL d   1       1.082  -2.674  -0.552  0.00  0.00    -0.096 F 
ATOM     11  F3  UNL d   1       0.899  -3.197  -3.203  0.00  0.00    -0.097 F 
ATOM     12  F4  UNL d   1      -1.526  -3.166  -4.452  0.00  0.00    -0.092 F 
ENDROOT
TORSDOF 0
ENDMDL
