MODEL 1
REMARK minimizedAffinity 18.9379921
REMARK minimizedRMSD -1
REMARK  0 active torsions:
REMARK  status: ('A' for Active; 'I' for Inactive)
ROOT
ATOM      1  C   UNL d   1       4.512  -1.046   1.752  0.00  0.00     0.124 A 
ATOM      2  C1  UNL d   1       4.194  -1.520   3.018  0.00  0.00     0.062 A 
ATOM      3  C2  UNL d   1       2.878  -1.487   3.467  0.00  0.00     0.162 A 
ATOM      4  C3  UNL d   1       1.868  -0.979   2.650  0.00  0.00    -0.034 A 
ATOM      5  C4  UNL d   1       2.195  -0.504   1.379  0.00  0.00     0.162 A 
ATOM      6  C5  UNL d   1       3.512  -0.539   0.934  0.00  0.00     0.062 A 
ATOM      7  F   UNL d   1       3.817  -0.081  -0.288  0.00  0.00    -0.097 F 
ATOM      8  F1  UNL d   1       1.248  -0.009   0.568  0.00  0.00    -0.096 F 
ATOM      9  I   UNL d   1      -0.103  -0.928   3.319  0.00  0.00    -0.060 I 
ATOM     10  F2  UNL d   1       2.600  -1.951   4.695  0.00  0.00    -0.096 F 
ATOM     11  F3  UNL d   1       5.159  -2.010   3.810  0.00  0.00    -0.097 F 
ATOM     12  F4  UNL d   1       5.780  -1.079   1.322  0.00  0.00    -0.092 F 
ENDROOT
TORSDOF 0
ENDMDL
