MODEL 1
REMARK minimizedAffinity 13.4340963
REMARK minimizedRMSD -1
REMARK  0 active torsions:
REMARK  status: ('A' for Active; 'I' for Inactive)
ROOT
ATOM      1  C   UNL d   1      -2.057  -2.090  -1.612  0.00  0.00     0.124 A 
ATOM      2  C1  UNL d   1      -2.945  -3.069  -2.036  0.00  0.00     0.062 A 
ATOM      3  C2  UNL d   1      -3.362  -4.064  -1.157  0.00  0.00     0.162 A 
ATOM      4  C3  UNL d   1      -2.891  -4.086   0.156  0.00  0.00    -0.034 A 
ATOM      5  C4  UNL d   1      -1.997  -3.099   0.575  0.00  0.00     0.162 A 
ATOM      6  C5  UNL d   1      -1.584  -2.106  -0.307  0.00  0.00     0.062 A 
ATOM      7  F   UNL d   1      -0.726  -1.161   0.104  0.00  0.00    -0.097 F 
ATOM      8  F1  UNL d   1      -1.525  -3.090   1.830  0.00  0.00    -0.096 F 
ATOM      9  I   UNL d   1      -3.511  -5.573   1.473  0.00  0.00    -0.060 I 
ATOM     10  F2  UNL d   1      -4.221  -4.997  -1.594  0.00  0.00    -0.096 F 
ATOM     11  F3  UNL d   1      -3.403  -3.056  -3.296  0.00  0.00    -0.097 F 
ATOM     12  F4  UNL d   1      -1.657  -1.134  -2.460  0.00  0.00    -0.092 F 
ENDROOT
TORSDOF 0
ENDMDL
