MODEL 1
REMARK minimizedAffinity 15.9822931
REMARK minimizedRMSD -1
REMARK  0 active torsions:
REMARK  status: ('A' for Active; 'I' for Inactive)
ROOT
ATOM      1  C   UNL d   1      -2.272  -2.633  -1.796  0.00  0.00     0.124 A 
ATOM      2  C1  UNL d   1      -1.712  -2.824  -0.540  0.00  0.00     0.062 A 
ATOM      3  C2  UNL d   1      -2.237  -3.783   0.322  0.00  0.00     0.162 A 
ATOM      4  C3  UNL d   1      -3.328  -4.559  -0.069  0.00  0.00    -0.034 A 
ATOM      5  C4  UNL d   1      -3.887  -4.360  -1.333  0.00  0.00     0.162 A 
ATOM      6  C5  UNL d   1      -3.359  -3.401  -2.191  0.00  0.00     0.062 A 
ATOM      7  F   UNL d   1      -3.901  -3.218  -3.404  0.00  0.00    -0.097 F 
ATOM      8  F1  UNL d   1      -4.936  -5.089  -1.741  0.00  0.00    -0.096 F 
ATOM      9  I   UNL d   1      -4.116  -5.993   1.217  0.00  0.00    -0.060 I 
ATOM     10  F2  UNL d   1      -1.676  -3.946   1.529  0.00  0.00    -0.096 F 
ATOM     11  F3  UNL d   1      -0.663  -2.083  -0.156  0.00  0.00    -0.097 F 
ATOM     12  F4  UNL d   1      -1.766  -1.710  -2.623  0.00  0.00    -0.092 F 
ENDROOT
TORSDOF 0
ENDMDL
