MODEL 1
REMARK minimizedAffinity 15.2001457
REMARK minimizedRMSD -1
REMARK  0 active torsions:
REMARK  status: ('A' for Active; 'I' for Inactive)
ROOT
ATOM      1  C   UNL d   1       4.970   0.390   0.695  0.00  0.00     0.124 A 
ATOM      2  C1  UNL d   1       4.968   1.569  -0.038  0.00  0.00     0.062 A 
ATOM      3  C2  UNL d   1       3.898   2.454   0.063  0.00  0.00     0.162 A 
ATOM      4  C3  UNL d   1       2.821   2.163   0.901  0.00  0.00    -0.034 A 
ATOM      5  C4  UNL d   1       2.830   0.975   1.634  0.00  0.00     0.162 A 
ATOM      6  C5  UNL d   1       3.901   0.094   1.529  0.00  0.00     0.062 A 
ATOM      7  F   UNL d   1       3.901  -1.045   2.237  0.00  0.00    -0.097 F 
ATOM      8  F1  UNL d   1       1.810   0.665   2.448  0.00  0.00    -0.096 F 
ATOM      9  I   UNL d   1       1.220   3.484   1.055  0.00  0.00    -0.060 I 
ATOM     10  F2  UNL d   1       3.923   3.586  -0.656  0.00  0.00    -0.096 F 
ATOM     11  F3  UNL d   1       5.998   1.857  -0.845  0.00  0.00    -0.097 F 
ATOM     12  F4  UNL d   1       6.000  -0.460   0.595  0.00  0.00    -0.092 F 
ENDROOT
TORSDOF 0
ENDMDL
