MODEL 1
REMARK minimizedAffinity 9.7032032
REMARK minimizedRMSD -1
REMARK  0 active torsions:
REMARK  status: ('A' for Active; 'I' for Inactive)
ROOT
ATOM      1  C   UNL d   1       4.638  -0.217   2.090  0.00  0.00     0.124 A 
ATOM      2  C1  UNL d   1       3.911  -0.665   3.185  0.00  0.00     0.062 A 
ATOM      3  C2  UNL d   1       2.634  -0.169   3.428  0.00  0.00     0.162 A 
ATOM      4  C3  UNL d   1       2.073   0.781   2.574  0.00  0.00    -0.034 A 
ATOM      5  C4  UNL d   1       2.810   1.228   1.475  0.00  0.00     0.162 A 
ATOM      6  C5  UNL d   1       4.087   0.729   1.237  0.00  0.00     0.062 A 
ATOM      7  F   UNL d   1       4.787   1.163   0.179  0.00  0.00    -0.097 F 
ATOM      8  F1  UNL d   1       2.302   2.140   0.634  0.00  0.00    -0.096 F 
ATOM      9  I   UNL d   1       0.163   1.525   2.934  0.00  0.00    -0.060 I 
ATOM     10  F2  UNL d   1       1.955  -0.619   4.493  0.00  0.00    -0.096 F 
ATOM     11  F3  UNL d   1       4.442  -1.577   4.012  0.00  0.00    -0.097 F 
ATOM     12  F4  UNL d   1       5.867  -0.695   1.859  0.00  0.00    -0.092 F 
ENDROOT
TORSDOF 0
ENDMDL
