MODEL 1
REMARK minimizedAffinity 26.1380672
REMARK minimizedRMSD -1
REMARK  0 active torsions:
REMARK  status: ('A' for Active; 'I' for Inactive)
ROOT
ATOM      1  C   UNL d   1      -1.678  -2.624  -4.244  0.00  0.00     0.124 A 
ATOM      2  C1  UNL d   1      -2.465  -1.967  -3.308  0.00  0.00     0.062 A 
ATOM      3  C2  UNL d   1      -3.007  -2.668  -2.234  0.00  0.00     0.162 A 
ATOM      4  C3  UNL d   1      -2.762  -4.034  -2.089  0.00  0.00    -0.034 A 
ATOM      5  C4  UNL d   1      -1.970  -4.687  -3.035  0.00  0.00     0.162 A 
ATOM      6  C5  UNL d   1      -1.431  -3.982  -4.107  0.00  0.00     0.062 A 
ATOM      7  F   UNL d   1      -0.671  -4.618  -5.010  0.00  0.00    -0.097 F 
ATOM      8  F1  UNL d   1      -1.715  -5.999  -2.927  0.00  0.00    -0.096 F 
ATOM      9  I   UNL d   1      -3.570  -5.085  -0.485  0.00  0.00    -0.060 I 
ATOM     10  F2  UNL d   1      -3.764  -2.008  -1.344  0.00  0.00    -0.096 F 
ATOM     11  F3  UNL d   1      -2.706  -0.655  -3.438  0.00  0.00    -0.097 F 
ATOM     12  F4  UNL d   1      -1.159  -1.947  -5.276  0.00  0.00    -0.092 F 
ENDROOT
TORSDOF 0
ENDMDL
