MODEL 1
REMARK minimizedAffinity 17.7988853
REMARK minimizedRMSD -1
REMARK  0 active torsions:
REMARK  status: ('A' for Active; 'I' for Inactive)
ROOT
ATOM      1  C   UNL d   1       2.980   1.211   1.955  0.00  0.00     0.124 A 
ATOM      2  C1  UNL d   1       4.051   0.335   1.847  0.00  0.00     0.062 A 
ATOM      3  C2  UNL d   1       4.915   0.415   0.758  0.00  0.00     0.162 A 
ATOM      4  C3  UNL d   1       4.711   1.377  -0.232  0.00  0.00    -0.034 A 
ATOM      5  C4  UNL d   1       3.631   2.254  -0.117  0.00  0.00     0.162 A 
ATOM      6  C5  UNL d   1       2.771   2.169   0.973  0.00  0.00     0.062 A 
ATOM      7  F   UNL d   1       1.737   3.017   1.075  0.00  0.00    -0.097 F 
ATOM      8  F1  UNL d   1       3.406   3.190  -1.051  0.00  0.00    -0.096 F 
ATOM      9  I   UNL d   1       6.000   1.500  -1.861  0.00  0.00    -0.060 I 
ATOM     10  F2  UNL d   1       5.941  -0.444   0.680  0.00  0.00    -0.096 F 
ATOM     11  F3  UNL d   1       4.255  -0.592   2.794  0.00  0.00    -0.097 F 
ATOM     12  F4  UNL d   1       2.150   1.131   3.003  0.00  0.00    -0.092 F 
ENDROOT
TORSDOF 0
ENDMDL
