MODEL 1
REMARK minimizedAffinity 26.8571892
REMARK minimizedRMSD -1
REMARK  0 active torsions:
REMARK  status: ('A' for Active; 'I' for Inactive)
ROOT
ATOM      1  C   UNL d   1       2.068   0.496   3.360  0.00  0.00     0.124 A 
ATOM      2  C1  UNL d   1       2.496   0.793   2.073  0.00  0.00     0.062 A 
ATOM      3  C2  UNL d   1       1.791   1.706   1.294  0.00  0.00     0.162 A 
ATOM      4  C3  UNL d   1       0.651   2.330   1.800  0.00  0.00    -0.034 A 
ATOM      5  C4  UNL d   1       0.227   2.026   3.094  0.00  0.00     0.162 A 
ATOM      6  C5  UNL d   1       0.934   1.113   3.869  0.00  0.00     0.062 A 
ATOM      7  F   UNL d   1       0.519   0.828   5.112  0.00  0.00    -0.097 F 
ATOM      8  F1  UNL d   1      -0.865   2.608   3.612  0.00  0.00    -0.096 F 
ATOM      9  I   UNL d   1      -0.405   3.696   0.638  0.00  0.00    -0.060 I 
ATOM     10  F2  UNL d   1       2.228   1.973   0.054  0.00  0.00    -0.096 F 
ATOM     11  F3  UNL d   1       3.591   0.197   1.578  0.00  0.00    -0.097 F 
ATOM     12  F4  UNL d   1       2.748  -0.383   4.107  0.00  0.00    -0.092 F 
ENDROOT
TORSDOF 0
ENDMDL
