MODEL 1
REMARK minimizedAffinity 27.2557068
REMARK minimizedRMSD -1
REMARK  0 active torsions:
REMARK  status: ('A' for Active; 'I' for Inactive)
ROOT
ATOM      1  C   UNL d   1      -2.400  -2.326  -1.983  0.00  0.00     0.124 A 
ATOM      2  C1  UNL d   1      -3.325  -3.237  -2.473  0.00  0.00     0.062 A 
ATOM      3  C2  UNL d   1      -3.782  -4.274  -1.664  0.00  0.00     0.162 A 
ATOM      4  C3  UNL d   1      -3.315  -4.405  -0.356  0.00  0.00    -0.034 A 
ATOM      5  C4  UNL d   1      -2.383  -3.485   0.129  0.00  0.00     0.162 A 
ATOM      6  C5  UNL d   1      -1.930  -2.451  -0.683  0.00  0.00     0.062 A 
ATOM      7  F   UNL d   1      -1.036  -1.571  -0.208  0.00  0.00    -0.097 F 
ATOM      8  F1  UNL d   1      -1.913  -3.582   1.381  0.00  0.00    -0.096 F 
ATOM      9  I   UNL d   1      -3.995  -5.954   0.856  0.00  0.00    -0.060 I 
ATOM     10  F2  UNL d   1      -4.676  -5.140  -2.164  0.00  0.00    -0.096 F 
ATOM     11  F3  UNL d   1      -3.780  -3.119  -3.728  0.00  0.00    -0.097 F 
ATOM     12  F4  UNL d   1      -1.961  -1.330  -2.763  0.00  0.00    -0.092 F 
ENDROOT
TORSDOF 0
ENDMDL
