MODEL 1
REMARK minimizedAffinity 24.9834518
REMARK minimizedRMSD -1
REMARK  0 active torsions:
REMARK  status: ('A' for Active; 'I' for Inactive)
ROOT
ATOM      1  C   UNL d   1       1.936   0.086   3.338  0.00  0.00     0.124 A 
ATOM      2  C1  UNL d   1       3.108  -0.485   2.860  0.00  0.00     0.062 A 
ATOM      3  C2  UNL d   1       3.570  -0.171   1.585  0.00  0.00     0.162 A 
ATOM      4  C3  UNL d   1       2.861   0.718   0.778  0.00  0.00    -0.034 A 
ATOM      5  C4  UNL d   1       1.683   1.288   1.265  0.00  0.00     0.162 A 
ATOM      6  C5  UNL d   1       1.225   0.972   2.540  0.00  0.00     0.062 A 
ATOM      7  F   UNL d   1       0.093   1.524   3.000  0.00  0.00    -0.097 F 
ATOM      8  F1  UNL d   1       0.976   2.147   0.516  0.00  0.00    -0.096 F 
ATOM      9  I   UNL d   1       3.549   1.189  -1.129  0.00  0.00    -0.060 I 
ATOM     10  F2  UNL d   1       4.705  -0.738   1.150  0.00  0.00    -0.096 F 
ATOM     11  F3  UNL d   1       3.796  -1.341   3.629  0.00  0.00    -0.097 F 
ATOM     12  F4  UNL d   1       1.493  -0.217   4.564  0.00  0.00    -0.092 F 
ENDROOT
TORSDOF 0
ENDMDL
