MODEL 1
REMARK minimizedAffinity 21.5270348
REMARK minimizedRMSD -1
REMARK  0 active torsions:
REMARK  status: ('A' for Active; 'I' for Inactive)
ROOT
ATOM      1  C   UNL d   1       3.104  -0.112   1.622  0.00  0.00     0.124 A 
ATOM      2  C1  UNL d   1       4.250  -0.147   0.839  0.00  0.00     0.062 A 
ATOM      3  C2  UNL d   1       4.362   0.679  -0.275  0.00  0.00     0.162 A 
ATOM      4  C3  UNL d   1       3.325   1.549  -0.613  0.00  0.00    -0.034 A 
ATOM      5  C4  UNL d   1       2.176   1.578   0.179  0.00  0.00     0.162 A 
ATOM      6  C5  UNL d   1       2.069   0.751   1.291  0.00  0.00     0.062 A 
ATOM      7  F   UNL d   1       0.961   0.786   2.047  0.00  0.00    -0.097 F 
ATOM      8  F1  UNL d   1       1.160   2.403  -0.118  0.00  0.00    -0.096 F 
ATOM      9  I   UNL d   1       3.488   2.787  -2.278  0.00  0.00    -0.060 I 
ATOM     10  F2  UNL d   1       5.480   0.624  -1.014  0.00  0.00    -0.096 F 
ATOM     11  F3  UNL d   1       5.251  -0.980   1.156  0.00  0.00    -0.097 F 
ATOM     12  F4  UNL d   1       2.999  -0.909   2.693  0.00  0.00    -0.092 F 
ENDROOT
TORSDOF 0
ENDMDL
