MODEL 1
REMARK minimizedAffinity 26.4598751
REMARK minimizedRMSD -1
REMARK  0 active torsions:
REMARK  status: ('A' for Active; 'I' for Inactive)
ROOT
ATOM      1  C   UNL d   1       3.935   1.648  -4.797  0.00  0.00     0.124 A 
ATOM      2  C1  UNL d   1       4.518   1.098  -3.664  0.00  0.00     0.062 A 
ATOM      3  C2  UNL d   1       3.946   1.303  -2.412  0.00  0.00     0.162 A 
ATOM      4  C3  UNL d   1       2.782   2.062  -2.286  0.00  0.00    -0.034 A 
ATOM      5  C4  UNL d   1       2.202   2.613  -3.430  0.00  0.00     0.162 A 
ATOM      6  C5  UNL d   1       2.778   2.405  -4.679  0.00  0.00     0.062 A 
ATOM      7  F   UNL d   1       2.213   2.937  -5.772  0.00  0.00    -0.097 F 
ATOM      8  F1  UNL d   1       1.083   3.348  -3.345  0.00  0.00    -0.096 F 
ATOM      9  I   UNL d   1       1.923   2.372  -0.415  0.00  0.00    -0.060 I 
ATOM     10  F2  UNL d   1       4.531   0.760  -1.334  0.00  0.00    -0.096 F 
ATOM     11  F3  UNL d   1       5.637   0.367  -3.775  0.00  0.00    -0.097 F 
ATOM     12  F4  UNL d   1       4.489   1.450  -6.000  0.00  0.00    -0.092 F 
ENDROOT
TORSDOF 0
ENDMDL
