MODEL 1
REMARK minimizedAffinity 6.12536573
REMARK minimizedRMSD -1
REMARK  0 active torsions:
REMARK  status: ('A' for Active; 'I' for Inactive)
ROOT
ATOM      1  C   UNL d   1       5.060   2.979  -2.868  0.00  0.00     0.124 A 
ATOM      2  C1  UNL d   1       4.516   4.232  -2.620  0.00  0.00     0.062 A 
ATOM      3  C2  UNL d   1       3.603   4.787  -3.511  0.00  0.00     0.162 A 
ATOM      4  C3  UNL d   1       3.226   4.089  -4.659  0.00  0.00    -0.034 A 
ATOM      5  C4  UNL d   1       3.778   2.830  -4.902  0.00  0.00     0.162 A 
ATOM      6  C5  UNL d   1       4.690   2.279  -4.008  0.00  0.00     0.062 A 
ATOM      7  F   UNL d   1       5.214   1.069  -4.249  0.00  0.00    -0.097 F 
ATOM      8  F1  UNL d   1       3.438   2.132  -5.995  0.00  0.00    -0.096 F 
ATOM      9  I   UNL d   1       1.861   4.917  -5.994  0.00  0.00    -0.060 I 
ATOM     10  F2  UNL d   1       3.094   5.999  -3.247  0.00  0.00    -0.096 F 
ATOM     11  F3  UNL d   1       4.872   4.910  -1.519  0.00  0.00    -0.097 F 
ATOM     12  F4  UNL d   1       5.939   2.447  -2.009  0.00  0.00    -0.092 F 
ENDROOT
TORSDOF 0
ENDMDL
