MODEL 1
REMARK minimizedAffinity 1.42389953
REMARK minimizedRMSD -1
REMARK  0 active torsions:
REMARK  status: ('A' for Active; 'I' for Inactive)
ROOT
ATOM      1  C   UNL d   1       0.904  -1.178   0.730  0.00  0.00     0.077 C 
ATOM      2  C1  UNL d   1       0.716   0.310   0.710  0.00  0.00    -0.074 A 
ATOM      3  C2  UNL d   1      -0.560   0.874   0.814  0.00  0.00    -0.005 A 
ATOM      4  C3  UNL d   1      -0.719   2.260   0.803  0.00  0.00     0.006 A 
ATOM      5  C4  UNL d   1       0.394   3.094   0.689  0.00  0.00    -0.005 A 
ATOM      6  C5  UNL d   1       1.677   2.548   0.586  0.00  0.00    -0.074 A 
ATOM      7  C6  UNL d   1       2.885   3.431   0.472  0.00  0.00     0.077 C 
ATOM      8  C7  UNL d   1       1.829   1.155   0.604  0.00  0.00    -0.001 A 
ENDROOT
TORSDOF 0
ENDMDL
