MODEL 1
REMARK minimizedAffinity 5.35365152
REMARK minimizedRMSD -1
REMARK  0 active torsions:
REMARK  status: ('A' for Active; 'I' for Inactive)
ROOT
ATOM      1  C   UNL d   1       2.583  -2.703  -2.732  0.00  0.00     0.077 C 
ATOM      2  C1  UNL d   1       2.359  -1.437  -1.960  0.00  0.00    -0.074 A 
ATOM      3  C2  UNL d   1       2.850  -1.292  -0.659  0.00  0.00    -0.005 A 
ATOM      4  C3  UNL d   1       2.642  -0.104   0.043  0.00  0.00     0.006 A 
ATOM      5  C4  UNL d   1       1.943   0.948  -0.549  0.00  0.00    -0.005 A 
ATOM      6  C5  UNL d   1       1.446   0.822  -1.850  0.00  0.00    -0.074 A 
ATOM      7  C6  UNL d   1       0.700   1.947  -2.504  0.00  0.00     0.077 C 
ATOM      8  C7  UNL d   1       1.664  -0.372  -2.551  0.00  0.00    -0.001 A 
ENDROOT
TORSDOF 0
ENDMDL
