MODEL 1
REMARK minimizedAffinity -2.10237265
REMARK minimizedRMSD -1
REMARK  0 active torsions:
REMARK  status: ('A' for Active; 'I' for Inactive)
ROOT
ATOM      1  C   UNL d   1       2.536   5.842   0.325  0.00  0.00     0.077 C 
ATOM      2  C1  UNL d   1       1.851   4.508   0.272  0.00  0.00    -0.074 A 
ATOM      3  C2  UNL d   1       2.591   3.321   0.241  0.00  0.00    -0.005 A 
ATOM      4  C3  UNL d   1       1.940   2.088   0.201  0.00  0.00     0.006 A 
ATOM      5  C4  UNL d   1       0.546   2.030   0.191  0.00  0.00    -0.005 A 
ATOM      6  C5  UNL d   1      -0.210   3.206   0.222  0.00  0.00    -0.074 A 
ATOM      7  C6  UNL d   1      -1.709   3.161   0.222  0.00  0.00     0.077 C 
ATOM      8  C7  UNL d   1       0.451   4.441   0.269  0.00  0.00    -0.001 A 
ENDROOT
TORSDOF 0
ENDMDL
