MODEL 1
REMARK minimizedAffinity 5.9730382
REMARK minimizedRMSD -1
REMARK  0 active torsions:
REMARK  status: ('A' for Active; 'I' for Inactive)
ROOT
ATOM      1  C   UNL d   1       2.860   2.013   0.755  0.00  0.00     0.077 C 
ATOM      2  C1  UNL d   1       2.305   0.929  -0.120  0.00  0.00    -0.074 A 
ATOM      3  C2  UNL d   1       2.258  -0.398   0.321  0.00  0.00    -0.005 A 
ATOM      4  C3  UNL d   1       1.730  -1.394  -0.501  0.00  0.00     0.006 A 
ATOM      5  C4  UNL d   1       1.244  -1.074  -1.769  0.00  0.00    -0.005 A 
ATOM      6  C5  UNL d   1       1.282   0.247  -2.227  0.00  0.00    -0.074 A 
ATOM      7  C6  UNL d   1       0.755   0.609  -3.583  0.00  0.00     0.077 C 
ATOM      8  C7  UNL d   1       1.807   1.243  -1.393  0.00  0.00    -0.001 A 
ENDROOT
TORSDOF 0
ENDMDL
