MODEL 1
REMARK minimizedAffinity 8.13925552
REMARK minimizedRMSD -1
REMARK  0 active torsions:
REMARK  status: ('A' for Active; 'I' for Inactive)
ROOT
ATOM      1  C   UNL d   1      -3.063   3.099  -2.995  0.00  0.00     0.077 C 
ATOM      2  C1  UNL d   1      -3.140   2.899  -1.510  0.00  0.00    -0.074 A 
ATOM      3  C2  UNL d   1      -1.983   2.896  -0.724  0.00  0.00    -0.005 A 
ATOM      4  C3  UNL d   1      -2.071   2.719   0.656  0.00  0.00     0.006 A 
ATOM      5  C4  UNL d   1      -3.315   2.542   1.264  0.00  0.00    -0.005 A 
ATOM      6  C5  UNL d   1      -4.483   2.542   0.494  0.00  0.00    -0.074 A 
ATOM      7  C6  UNL d   1      -5.828   2.364   1.133  0.00  0.00     0.077 C 
ATOM      8  C7  UNL d   1      -4.386   2.729  -0.891  0.00  0.00    -0.001 A 
ENDROOT
TORSDOF 0
ENDMDL
