MODEL 1
REMARK minimizedAffinity 1.42575634
REMARK minimizedRMSD -1
REMARK  0 active torsions:
REMARK  status: ('A' for Active; 'I' for Inactive)
ROOT
ATOM      1  C   UNL d   1      -1.454   3.534  -0.749  0.00  0.00     0.077 C 
ATOM      2  C1  UNL d   1      -2.335   2.678   0.110  0.00  0.00    -0.074 A 
ATOM      3  C2  UNL d   1      -1.814   1.582   0.807  0.00  0.00    -0.005 A 
ATOM      4  C3  UNL d   1      -2.645   0.800   1.610  0.00  0.00     0.006 A 
ATOM      5  C4  UNL d   1      -4.001   1.105   1.724  0.00  0.00    -0.005 A 
ATOM      6  C5  UNL d   1      -4.540   2.197   1.036  0.00  0.00    -0.074 A 
ATOM      7  C6  UNL d   1      -5.994   2.545   1.156  0.00  0.00     0.077 C 
ATOM      8  C7  UNL d   1      -3.698   2.982   0.237  0.00  0.00    -0.001 A 
ENDROOT
TORSDOF 0
ENDMDL
