MODEL 1
REMARK minimizedAffinity 3.93298435
REMARK minimizedRMSD -1
REMARK  0 active torsions:
REMARK  status: ('A' for Active; 'I' for Inactive)
ROOT
ATOM      1  C   UNL d   1       5.939   1.299  -2.117  0.00  0.00     0.077 C 
ATOM      2  C1  UNL d   1       4.466   1.165  -1.868  0.00  0.00    -0.074 A 
ATOM      3  C2  UNL d   1       3.618   0.630  -2.843  0.00  0.00    -0.005 A 
ATOM      4  C3  UNL d   1       2.251   0.503  -2.594  0.00  0.00     0.006 A 
ATOM      5  C4  UNL d   1       1.720   0.909  -1.369  0.00  0.00    -0.005 A 
ATOM      6  C5  UNL d   1       2.552   1.445  -0.382  0.00  0.00    -0.074 A 
ATOM      7  C6  UNL d   1       1.999   1.876   0.944  0.00  0.00     0.077 C 
ATOM      8  C7  UNL d   1       3.925   1.563  -0.637  0.00  0.00    -0.001 A 
ENDROOT
TORSDOF 0
ENDMDL
