MODEL 1
REMARK minimizedAffinity 1.20187676
REMARK minimizedRMSD -1
REMARK  0 active torsions:
REMARK  status: ('A' for Active; 'I' for Inactive)
ROOT
ATOM      1  C   UNL d   1       4.825   2.331   1.209  0.00  0.00     0.077 C 
ATOM      2  C1  UNL d   1       3.519   1.694   0.835  0.00  0.00    -0.074 A 
ATOM      3  C2  UNL d   1       3.429   0.315   0.619  0.00  0.00    -0.005 A 
ATOM      4  C3  UNL d   1       2.206  -0.264   0.281  0.00  0.00     0.006 A 
ATOM      5  C4  UNL d   1       1.063   0.527   0.157  0.00  0.00    -0.005 A 
ATOM      6  C5  UNL d   1       1.135   1.907   0.371  0.00  0.00    -0.074 A 
ATOM      7  C6  UNL d   1      -0.086   2.771   0.251  0.00  0.00     0.077 C 
ATOM      8  C7  UNL d   1       2.366   2.481   0.717  0.00  0.00    -0.001 A 
ENDROOT
TORSDOF 0
ENDMDL
