MODEL 1
REMARK minimizedAffinity -0.210431606
REMARK minimizedRMSD -1
REMARK  0 active torsions:
REMARK  status: ('A' for Active; 'I' for Inactive)
ROOT
ATOM      1  C   UNL d   1      -1.131   2.428   1.068  0.00  0.00     0.077 C 
ATOM      2  C1  UNL d   1       0.285   2.657   0.631  0.00  0.00    -0.074 A 
ATOM      3  C2  UNL d   1       0.617   3.736  -0.194  0.00  0.00    -0.005 A 
ATOM      4  C3  UNL d   1       1.940   3.942  -0.584  0.00  0.00     0.006 A 
ATOM      5  C4  UNL d   1       2.943   3.072  -0.154  0.00  0.00    -0.005 A 
ATOM      6  C5  UNL d   1       2.630   1.988   0.672  0.00  0.00    -0.074 A 
ATOM      7  C6  UNL d   1       3.697   1.049   1.151  0.00  0.00     0.077 C 
ATOM      8  C7  UNL d   1       1.299   1.792   1.065  0.00  0.00    -0.001 A 
ENDROOT
TORSDOF 0
ENDMDL
