MODEL 1
REMARK minimizedAffinity 2.70248103
REMARK minimizedRMSD -1
REMARK  0 active torsions:
REMARK  status: ('A' for Active; 'I' for Inactive)
ROOT
ATOM      1  C   UNL d   1      -2.356   3.180  -0.785  0.00  0.00     0.077 C 
ATOM      2  C1  UNL d   1      -1.178   2.630  -0.038  0.00  0.00    -0.074 A 
ATOM      3  C2  UNL d   1      -1.335   1.594   0.889  0.00  0.00    -0.005 A 
ATOM      4  C3  UNL d   1      -0.228   1.086   1.569  0.00  0.00     0.006 A 
ATOM      5  C4  UNL d   1       1.044   1.607   1.330  0.00  0.00    -0.005 A 
ATOM      6  C5  UNL d   1       1.220   2.641   0.406  0.00  0.00    -0.074 A 
ATOM      7  C6  UNL d   1       2.582   3.206   0.130  0.00  0.00     0.077 C 
ATOM      8  C7  UNL d   1       0.105   3.142  -0.279  0.00  0.00    -0.001 A 
ENDROOT
TORSDOF 0
ENDMDL
