MODEL 1
REMARK minimizedAffinity -0.804826081
REMARK minimizedRMSD -1
REMARK  0 active torsions:
REMARK  status: ('A' for Active; 'I' for Inactive)
ROOT
ATOM      1  C   UNL d   1       5.602   1.650   1.849  0.00  0.00     0.077 C 
ATOM      2  C1  UNL d   1       4.208   1.821   1.321  0.00  0.00    -0.074 A 
ATOM      3  C2  UNL d   1       3.551   3.052   1.412  0.00  0.00    -0.005 A 
ATOM      4  C3  UNL d   1       2.258   3.198   0.908  0.00  0.00     0.006 A 
ATOM      5  C4  UNL d   1       1.611   2.116   0.310  0.00  0.00    -0.005 A 
ATOM      6  C5  UNL d   1       2.253   0.877   0.210  0.00  0.00    -0.074 A 
ATOM      7  C6  UNL d   1       1.575  -0.294  -0.438  0.00  0.00     0.077 C 
ATOM      8  C7  UNL d   1       3.554   0.740   0.713  0.00  0.00    -0.001 A 
ENDROOT
TORSDOF 0
ENDMDL
