MODEL 1
REMARK minimizedAffinity 8.74505424
REMARK minimizedRMSD -1
REMARK  0 active torsions:
REMARK  status: ('A' for Active; 'I' for Inactive)
ROOT
ATOM      1  C   UNL d   1       2.905   1.870   1.055  0.00  0.00     0.077 C 
ATOM      2  C1  UNL d   1       2.528   0.968  -0.083  0.00  0.00    -0.074 A 
ATOM      3  C2  UNL d   1       2.702  -0.416   0.009  0.00  0.00    -0.005 A 
ATOM      4  C3  UNL d   1       2.337  -1.243  -1.054  0.00  0.00     0.006 A 
ATOM      5  C4  UNL d   1       1.796  -0.694  -2.217  0.00  0.00    -0.005 A 
ATOM      6  C5  UNL d   1       1.614   0.688  -2.327  0.00  0.00    -0.074 A 
ATOM      7  C6  UNL d   1       1.024   1.293  -3.566  0.00  0.00     0.077 C 
ATOM      8  C7  UNL d   1       1.976   1.511  -1.252  0.00  0.00    -0.001 A 
ENDROOT
TORSDOF 0
ENDMDL
