MODEL 1
REMARK minimizedAffinity 2.33007812
REMARK minimizedRMSD -1
REMARK  0 active torsions:
REMARK  status: ('A' for Active; 'I' for Inactive)
ROOT
ATOM      1  C   UNL d   1      -0.981   3.218   3.454  0.00  0.00     0.077 C 
ATOM      2  C1  UNL d   1      -0.115   3.107   2.234  0.00  0.00    -0.074 A 
ATOM      3  C2  UNL d   1      -0.524   3.649   1.011  0.00  0.00    -0.005 A 
ATOM      4  C3  UNL d   1       0.296   3.546  -0.112  0.00  0.00     0.006 A 
ATOM      5  C4  UNL d   1       1.530   2.901  -0.025  0.00  0.00    -0.005 A 
ATOM      6  C5  UNL d   1       1.956   2.354   1.189  0.00  0.00    -0.074 A 
ATOM      7  C6  UNL d   1       3.284   1.665   1.303  0.00  0.00     0.077 C 
ATOM      8  C7  UNL d   1       1.129   2.467   2.316  0.00  0.00    -0.001 A 
ENDROOT
TORSDOF 0
ENDMDL
