MODEL 1
REMARK minimizedAffinity 2.22265959
REMARK minimizedRMSD -1
REMARK  0 active torsions:
REMARK  status: ('A' for Active; 'I' for Inactive)
ROOT
ATOM      1  C   UNL d   1       0.710  -2.455   1.453  0.00  0.00     0.077 C 
ATOM      2  C1  UNL d   1      -0.402  -3.460   1.501  0.00  0.00    -0.074 A 
ATOM      3  C2  UNL d   1      -0.931  -3.890   2.723  0.00  0.00    -0.005 A 
ATOM      4  C3  UNL d   1      -1.971  -4.819   2.751  0.00  0.00     0.006 A 
ATOM      5  C4  UNL d   1      -2.493  -5.326   1.561  0.00  0.00    -0.005 A 
ATOM      6  C5  UNL d   1      -1.978  -4.908   0.330  0.00  0.00    -0.074 A 
ATOM      7  C6  UNL d   1      -2.533  -5.436  -0.959  0.00  0.00     0.077 C 
ATOM      8  C7  UNL d   1      -0.937  -3.969   0.309  0.00  0.00    -0.001 A 
ENDROOT
TORSDOF 0
ENDMDL
