MODEL 1
REMARK minimizedAffinity 8.31472111
REMARK minimizedRMSD -1
REMARK  0 active torsions:
REMARK  status: ('A' for Active; 'I' for Inactive)
ROOT
ATOM      1  C   UNL d   1       2.644   2.432  -0.004  0.00  0.00     0.077 C 
ATOM      2  C1  UNL d   1       1.222   2.238   0.429  0.00  0.00    -0.074 A 
ATOM      3  C2  UNL d   1       0.206   3.079  -0.038  0.00  0.00    -0.005 A 
ATOM      4  C3  UNL d   1      -1.114   2.880   0.367  0.00  0.00     0.006 A 
ATOM      5  C4  UNL d   1      -1.431   1.839   1.241  0.00  0.00    -0.005 A 
ATOM      6  C5  UNL d   1      -0.430   0.988   1.718  0.00  0.00    -0.074 A 
ATOM      7  C6  UNL d   1      -0.756  -0.141   2.650  0.00  0.00     0.077 C 
ATOM      8  C7  UNL d   1       0.893   1.190   1.301  0.00  0.00    -0.001 A 
ENDROOT
TORSDOF 0
ENDMDL
