MODEL 1
REMARK minimizedAffinity 7.38940096
REMARK minimizedRMSD -1
REMARK  0 active torsions:
REMARK  status: ('A' for Active; 'I' for Inactive)
ROOT
ATOM      1  C   UNL d   1       1.374  -0.149  -3.406  0.00  0.00     0.077 C 
ATOM      2  C1  UNL d   1       1.603  -0.002  -1.931  0.00  0.00    -0.074 A 
ATOM      3  C2  UNL d   1       1.810  -1.123  -1.120  0.00  0.00    -0.005 A 
ATOM      4  C3  UNL d   1       2.031  -0.970   0.248  0.00  0.00     0.006 A 
ATOM      5  C4  UNL d   1       2.048   0.303   0.819  0.00  0.00    -0.005 A 
ATOM      6  C5  UNL d   1       1.845   1.435   0.025  0.00  0.00    -0.074 A 
ATOM      7  C6  UNL d   1       1.870   2.811   0.621  0.00  0.00     0.077 C 
ATOM      8  C7  UNL d   1       1.630   1.274  -1.351  0.00  0.00    -0.001 A 
ENDROOT
TORSDOF 0
ENDMDL
