MODEL 1
REMARK minimizedAffinity 3.50307083
REMARK minimizedRMSD -1
REMARK  0 active torsions:
REMARK  status: ('A' for Active; 'I' for Inactive)
ROOT
ATOM      1  C   UNL d   1      -0.637   2.597   3.359  0.00  0.00     0.077 C 
ATOM      2  C1  UNL d   1       0.434   2.590   2.309  0.00  0.00    -0.074 A 
ATOM      3  C2  UNL d   1       0.132   2.869   0.972  0.00  0.00    -0.005 A 
ATOM      4  C3  UNL d   1       1.141   2.868   0.008  0.00  0.00     0.006 A 
ATOM      5  C4  UNL d   1       2.459   2.589   0.371  0.00  0.00    -0.005 A 
ATOM      6  C5  UNL d   1       2.780   2.308   1.703  0.00  0.00    -0.074 A 
ATOM      7  C6  UNL d   1       4.193   2.015   2.111  0.00  0.00     0.077 C 
ATOM      8  C7  UNL d   1       1.762   2.318   2.666  0.00  0.00    -0.001 A 
ENDROOT
TORSDOF 0
ENDMDL
