MODEL 1
REMARK minimizedAffinity -5.32845926
REMARK minimizedRMSD -1
REMARK  0 active torsions:
REMARK  status: ('A' for Active; 'I' for Inactive)
ROOT
ATOM      1  C1  BNZ d   1       2.174  -1.253  -0.105  0.00  0.00     0.000 A 
ATOM      2  C2  BNZ d   1       2.634  -2.187   0.785  0.00  0.00     0.000 A 
ATOM      3  C3  BNZ d   1       2.295  -2.120   2.107  0.00  0.00     0.000 A 
ATOM      4  C4  BNZ d   1       1.532  -1.098   2.545  0.00  0.00     0.000 A 
ATOM      5  C5  BNZ d   1       1.068  -0.143   1.662  0.00  0.00     0.000 A 
ATOM      6  C6  BNZ d   1       1.379  -0.236   0.324  0.00  0.00     0.000 A 
ENDROOT
TORSDOF 0
ENDMDL
