MODEL 1
REMARK minimizedAffinity -4.70290947
REMARK minimizedRMSD -1
REMARK  0 active torsions:
REMARK  status: ('A' for Active; 'I' for Inactive)
ROOT
ATOM      1  C1  BNZ d   1       0.710  -0.578   0.193  0.00  0.00     0.000 A 
ATOM      2  C2  BNZ d   1       1.880  -1.275   0.339  0.00  0.00     0.000 A 
ATOM      3  C3  BNZ d   1       2.273  -1.734   1.565  0.00  0.00     0.000 A 
ATOM      4  C4  BNZ d   1       1.517  -1.462   2.648  0.00  0.00     0.000 A 
ATOM      5  C5  BNZ d   1       0.340  -0.753   2.519  0.00  0.00     0.000 A 
ATOM      6  C6  BNZ d   1      -0.072  -0.325   1.278  0.00  0.00     0.000 A 
ENDROOT
TORSDOF 0
ENDMDL
