MODEL 1
REMARK minimizedAffinity -4.36128902
REMARK minimizedRMSD -1
REMARK  0 active torsions:
REMARK  status: ('A' for Active; 'I' for Inactive)
ROOT
ATOM      1  C1  BNZ d   1       1.843  -0.375   1.167  0.00  0.00     0.000 A 
ATOM      2  C2  BNZ d   1       1.142   0.128   0.103  0.00  0.00     0.000 A 
ATOM      3  C3  BNZ d   1      -0.224   0.149   0.112  0.00  0.00     0.000 A 
ATOM      4  C4  BNZ d   1      -0.888  -0.370   1.165  0.00  0.00     0.000 A 
ATOM      5  C5  BNZ d   1      -0.197  -0.890   2.241  0.00  0.00     0.000 A 
ATOM      6  C6  BNZ d   1       1.179  -0.873   2.245  0.00  0.00     0.000 A 
ENDROOT
TORSDOF 0
ENDMDL
