MODEL 1
REMARK minimizedAffinity -4.05718184
REMARK minimizedRMSD -1
REMARK  0 active torsions:
REMARK  status: ('A' for Active; 'I' for Inactive)
ROOT
ATOM      1  C1  BNZ d   1       2.307  -1.431   1.963  0.00  0.00     0.000 A 
ATOM      2  C2  BNZ d   1       2.229  -0.791   0.755  0.00  0.00     0.000 A 
ATOM      3  C3  BNZ d   1       1.095  -0.122   0.388  0.00  0.00     0.000 A 
ATOM      4  C4  BNZ d   1       0.026  -0.128   1.211  0.00  0.00     0.000 A 
ATOM      5  C5  BNZ d   1       0.085  -0.777   2.428  0.00  0.00     0.000 A 
ATOM      6  C6  BNZ d   1       1.242  -1.416   2.811  0.00  0.00     0.000 A 
ENDROOT
TORSDOF 0
ENDMDL
