MODEL 1
REMARK minimizedAffinity -4.62299252
REMARK minimizedRMSD -1
REMARK  0 active torsions:
REMARK  status: ('A' for Active; 'I' for Inactive)
ROOT
ATOM      1  C1  BNZ d   1       0.151  -0.531   0.912  0.00  0.00     0.000 A 
ATOM      2  C2  BNZ d   1       1.051  -0.687  -0.109  0.00  0.00     0.000 A 
ATOM      3  C3  BNZ d   1       2.293  -1.208   0.127  0.00  0.00     0.000 A 
ATOM      4  C4  BNZ d   1       2.647  -1.534   1.386  0.00  0.00     0.000 A 
ATOM      5  C5  BNZ d   1       1.755  -1.374   2.427  0.00  0.00     0.000 A 
ATOM      6  C6  BNZ d   1       0.492  -0.886   2.181  0.00  0.00     0.000 A 
ENDROOT
TORSDOF 0
ENDMDL
