MODEL 1
REMARK minimizedAffinity -4.67607784
REMARK minimizedRMSD -1
REMARK  0 active torsions:
REMARK  status: ('A' for Active; 'I' for Inactive)
ROOT
ATOM      1  C1  BNZ d   1       1.803  -1.199   1.545  0.00  0.00     0.000 A 
ATOM      2  C2  BNZ d   1       1.222  -1.224   0.306  0.00  0.00     0.000 A 
ATOM      3  C3  BNZ d   1       0.004  -0.642   0.092  0.00  0.00     0.000 A 
ATOM      4  C4  BNZ d   1      -0.649  -0.073   1.125  0.00  0.00     0.000 A 
ATOM      5  C5  BNZ d   1      -0.081  -0.048   2.383  0.00  0.00     0.000 A 
ATOM      6  C6  BNZ d   1       1.163  -0.600   2.586  0.00  0.00     0.000 A 
ENDROOT
TORSDOF 0
ENDMDL
