MODEL 1
REMARK minimizedAffinity -4.7788949
REMARK minimizedRMSD -1
REMARK  0 active torsions:
REMARK  status: ('A' for Active; 'I' for Inactive)
ROOT
ATOM      1  C1  BNZ d   1      -1.987   2.230   0.769  0.00  0.00     0.000 A 
ATOM      2  C2  BNZ d   1      -1.284   2.608   1.882  0.00  0.00     0.000 A 
ATOM      3  C3  BNZ d   1      -0.085   2.025   2.185  0.00  0.00     0.000 A 
ATOM      4  C4  BNZ d   1       0.389   1.038   1.398  0.00  0.00     0.000 A 
ATOM      5  C5  BNZ d   1      -0.312   0.639   0.277  0.00  0.00     0.000 A 
ATOM      6  C6  BNZ d   1      -1.499   1.255  -0.045  0.00  0.00     0.000 A 
ENDROOT
TORSDOF 0
ENDMDL
