MODEL 1
REMARK minimizedAffinity -3.47115278
REMARK minimizedRMSD -1
REMARK  0 active torsions:
REMARK  status: ('A' for Active; 'I' for Inactive)
ROOT
ATOM      1  C1  BNZ d   1       0.638   1.080   2.051  0.00  0.00     0.000 A 
ATOM      2  C2  BNZ d   1      -0.440   1.815   1.634  0.00  0.00     0.000 A 
ATOM      3  C3  BNZ d   1      -1.088   1.509   0.470  0.00  0.00     0.000 A 
ATOM      4  C4  BNZ d   1      -0.634   0.495  -0.295  0.00  0.00     0.000 A 
ATOM      5  C5  BNZ d   1       0.457  -0.249   0.107  0.00  0.00     0.000 A 
ATOM      6  C6  BNZ d   1       1.083   0.037   1.299  0.00  0.00     0.000 A 
ENDROOT
TORSDOF 0
ENDMDL
