MODEL 1
REMARK minimizedAffinity -5.07477856
REMARK minimizedRMSD -1
REMARK  0 active torsions:
REMARK  status: ('A' for Active; 'I' for Inactive)
ROOT
ATOM      1  C1  BNZ d   1      -0.187   0.980  -0.246  0.00  0.00     0.000 A 
ATOM      2  C2  BNZ d   1      -0.426   2.002  -1.124  0.00  0.00     0.000 A 
ATOM      3  C3  BNZ d   1      -0.967   3.182  -0.695  0.00  0.00     0.000 A 
ATOM      4  C4  BNZ d   1      -1.306   3.322   0.602  0.00  0.00     0.000 A 
ATOM      5  C5  BNZ d   1      -1.080   2.297   1.499  0.00  0.00     0.000 A 
ATOM      6  C6  BNZ d   1      -0.499   1.126   1.071  0.00  0.00     0.000 A 
ENDROOT
TORSDOF 0
ENDMDL
