MODEL 1
REMARK minimizedAffinity -2.18597698
REMARK minimizedRMSD -1
REMARK  0 active torsions:
REMARK  status: ('A' for Active; 'I' for Inactive)
ROOT
ATOM      1  C1  BNZ d   1       0.459  -0.456  -0.594  0.00  0.00     0.000 A 
ATOM      2  C2  BNZ d   1      -0.274   0.334   0.251  0.00  0.00     0.000 A 
ATOM      3  C3  BNZ d   1      -0.850   1.490  -0.195  0.00  0.00     0.000 A 
ATOM      4  C4  BNZ d   1      -0.660   1.876  -1.473  0.00  0.00     0.000 A 
ATOM      5  C5  BNZ d   1       0.084   1.096  -2.335  0.00  0.00     0.000 A 
ATOM      6  C6  BNZ d   1       0.630  -0.088  -1.893  0.00  0.00     0.000 A 
ENDROOT
TORSDOF 0
ENDMDL
