MODEL 1
REMARK minimizedAffinity 0.58429414
REMARK minimizedRMSD -1
REMARK  0 active torsions:
REMARK  status: ('A' for Active; 'I' for Inactive)
ROOT
ATOM      1  C1  BNZ d   1      -0.176  -0.760   0.143  0.00  0.00     0.000 A 
ATOM      2  C2  BNZ d   1       0.143  -0.496  -1.162  0.00  0.00     0.000 A 
ATOM      3  C3  BNZ d   1       0.219   0.791  -1.617  0.00  0.00     0.000 A 
ATOM      4  C4  BNZ d   1      -0.064   1.809  -0.779  0.00  0.00     0.000 A 
ATOM      5  C5  BNZ d   1      -0.397   1.558   0.538  0.00  0.00     0.000 A 
ATOM      6  C6  BNZ d   1      -0.434   0.264   1.002  0.00  0.00     0.000 A 
ENDROOT
TORSDOF 0
ENDMDL
