MODEL 1
REMARK minimizedAffinity -2.66243529
REMARK minimizedRMSD -1
REMARK  0 active torsions:
REMARK  status: ('A' for Active; 'I' for Inactive)
ROOT
ATOM      1  C   UNL d   1       2.840  -0.435   1.020  0.00  0.00     0.023 A 
ATOM      2  C1  UNL d   1       1.951  -1.478   0.759  0.00  0.00     0.003 A 
ATOM      3  C2  UNL d   1       0.679  -1.203   0.252  0.00  0.00     0.048 A 
ATOM      4  C3  UNL d   1       0.303   0.117   0.007  0.00  0.00     0.023 A 
ATOM      5  C4  UNL d   1       1.189   1.164   0.267  0.00  0.00     0.048 A 
ATOM      6  C5  UNL d   1       2.459   0.884   0.774  0.00  0.00     0.003 A 
ATOM      7  I   UNL d   1      -1.589   0.529  -0.748  0.00  0.00    -0.146 I 
ENDROOT
TORSDOF 0
ENDMDL
