MODEL 1
REMARK minimizedAffinity -4.28010988
REMARK minimizedRMSD -1
REMARK  0 active torsions:
REMARK  status: ('A' for Active; 'I' for Inactive)
ROOT
ATOM      1  C   UNL d   1       3.244  -1.577   1.800  0.00  0.00     0.023 A 
ATOM      2  C1  UNL d   1       3.429  -0.584   0.838  0.00  0.00     0.003 A 
ATOM      3  C2  UNL d   1       2.327  -0.036   0.178  0.00  0.00     0.048 A 
ATOM      4  C3  UNL d   1       1.043  -0.484   0.485  0.00  0.00     0.023 A 
ATOM      5  C4  UNL d   1       0.853  -1.477   1.448  0.00  0.00     0.048 A 
ATOM      6  C5  UNL d   1       1.958  -2.023   2.105  0.00  0.00     0.003 A 
ATOM      7  I   UNL d   1      -0.598   0.330  -0.496  0.00  0.00    -0.146 I 
ENDROOT
TORSDOF 0
ENDMDL
