MODEL 1
REMARK minimizedAffinity -4.38631439
REMARK minimizedRMSD -1
REMARK  0 active torsions:
REMARK  status: ('A' for Active; 'I' for Inactive)
ROOT
ATOM      1  C   UNL d   1       3.118  -0.128   0.695  0.00  0.00     0.023 A 
ATOM      2  C1  UNL d   1       2.253  -1.176   1.012  0.00  0.00     0.003 A 
ATOM      3  C2  UNL d   1       0.895  -1.081   0.702  0.00  0.00     0.048 A 
ATOM      4  C3  UNL d   1       0.408   0.064   0.074  0.00  0.00     0.023 A 
ATOM      5  C4  UNL d   1       1.269   1.115  -0.246  0.00  0.00     0.048 A 
ATOM      6  C5  UNL d   1       2.626   1.016   0.066  0.00  0.00     0.003 A 
ATOM      7  I   UNL d   1      -1.613   0.208  -0.389  0.00  0.00    -0.146 I 
ENDROOT
TORSDOF 0
ENDMDL
