MODEL 1
REMARK minimizedAffinity -1.5666678
REMARK minimizedRMSD -1
REMARK  0 active torsions:
REMARK  status: ('A' for Active; 'I' for Inactive)
ROOT
ATOM      1  C   UNL d   1       2.613  -0.144   1.280  0.00  0.00     0.023 A 
ATOM      2  C1  UNL d   1       1.658  -1.158   1.354  0.00  0.00     0.003 A 
ATOM      3  C2  UNL d   1       0.420  -0.999   0.729  0.00  0.00     0.048 A 
ATOM      4  C3  UNL d   1       0.143   0.176   0.031  0.00  0.00     0.023 A 
ATOM      5  C4  UNL d   1       1.096   1.193  -0.046  0.00  0.00     0.048 A 
ATOM      6  C5  UNL d   1       2.333   1.030   0.581  0.00  0.00     0.003 A 
ATOM      7  I   UNL d   1      -1.700   0.414  -0.900  0.00  0.00    -0.146 I 
ENDROOT
TORSDOF 0
ENDMDL
