MODEL 1
REMARK minimizedAffinity 2.27855659
REMARK minimizedRMSD -1
REMARK  0 active torsions:
REMARK  status: ('A' for Active; 'I' for Inactive)
ROOT
ATOM      1  C   UNL d   1       1.553   5.550   2.073  0.00  0.00     0.020 A 
ATOM      2  C1  UNL d   1       2.908   5.868   1.989  0.00  0.00     0.020 A 
ATOM      3  C2  UNL d   1       3.668   6.000   3.153  0.00  0.00     0.034 A 
ATOM      4  C3  UNL d   1       3.073   5.813   4.406  0.00  0.00     0.017 A 
ATOM      5  C4  UNL d   1       1.713   5.493   4.490  0.00  0.00     0.017 A 
ATOM      6  C5  UNL d   1       0.957   5.363   3.321  0.00  0.00     0.034 A 
ATOM      7 Cl   UNL d   1       0.910   5.248   6.000  0.00  0.00    -0.070 Cl
ATOM      8 Cl1  UNL d   1       4.073   5.990   5.804  0.00  0.00    -0.070 Cl
ENDROOT
TORSDOF 0
ENDMDL
