MODEL 1
REMARK minimizedAffinity 7.15916586
REMARK minimizedRMSD -1
REMARK  0 active torsions:
REMARK  status: ('A' for Active; 'I' for Inactive)
ROOT
ATOM      1  C   UNL d   1       1.563  -2.345   1.823  0.00  0.00     0.020 A 
ATOM      2  C1  UNL d   1       0.828  -3.310   1.135  0.00  0.00     0.020 A 
ATOM      3  C2  UNL d   1       1.487  -4.330   0.446  0.00  0.00     0.034 A 
ATOM      4  C3  UNL d   1       2.886  -4.388   0.442  0.00  0.00     0.017 A 
ATOM      5  C4  UNL d   1       3.623  -3.418   1.132  0.00  0.00     0.017 A 
ATOM      6  C5  UNL d   1       2.958  -2.399   1.821  0.00  0.00     0.034 A 
ATOM      7 Cl   UNL d   1       5.351  -3.423   1.173  0.00  0.00    -0.070 Cl
ATOM      8 Cl1  UNL d   1       3.634  -5.677  -0.431  0.00  0.00    -0.070 Cl
ENDROOT
TORSDOF 0
ENDMDL
