MODEL 1
REMARK minimizedAffinity 9.51138973
REMARK minimizedRMSD -1
REMARK  0 active torsions:
REMARK  status: ('A' for Active; 'I' for Inactive)
ROOT
ATOM      1  C   UNL d   1       5.204  -5.678  -0.096  0.00  0.00     0.020 A 
ATOM      2  C1  UNL d   1       4.349  -5.154  -1.065  0.00  0.00     0.020 A 
ATOM      3  C2  UNL d   1       3.336  -4.266  -0.696  0.00  0.00     0.034 A 
ATOM      4  C3  UNL d   1       3.176  -3.900   0.646  0.00  0.00     0.017 A 
ATOM      5  C4  UNL d   1       4.034  -4.427   1.618  0.00  0.00     0.017 A 
ATOM      6  C5  UNL d   1       5.046  -5.316   1.242  0.00  0.00     0.034 A 
ATOM      7 Cl   UNL d   1       3.898  -4.022   3.292  0.00  0.00    -0.070 Cl
ATOM      8 Cl1  UNL d   1       1.902  -2.797   1.031  0.00  0.00    -0.070 Cl
ENDROOT
TORSDOF 0
ENDMDL
