MODEL 1
REMARK minimizedAffinity 7.75119925
REMARK minimizedRMSD -1
REMARK  0 active torsions:
REMARK  status: ('A' for Active; 'I' for Inactive)
ROOT
ATOM      1  C   UNL d   1       5.405   6.000   5.197  0.00  0.00     0.020 A 
ATOM      2  C1  UNL d   1       4.274   5.860   6.000  0.00  0.00     0.020 A 
ATOM      3  C2  UNL d   1       3.375   4.817   5.765  0.00  0.00     0.034 A 
ATOM      4  C3  UNL d   1       3.606   3.911   4.724  0.00  0.00     0.017 A 
ATOM      5  C4  UNL d   1       4.741   4.052   3.918  0.00  0.00     0.017 A 
ATOM      6  C5  UNL d   1       5.638   5.098   4.158  0.00  0.00     0.034 A 
ATOM      7 Cl   UNL d   1       5.093   2.972   2.615  0.00  0.00    -0.070 Cl
ATOM      8 Cl1  UNL d   1       2.453   2.645   4.490  0.00  0.00    -0.070 Cl
ENDROOT
TORSDOF 0
ENDMDL
