MODEL 1
REMARK minimizedAffinity 13.4158211
REMARK minimizedRMSD -1
REMARK  0 active torsions:
REMARK  status: ('A' for Active; 'I' for Inactive)
ROOT
ATOM      1  C   UNL d   1       3.546   2.985   3.009  0.00  0.00     0.020 A 
ATOM      2  C1  UNL d   1       2.291   3.144   2.424  0.00  0.00     0.020 A 
ATOM      3  C2  UNL d   1       1.393   4.080   2.941  0.00  0.00     0.034 A 
ATOM      4  C3  UNL d   1       1.750   4.861   4.047  0.00  0.00     0.017 A 
ATOM      5  C4  UNL d   1       3.011   4.701   4.633  0.00  0.00     0.017 A 
ATOM      6  C5  UNL d   1       3.906   3.762   4.111  0.00  0.00     0.034 A 
ATOM      7 Cl   UNL d   1       3.523   5.628   5.999  0.00  0.00    -0.070 Cl
ATOM      8 Cl1  UNL d   1       0.591   6.000   4.634  0.00  0.00    -0.070 Cl
ENDROOT
TORSDOF 0
ENDMDL
