MODEL 1
REMARK minimizedAffinity 9.84172535
REMARK minimizedRMSD -1
REMARK  0 active torsions:
REMARK  status: ('A' for Active; 'I' for Inactive)
ROOT
ATOM      1  C   UNL d   1      -2.602   1.549  -2.749  0.00  0.00     0.020 A 
ATOM      2  C1  UNL d   1      -2.485   2.895  -3.092  0.00  0.00     0.020 A 
ATOM      3  C2  UNL d   1      -3.461   3.501  -3.887  0.00  0.00     0.034 A 
ATOM      4  C3  UNL d   1      -4.558   2.759  -4.341  0.00  0.00     0.017 A 
ATOM      5  C4  UNL d   1      -4.674   1.408  -3.997  0.00  0.00     0.017 A 
ATOM      6  C5  UNL d   1      -3.694   0.807  -3.201  0.00  0.00     0.034 A 
ATOM      7 Cl   UNL d   1      -5.999   0.429  -4.520  0.00  0.00    -0.070 Cl
ATOM      8 Cl1  UNL d   1      -5.727   3.572  -5.320  0.00  0.00    -0.070 Cl
ENDROOT
TORSDOF 0
ENDMDL
