MODEL 1
REMARK minimizedAffinity 8.22262859
REMARK minimizedRMSD -1
REMARK  0 active torsions:
REMARK  status: ('A' for Active; 'I' for Inactive)
ROOT
ATOM      1  C   UNL d   1       0.622  -2.208   0.895  0.00  0.00     0.020 A 
ATOM      2  C1  UNL d   1       1.500  -1.221   1.342  0.00  0.00     0.020 A 
ATOM      3  C2  UNL d   1       2.866  -1.330   1.075  0.00  0.00     0.034 A 
ATOM      4  C3  UNL d   1       3.359  -2.427   0.359  0.00  0.00     0.017 A 
ATOM      5  C4  UNL d   1       2.477  -3.417  -0.089  0.00  0.00     0.017 A 
ATOM      6  C5  UNL d   1       1.110  -3.303   0.181  0.00  0.00     0.034 A 
ATOM      7 Cl   UNL d   1       3.010  -4.800  -0.978  0.00  0.00    -0.070 Cl
ATOM      8 Cl1  UNL d   1       5.060  -2.496   0.065  0.00  0.00    -0.070 Cl
ENDROOT
TORSDOF 0
ENDMDL
