MODEL 1
REMARK minimizedAffinity 2.1159935
REMARK minimizedRMSD -1
REMARK  0 active torsions:
REMARK  status: ('A' for Active; 'I' for Inactive)
ROOT
ATOM      1  C   UNL d   1      -5.446   1.960   5.744  0.00  0.00     0.020 A 
ATOM      2  C1  UNL d   1      -4.277   1.491   5.146  0.00  0.00     0.020 A 
ATOM      3  C2  UNL d   1      -3.262   2.385   4.801  0.00  0.00     0.034 A 
ATOM      4  C3  UNL d   1      -3.413   3.754   5.054  0.00  0.00     0.017 A 
ATOM      5  C4  UNL d   1      -4.587   4.223   5.655  0.00  0.00     0.017 A 
ATOM      6  C5  UNL d   1      -5.601   3.323   5.998  0.00  0.00     0.034 A 
ATOM      7 Cl   UNL d   1      -4.847   5.897   5.998  0.00  0.00    -0.070 Cl
ATOM      8 Cl1  UNL d   1      -2.117   4.803   4.602  0.00  0.00    -0.070 Cl
ENDROOT
TORSDOF 0
ENDMDL
