MODEL 1
REMARK minimizedAffinity 3.99912357
REMARK minimizedRMSD -1
REMARK  0 active torsions:
REMARK  status: ('A' for Active; 'I' for Inactive)
ROOT
ATOM      1  C   UNL d   1       5.984   5.872   4.900  0.00  0.00     0.020 A 
ATOM      2  C1  UNL d   1       5.922   5.962   3.510  0.00  0.00     0.020 A 
ATOM      3  C2  UNL d   1       4.682   6.000   2.867  0.00  0.00     0.034 A 
ATOM      4  C3  UNL d   1       3.500   5.948   3.615  0.00  0.00     0.017 A 
ATOM      5  C4  UNL d   1       3.563   5.858   5.010  0.00  0.00     0.017 A 
ATOM      6  C5  UNL d   1       4.807   5.820   5.648  0.00  0.00     0.034 A 
ATOM      7 Cl   UNL d   1       2.148   5.789   5.999  0.00  0.00    -0.070 Cl
ATOM      8 Cl1  UNL d   1       2.003   6.000   2.754  0.00  0.00    -0.070 Cl
ENDROOT
TORSDOF 0
ENDMDL
