MODEL 1
REMARK minimizedAffinity 2.06120801
REMARK minimizedRMSD -1
REMARK  0 active torsions:
REMARK  status: ('A' for Active; 'I' for Inactive)
ROOT
ATOM      1  C1  BNZ d   1      -3.327   2.650  -0.276  0.00  0.00     0.000 A 
ATOM      2  C2  BNZ d   1      -2.930   2.973   0.994  0.00  0.00     0.000 A 
ATOM      3  C3  BNZ d   1      -3.788   3.593   1.860  0.00  0.00     0.000 A 
ATOM      4  C4  BNZ d   1      -5.027   3.924   1.442  0.00  0.00     0.000 A 
ATOM      5  C5  BNZ d   1      -5.439   3.614   0.161  0.00  0.00     0.000 A 
ATOM      6  C6  BNZ d   1      -4.586   2.955  -0.695  0.00  0.00     0.000 A 
ENDROOT
TORSDOF 0
ENDMDL
