MODEL 1
REMARK minimizedAffinity 8.0581007
REMARK minimizedRMSD -1
REMARK  0 active torsions:
REMARK  status: ('A' for Active; 'I' for Inactive)
ROOT
ATOM      1  C1  BNZ d   1       0.318  -0.322   0.807  0.00  0.00     0.000 A 
ATOM      2  C2  BNZ d   1       0.991  -1.218   0.019  0.00  0.00     0.000 A 
ATOM      3  C3  BNZ d   1       0.355  -1.868  -1.002  0.00  0.00     0.000 A 
ATOM      4  C4  BNZ d   1      -0.960  -1.652  -1.208  0.00  0.00     0.000 A 
ATOM      5  C5  BNZ d   1      -1.654  -0.759  -0.417  0.00  0.00     0.000 A 
ATOM      6  C6  BNZ d   1      -1.002  -0.077   0.585  0.00  0.00     0.000 A 
ENDROOT
TORSDOF 0
ENDMDL
