MODEL 1
REMARK minimizedAffinity 6.41214943
REMARK minimizedRMSD -1
REMARK  0 active torsions:
REMARK  status: ('A' for Active; 'I' for Inactive)
ROOT
ATOM      1  C1  BNZ d   1       4.527   5.947  -5.388  0.00  0.00     0.000 A 
ATOM      2  C2  BNZ d   1       5.780   5.955  -4.835  0.00  0.00     0.000 A 
ATOM      3  C3  BNZ d   1       5.945   5.957  -3.478  0.00  0.00     0.000 A 
ATOM      4  C4  BNZ d   1       4.860   5.991  -2.677  0.00  0.00     0.000 A 
ATOM      5  C5  BNZ d   1       3.591   5.992  -3.220  0.00  0.00     0.000 A 
ATOM      6  C6  BNZ d   1       3.428   5.951  -4.586  0.00  0.00     0.000 A 
ENDROOT
TORSDOF 0
ENDMDL
