MODEL 1
REMARK minimizedAffinity 1.96326554
REMARK minimizedRMSD -1
REMARK  0 active torsions:
REMARK  status: ('A' for Active; 'I' for Inactive)
ROOT
ATOM      1  C1  BNZ d   1       2.077  -1.115   2.334  0.00  0.00     0.000 A 
ATOM      2  C2  BNZ d   1       2.171  -2.429   2.706  0.00  0.00     0.000 A 
ATOM      3  C3  BNZ d   1       2.179  -2.784   4.026  0.00  0.00     0.000 A 
ATOM      4  C4  BNZ d   1       2.132  -1.824   4.971  0.00  0.00     0.000 A 
ATOM      5  C5  BNZ d   1       2.047  -0.493   4.612  0.00  0.00     0.000 A 
ATOM      6  C6  BNZ d   1       2.000  -0.142   3.283  0.00  0.00     0.000 A 
ENDROOT
TORSDOF 0
ENDMDL
