MODEL 1
REMARK minimizedAffinity -3.20100451
REMARK minimizedRMSD -1
REMARK  0 active torsions:
REMARK  status: ('A' for Active; 'I' for Inactive)
ROOT
ATOM      1  C1  BNZ d   1       3.668   0.765  -4.461  0.00  0.00     0.000 A 
ATOM      2  C2  BNZ d   1       3.710   2.025  -4.995  0.00  0.00     0.000 A 
ATOM      3  C3  BNZ d   1       4.873   2.532  -5.505  0.00  0.00     0.000 A 
ATOM      4  C4  BNZ d   1       6.000   1.794  -5.445  0.00  0.00     0.000 A 
ATOM      5  C5  BNZ d   1       5.976   0.525  -4.901  0.00  0.00     0.000 A 
ATOM      6  C6  BNZ d   1       4.796   0.003  -4.424  0.00  0.00     0.000 A 
ENDROOT
TORSDOF 0
ENDMDL
