MODEL 1
REMARK minimizedAffinity 1.57251227
REMARK minimizedRMSD -1
REMARK  0 active torsions:
REMARK  status: ('A' for Active; 'I' for Inactive)
ROOT
ATOM      1  C1  BNZ d   1       2.391  -6.000   5.020  0.00  0.00     0.000 A 
ATOM      2  C2  BNZ d   1       2.999  -4.884   4.509  0.00  0.00     0.000 A 
ATOM      3  C3  BNZ d   1       2.276  -3.758   4.233  0.00  0.00     0.000 A 
ATOM      4  C4  BNZ d   1       0.942  -3.761   4.432  0.00  0.00     0.000 A 
ATOM      5  C5  BNZ d   1       0.313  -4.881   4.938  0.00  0.00     0.000 A 
ATOM      6  C6  BNZ d   1       1.050  -6.000   5.251  0.00  0.00     0.000 A 
ENDROOT
TORSDOF 0
ENDMDL
