MODEL 1
REMARK minimizedAffinity -0.313304991
REMARK minimizedRMSD -1
REMARK  0 active torsions:
REMARK  status: ('A' for Active; 'I' for Inactive)
ROOT
ATOM      1  C1  BNZ d   1       2.986  -5.992  -1.527  0.00  0.00     0.000 A 
ATOM      2  C2  BNZ d   1       2.277  -4.854  -1.249  0.00  0.00     0.000 A 
ATOM      3  C3  BNZ d   1       2.456  -3.719  -1.990  0.00  0.00     0.000 A 
ATOM      4  C4  BNZ d   1       3.372  -3.711  -2.980  0.00  0.00     0.000 A 
ATOM      5  C5  BNZ d   1       4.102  -4.848  -3.266  0.00  0.00     0.000 A 
ATOM      6  C6  BNZ d   1       3.891  -6.000  -2.544  0.00  0.00     0.000 A 
ENDROOT
TORSDOF 0
ENDMDL
