MODEL 1
REMARK minimizedAffinity 6.2144022
REMARK minimizedRMSD -1
REMARK  0 active torsions:
REMARK  status: ('A' for Active; 'I' for Inactive)
ROOT
ATOM      1  C1  BNZ d   1      -5.613   3.177   2.592  0.00  0.00     0.000 A 
ATOM      2  C2  BNZ d   1      -4.393   2.557   2.572  0.00  0.00     0.000 A 
ATOM      3  C3  BNZ d   1      -3.544   2.717   1.513  0.00  0.00     0.000 A 
ATOM      4  C4  BNZ d   1      -3.932   3.464   0.459  0.00  0.00     0.000 A 
ATOM      5  C5  BNZ d   1      -5.163   4.088   0.460  0.00  0.00     0.000 A 
ATOM      6  C6  BNZ d   1      -5.999   3.956   1.545  0.00  0.00     0.000 A 
ENDROOT
TORSDOF 0
ENDMDL
