MODEL 1
REMARK minimizedAffinity -1.78504467
REMARK minimizedRMSD -1
REMARK  0 active torsions:
REMARK  status: ('A' for Active; 'I' for Inactive)
ROOT
ATOM      1  C1  BNZ d   1       2.779   0.146   2.118  0.00  0.00     0.000 A 
ATOM      2  C2  BNZ d   1       1.994   0.248   3.235  0.00  0.00     0.000 A 
ATOM      3  C3  BNZ d   1       2.175  -0.594   4.296  0.00  0.00     0.000 A 
ATOM      4  C4  BNZ d   1       3.111  -1.562   4.223  0.00  0.00     0.000 A 
ATOM      5  C5  BNZ d   1       3.904  -1.684   3.099  0.00  0.00     0.000 A 
ATOM      6  C6  BNZ d   1       3.746  -0.809   2.049  0.00  0.00     0.000 A 
ENDROOT
TORSDOF 0
ENDMDL
