MODEL 1
REMARK minimizedAffinity -3.74111223
REMARK minimizedRMSD -1
REMARK  1 active torsions:
REMARK  status: ('A' for Active; 'I' for Inactive)
REMARK    1  A    between atoms: C1_2  and  C2_3 
ROOT
ATOM      1  C2  UNL d   1       0.094  -0.846  -0.967  0.00  0.00    -0.077 A 
ATOM      2  C3  UNL d   1       0.301   0.005  -2.062  0.00  0.00     0.002 A 
ATOM      3  C4  UNL d   1      -0.354   1.235  -2.134  0.00  0.00     0.002 A 
ATOM      4  C5  UNL d   1      -1.217   1.628  -1.112  0.00  0.00    -0.004 A 
ATOM      5  C6  UNL d   1      -1.431   0.788  -0.020  0.00  0.00     0.002 A 
ATOM      6  C7  UNL d   1      -0.778  -0.443   0.053  0.00  0.00     0.002 A 
ENDROOT
BRANCH   1   7
ATOM      7  C1  UNL d   1       0.837  -2.152  -0.864  0.00  0.00     0.055 C 
ATOM      8  C   UNL d   1      -0.056  -3.328  -1.231  0.00  0.00     0.019 C 
ENDBRANCH   1   7
TORSDOF 1
ENDMDL
