MODEL 1
REMARK minimizedAffinity -1.47653604
REMARK minimizedRMSD -1
REMARK  1 active torsions:
REMARK  status: ('A' for Active; 'I' for Inactive)
REMARK    1  A    between atoms: C1_2  and  C2_3 
ROOT
ATOM      1  C2  UNL d   1      -0.081   0.540   0.414  0.00  0.00    -0.077 A 
ATOM      2  C3  UNL d   1      -1.301   1.177   0.682  0.00  0.00     0.002 A 
ATOM      3  C4  UNL d   1      -1.384   2.152   1.678  0.00  0.00     0.002 A 
ATOM      4  C5  UNL d   1      -0.252   2.501   2.410  0.00  0.00    -0.004 A 
ATOM      5  C6  UNL d   1       0.965   1.871   2.153  0.00  0.00     0.002 A 
ATOM      6  C7  UNL d   1       1.050   0.895   1.158  0.00  0.00     0.002 A 
ENDROOT
BRANCH   1   7
ATOM      7  C1  UNL d   1       0.022  -0.477  -0.693  0.00  0.00     0.055 C 
ATOM      8  C   UNL d   1       0.644   0.127  -1.943  0.00  0.00     0.019 C 
ENDBRANCH   1   7
TORSDOF 1
ENDMDL
