MODEL 1
REMARK minimizedAffinity -3.85763097
REMARK minimizedRMSD -1
REMARK  1 active torsions:
REMARK  status: ('A' for Active; 'I' for Inactive)
REMARK    1  A    between atoms: C1_2  and  C2_3 
ROOT
ATOM      1  C2  UNL d   1       0.091   0.379  -0.140  0.00  0.00    -0.077 A 
ATOM      2  C3  UNL d   1      -1.163   0.979  -0.326  0.00  0.00     0.002 A 
ATOM      3  C4  UNL d   1      -1.701   1.812   0.657  0.00  0.00     0.002 A 
ATOM      4  C5  UNL d   1      -0.990   2.057   1.830  0.00  0.00    -0.004 A 
ATOM      5  C6  UNL d   1       0.256   1.464   2.026  0.00  0.00     0.002 A 
ATOM      6  C7  UNL d   1       0.795   0.630   1.045  0.00  0.00     0.002 A 
ENDROOT
BRANCH   1   7
ATOM      7  C1  UNL d   1       0.694  -0.481  -1.219  0.00  0.00     0.055 C 
ATOM      8  C   UNL d   1       0.081  -1.873  -1.225  0.00  0.00     0.019 C 
ENDBRANCH   1   7
TORSDOF 1
ENDMDL
