MODEL 1
REMARK minimizedAffinity -2.68870592
REMARK minimizedRMSD -1
REMARK  1 active torsions:
REMARK  status: ('A' for Active; 'I' for Inactive)
REMARK    1  A    between atoms: C1_2  and  C2_3 
ROOT
ATOM      1  C2  UNL d   1       0.361  -1.000  -0.586  0.00  0.00    -0.077 A 
ATOM      2  C3  UNL d   1       0.754   0.034  -1.447  0.00  0.00     0.002 A 
ATOM      3  C4  UNL d   1       0.571   1.368  -1.079  0.00  0.00     0.002 A 
ATOM      4  C5  UNL d   1      -0.002   1.680   0.152  0.00  0.00    -0.004 A 
ATOM      5  C6  UNL d   1      -0.398   0.659   1.015  0.00  0.00     0.002 A 
ATOM      6  C7  UNL d   1      -0.217  -0.675   0.648  0.00  0.00     0.002 A 
ENDROOT
BRANCH   1   7
ATOM      7  C1  UNL d   1       0.603  -2.439  -0.960  0.00  0.00     0.055 C 
ATOM      8  C   UNL d   1      -0.527  -2.986  -1.820  0.00  0.00     0.019 C 
ENDBRANCH   1   7
TORSDOF 1
ENDMDL
