MODEL 1
REMARK minimizedAffinity 4.81285238
REMARK minimizedRMSD -1
REMARK  1 active torsions:
REMARK  status: ('A' for Active; 'I' for Inactive)
REMARK    1  A    between atoms: C1_2  and  C2_3 
ROOT
ATOM      1  C2  UNL d   1       2.170  -2.187  -0.515  0.00  0.00    -0.073 A 
ATOM      2  C3  UNL d   1       2.372  -2.578  -1.843  0.00  0.00    -0.002 A 
ATOM      3  C4  UNL d   1       3.122  -1.779  -2.707  0.00  0.00     0.004 A 
ATOM      4  C5  UNL d   1       3.681  -0.585  -2.251  0.00  0.00    -0.004 A 
ATOM      5  C6  UNL d   1       3.500  -0.183  -0.924  0.00  0.00    -0.075 A 
ATOM      6  C7  UNL d   1       4.093   1.099  -0.418  0.00  0.00     0.076 C 
ATOM      7  C8  UNL d   1       2.744  -0.990  -0.063  0.00  0.00     0.001 A 
ENDROOT
BRANCH   1   8
ATOM      8  C1  UNL d   1       1.367  -3.051   0.423  0.00  0.00     0.053 C 
ATOM      9  C   UNL d   1       0.220  -3.752  -0.288  0.00  0.00     0.018 C 
ENDBRANCH   1   8
TORSDOF 1
ENDMDL
