MODEL 1
REMARK minimizedAffinity 0.574678659
REMARK minimizedRMSD -1
REMARK  1 active torsions:
REMARK  status: ('A' for Active; 'I' for Inactive)
REMARK    1  A    between atoms: C1_2  and  C2_3 
ROOT
ATOM      1  C2  UNL d   1       2.064  -1.828  -0.413  0.00  0.00    -0.073 A 
ATOM      2  C3  UNL d   1       2.893  -2.376  -1.398  0.00  0.00    -0.002 A 
ATOM      3  C4  UNL d   1       3.929  -1.620  -1.948  0.00  0.00     0.004 A 
ATOM      4  C5  UNL d   1       4.152  -0.314  -1.514  0.00  0.00    -0.004 A 
ATOM      5  C6  UNL d   1       3.341   0.248  -0.521  0.00  0.00    -0.075 A 
ATOM      6  C7  UNL d   1       3.566   1.653  -0.045  0.00  0.00     0.076 C 
ATOM      7  C8  UNL d   1       2.301  -0.517   0.024  0.00  0.00     0.001 A 
ENDROOT
BRANCH   1   8
ATOM      8  C1  UNL d   1       0.947  -2.643   0.188  0.00  0.00     0.053 C 
ATOM      9  C   UNL d   1      -0.114  -3.000  -0.840  0.00  0.00     0.018 C 
ENDBRANCH   1   8
TORSDOF 1
ENDMDL
