MODEL 1
REMARK minimizedAffinity 6.98295069
REMARK minimizedRMSD -1
REMARK  1 active torsions:
REMARK  status: ('A' for Active; 'I' for Inactive)
REMARK    1  A    between atoms: C1_2  and  C2_3 
ROOT
ATOM      1  C2  UNL d   1      -4.519   1.710  -3.684  0.00  0.00    -0.073 A 
ATOM      2  C3  UNL d   1      -4.984   1.345  -2.415  0.00  0.00    -0.002 A 
ATOM      3  C4  UNL d   1      -5.709   2.253  -1.642  0.00  0.00     0.004 A 
ATOM      4  C5  UNL d   1      -5.983   3.530  -2.131  0.00  0.00    -0.004 A 
ATOM      5  C6  UNL d   1      -5.536   3.910  -3.402  0.00  0.00    -0.075 A 
ATOM      6  C7  UNL d   1      -5.820   5.281  -3.941  0.00  0.00     0.076 C 
ATOM      7  C8  UNL d   1      -4.806   2.993  -4.171  0.00  0.00     0.001 A 
ENDROOT
BRANCH   1   8
ATOM      8  C1  UNL d   1      -3.741   0.731  -4.525  0.00  0.00     0.053 C 
ATOM      9  C   UNL d   1      -2.241   0.950  -4.412  0.00  0.00     0.018 C 
ENDBRANCH   1   8
TORSDOF 1
ENDMDL
