MODEL 1
REMARK minimizedAffinity 8.57181931
REMARK minimizedRMSD -1
REMARK  1 active torsions:
REMARK  status: ('A' for Active; 'I' for Inactive)
REMARK    1  A    between atoms: C1_2  and  C2_3 
ROOT
ATOM      1  C2  UNL d   1       1.233   1.048   0.655  0.00  0.00    -0.073 A 
ATOM      2  C3  UNL d   1       0.951   0.957   2.023  0.00  0.00    -0.002 A 
ATOM      3  C4  UNL d   1      -0.371   0.907   2.468  0.00  0.00     0.004 A 
ATOM      4  C5  UNL d   1      -1.422   0.940   1.552  0.00  0.00    -0.004 A 
ATOM      5  C6  UNL d   1      -1.160   1.019   0.180  0.00  0.00    -0.075 A 
ATOM      6  C7  UNL d   1      -2.279   1.057  -0.819  0.00  0.00     0.076 C 
ATOM      7  C8  UNL d   1       0.170   1.071  -0.259  0.00  0.00     0.001 A 
ENDROOT
BRANCH   1   8
ATOM      8  C1  UNL d   1       2.659   1.097   0.170  0.00  0.00     0.053 C 
ATOM      9  C   UNL d   1       2.920   0.083  -0.933  0.00  0.00     0.018 C 
ENDBRANCH   1   8
TORSDOF 1
ENDMDL
