MODEL 1
REMARK minimizedAffinity 3.68662071
REMARK minimizedRMSD -1
REMARK  1 active torsions:
REMARK  status: ('A' for Active; 'I' for Inactive)
REMARK    1  A    between atoms: C1_2  and  C2_3 
ROOT
ATOM      1  C2  UNL d   1       1.437   0.722   0.576  0.00  0.00    -0.073 A 
ATOM      2  C3  UNL d   1       1.236   0.640   1.959  0.00  0.00    -0.002 A 
ATOM      3  C4  UNL d   1      -0.019   0.910   2.506  0.00  0.00     0.004 A 
ATOM      4  C5  UNL d   1      -1.086   1.257   1.677  0.00  0.00    -0.004 A 
ATOM      5  C6  UNL d   1      -0.908   1.332   0.292  0.00  0.00    -0.075 A 
ATOM      6  C7  UNL d   1      -2.045   1.706  -0.613  0.00  0.00     0.076 C 
ATOM      7  C8  UNL d   1       0.356   1.062  -0.250  0.00  0.00     0.001 A 
ENDROOT
BRANCH   1   8
ATOM      8  C1  UNL d   1       2.789   0.425  -0.019  0.00  0.00     0.053 C 
ATOM      9  C   UNL d   1       3.614   1.686  -0.218  0.00  0.00     0.018 C 
ENDBRANCH   1   8
TORSDOF 1
ENDMDL
