MODEL 1
REMARK minimizedAffinity 16.9751015
REMARK minimizedRMSD -1
REMARK  0 active torsions:
REMARK  status: ('A' for Active; 'I' for Inactive)
ROOT
ATOM      1  C   UNL d   1       1.715   3.084   2.506  0.00  0.00     0.124 A 
ATOM      2  C1  UNL d   1       1.327   2.223   1.489  0.00  0.00     0.062 A 
ATOM      3  C2  UNL d   1       0.122   1.531   1.579  0.00  0.00     0.162 A 
ATOM      4  C3  UNL d   1      -0.704   1.698   2.690  0.00  0.00    -0.034 A 
ATOM      5  C4  UNL d   1      -0.307   2.565   3.709  0.00  0.00     0.162 A 
ATOM      6  C5  UNL d   1       0.898   3.254   3.615  0.00  0.00     0.062 A 
ATOM      7  F   UNL d   1       1.271   4.086   4.598  0.00  0.00    -0.097 F 
ATOM      8  F1  UNL d   1      -1.077   2.749   4.792  0.00  0.00    -0.096 F 
ATOM      9  I   UNL d   1      -2.505   0.665   2.829  0.00  0.00    -0.060 I 
ATOM     10  F2  UNL d   1      -0.227   0.705   0.581  0.00  0.00    -0.096 F 
ATOM     11  F3  UNL d   1       2.114   2.056   0.417  0.00  0.00    -0.097 F 
ATOM     12  F4  UNL d   1       2.874   3.748   2.417  0.00  0.00    -0.092 F 
ENDROOT
TORSDOF 0
ENDMDL
