MODEL 1
REMARK minimizedAffinity 10.5540428
REMARK minimizedRMSD -1
REMARK  0 active torsions:
REMARK  status: ('A' for Active; 'I' for Inactive)
ROOT
ATOM      1  C   UNL d   1       0.383   0.732   0.548  0.00  0.00     0.124 A 
ATOM      2  C1  UNL d   1      -0.663   1.607   0.809  0.00  0.00     0.062 A 
ATOM      3  C2  UNL d   1      -1.768   1.178   1.539  0.00  0.00     0.162 A 
ATOM      4  C3  UNL d   1      -1.833  -0.132   2.015  0.00  0.00    -0.034 A 
ATOM      5  C4  UNL d   1      -0.778  -1.006   1.747  0.00  0.00     0.162 A 
ATOM      6  C5  UNL d   1       0.324  -0.573   1.017  0.00  0.00     0.062 A 
ATOM      7  F   UNL d   1       1.334  -1.419   0.766  0.00  0.00    -0.097 F 
ATOM      8  F1  UNL d   1      -0.808  -2.272   2.189  0.00  0.00    -0.096 F 
ATOM      9  I   UNL d   1      -3.484  -0.776   3.106  0.00  0.00    -0.060 I 
ATOM     10  F2  UNL d   1      -2.764   2.045   1.777  0.00  0.00    -0.096 F 
ATOM     11  F3  UNL d   1      -0.610   2.867   0.357  0.00  0.00    -0.097 F 
ATOM     12  F4  UNL d   1       1.444   1.146  -0.155  0.00  0.00    -0.092 F 
ENDROOT
TORSDOF 0
ENDMDL
