MODEL 1
REMARK minimizedAffinity 12.2032232
REMARK minimizedRMSD -1
REMARK  0 active torsions:
REMARK  status: ('A' for Active; 'I' for Inactive)
ROOT
ATOM      1  C   UNL d   1       2.228   2.432  -5.609  0.00  0.00     0.124 A 
ATOM      2  C1  UNL d   1       0.931   1.939  -5.591  0.00  0.00     0.062 A 
ATOM      3  C2  UNL d   1      -0.151   2.808  -5.700  0.00  0.00     0.162 A 
ATOM      4  C3  UNL d   1       0.060   4.180  -5.831  0.00  0.00    -0.034 A 
ATOM      5  C4  UNL d   1       1.367   4.670  -5.848  0.00  0.00     0.162 A 
ATOM      6  C5  UNL d   1       2.445   3.797  -5.738  0.00  0.00     0.062 A 
ATOM      7  F   UNL d   1       3.697   4.276  -5.756  0.00  0.00    -0.097 F 
ATOM      8  F1  UNL d   1       1.606   5.984  -5.971  0.00  0.00    -0.096 F 
ATOM      9  I   UNL d   1      -1.555   5.483  -5.995  0.00  0.00    -0.060 I 
ATOM     10  F2  UNL d   1      -1.393   2.303  -5.680  0.00  0.00    -0.096 F 
ATOM     11  F3  UNL d   1       0.719   0.621  -5.466  0.00  0.00    -0.097 F 
ATOM     12  F4  UNL d   1       3.267   1.594  -5.502  0.00  0.00    -0.092 F 
ENDROOT
TORSDOF 0
ENDMDL
