MODEL 1
REMARK minimizedAffinity 17.1078568
REMARK minimizedRMSD -1
REMARK  0 active torsions:
REMARK  status: ('A' for Active; 'I' for Inactive)
ROOT
ATOM      1  C   UNL d   1       2.934  -3.447  -3.766  0.00  0.00     0.124 A 
ATOM      2  C1  UNL d   1       3.731  -2.853  -2.797  0.00  0.00     0.062 A 
ATOM      3  C2  UNL d   1       3.152  -2.103  -1.778  0.00  0.00     0.162 A 
ATOM      4  C3  UNL d   1       1.768  -1.942  -1.722  0.00  0.00    -0.034 A 
ATOM      5  C4  UNL d   1       0.973  -2.541  -2.700  0.00  0.00     0.162 A 
ATOM      6  C5  UNL d   1       1.556  -3.291  -3.717  0.00  0.00     0.062 A 
ATOM      7  F   UNL d   1       0.784  -3.864  -4.651  0.00  0.00    -0.097 F 
ATOM      8  F1  UNL d   1      -0.362  -2.407  -2.676  0.00  0.00    -0.096 F 
ATOM      9  I   UNL d   1       0.899  -0.820  -0.200  0.00  0.00    -0.060 I 
ATOM     10  F2  UNL d   1       3.947  -1.540  -0.856  0.00  0.00    -0.096 F 
ATOM     11  F3  UNL d   1       5.063  -3.003  -2.844  0.00  0.00    -0.097 F 
ATOM     12  F4  UNL d   1       3.493  -4.168  -4.746  0.00  0.00    -0.092 F 
ENDROOT
TORSDOF 0
ENDMDL
