MODEL 1
REMARK minimizedAffinity 13.8026066
REMARK minimizedRMSD -1
REMARK  0 active torsions:
REMARK  status: ('A' for Active; 'I' for Inactive)
ROOT
ATOM      1  C   UNL d   1       3.331  -2.934  -3.357  0.00  0.00     0.124 A 
ATOM      2  C1  UNL d   1       2.056  -3.292  -2.940  0.00  0.00     0.062 A 
ATOM      3  C2  UNL d   1       1.359  -2.484  -2.047  0.00  0.00     0.162 A 
ATOM      4  C3  UNL d   1       1.934  -1.307  -1.566  0.00  0.00    -0.034 A 
ATOM      5  C4  UNL d   1       3.217  -0.954  -1.989  0.00  0.00     0.162 A 
ATOM      6  C5  UNL d   1       3.909  -1.766  -2.882  0.00  0.00     0.062 A 
ATOM      7  F   UNL d   1       5.140  -1.418  -3.284  0.00  0.00    -0.097 F 
ATOM      8  F1  UNL d   1       3.799   0.170  -1.547  0.00  0.00    -0.096 F 
ATOM      9  I   UNL d   1       0.895  -0.096  -0.230  0.00  0.00    -0.060 I 
ATOM     10  F2  UNL d   1       0.129  -2.855  -1.660  0.00  0.00    -0.096 F 
ATOM     11  F3  UNL d   1       1.495  -4.421  -3.397  0.00  0.00    -0.097 F 
ATOM     12  F4  UNL d   1       4.000  -3.714  -4.215  0.00  0.00    -0.092 F 
ENDROOT
TORSDOF 0
ENDMDL
