MODEL 1
REMARK minimizedAffinity 13.9703131
REMARK minimizedRMSD -1
REMARK  0 active torsions:
REMARK  status: ('A' for Active; 'I' for Inactive)
ROOT
ATOM      1  C   UNL d   1      -1.158   0.516   0.472  0.00  0.00     0.124 A 
ATOM      2  C1  UNL d   1      -2.411   1.108   0.557  0.00  0.00     0.062 A 
ATOM      3  C2  UNL d   1      -3.338   0.654   1.490  0.00  0.00     0.162 A 
ATOM      4  C3  UNL d   1      -3.016  -0.398   2.348  0.00  0.00    -0.034 A 
ATOM      5  C4  UNL d   1      -1.755  -0.990   2.256  0.00  0.00     0.162 A 
ATOM      6  C5  UNL d   1      -0.832  -0.532   1.321  0.00  0.00     0.062 A 
ATOM      7  F   UNL d   1       0.378  -1.106   1.241  0.00  0.00    -0.097 F 
ATOM      8  F1  UNL d   1      -1.413  -2.004   3.065  0.00  0.00    -0.096 F 
ATOM      9  I   UNL d   1      -4.400  -1.080   3.745  0.00  0.00    -0.060 I 
ATOM     10  F2  UNL d   1      -4.541   1.245   1.550  0.00  0.00    -0.096 F 
ATOM     11  F3  UNL d   1      -2.729   2.120  -0.263  0.00  0.00    -0.097 F 
ATOM     12  F4  UNL d   1      -0.268   0.954  -0.427  0.00  0.00    -0.092 F 
ENDROOT
TORSDOF 0
ENDMDL
