MODEL 1
REMARK minimizedAffinity 12.6688671
REMARK minimizedRMSD -1
REMARK  0 active torsions:
REMARK  status: ('A' for Active; 'I' for Inactive)
ROOT
ATOM      1  C   UNL d   1      -0.026   1.918  -0.165  0.00  0.00     0.124 A 
ATOM      2  C1  UNL d   1       0.674   1.811  -1.359  0.00  0.00     0.062 A 
ATOM      3  C2  UNL d   1       1.374   0.645  -1.658  0.00  0.00     0.162 A 
ATOM      4  C3  UNL d   1       1.376  -0.424  -0.762  0.00  0.00    -0.034 A 
ATOM      5  C4  UNL d   1       0.670  -0.309   0.437  0.00  0.00     0.162 A 
ATOM      6  C5  UNL d   1      -0.028   0.858   0.731  0.00  0.00     0.062 A 
ATOM      7  F   UNL d   1      -0.704   0.960   1.885  0.00  0.00    -0.097 F 
ATOM      8  F1  UNL d   1       0.651  -1.317   1.321  0.00  0.00    -0.096 F 
ATOM      9  I   UNL d   1       2.421  -2.168  -1.205  0.00  0.00    -0.060 I 
ATOM     10  F2  UNL d   1       2.042   0.569  -2.819  0.00  0.00    -0.096 F 
ATOM     11  F3  UNL d   1       0.678   2.833  -2.226  0.00  0.00    -0.097 F 
ATOM     12  F4  UNL d   1      -0.698   3.041   0.120  0.00  0.00    -0.092 F 
ENDROOT
TORSDOF 0
ENDMDL
