MODEL 1
REMARK minimizedAffinity 3.94159198
REMARK minimizedRMSD -1
REMARK  0 active torsions:
REMARK  status: ('A' for Active; 'I' for Inactive)
ROOT
ATOM      1  C   UNL d   1       1.685   3.576  -5.943  0.00  0.00     0.124 A 
ATOM      2  C1  UNL d   1       0.972   2.385  -5.964  0.00  0.00     0.062 A 
ATOM      3  C2  UNL d   1      -0.420   2.403  -5.979  0.00  0.00     0.162 A 
ATOM      4  C3  UNL d   1      -1.108   3.616  -5.973  0.00  0.00    -0.034 A 
ATOM      5  C4  UNL d   1      -0.385   4.809  -5.951  0.00  0.00     0.162 A 
ATOM      6  C5  UNL d   1       1.006   4.786  -5.937  0.00  0.00     0.062 A 
ATOM      7  F   UNL d   1       1.693   5.938  -5.916  0.00  0.00    -0.097 F 
ATOM      8  F1  UNL d   1      -1.015   5.993  -5.945  0.00  0.00    -0.096 F 
ATOM      9  I   UNL d   1      -3.189   3.646  -5.995  0.00  0.00    -0.060 I 
ATOM     10  F2  UNL d   1      -1.083   1.237  -5.999  0.00  0.00    -0.096 F 
ATOM     11  F3  UNL d   1       1.625   1.214  -5.970  0.00  0.00    -0.097 F 
ATOM     12  F4  UNL d   1       3.024   3.556  -5.928  0.00  0.00    -0.092 F 
ENDROOT
TORSDOF 0
ENDMDL
