MODEL 1
REMARK minimizedAffinity 5.8145628
REMARK minimizedRMSD -1
REMARK  0 active torsions:
REMARK  status: ('A' for Active; 'I' for Inactive)
ROOT
ATOM      1  C   UNL d   1      -1.171   4.658  -5.892  0.00  0.00     0.124 A 
ATOM      2  C1  UNL d   1      -1.753   3.399  -5.919  0.00  0.00     0.062 A 
ATOM      3  C2  UNL d   1      -0.955   2.259  -5.946  0.00  0.00     0.162 A 
ATOM      4  C3  UNL d   1       0.435   2.373  -5.944  0.00  0.00    -0.034 A 
ATOM      5  C4  UNL d   1       1.014   3.643  -5.917  0.00  0.00     0.162 A 
ATOM      6  C5  UNL d   1       0.212   4.779  -5.890  0.00  0.00     0.062 A 
ATOM      7  F   UNL d   1       0.776   5.995  -5.863  0.00  0.00    -0.097 F 
ATOM      8  F1  UNL d   1       2.347   3.789  -5.914  0.00  0.00    -0.096 F 
ATOM      9  I   UNL d   1       1.632   0.671  -5.983  0.00  0.00    -0.060 I 
ATOM     10  F2  UNL d   1      -1.545   1.054  -5.972  0.00  0.00    -0.096 F 
ATOM     11  F3  UNL d   1      -3.089   3.279  -5.922  0.00  0.00    -0.097 F 
ATOM     12  F4  UNL d   1      -1.941   5.753  -5.867  0.00  0.00    -0.092 F 
ENDROOT
TORSDOF 0
ENDMDL
