MODEL 1
REMARK minimizedAffinity 20.3021927
REMARK minimizedRMSD -1
REMARK  0 active torsions:
REMARK  status: ('A' for Active; 'I' for Inactive)
ROOT
ATOM      1  C   UNL d   1      -4.905  -0.002   4.011  0.00  0.00     0.124 A 
ATOM      2  C1  UNL d   1      -4.903   0.655   2.788  0.00  0.00     0.062 A 
ATOM      3  C2  UNL d   1      -3.767   0.637   1.985  0.00  0.00     0.162 A 
ATOM      4  C3  UNL d   1      -2.621  -0.041   2.402  0.00  0.00    -0.034 A 
ATOM      5  C4  UNL d   1      -2.630  -0.699   3.633  0.00  0.00     0.162 A 
ATOM      6  C5  UNL d   1      -3.768  -0.678   4.432  0.00  0.00     0.062 A 
ATOM      7  F   UNL d   1      -3.767  -1.314   5.613  0.00  0.00    -0.097 F 
ATOM      8  F1  UNL d   1      -1.545  -1.360   4.064  0.00  0.00    -0.096 F 
ATOM      9  I   UNL d   1      -0.919  -0.069   1.204  0.00  0.00    -0.060 I 
ATOM     10  F2  UNL d   1      -3.794   1.281   0.809  0.00  0.00    -0.096 F 
ATOM     11  F3  UNL d   1      -6.000   1.309   2.380  0.00  0.00    -0.097 F 
ATOM     12  F4  UNL d   1      -5.999   0.017   4.782  0.00  0.00    -0.092 F 
ENDROOT
TORSDOF 0
ENDMDL
