MODEL 1
REMARK minimizedAffinity 22.7887688
REMARK minimizedRMSD -1
REMARK  0 active torsions:
REMARK  status: ('A' for Active; 'I' for Inactive)
ROOT
ATOM      1  C   UNL d   1      -3.369  -1.880   2.987  0.00  0.00     0.124 A 
ATOM      2  C1  UNL d   1      -2.309  -2.369   2.235  0.00  0.00     0.062 A 
ATOM      3  C2  UNL d   1      -2.485  -3.483   1.419  0.00  0.00     0.162 A 
ATOM      4  C3  UNL d   1      -3.726  -4.116   1.350  0.00  0.00    -0.034 A 
ATOM      5  C4  UNL d   1      -4.787  -3.620   2.110  0.00  0.00     0.162 A 
ATOM      6  C5  UNL d   1      -4.606  -2.506   2.924  0.00  0.00     0.062 A 
ATOM      7  F   UNL d   1      -5.631  -2.035   3.650  0.00  0.00    -0.097 F 
ATOM      8  F1  UNL d   1      -5.993  -4.204   2.067  0.00  0.00    -0.096 F 
ATOM      9  I   UNL d   1      -3.993  -5.782   0.132  0.00  0.00    -0.060 I 
ATOM     10  F2  UNL d   1      -1.444  -3.933   0.704  0.00  0.00    -0.096 F 
ATOM     11  F3  UNL d   1      -1.113  -1.767   2.295  0.00  0.00    -0.097 F 
ATOM     12  F4  UNL d   1      -3.197  -0.809   3.772  0.00  0.00    -0.092 F 
ENDROOT
TORSDOF 0
ENDMDL
