MODEL 1
REMARK minimizedAffinity 9.93805122
REMARK minimizedRMSD -1
REMARK  0 active torsions:
REMARK  status: ('A' for Active; 'I' for Inactive)
ROOT
ATOM      1  C   UNL d   1      -4.345  -5.025  -1.230  0.00  0.00     0.124 A 
ATOM      2  C1  UNL d   1      -4.693  -5.380  -2.526  0.00  0.00     0.062 A 
ATOM      3  C2  UNL d   1      -3.704  -5.658  -3.465  0.00  0.00     0.162 A 
ATOM      4  C3  UNL d   1      -2.356  -5.582  -3.111  0.00  0.00    -0.034 A 
ATOM      5  C4  UNL d   1      -2.014  -5.224  -1.806  0.00  0.00     0.162 A 
ATOM      6  C5  UNL d   1      -3.007  -4.947  -0.871  0.00  0.00     0.062 A 
ATOM      7  F   UNL d   1      -2.669  -4.604   0.381  0.00  0.00    -0.097 F 
ATOM      8  F1  UNL d   1      -0.729  -5.142  -1.432  0.00  0.00    -0.096 F 
ATOM      9  I   UNL d   1      -0.874  -5.997  -4.512  0.00  0.00    -0.060 I 
ATOM     10  F2  UNL d   1      -4.069  -5.998  -4.710  0.00  0.00    -0.096 F 
ATOM     11  F3  UNL d   1      -5.985  -5.455  -2.875  0.00  0.00    -0.097 F 
ATOM     12  F4  UNL d   1      -5.299  -4.757  -0.328  0.00  0.00    -0.092 F 
ENDROOT
TORSDOF 0
ENDMDL
