MODEL 1
REMARK minimizedAffinity 17.1215992
REMARK minimizedRMSD -1
REMARK  0 active torsions:
REMARK  status: ('A' for Active; 'I' for Inactive)
ROOT
ATOM      1  C   UNL d   1       2.336  -2.400  -1.687  0.00  0.00     0.124 A 
ATOM      2  C1  UNL d   1       1.106  -3.042  -1.725  0.00  0.00     0.062 A 
ATOM      3  C2  UNL d   1       0.060  -2.599  -0.921  0.00  0.00     0.162 A 
ATOM      4  C3  UNL d   1       0.239  -1.507  -0.071  0.00  0.00    -0.034 A 
ATOM      5  C4  UNL d   1       1.479  -0.868  -0.037  0.00  0.00     0.162 A 
ATOM      6  C5  UNL d   1       2.522  -1.314  -0.843  0.00  0.00     0.062 A 
ATOM      7  F   UNL d   1       3.709  -0.693  -0.805  0.00  0.00    -0.097 F 
ATOM      8  F1  UNL d   1       1.686   0.185   0.769  0.00  0.00    -0.096 F 
ATOM      9  I   UNL d   1      -1.322  -0.843   1.134  0.00  0.00    -0.060 I 
ATOM     10  F2  UNL d   1      -1.118  -3.238  -0.978  0.00  0.00    -0.096 F 
ATOM     11  F3  UNL d   1       0.924  -4.092  -2.539  0.00  0.00    -0.097 F 
ATOM     12  F4  UNL d   1       3.341  -2.829  -2.462  0.00  0.00    -0.092 F 
ENDROOT
TORSDOF 0
ENDMDL
