MODEL 1
REMARK minimizedAffinity 5.763484
REMARK minimizedRMSD -1
REMARK  0 active torsions:
REMARK  status: ('A' for Active; 'I' for Inactive)
ROOT
ATOM      1  C   UNL d   1      -1.050   4.099  -3.047  0.00  0.00     0.124 A 
ATOM      2  C1  UNL d   1       0.111   3.376  -2.814  0.00  0.00     0.062 A 
ATOM      3  C2  UNL d   1       1.210   3.525  -3.656  0.00  0.00     0.162 A 
ATOM      4  C3  UNL d   1       1.152   4.402  -4.739  0.00  0.00    -0.034 A 
ATOM      5  C4  UNL d   1      -0.020   5.125  -4.968  0.00  0.00     0.162 A 
ATOM      6  C5  UNL d   1      -1.115   4.973  -4.124  0.00  0.00     0.062 A 
ATOM      7  F   UNL d   1      -2.236   5.672  -4.351  0.00  0.00    -0.097 F 
ATOM      8  F1  UNL d   1      -0.109   5.977  -6.000  0.00  0.00    -0.096 F 
ATOM      9  I   UNL d   1       2.793   4.628  -6.000  0.00  0.00    -0.060 I 
ATOM     10  F2  UNL d   1       2.319   2.814  -3.407  0.00  0.00    -0.096 F 
ATOM     11  F3  UNL d   1       0.176   2.530  -1.775  0.00  0.00    -0.097 F 
ATOM     12  F4  UNL d   1      -2.106   3.953  -2.236  0.00  0.00    -0.092 F 
ENDROOT
TORSDOF 0
ENDMDL
