MODEL 1
REMARK minimizedAffinity 13.1276779
REMARK minimizedRMSD -1
REMARK  0 active torsions:
REMARK  status: ('A' for Active; 'I' for Inactive)
ROOT
ATOM      1  C   UNL d   1      -1.305  -0.647  -0.936  0.00  0.00     0.124 A 
ATOM      2  C1  UNL d   1       0.003  -0.244  -0.704  0.00  0.00     0.062 A 
ATOM      3  C2  UNL d   1       0.958  -0.352  -1.710  0.00  0.00     0.162 A 
ATOM      4  C3  UNL d   1       0.609  -0.864  -2.960  0.00  0.00    -0.034 A 
ATOM      5  C4  UNL d   1      -0.708  -1.269  -3.186  0.00  0.00     0.162 A 
ATOM      6  C5  UNL d   1      -1.659  -1.159  -2.176  0.00  0.00     0.062 A 
ATOM      7  F   UNL d   1      -2.922  -1.549  -2.403  0.00  0.00    -0.097 F 
ATOM      8  F1  UNL d   1      -1.078  -1.766  -4.375  0.00  0.00    -0.096 F 
ATOM      9  I   UNL d   1       2.034  -1.027  -4.468  0.00  0.00    -0.060 I 
ATOM     10  F2  UNL d   1       2.214   0.046  -1.458  0.00  0.00    -0.096 F 
ATOM     11  F3  UNL d   1       0.348   0.250   0.494  0.00  0.00    -0.097 F 
ATOM     12  F4  UNL d   1      -2.222  -0.544   0.035  0.00  0.00    -0.092 F 
ENDROOT
TORSDOF 0
ENDMDL
