MODEL 1
REMARK minimizedAffinity 14.9577827
REMARK minimizedRMSD -1
REMARK  0 active torsions:
REMARK  status: ('A' for Active; 'I' for Inactive)
ROOT
ATOM      1  C   UNL d   1      -2.589  -0.744   1.589  0.00  0.00     0.124 A 
ATOM      2  C1  UNL d   1      -3.814  -0.094   1.520  0.00  0.00     0.062 A 
ATOM      3  C2  UNL d   1      -4.778  -0.313   2.499  0.00  0.00     0.162 A 
ATOM      4  C3  UNL d   1      -4.522  -1.184   3.557  0.00  0.00    -0.034 A 
ATOM      5  C4  UNL d   1      -3.289  -1.835   3.620  0.00  0.00     0.162 A 
ATOM      6  C5  UNL d   1      -2.328  -1.614   2.639  0.00  0.00     0.062 A 
ATOM      7  F   UNL d   1      -1.145  -2.242   2.708  0.00  0.00    -0.097 F 
ATOM      8  F1  UNL d   1      -3.010  -2.680   4.624  0.00  0.00    -0.096 F 
ATOM      9  I   UNL d   1      -5.963  -1.514   5.023  0.00  0.00    -0.060 I 
ATOM     10  F2  UNL d   1      -5.953   0.329   2.407  0.00  0.00    -0.096 F 
ATOM     11  F3  UNL d   1      -4.069   0.746   0.506  0.00  0.00    -0.097 F 
ATOM     12  F4  UNL d   1      -1.663  -0.533   0.645  0.00  0.00    -0.092 F 
ENDROOT
TORSDOF 0
ENDMDL
