MODEL 1
REMARK minimizedAffinity 10.4915228
REMARK minimizedRMSD -1
REMARK  0 active torsions:
REMARK  status: ('A' for Active; 'I' for Inactive)
ROOT
ATOM      1  C   UNL d   1      -3.641  -1.460   3.748  0.00  0.00     0.124 A 
ATOM      2  C1  UNL d   1      -3.842  -0.570   2.702  0.00  0.00     0.062 A 
ATOM      3  C2  UNL d   1      -2.842  -0.364   1.756  0.00  0.00     0.162 A 
ATOM      4  C3  UNL d   1      -1.632  -1.051   1.850  0.00  0.00    -0.034 A 
ATOM      5  C4  UNL d   1      -1.437  -1.945   2.905  0.00  0.00     0.162 A 
ATOM      6  C5  UNL d   1      -2.439  -2.147   3.848  0.00  0.00     0.062 A 
ATOM      7  F   UNL d   1      -2.243  -3.008   4.857  0.00  0.00    -0.097 F 
ATOM      8  F1  UNL d   1      -0.285  -2.622   3.026  0.00  0.00    -0.096 F 
ATOM      9  I   UNL d   1      -0.135  -0.746   0.438  0.00  0.00    -0.060 I 
ATOM     10  F2  UNL d   1      -3.064   0.503   0.757  0.00  0.00    -0.096 F 
ATOM     11  F3  UNL d   1      -5.002   0.095   2.604  0.00  0.00    -0.097 F 
ATOM     12  F4  UNL d   1      -4.605  -1.656   4.657  0.00  0.00    -0.092 F 
ENDROOT
TORSDOF 0
ENDMDL
