MODEL 1
REMARK minimizedAffinity 9.45052528
REMARK minimizedRMSD -1
REMARK  0 active torsions:
REMARK  status: ('A' for Active; 'I' for Inactive)
ROOT
ATOM      1  C   UNL d   1       1.858   1.608  -1.613  0.00  0.00     0.124 A 
ATOM      2  C1  UNL d   1       1.269   2.713  -1.014  0.00  0.00     0.062 A 
ATOM      3  C2  UNL d   1       0.129   2.559  -0.230  0.00  0.00     0.162 A 
ATOM      4  C3  UNL d   1      -0.428   1.294  -0.038  0.00  0.00    -0.034 A 
ATOM      5  C4  UNL d   1       0.170   0.188  -0.645  0.00  0.00     0.162 A 
ATOM      6  C5  UNL d   1       1.309   0.347  -1.428  0.00  0.00     0.062 A 
ATOM      7  F   UNL d   1       1.877  -0.721  -2.005  0.00  0.00    -0.097 F 
ATOM      8  F1  UNL d   1      -0.339  -1.042  -0.481  0.00  0.00    -0.096 F 
ATOM      9  I   UNL d   1      -2.132   1.060   1.134  0.00  0.00    -0.060 I 
ATOM     10  F2  UNL d   1      -0.420   3.644   0.337  0.00  0.00    -0.096 F 
ATOM     11  F3  UNL d   1       1.797   3.932  -1.192  0.00  0.00    -0.097 F 
ATOM     12  F4  UNL d   1       2.954   1.759  -2.368  0.00  0.00    -0.092 F 
ENDROOT
TORSDOF 0
ENDMDL
