MODEL 1
REMARK minimizedAffinity 15.090601
REMARK minimizedRMSD -1
REMARK  0 active torsions:
REMARK  status: ('A' for Active; 'I' for Inactive)
ROOT
ATOM      1  N1  IND d   1       0.124   2.278   0.097  0.00  0.00    -0.196 N 
ATOM      2  C2  IND d   1       0.151   0.949   0.417  0.00  0.00     0.054 A 
ATOM      3  C3  IND d   1       0.846   0.755   1.560  0.00  0.00    -0.031 A 
ATOM      4  C4  IND d   1       1.937   2.483   3.125  0.00  0.00     0.051 A 
ATOM      5  C5  IND d   1       2.207   3.818   3.234  0.00  0.00    -0.031 A 
ATOM      6  C6  IND d   1       1.786   4.727   2.284  0.00  0.00     0.015 A 
ATOM      7  C7  IND d   1       1.066   4.334   1.192  0.00  0.00    -0.016 A 
ATOM      8  C8  IND d   1       0.796   2.978   1.075  0.00  0.00    -0.047 A 
ATOM      9  C9  IND d   1       1.257   2.046   2.013  0.00  0.00    -0.096 A 
ATOM     10  HN1 IND d   1      -0.249   2.619  -0.599  0.00  0.00     0.298 HD
ENDROOT
TORSDOF 0
ENDMDL
