MODEL 1
REMARK minimizedAffinity 18.9371929
REMARK minimizedRMSD -1
REMARK  0 active torsions:
REMARK  status: ('A' for Active; 'I' for Inactive)
ROOT
ATOM      1  N1  IND d   1      -5.566   5.443  -4.210  0.00  0.00    -0.196 N 
ATOM      2  C2  IND d   1      -5.997   4.688  -5.265  0.00  0.00     0.054 A 
ATOM      3  C3  IND d   1      -5.932   3.372  -4.959  0.00  0.00    -0.031 A 
ATOM      4  C4  IND d   1      -5.244   2.239  -2.752  0.00  0.00     0.051 A 
ATOM      5  C5  IND d   1      -4.737   2.512  -1.513  0.00  0.00    -0.031 A 
ATOM      6  C6  IND d   1      -4.477   3.803  -1.100  0.00  0.00     0.015 A 
ATOM      7  C7  IND d   1      -4.727   4.874  -1.911  0.00  0.00    -0.016 A 
ATOM      8  C8  IND d   1      -5.235   4.599  -3.173  0.00  0.00    -0.047 A 
ATOM      9  C9  IND d   1      -5.461   3.289  -3.613  0.00  0.00    -0.096 A 
ATOM     10  HN1 IND d   1      -5.510   6.301  -4.198  0.00  0.00     0.298 HD
ENDROOT
TORSDOF 0
ENDMDL
