MODEL 1
REMARK minimizedAffinity 8.52282143
REMARK minimizedRMSD -1
REMARK  0 active torsions:
REMARK  status: ('A' for Active; 'I' for Inactive)
ROOT
ATOM      1  N1  IND d   1       1.790   1.972   3.553  0.00  0.00    -0.196 N 
ATOM      2  C2  IND d   1       1.487   3.241   3.142  0.00  0.00     0.054 A 
ATOM      3  C3  IND d   1       0.607   3.205   2.117  0.00  0.00    -0.031 A 
ATOM      4  C4  IND d   1      -0.548   1.182   1.021  0.00  0.00     0.051 A 
ATOM      5  C5  IND d   1      -0.564  -0.185   1.031  0.00  0.00    -0.031 A 
ATOM      6  C6  IND d   1       0.217  -0.917   1.902  0.00  0.00     0.015 A 
ATOM      7  C7  IND d   1       1.039  -0.307   2.806  0.00  0.00    -0.016 A 
ATOM      8  C8  IND d   1       1.064   1.081   2.794  0.00  0.00    -0.047 A 
ATOM      9  C9  IND d   1       0.305   1.828   1.885  0.00  0.00    -0.096 A 
ATOM     10  HN1 IND d   1       2.341   1.766   4.179  0.00  0.00     0.298 HD
ENDROOT
TORSDOF 0
ENDMDL
