MODEL 1
REMARK minimizedAffinity 14.582304
REMARK minimizedRMSD -1
REMARK  0 active torsions:
REMARK  status: ('A' for Active; 'I' for Inactive)
ROOT
ATOM      1  N1  IND d   1      -0.229   1.713  -0.488  0.00  0.00    -0.196 N 
ATOM      2  C2  IND d   1      -0.170   0.447   0.026  0.00  0.00     0.054 A 
ATOM      3  C3  IND d   1       0.415   0.460   1.244  0.00  0.00    -0.031 A 
ATOM      4  C4  IND d   1       1.260   2.457   2.631  0.00  0.00     0.051 A 
ATOM      5  C5  IND d   1       1.454   3.809   2.566  0.00  0.00    -0.031 A 
ATOM      6  C6  IND d   1       1.087   4.546   1.459  0.00  0.00     0.015 A 
ATOM      7  C7  IND d   1       0.500   3.958   0.375  0.00  0.00    -0.016 A 
ATOM      8  C8  IND d   1       0.308   2.585   0.434  0.00  0.00    -0.047 A 
ATOM      9  C9  IND d   1       0.717   1.825   1.538  0.00  0.00    -0.096 A 
ATOM     10  HN1 IND d   1      -0.546   1.928  -1.257  0.00  0.00     0.298 HD
ENDROOT
TORSDOF 0
ENDMDL
