MODEL 1
REMARK minimizedAffinity -6.19864893
REMARK minimizedRMSD -1
REMARK  0 active torsions:
REMARK  status: ('A' for Active; 'I' for Inactive)
ROOT
ATOM      1  N1  IND d   1      -2.039   2.691   1.188  0.00  0.00    -0.196 N 
ATOM      2  C2  IND d   1      -1.567   3.897   0.752  0.00  0.00     0.054 A 
ATOM      3  C3  IND d   1      -0.955   3.758  -0.446  0.00  0.00    -0.031 A 
ATOM      4  C4  IND d   1      -0.702   1.662  -1.919  0.00  0.00     0.051 A 
ATOM      5  C5  IND d   1      -0.939   0.316  -1.927  0.00  0.00    -0.031 A 
ATOM      6  C6  IND d   1      -1.569  -0.320  -0.877  0.00  0.00     0.015 A 
ATOM      7  C7  IND d   1      -1.999   0.372   0.220  0.00  0.00    -0.016 A 
ATOM      8  C8  IND d   1      -1.754   1.738   0.235  0.00  0.00    -0.047 A 
ATOM      9  C9  IND d   1      -1.076   2.381  -0.809  0.00  0.00    -0.096 A 
ATOM     10  HN1 IND d   1      -2.445   2.550   1.933  0.00  0.00     0.298 HD
ENDROOT
TORSDOF 0
ENDMDL
