MODEL 1
REMARK minimizedAffinity -3.35053062
REMARK minimizedRMSD -1
REMARK  0 active torsions:
REMARK  status: ('A' for Active; 'I' for Inactive)
ROOT
ATOM      1  N1  IND d   1       1.829   1.733   2.177  0.00  0.00    -0.196 N 
ATOM      2  C2  IND d   1       2.298   2.719   3.000  0.00  0.00     0.054 A 
ATOM      3  C3  IND d   1       1.468   3.785   2.976  0.00  0.00    -0.031 A 
ATOM      4  C4  IND d   1      -0.769   4.089   1.739  0.00  0.00     0.051 A 
ATOM      5  C5  IND d   1      -1.593   3.477   0.836  0.00  0.00    -0.031 A 
ATOM      6  C6  IND d   1      -1.313   2.226   0.326  0.00  0.00     0.015 A 
ATOM      7  C7  IND d   1      -0.201   1.532   0.710  0.00  0.00    -0.016 A 
ATOM      8  C8  IND d   1       0.641   2.154   1.621  0.00  0.00    -0.047 A 
ATOM      9  C9  IND d   1       0.385   3.441   2.110  0.00  0.00    -0.096 A 
ATOM     10  HN1 IND d   1       2.212   0.977   2.032  0.00  0.00     0.298 HD
ENDROOT
TORSDOF 0
ENDMDL
