MODEL 1
REMARK minimizedAffinity -3.17356896
REMARK minimizedRMSD -1
REMARK  0 active torsions:
REMARK  status: ('A' for Active; 'I' for Inactive)
ROOT
ATOM      1  N1  IND d   1       0.053  -0.046  -0.868  0.00  0.00    -0.196 N 
ATOM      2  C2  IND d   1       0.408  -0.731   0.261  0.00  0.00     0.054 A 
ATOM      3  C3  IND d   1       0.229   0.042   1.356  0.00  0.00    -0.031 A 
ATOM      4  C4  IND d   1      -0.732   2.423   1.538  0.00  0.00     0.051 A 
ATOM      5  C5  IND d   1      -1.163   3.472   0.776  0.00  0.00    -0.031 A 
ATOM      6  C6  IND d   1      -1.213   3.400  -0.602  0.00  0.00     0.015 A 
ATOM      7  C7  IND d   1      -0.845   2.267  -1.270  0.00  0.00    -0.016 A 
ATOM      8  C8  IND d   1      -0.400   1.202  -0.499  0.00  0.00    -0.047 A 
ATOM      9  C9  IND d   1      -0.306   1.284   0.896  0.00  0.00    -0.096 A 
ATOM     10  HN1 IND d   1       0.104  -0.344  -1.673  0.00  0.00     0.298 HD
ENDROOT
TORSDOF 0
ENDMDL
