MODEL 1
REMARK minimizedAffinity 5.13946247
REMARK minimizedRMSD -1
REMARK  0 active torsions:
REMARK  status: ('A' for Active; 'I' for Inactive)
ROOT
ATOM      1  N1  IND d   1      -1.634   0.133   0.615  0.00  0.00    -0.196 N 
ATOM      2  C2  IND d   1      -2.292   0.741  -0.417  0.00  0.00     0.054 A 
ATOM      3  C3  IND d   1      -1.477   0.858  -1.490  0.00  0.00    -0.031 A 
ATOM      4  C4  IND d   1       0.939   0.029  -1.807  0.00  0.00     0.051 A 
ATOM      5  C5  IND d   1       1.976  -0.552  -1.132  0.00  0.00    -0.031 A 
ATOM      6  C6  IND d   1       1.859  -0.945   0.185  0.00  0.00     0.015 A 
ATOM      7  C7  IND d   1       0.692  -0.781   0.877  0.00  0.00    -0.016 A 
ATOM      8  C8  IND d   1      -0.361  -0.185   0.197  0.00  0.00    -0.047 A 
ATOM      9  C9  IND d   1      -0.234   0.255  -1.127  0.00  0.00    -0.096 A 
ATOM     10  HN1 IND d   1      -1.961  -0.024   1.395  0.00  0.00     0.298 HD
ENDROOT
TORSDOF 0
ENDMDL
