MODEL 1
REMARK minimizedAffinity 0.240268707
REMARK minimizedRMSD -1
REMARK  0 active torsions:
REMARK  status: ('A' for Active; 'I' for Inactive)
ROOT
ATOM      1  N1  IND d   1       0.433   3.969  -1.602  0.00  0.00    -0.196 N 
ATOM      2  C2  IND d   1       0.663   5.263  -1.226  0.00  0.00     0.054 A 
ATOM      3  C3  IND d   1       0.867   5.336   0.108  0.00  0.00    -0.031 A 
ATOM      4  C4  IND d   1       0.967   3.446   1.853  0.00  0.00     0.051 A 
ATOM      5  C5  IND d   1       0.782   2.099   1.995  0.00  0.00    -0.031 A 
ATOM      6  C6  IND d   1       0.468   1.290   0.922  0.00  0.00     0.015 A 
ATOM      7  C7  IND d   1       0.337   1.798  -0.339  0.00  0.00    -0.016 A 
ATOM      8  C8  IND d   1       0.517   3.166  -0.485  0.00  0.00    -0.047 A 
ATOM      9  C9  IND d   1       0.795   3.999   0.606  0.00  0.00    -0.096 A 
ATOM     10  HN1 IND d   1       0.264   3.701  -2.402  0.00  0.00     0.298 HD
ENDROOT
TORSDOF 0
ENDMDL
