MODEL 1
REMARK minimizedAffinity -0.609239817
REMARK minimizedRMSD -1
REMARK  0 active torsions:
REMARK  status: ('A' for Active; 'I' for Inactive)
ROOT
ATOM      1  N1  IND d   1      -0.080   2.459   0.068  0.00  0.00    -0.196 N 
ATOM      2  C2  IND d   1      -0.276   1.722  -1.067  0.00  0.00     0.054 A 
ATOM      3  C3  IND d   1       0.050   0.428  -0.850  0.00  0.00    -0.031 A 
ATOM      4  C4  IND d   1       0.828  -0.720   1.319  0.00  0.00     0.051 A 
ATOM      5  C5  IND d   1       1.189  -0.453   2.610  0.00  0.00    -0.031 A 
ATOM      6  C6  IND d   1       1.142   0.823   3.131  0.00  0.00     0.015 A 
ATOM      7  C7  IND d   1       0.719   1.884   2.380  0.00  0.00    -0.016 A 
ATOM      8  C8  IND d   1       0.359   1.618   1.067  0.00  0.00    -0.047 A 
ATOM      9  C9  IND d   1       0.445   0.331   0.520  0.00  0.00    -0.096 A 
ATOM     10  HN1 IND d   1      -0.209   3.306   0.145  0.00  0.00     0.298 HD
ENDROOT
TORSDOF 0
ENDMDL
