MODEL 1
REMARK minimizedAffinity 4.03842354
REMARK minimizedRMSD -1
REMARK  0 active torsions:
REMARK  status: ('A' for Active; 'I' for Inactive)
ROOT
ATOM      1  N1  IND d   1       2.622   5.442   0.063  0.00  0.00    -0.196 N 
ATOM      2  C2  IND d   1       1.592   5.680  -0.804  0.00  0.00     0.054 A 
ATOM      3  C3  IND d   1       0.498   4.975  -0.439  0.00  0.00    -0.031 A 
ATOM      4  C4  IND d   1       0.143   3.446   1.602  0.00  0.00     0.051 A 
ATOM      5  C5  IND d   1       0.807   2.890   2.660  0.00  0.00    -0.031 A 
ATOM      6  C6  IND d   1       2.135   3.164   2.912  0.00  0.00     0.015 A 
ATOM      7  C7  IND d   1       2.850   4.017   2.120  0.00  0.00    -0.016 A 
ATOM      8  C8  IND d   1       2.182   4.578   1.041  0.00  0.00    -0.047 A 
ATOM      9  C9  IND d   1       0.845   4.270   0.755  0.00  0.00    -0.096 A 
ATOM     10  HN1 IND d   1       3.413   5.775   0.006  0.00  0.00     0.298 HD
ENDROOT
TORSDOF 0
ENDMDL
