MODEL 1
REMARK minimizedAffinity -1.80205882
REMARK minimizedRMSD -1
REMARK  0 active torsions:
REMARK  status: ('A' for Active; 'I' for Inactive)
ROOT
ATOM      1  N1  IND d   1       0.426   1.763  -0.991  0.00  0.00    -0.196 N 
ATOM      2  C2  IND d   1       0.800   0.635  -1.667  0.00  0.00     0.054 A 
ATOM      3  C3  IND d   1       1.353  -0.261  -0.819  0.00  0.00    -0.031 A 
ATOM      4  C4  IND d   1       1.653  -0.126   1.735  0.00  0.00     0.051 A 
ATOM      5  C5  IND d   1       1.498   0.724   2.794  0.00  0.00    -0.031 A 
ATOM      6  C6  IND d   1       0.964   1.988   2.643  0.00  0.00     0.015 A 
ATOM      7  C7  IND d   1       0.554   2.447   1.424  0.00  0.00    -0.016 A 
ATOM      8  C8  IND d   1       0.716   1.589   0.345  0.00  0.00    -0.047 A 
ATOM      9  C9  IND d   1       1.296   0.322   0.485  0.00  0.00    -0.096 A 
ATOM     10  HN1 IND d   1       0.070   2.463  -1.341  0.00  0.00     0.298 HD
ENDROOT
TORSDOF 0
ENDMDL
