MODEL 1
REMARK minimizedAffinity -0.374138057
REMARK minimizedRMSD -1
REMARK  0 active torsions:
REMARK  status: ('A' for Active; 'I' for Inactive)
ROOT
ATOM      1  N1  IND d   1       2.413   5.865   0.006  0.00  0.00    -0.196 N 
ATOM      2  C2  IND d   1       1.363   5.869  -0.869  0.00  0.00     0.054 A 
ATOM      3  C3  IND d   1       0.477   4.901  -0.545  0.00  0.00    -0.031 A 
ATOM      4  C4  IND d   1       0.497   3.263   1.441  0.00  0.00     0.051 A 
ATOM      5  C5  IND d   1       1.269   2.855   2.493  0.00  0.00    -0.031 A 
ATOM      6  C6  IND d   1       2.485   3.442   2.776  0.00  0.00     0.015 A 
ATOM      7  C7  IND d   1       2.971   4.473   2.022  0.00  0.00    -0.016 A 
ATOM      8  C8  IND d   1       2.194   4.885   0.950  0.00  0.00    -0.047 A 
ATOM      9  C9  IND d   1       0.979   4.265   0.632  0.00  0.00    -0.096 A 
ATOM     10  HN1 IND d   1       3.096   6.386  -0.027  0.00  0.00     0.298 HD
ENDROOT
TORSDOF 0
ENDMDL
