MODEL 1
REMARK minimizedAffinity -3.97962928
REMARK minimizedRMSD -1
REMARK  2 active torsions:
REMARK  status: ('A' for Active; 'I' for Inactive)
REMARK    1  A    between atoms: C2'_3  and  C1'_4 
REMARK    2  A    between atoms: C1'_4  and  C1_5 
ROOT
ATOM      1  C1  I4B d   1       0.373  -0.305   0.113  0.00  0.00    -0.075 A 
ATOM      2  C2  I4B d   1      -0.092   0.984   0.035  0.00  0.00     0.003 A 
ATOM      3  C3  I4B d   1      -0.962   1.490   1.031  0.00  0.00     0.002 A 
ATOM      4  C4  I4B d   1      -1.378   0.662   2.054  0.00  0.00    -0.004 A 
ATOM      5  C5  I4B d   1      -0.887  -0.638   2.144  0.00  0.00     0.002 A 
ATOM      6  C6  I4B d   1       0.004  -1.121   1.174  0.00  0.00     0.003 A 
ENDROOT
BRANCH   1   7
ATOM      7  C1' I4B d   1       1.264  -0.816  -0.975  0.00  0.00     0.060 C 
BRANCH   7   8
ATOM      8  C2' I4B d   1       0.639  -2.078  -1.535  0.00  0.00    -0.013 C 
ATOM      9  C4' I4B d   1       0.172  -1.872  -2.952  0.00  0.00     0.013 C 
ATOM     10  C3' I4B d   1       1.659  -3.175  -1.455  0.00  0.00     0.013 C 
ENDBRANCH   7   8
ENDBRANCH   1   7
TORSDOF 2
ENDMDL
