MODEL 1
REMARK minimizedAffinity -5.30419207
REMARK minimizedRMSD -1
REMARK  2 active torsions:
REMARK  status: ('A' for Active; 'I' for Inactive)
REMARK    1  A    between atoms: C2'_3  and  C1'_4 
REMARK    2  A    between atoms: C1'_4  and  C1_5 
ROOT
ATOM      1  C1  I4B d   1       0.216   0.064   0.023  0.00  0.00    -0.075 A 
ATOM      2  C2  I4B d   1      -0.477   1.162  -0.421  0.00  0.00     0.003 A 
ATOM      3  C3  I4B d   1      -1.316   1.882   0.464  0.00  0.00     0.002 A 
ATOM      4  C4  I4B d   1      -1.472   1.441   1.762  0.00  0.00    -0.004 A 
ATOM      5  C5  I4B d   1      -0.752   0.340   2.217  0.00  0.00     0.002 A 
ATOM      6  C6  I4B d   1       0.107  -0.346   1.346  0.00  0.00     0.003 A 
ENDROOT
BRANCH   1   7
ATOM      7  C1' I4B d   1       1.068  -0.692  -0.946  0.00  0.00     0.060 C 
BRANCH   7   8
ATOM      8  C2' I4B d   1       0.417  -2.039  -1.188  0.00  0.00    -0.013 C 
ATOM      9  C4' I4B d   1       0.046  -2.212  -2.638  0.00  0.00     0.013 C 
ATOM     10  C3' I4B d   1       1.375  -3.103  -0.744  0.00  0.00     0.013 C 
ENDBRANCH   7   8
ENDBRANCH   1   7
TORSDOF 2
ENDMDL
