MODEL 1
REMARK minimizedAffinity -5.09044743
REMARK minimizedRMSD -1
REMARK  2 active torsions:
REMARK  status: ('A' for Active; 'I' for Inactive)
REMARK    1  A    between atoms: C2'_3  and  C1'_4 
REMARK    2  A    between atoms: C1'_4  and  C1_5 
ROOT
ATOM      1  C1  I4B d   1       0.413   0.178   0.171  0.00  0.00    -0.075 A 
ATOM      2  C2  I4B d   1      -0.290  -0.524   1.118  0.00  0.00     0.003 A 
ATOM      3  C3  I4B d   1      -1.183   0.149   1.986  0.00  0.00     0.002 A 
ATOM      4  C4  I4B d   1      -1.304   1.521   1.907  0.00  0.00    -0.004 A 
ATOM      5  C5  I4B d   1      -0.608   2.228   0.931  0.00  0.00     0.002 A 
ATOM      6  C6  I4B d   1       0.247   1.552   0.049  0.00  0.00     0.003 A 
ENDROOT
BRANCH   1   7
ATOM      7  C1' I4B d   1       1.373  -0.559  -0.708  0.00  0.00     0.060 C 
BRANCH   7   8
ATOM      8  C2' I4B d   1       0.818  -1.950  -0.942  0.00  0.00    -0.013 C 
ATOM      9  C4' I4B d   1       0.378  -2.128  -2.371  0.00  0.00     0.013 C 
ATOM     10  C3' I4B d   1       1.883  -2.941  -0.576  0.00  0.00     0.013 C 
ENDBRANCH   7   8
ENDBRANCH   1   7
TORSDOF 2
ENDMDL
