MODEL 1
REMARK minimizedAffinity -6.54080677
REMARK minimizedRMSD -1
REMARK  2 active torsions:
REMARK  status: ('A' for Active; 'I' for Inactive)
REMARK    1  A    between atoms: C2'_3  and  C1'_4 
REMARK    2  A    between atoms: C1'_4  and  C1_5 
ROOT
ATOM      1  C1  I4B d   1      -0.350   0.821   0.306  0.00  0.00    -0.075 A 
ATOM      2  C2  I4B d   1      -0.976   0.985   1.517  0.00  0.00     0.003 A 
ATOM      3  C3  I4B d   1      -1.597   2.217   1.837  0.00  0.00     0.002 A 
ATOM      4  C4  I4B d   1      -1.525   3.266   0.944  0.00  0.00    -0.004 A 
ATOM      5  C5  I4B d   1      -0.909   3.091  -0.292  0.00  0.00     0.002 A 
ATOM      6  C6  I4B d   1      -0.328   1.857  -0.618  0.00  0.00     0.003 A 
ENDROOT
BRANCH   1   7
ATOM      7  C1' I4B d   1       0.324  -0.482   0.014  0.00  0.00     0.060 C 
BRANCH   7   8
ATOM      8  C2' I4B d   1       0.956  -0.383  -1.359  0.00  0.00    -0.013 C 
ATOM      9  C4' I4B d   1       2.435  -0.118  -1.261  0.00  0.00     0.013 C 
ATOM     10  C3' I4B d   1       0.683  -1.665  -2.088  0.00  0.00     0.013 C 
ENDBRANCH   7   8
ENDBRANCH   1   7
TORSDOF 2
ENDMDL
