MODEL 1
REMARK minimizedAffinity -4.79518318
REMARK minimizedRMSD -1
REMARK  2 active torsions:
REMARK  status: ('A' for Active; 'I' for Inactive)
REMARK    1  A    between atoms: C2'_3  and  C1'_4 
REMARK    2  A    between atoms: C1'_4  and  C1_5 
ROOT
ATOM      1  C1  I4B d   1       0.273   0.083  -0.239  0.00  0.00    -0.075 A 
ATOM      2  C2  I4B d   1      -0.201   1.274  -0.730  0.00  0.00     0.003 A 
ATOM      3  C3  I4B d   1      -1.150   2.022   0.009  0.00  0.00     0.002 A 
ATOM      4  C4  I4B d   1      -1.632   1.520   1.201  0.00  0.00    -0.004 A 
ATOM      5  C5  I4B d   1      -1.133   0.324   1.707  0.00  0.00     0.002 A 
ATOM      6  C6  I4B d   1      -0.165  -0.394   0.989  0.00  0.00     0.003 A 
ENDROOT
BRANCH   1   7
ATOM      7  C1' I4B d   1       1.250  -0.697  -1.061  0.00  0.00     0.060 C 
BRANCH   7   8
ATOM      8  C2' I4B d   1       0.569  -1.975  -1.507  0.00  0.00    -0.013 C 
ATOM      9  C4' I4B d   1       0.018  -1.841  -2.902  0.00  0.00     0.013 C 
ATOM     10  C3' I4B d   1       1.572  -3.086  -1.425  0.00  0.00     0.013 C 
ENDBRANCH   7   8
ENDBRANCH   1   7
TORSDOF 2
ENDMDL
