MODEL 1
REMARK minimizedAffinity -5.49464321
REMARK minimizedRMSD -1
REMARK  2 active torsions:
REMARK  status: ('A' for Active; 'I' for Inactive)
REMARK    1  A    between atoms: C2'_3  and  C1'_4 
REMARK    2  A    between atoms: C1'_4  and  C1_5 
ROOT
ATOM      1  C1  I4B d   1      -0.319   0.710   0.177  0.00  0.00    -0.075 A 
ATOM      2  C2  I4B d   1      -1.019   0.901   1.342  0.00  0.00     0.003 A 
ATOM      3  C3  I4B d   1      -1.753   2.095   1.544  0.00  0.00     0.002 A 
ATOM      4  C4  I4B d   1      -1.718   3.085   0.584  0.00  0.00    -0.004 A 
ATOM      5  C5  I4B d   1      -1.027   2.880  -0.606  0.00  0.00     0.002 A 
ATOM      6  C6  I4B d   1      -0.333   1.680  -0.817  0.00  0.00     0.003 A 
ENDROOT
BRANCH   1   7
ATOM      7  C1' I4B d   1       0.472  -0.549   0.010  0.00  0.00     0.060 C 
BRANCH   7   8
ATOM      8  C2' I4B d   1       0.914  -0.634  -1.437  0.00  0.00    -0.013 C 
ATOM      9  C4' I4B d   1       2.357  -0.232  -1.591  0.00  0.00     0.013 C 
ATOM     10  C3' I4B d   1       0.690  -2.040  -1.907  0.00  0.00     0.013 C 
ENDBRANCH   7   8
ENDBRANCH   1   7
TORSDOF 2
ENDMDL
