MODEL 1
REMARK minimizedAffinity -6.08516026
REMARK minimizedRMSD -1
REMARK  2 active torsions:
REMARK  status: ('A' for Active; 'I' for Inactive)
REMARK    1  A    between atoms: C2'_3  and  C1'_4 
REMARK    2  A    between atoms: C1'_4  and  C1_5 
ROOT
ATOM      1  C1  I4B d   1      -0.316   1.219  -0.241  0.00  0.00    -0.075 A 
ATOM      2  C2  I4B d   1      -1.229   0.756   0.674  0.00  0.00     0.003 A 
ATOM      3  C3  I4B d   1      -2.200   1.632   1.218  0.00  0.00     0.002 A 
ATOM      4  C4  I4B d   1      -2.189   2.964   0.860  0.00  0.00    -0.004 A 
ATOM      5  C5  I4B d   1      -1.278   3.427  -0.085  0.00  0.00     0.002 A 
ATOM      6  C6  I4B d   1      -0.343   2.546  -0.648  0.00  0.00     0.003 A 
ENDROOT
BRANCH   1   7
ATOM      7  C1' I4B d   1       0.716   0.274  -0.770  0.00  0.00     0.060 C 
BRANCH   7   8
ATOM      8  C2' I4B d   1       0.571  -1.039  -0.029  0.00  0.00    -0.013 C 
ATOM      9  C4' I4B d   1       1.112  -2.186  -0.841  0.00  0.00     0.013 C 
ATOM     10  C3' I4B d   1       1.293  -0.914   1.280  0.00  0.00     0.013 C 
ENDBRANCH   7   8
ENDBRANCH   1   7
TORSDOF 2
ENDMDL
