MODEL 1
REMARK minimizedAffinity -4.82817364
REMARK minimizedRMSD -1
REMARK  2 active torsions:
REMARK  status: ('A' for Active; 'I' for Inactive)
REMARK    1  A    between atoms: C2'_3  and  C1'_4 
REMARK    2  A    between atoms: C1'_4  and  C1_5 
ROOT
ATOM      1  C1  I4B d   1      -0.413   0.231   0.190  0.00  0.00    -0.075 A 
ATOM      2  C2  I4B d   1      -1.008   1.453  -0.003  0.00  0.00     0.003 A 
ATOM      3  C3  I4B d   1      -1.330   2.272   1.107  0.00  0.00     0.002 A 
ATOM      4  C4  I4B d   1      -1.087   1.812   2.385  0.00  0.00    -0.004 A 
ATOM      5  C5  I4B d   1      -0.463   0.583   2.577  0.00  0.00     0.002 A 
ATOM      6  C6  I4B d   1      -0.112  -0.208   1.473  0.00  0.00     0.003 A 
ENDROOT
BRANCH   1   7
ATOM      7  C1' I4B d   1      -0.117  -0.622  -1.002  0.00  0.00     0.060 C 
BRANCH   7   8
ATOM      8  C2' I4B d   1       1.233  -1.276  -0.785  0.00  0.00    -0.013 C 
ATOM      9  C4' I4B d   1       1.307  -2.615  -1.469  0.00  0.00     0.013 C 
ATOM     10  C3' I4B d   1       2.287  -0.344  -1.303  0.00  0.00     0.013 C 
ENDBRANCH   7   8
ENDBRANCH   1   7
TORSDOF 2
ENDMDL
