MODEL 1
REMARK minimizedAffinity -5.5378933
REMARK minimizedRMSD -1
REMARK  2 active torsions:
REMARK  status: ('A' for Active; 'I' for Inactive)
REMARK    1  A    between atoms: C2'_3  and  C1'_4 
REMARK    2  A    between atoms: C1'_4  and  C1_5 
ROOT
ATOM      1  C1  I4B d   1      -0.464   1.101  -0.002  0.00  0.00    -0.075 A 
ATOM      2  C2  I4B d   1       0.199   2.063  -0.723  0.00  0.00     0.003 A 
ATOM      3  C3  I4B d   1       0.216   3.405  -0.272  0.00  0.00     0.002 A 
ATOM      4  C4  I4B d   1      -0.480   3.748   0.869  0.00  0.00    -0.004 A 
ATOM      5  C5  I4B d   1      -1.132   2.767   1.610  0.00  0.00     0.002 A 
ATOM      6  C6  I4B d   1      -1.114   1.433   1.179  0.00  0.00     0.003 A 
ENDROOT
BRANCH   1   7
ATOM      7  C1' I4B d   1      -0.489  -0.301  -0.524  0.00  0.00     0.060 C 
BRANCH   7   8
ATOM      8  C2' I4B d   1       0.862  -0.592  -1.145  0.00  0.00    -0.013 C 
ATOM      9  C4' I4B d   1       1.821  -1.150  -0.126  0.00  0.00     0.013 C 
ATOM     10  C3' I4B d   1       0.654  -1.554  -2.277  0.00  0.00     0.013 C 
ENDBRANCH   7   8
ENDBRANCH   1   7
TORSDOF 2
ENDMDL
