MODEL 1
REMARK minimizedAffinity -4.85448551
REMARK minimizedRMSD -1
REMARK  2 active torsions:
REMARK  status: ('A' for Active; 'I' for Inactive)
REMARK    1  A    between atoms: C2'_3  and  C1'_4 
REMARK    2  A    between atoms: C1'_4  and  C1_5 
ROOT
ATOM      1  C1  I4B d   1      -0.267   0.786   0.493  0.00  0.00    -0.075 A 
ATOM      2  C2  I4B d   1      -1.190   1.065   1.470  0.00  0.00     0.003 A 
ATOM      3  C3  I4B d   1      -1.738   2.366   1.583  0.00  0.00     0.002 A 
ATOM      4  C4  I4B d   1      -1.300   3.363   0.737  0.00  0.00    -0.004 A 
ATOM      5  C5  I4B d   1      -0.381   3.074  -0.268  0.00  0.00     0.002 A 
ATOM      6  C6  I4B d   1       0.130   1.774  -0.399  0.00  0.00     0.003 A 
ENDROOT
BRANCH   1   7
ATOM      7  C1' I4B d   1       0.316  -0.590   0.423  0.00  0.00     0.060 C 
BRANCH   7   8
ATOM      8  C2' I4B d   1       0.909  -0.776  -0.958  0.00  0.00    -0.013 C 
ATOM      9  C4' I4B d   1       2.261  -0.120  -1.063  0.00  0.00     0.013 C 
ATOM     10  C3' I4B d   1       0.999  -2.248  -1.229  0.00  0.00     0.013 C 
ENDBRANCH   7   8
ENDBRANCH   1   7
TORSDOF 2
ENDMDL
