MODEL 1
REMARK minimizedAffinity -0.178857043
REMARK minimizedRMSD -1
REMARK  0 active torsions:
REMARK  status: ('A' for Active; 'I' for Inactive)
ROOT
ATOM      1  C   UNL d   1      -1.712   1.553   1.932  0.00  0.00     0.124 A 
ATOM      2  C1  UNL d   1      -1.562   0.178   2.037  0.00  0.00     0.062 A 
ATOM      3  C2  UNL d   1      -0.364  -0.426   1.666  0.00  0.00     0.162 A 
ATOM      4  C3  UNL d   1       0.695   0.346   1.188  0.00  0.00    -0.034 A 
ATOM      5  C4  UNL d   1       0.536   1.729   1.084  0.00  0.00     0.162 A 
ATOM      6  C5  UNL d   1      -0.663   2.328   1.456  0.00  0.00     0.062 A 
ATOM      7  F   UNL d   1      -0.807   3.657   1.353  0.00  0.00    -0.097 F 
ATOM      8  F1  UNL d   1       1.534   2.501   0.628  0.00  0.00    -0.096 F 
ATOM      9  I   UNL d   1       2.488  -0.553   0.633  0.00  0.00    -0.060 I 
ATOM     10  F2  UNL d   1      -0.247  -1.758   1.779  0.00  0.00    -0.096 F 
ATOM     11  F3  UNL d   1      -2.574  -0.573   2.496  0.00  0.00    -0.097 F 
ATOM     12  F4  UNL d   1      -2.866   2.132   2.288  0.00  0.00    -0.092 F 
ENDROOT
TORSDOF 0
ENDMDL
