MODEL 1
REMARK minimizedAffinity 9.05708694
REMARK minimizedRMSD -1
REMARK  0 active torsions:
REMARK  status: ('A' for Active; 'I' for Inactive)
ROOT
ATOM      1  C   UNL d   1       0.371   0.533   0.863  0.00  0.00     0.124 A 
ATOM      2  C1  UNL d   1      -0.606  -0.265   1.443  0.00  0.00     0.062 A 
ATOM      3  C2  UNL d   1      -1.640   0.315   2.173  0.00  0.00     0.162 A 
ATOM      4  C3  UNL d   1      -1.703   1.700   2.326  0.00  0.00    -0.034 A 
ATOM      5  C4  UNL d   1      -0.716   2.495   1.741  0.00  0.00     0.162 A 
ATOM      6  C5  UNL d   1       0.315   1.911   1.012  0.00  0.00     0.062 A 
ATOM      7  F   UNL d   1       1.258   2.683   0.453  0.00  0.00    -0.097 F 
ATOM      8  F1  UNL d   1      -0.746   3.830   1.869  0.00  0.00    -0.096 F 
ATOM      9  I   UNL d   1      -3.247   2.570   3.417  0.00  0.00    -0.060 I 
ATOM     10  F2  UNL d   1      -2.570  -0.480   2.722  0.00  0.00    -0.096 F 
ATOM     11  F3  UNL d   1      -0.554  -1.597   1.300  0.00  0.00    -0.097 F 
ATOM     12  F4  UNL d   1       1.365  -0.027   0.162  0.00  0.00    -0.092 F 
ENDROOT
TORSDOF 0
ENDMDL
