MODEL 1
REMARK minimizedAffinity 15.2170019
REMARK minimizedRMSD -1
REMARK  0 active torsions:
REMARK  status: ('A' for Active; 'I' for Inactive)
ROOT
ATOM      1  C   UNL d   1      -0.704   1.130   1.241  0.00  0.00     0.124 A 
ATOM      2  C1  UNL d   1      -1.102   2.457   1.331  0.00  0.00     0.062 A 
ATOM      3  C2  UNL d   1      -2.079   2.834   2.248  0.00  0.00     0.162 A 
ATOM      4  C3  UNL d   1      -2.665   1.883   3.083  0.00  0.00    -0.034 A 
ATOM      5  C4  UNL d   1      -2.261   0.550   2.985  0.00  0.00     0.162 A 
ATOM      6  C5  UNL d   1      -1.284   0.178   2.067  0.00  0.00     0.062 A 
ATOM      7  F   UNL d   1      -0.902  -1.104   1.981  0.00  0.00    -0.097 F 
ATOM      8  F1  UNL d   1      -2.805  -0.391   3.772  0.00  0.00    -0.096 F 
ATOM      9  I   UNL d   1      -4.127   2.442   4.455  0.00  0.00    -0.060 I 
ATOM     10  F2  UNL d   1      -2.443   4.123   2.314  0.00  0.00    -0.096 F 
ATOM     11  F3  UNL d   1      -0.543   3.379   0.533  0.00  0.00    -0.097 F 
ATOM     12  F4  UNL d   1       0.235   0.770   0.357  0.00  0.00    -0.092 F 
ENDROOT
TORSDOF 0
ENDMDL
