MODEL 1
REMARK minimizedAffinity 2.49706602
REMARK minimizedRMSD -1
REMARK  0 active torsions:
REMARK  status: ('A' for Active; 'I' for Inactive)
ROOT
ATOM      1  C   UNL d   1      -1.996  -0.052   2.802  0.00  0.00     0.124 A 
ATOM      2  C1  UNL d   1      -2.376   1.259   2.550  0.00  0.00     0.062 A 
ATOM      3  C2  UNL d   1      -1.472   2.153   1.984  0.00  0.00     0.162 A 
ATOM      4  C3  UNL d   1      -0.179   1.739   1.664  0.00  0.00    -0.034 A 
ATOM      5  C4  UNL d   1       0.196   0.420   1.921  0.00  0.00     0.162 A 
ATOM      6  C5  UNL d   1      -0.711  -0.470   2.488  0.00  0.00     0.062 A 
ATOM      7  F   UNL d   1      -0.342  -1.736   2.731  0.00  0.00    -0.097 F 
ATOM      8  F1  UNL d   1       1.431  -0.012   1.626  0.00  0.00    -0.096 F 
ATOM      9  I   UNL d   1       1.175   3.073   0.817  0.00  0.00    -0.060 I 
ATOM     10  F2  UNL d   1      -1.867   3.414   1.751  0.00  0.00    -0.096 F 
ATOM     11  F3  UNL d   1      -3.617   1.666   2.854  0.00  0.00    -0.097 F 
ATOM     12  F4  UNL d   1      -2.867  -0.910   3.348  0.00  0.00    -0.092 F 
ENDROOT
TORSDOF 0
ENDMDL
