MODEL 1
REMARK minimizedAffinity 17.4677982
REMARK minimizedRMSD -1
REMARK  0 active torsions:
REMARK  status: ('A' for Active; 'I' for Inactive)
ROOT
ATOM      1  C   UNL d   1      -4.328   1.201   3.532  0.00  0.00     0.124 A 
ATOM      2  C1  UNL d   1      -3.417   0.155   3.510  0.00  0.00     0.062 A 
ATOM      3  C2  UNL d   1      -2.168   0.326   2.920  0.00  0.00     0.162 A 
ATOM      4  C3  UNL d   1      -1.823   1.549   2.346  0.00  0.00    -0.034 A 
ATOM      5  C4  UNL d   1      -2.745   2.597   2.371  0.00  0.00     0.162 A 
ATOM      6  C5  UNL d   1      -3.992   2.421   2.962  0.00  0.00     0.062 A 
ATOM      7  F   UNL d   1      -4.871   3.433   2.982  0.00  0.00    -0.097 F 
ATOM      8  F1  UNL d   1      -2.446   3.787   1.829  0.00  0.00    -0.096 F 
ATOM      9  I   UNL d   1       0.043   1.809   1.462  0.00  0.00    -0.060 I 
ATOM     10  F2  UNL d   1      -1.307  -0.703   2.913  0.00  0.00    -0.096 F 
ATOM     11  F3  UNL d   1      -3.740  -1.025   4.059  0.00  0.00    -0.097 F 
ATOM     12  F4  UNL d   1      -5.529   1.033   4.100  0.00  0.00    -0.092 F 
ENDROOT
TORSDOF 0
ENDMDL
