MODEL 1
REMARK minimizedAffinity 3.73588252
REMARK minimizedRMSD -1
REMARK  0 active torsions:
REMARK  status: ('A' for Active; 'I' for Inactive)
ROOT
ATOM      1  C   UNL d   1       0.457   0.381   0.771  0.00  0.00     0.124 A 
ATOM      2  C1  UNL d   1       0.462   1.724   1.123  0.00  0.00     0.062 A 
ATOM      3  C2  UNL d   1      -0.611   2.268   1.824  0.00  0.00     0.162 A 
ATOM      4  C3  UNL d   1      -1.698   1.468   2.178  0.00  0.00    -0.034 A 
ATOM      5  C4  UNL d   1      -1.696   0.119   1.820  0.00  0.00     0.162 A 
ATOM      6  C5  UNL d   1      -0.621  -0.420   1.120  0.00  0.00     0.062 A 
ATOM      7  F   UNL d   1      -0.628  -1.717   0.780  0.00  0.00    -0.097 F 
ATOM      8  F1  UNL d   1      -2.725  -0.678   2.145  0.00  0.00    -0.096 F 
ATOM      9  I   UNL d   1      -3.304   2.277   3.226  0.00  0.00    -0.060 I 
ATOM     10  F2  UNL d   1      -0.579   3.568   2.151  0.00  0.00    -0.096 F 
ATOM     11  F3  UNL d   1       1.502   2.500   0.787  0.00  0.00    -0.097 F 
ATOM     12  F4  UNL d   1       1.490  -0.139   0.096  0.00  0.00    -0.092 F 
ENDROOT
TORSDOF 0
ENDMDL
