MODEL 1
REMARK minimizedAffinity -0.0719400495
REMARK minimizedRMSD -1
REMARK  0 active torsions:
REMARK  status: ('A' for Active; 'I' for Inactive)
ROOT
ATOM      1  C   UNL d   1       0.275   0.015   1.366  0.00  0.00     0.124 A 
ATOM      2  C1  UNL d   1       0.216   1.399   1.443  0.00  0.00     0.062 A 
ATOM      3  C2  UNL d   1      -0.882   2.021   2.031  0.00  0.00     0.162 A 
ATOM      4  C3  UNL d   1      -1.930   1.258   2.547  0.00  0.00    -0.034 A 
ATOM      5  C4  UNL d   1      -1.863  -0.134   2.465  0.00  0.00     0.162 A 
ATOM      6  C5  UNL d   1      -0.764  -0.750   1.877  0.00  0.00     0.062 A 
ATOM      7  F   UNL d   1      -0.708  -2.088   1.803  0.00  0.00    -0.097 F 
ATOM      8  F1  UNL d   1      -2.853  -0.897   2.951  0.00  0.00    -0.096 F 
ATOM      9  I   UNL d   1      -3.573   2.184   3.426  0.00  0.00    -0.060 I 
ATOM     10  F2  UNL d   1      -0.913   3.361   2.091  0.00  0.00    -0.096 F 
ATOM     11  F3  UNL d   1       1.218   2.141   0.949  0.00  0.00    -0.097 F 
ATOM     12  F4  UNL d   1       1.333  -0.581   0.799  0.00  0.00    -0.092 F 
ENDROOT
TORSDOF 0
ENDMDL
