MODEL 1
REMARK minimizedAffinity 4.35187197
REMARK minimizedRMSD -1
REMARK  0 active torsions:
REMARK  status: ('A' for Active; 'I' for Inactive)
ROOT
ATOM      1  C   UNL d   1      -2.180   1.705   2.271  0.00  0.00     0.124 A 
ATOM      2  C1  UNL d   1      -1.070   2.458   1.913  0.00  0.00     0.062 A 
ATOM      3  C2  UNL d   1       0.133   1.829   1.606  0.00  0.00     0.162 A 
ATOM      4  C3  UNL d   1       0.233   0.438   1.656  0.00  0.00    -0.034 A 
ATOM      5  C4  UNL d   1      -0.887  -0.312   2.018  0.00  0.00     0.162 A 
ATOM      6  C5  UNL d   1      -2.087   0.321   2.324  0.00  0.00     0.062 A 
ATOM      7  F   UNL d   1      -3.158  -0.408   2.670  0.00  0.00    -0.097 F 
ATOM      8  F1  UNL d   1      -0.825  -1.651   2.076  0.00  0.00    -0.096 F 
ATOM      9  I   UNL d   1       2.031  -0.506   1.199  0.00  0.00    -0.060 I 
ATOM     10  F2  UNL d   1       1.189   2.581   1.263  0.00  0.00    -0.096 F 
ATOM     11  F3  UNL d   1      -1.157   3.795   1.862  0.00  0.00    -0.097 F 
ATOM     12  F4  UNL d   1      -3.336   2.312   2.566  0.00  0.00    -0.092 F 
ENDROOT
TORSDOF 0
ENDMDL
