MODEL 1
REMARK minimizedAffinity 14.7875938
REMARK minimizedRMSD -1
REMARK  0 active torsions:
REMARK  status: ('A' for Active; 'I' for Inactive)
ROOT
ATOM      1  C   UNL d   1      -0.505   0.464   2.410  0.00  0.00     0.124 A 
ATOM      2  C1  UNL d   1       0.350   1.078   1.505  0.00  0.00     0.062 A 
ATOM      3  C2  UNL d   1      -0.109   2.119   0.704  0.00  0.00     0.162 A 
ATOM      4  C3  UNL d   1      -1.431   2.554   0.803  0.00  0.00    -0.034 A 
ATOM      5  C4  UNL d   1      -2.285   1.931   1.715  0.00  0.00     0.162 A 
ATOM      6  C5  UNL d   1      -1.822   0.891   2.513  0.00  0.00     0.062 A 
ATOM      7  F   UNL d   1      -2.650   0.299   3.387  0.00  0.00    -0.097 F 
ATOM      8  F1  UNL d   1      -3.562   2.324   1.836  0.00  0.00    -0.096 F 
ATOM      9  I   UNL d   1      -2.121   4.111  -0.393  0.00  0.00    -0.060 I 
ATOM     10  F2  UNL d   1       0.739   2.695  -0.162  0.00  0.00    -0.096 F 
ATOM     11  F3  UNL d   1       1.622   0.667   1.402  0.00  0.00    -0.097 F 
ATOM     12  F4  UNL d   1      -0.061  -0.538   3.179  0.00  0.00    -0.092 F 
ENDROOT
TORSDOF 0
ENDMDL
