MODEL 1
REMARK minimizedAffinity 9.71193314
REMARK minimizedRMSD -1
REMARK  0 active torsions:
REMARK  status: ('A' for Active; 'I' for Inactive)
ROOT
ATOM      1  C   UNL d   1      -0.254   1.793   1.532  0.00  0.00     0.124 A 
ATOM      2  C1  UNL d   1      -1.470   2.406   1.799  0.00  0.00     0.062 A 
ATOM      3  C2  UNL d   1      -2.456   1.727   2.510  0.00  0.00     0.162 A 
ATOM      4  C3  UNL d   1      -2.228   0.426   2.960  0.00  0.00    -0.034 A 
ATOM      5  C4  UNL d   1      -1.003  -0.184   2.687  0.00  0.00     0.162 A 
ATOM      6  C5  UNL d   1      -0.022   0.499   1.976  0.00  0.00     0.062 A 
ATOM      7  F   UNL d   1       1.153  -0.095   1.719  0.00  0.00    -0.097 F 
ATOM      8  F1  UNL d   1      -0.751  -1.434   3.105  0.00  0.00    -0.096 F 
ATOM      9  I   UNL d   1      -3.699  -0.593   4.023  0.00  0.00    -0.060 I 
ATOM     10  F2  UNL d   1      -3.621   2.344   2.753  0.00  0.00    -0.096 F 
ATOM     11  F3  UNL d   1      -1.698   3.656   1.370  0.00  0.00    -0.097 F 
ATOM     12  F4  UNL d   1       0.692   2.448   0.847  0.00  0.00    -0.092 F 
ENDROOT
TORSDOF 0
ENDMDL
