MODEL 1
REMARK minimizedAffinity 1.94386756
REMARK minimizedRMSD -1
REMARK  0 active torsions:
REMARK  status: ('A' for Active; 'I' for Inactive)
ROOT
ATOM      1  C   UNL d   1       0.200   0.155   1.620  0.00  0.00     0.124 A 
ATOM      2  C1  UNL d   1       0.023   1.530   1.689  0.00  0.00     0.062 A 
ATOM      3  C2  UNL d   1      -1.119   2.061   2.280  0.00  0.00     0.162 A 
ATOM      4  C3  UNL d   1      -2.095   1.216   2.809  0.00  0.00    -0.034 A 
ATOM      5  C4  UNL d   1      -1.912  -0.166   2.735  0.00  0.00     0.162 A 
ATOM      6  C5  UNL d   1      -0.768  -0.692   2.143  0.00  0.00     0.062 A 
ATOM      7  F   UNL d   1      -0.599  -2.020   2.077  0.00  0.00    -0.097 F 
ATOM      8  F1  UNL d   1      -2.830  -1.007   3.233  0.00  0.00    -0.096 F 
ATOM      9  I   UNL d   1      -3.806   2.005   3.694  0.00  0.00    -0.060 I 
ATOM     10  F2  UNL d   1      -1.263   3.393   2.333  0.00  0.00    -0.096 F 
ATOM     11  F3  UNL d   1       0.956   2.350   1.184  0.00  0.00    -0.097 F 
ATOM     12  F4  UNL d   1       1.300  -0.353   1.050  0.00  0.00    -0.092 F 
ENDROOT
TORSDOF 0
ENDMDL
