MODEL 1
REMARK minimizedAffinity 6.50106478
REMARK minimizedRMSD -1
REMARK  0 active torsions:
REMARK  status: ('A' for Active; 'I' for Inactive)
ROOT
ATOM      1  C   UNL d   1      -1.505   1.384   1.691  0.00  0.00     0.124 A 
ATOM      2  C1  UNL d   1      -1.398   0.006   1.559  0.00  0.00     0.062 A 
ATOM      3  C2  UNL d   1      -0.170  -0.575   1.256  0.00  0.00     0.162 A 
ATOM      4  C3  UNL d   1       0.962   0.222   1.083  0.00  0.00    -0.034 A 
ATOM      5  C4  UNL d   1       0.846   1.607   1.216  0.00  0.00     0.162 A 
ATOM      6  C5  UNL d   1      -0.383   2.183   1.519  0.00  0.00     0.062 A 
ATOM      7  F   UNL d   1      -0.485   3.514   1.645  0.00  0.00    -0.097 F 
ATOM      8  F1  UNL d   1       1.914   2.402   1.056  0.00  0.00    -0.096 F 
ATOM      9  I   UNL d   1       2.799  -0.643   0.629  0.00  0.00    -0.060 I 
ATOM     10  F2  UNL d   1      -0.096  -1.908   1.135  0.00  0.00    -0.096 F 
ATOM     11  F3  UNL d   1      -2.481  -0.767   1.724  0.00  0.00    -0.097 F 
ATOM     12  F4  UNL d   1      -2.688   1.941   1.982  0.00  0.00    -0.092 F 
ENDROOT
TORSDOF 0
ENDMDL
