MODEL 1
REMARK minimizedAffinity 11.170496
REMARK minimizedRMSD -1
REMARK  0 active torsions:
REMARK  status: ('A' for Active; 'I' for Inactive)
ROOT
ATOM      1  C   UNL d   1      -1.967   1.634   2.148  0.00  0.00     0.124 A 
ATOM      2  C1  UNL d   1      -0.903   2.408   1.705  0.00  0.00     0.062 A 
ATOM      3  C2  UNL d   1       0.309   1.808   1.376  0.00  0.00     0.162 A 
ATOM      4  C3  UNL d   1       0.465   0.427   1.489  0.00  0.00    -0.034 A 
ATOM      5  C4  UNL d   1      -0.609  -0.345   1.937  0.00  0.00     0.162 A 
ATOM      6  C5  UNL d   1      -1.819   0.259   2.264  0.00  0.00     0.062 A 
ATOM      7  F   UNL d   1      -2.846  -0.490   2.692  0.00  0.00    -0.097 F 
ATOM      8  F1  UNL d   1      -0.494  -1.676   2.057  0.00  0.00    -0.096 F 
ATOM      9  I   UNL d   1       2.276  -0.474   1.000  0.00  0.00    -0.060 I 
ATOM     10  F2  UNL d   1       1.320   2.580   0.951  0.00  0.00    -0.096 F 
ATOM     11  F3  UNL d   1      -1.043   3.737   1.593  0.00  0.00    -0.097 F 
ATOM     12  F4  UNL d   1      -3.132   2.214   2.464  0.00  0.00    -0.092 F 
ENDROOT
TORSDOF 0
ENDMDL
