MODEL 1
REMARK minimizedAffinity 13.5170231
REMARK minimizedRMSD -1
REMARK  0 active torsions:
REMARK  status: ('A' for Active; 'I' for Inactive)
ROOT
ATOM      1  C   UNL d   1       0.724   1.637   1.520  0.00  0.00     0.124 A 
ATOM      2  C1  UNL d   1       1.055   0.319   1.802  0.00  0.00     0.062 A 
ATOM      3  C2  UNL d   1       0.099  -0.545   2.328  0.00  0.00     0.162 A 
ATOM      4  C3  UNL d   1      -1.198  -0.094   2.575  0.00  0.00    -0.034 A 
ATOM      5  C4  UNL d   1      -1.523   1.233   2.289  0.00  0.00     0.162 A 
ATOM      6  C5  UNL d   1      -0.563   2.093   1.763  0.00  0.00     0.062 A 
ATOM      7  F   UNL d   1      -0.884   3.366   1.491  0.00  0.00    -0.097 F 
ATOM      8  F1  UNL d   1      -2.760   1.700   2.514  0.00  0.00    -0.096 F 
ATOM      9  I   UNL d   1      -2.631  -1.383   3.361  0.00  0.00    -0.060 I 
ATOM     10  F2  UNL d   1       0.446  -1.814   2.591  0.00  0.00    -0.096 F 
ATOM     11  F3  UNL d   1       2.299  -0.124   1.568  0.00  0.00    -0.097 F 
ATOM     12  F4  UNL d   1       1.647   2.466   1.014  0.00  0.00    -0.092 F 
ENDROOT
TORSDOF 0
ENDMDL
