MODEL 1
REMARK minimizedAffinity 9.77732563
REMARK minimizedRMSD -1
REMARK  0 active torsions:
REMARK  status: ('A' for Active; 'I' for Inactive)
ROOT
ATOM      1  C   UNL d   1      -2.581   3.006   2.045  0.00  0.00     0.124 A 
ATOM      2  C1  UNL d   1      -1.281   3.313   1.666  0.00  0.00     0.062 A 
ATOM      3  C2  UNL d   1      -0.223   2.508   2.079  0.00  0.00     0.162 A 
ATOM      4  C3  UNL d   1      -0.461   1.388   2.875  0.00  0.00    -0.034 A 
ATOM      5  C4  UNL d   1      -1.770   1.086   3.253  0.00  0.00     0.162 A 
ATOM      6  C5  UNL d   1      -2.824   1.894   2.837  0.00  0.00     0.062 A 
ATOM      7  F   UNL d   1      -4.079   1.596   3.204  0.00  0.00    -0.097 F 
ATOM      8  F1  UNL d   1      -2.034   0.016   4.018  0.00  0.00    -0.096 F 
ATOM      9  I   UNL d   1       1.118   0.182   3.495  0.00  0.00    -0.060 I 
ATOM     10  F2  UNL d   1       1.022   2.828   1.698  0.00  0.00    -0.096 F 
ATOM     11  F3  UNL d   1      -1.043   4.388   0.901  0.00  0.00    -0.097 F 
ATOM     12  F4  UNL d   1      -3.597   3.783   1.647  0.00  0.00    -0.092 F 
ENDROOT
TORSDOF 0
ENDMDL
