MODEL 1
REMARK minimizedAffinity 13.5118818
REMARK minimizedRMSD -1
REMARK  1 active torsions:
REMARK  status: ('A' for Active; 'I' for Inactive)
REMARK    1  A    between atoms: C1_2  and  C2_3 
ROOT
ATOM      1  C2  UNL d   1       2.515  -4.981  -5.768  0.00  0.00    -0.073 A 
ATOM      2  C3  UNL d   1       3.454  -6.000  -5.964  0.00  0.00    -0.002 A 
ATOM      3  C4  UNL d   1       4.818  -5.704  -5.997  0.00  0.00     0.004 A 
ATOM      4  C5  UNL d   1       5.256  -4.391  -5.827  0.00  0.00    -0.004 A 
ATOM      5  C6  UNL d   1       4.334  -3.361  -5.617  0.00  0.00    -0.075 A 
ATOM      6  C7  UNL d   1       4.789  -1.943  -5.434  0.00  0.00     0.076 C 
ATOM      7  C8  UNL d   1       2.966  -3.665  -5.588  0.00  0.00     0.001 A 
ENDROOT
BRANCH   1   8
ATOM      8  C1  UNL d   1       1.042  -5.296  -5.725  0.00  0.00     0.053 C 
ATOM      9  C   UNL d   1       0.643  -5.984  -4.430  0.00  0.00     0.018 C 
ENDBRANCH   1   8
TORSDOF 1
ENDMDL
