MODEL 1
REMARK minimizedAffinity 10.5047569
REMARK minimizedRMSD -1
REMARK  1 active torsions:
REMARK  status: ('A' for Active; 'I' for Inactive)
REMARK    1  A    between atoms: C1_2  and  C2_3 
ROOT
ATOM      1  C2  UNL d   1       1.348  -5.300  -4.883  0.00  0.00    -0.073 A 
ATOM      2  C3  UNL d   1       1.843  -4.111  -4.334  0.00  0.00    -0.002 A 
ATOM      3  C4  UNL d   1       1.160  -3.477  -3.296  0.00  0.00     0.004 A 
ATOM      4  C5  UNL d   1      -0.018  -4.026  -2.791  0.00  0.00    -0.004 A 
ATOM      5  C6  UNL d   1      -0.522  -5.220  -3.318  0.00  0.00    -0.075 A 
ATOM      6  C7  UNL d   1      -1.790  -5.823  -2.788  0.00  0.00     0.076 C 
ATOM      7  C8  UNL d   1       0.168  -5.850  -4.363  0.00  0.00     0.001 A 
ENDROOT
BRANCH   1   8
ATOM      8  C1  UNL d   1       2.086  -5.993  -6.000  0.00  0.00     0.053 C 
ATOM      9  C   UNL d   1       3.586  -5.761  -5.922  0.00  0.00     0.018 C 
ENDBRANCH   1   8
TORSDOF 1
ENDMDL
