MODEL 1
REMARK minimizedAffinity 11.483057
REMARK minimizedRMSD -1
REMARK  1 active torsions:
REMARK  status: ('A' for Active; 'I' for Inactive)
REMARK    1  A    between atoms: C1_2  and  C2_3 
ROOT
ATOM      1  C2  UNL d   1       3.198  -3.006  -4.611  0.00  0.00    -0.073 A 
ATOM      2  C3  UNL d   1       4.340  -3.396  -5.321  0.00  0.00    -0.002 A 
ATOM      3  C4  UNL d   1       4.366  -4.615  -6.000  0.00  0.00     0.004 A 
ATOM      4  C5  UNL d   1       3.251  -5.453  -5.982  0.00  0.00    -0.004 A 
ATOM      5  C6  UNL d   1       2.097  -5.076  -5.288  0.00  0.00    -0.075 A 
ATOM      6  C7  UNL d   1       0.890  -5.967  -5.257  0.00  0.00     0.076 C 
ATOM      7  C8  UNL d   1       2.079  -3.851  -4.607  0.00  0.00     0.001 A 
ENDROOT
BRANCH   1   8
ATOM      8  C1  UNL d   1       3.162  -1.688  -3.882  0.00  0.00     0.053 C 
ATOM      9  C   UNL d   1       4.397  -1.480  -3.020  0.00  0.00     0.018 C 
ENDBRANCH   1   8
TORSDOF 1
ENDMDL
