MODEL 1
REMARK minimizedAffinity 15.2626228
REMARK minimizedRMSD -1
REMARK  1 active torsions:
REMARK  status: ('A' for Active; 'I' for Inactive)
REMARK    1  A    between atoms: C1_2  and  C2_3 
ROOT
ATOM      1  C2  UNL d   1      -1.373   4.730  -3.913  0.00  0.00    -0.073 A 
ATOM      2  C3  UNL d   1      -2.267   3.661  -4.044  0.00  0.00    -0.002 A 
ATOM      3  C4  UNL d   1      -2.077   2.489  -3.311  0.00  0.00     0.004 A 
ATOM      4  C5  UNL d   1      -0.997   2.377  -2.435  0.00  0.00    -0.004 A 
ATOM      5  C6  UNL d   1      -0.100   3.438  -2.282  0.00  0.00    -0.075 A 
ATOM      6  C7  UNL d   1       1.068   3.332  -1.346  0.00  0.00     0.076 C 
ATOM      7  C8  UNL d   1      -0.296   4.611  -3.024  0.00  0.00     0.001 A 
ENDROOT
BRANCH   1   8
ATOM      8  C1  UNL d   1      -1.579   6.000  -4.698  0.00  0.00     0.053 C 
ATOM      9  C   UNL d   1      -0.791   6.000  -5.999  0.00  0.00     0.018 C 
ENDBRANCH   1   8
TORSDOF 1
ENDMDL
