MODEL 1
REMARK minimizedAffinity 23.2786713
REMARK minimizedRMSD -1
REMARK  1 active torsions:
REMARK  status: ('A' for Active; 'I' for Inactive)
REMARK    1  A    between atoms: C1_2  and  C2_3 
ROOT
ATOM      1  C2  UNL d   1       2.583  -0.285   2.299  0.00  0.00    -0.073 A 
ATOM      2  C3  UNL d   1       1.245  -0.171   2.695  0.00  0.00    -0.002 A 
ATOM      3  C4  UNL d   1       0.308  -1.126   2.296  0.00  0.00     0.004 A 
ATOM      4  C5  UNL d   1       0.700  -2.205   1.504  0.00  0.00    -0.004 A 
ATOM      5  C6  UNL d   1       2.034  -2.342   1.107  0.00  0.00    -0.075 A 
ATOM      6  C7  UNL d   1       2.470  -3.496   0.254  0.00  0.00     0.076 C 
ATOM      7  C8  UNL d   1       2.968  -1.378   1.510  0.00  0.00     0.001 A 
ENDROOT
BRANCH   1   8
ATOM      8  C1  UNL d   1       3.599   0.740   2.732  0.00  0.00     0.053 C 
ATOM      9  C   UNL d   1       3.977   1.682   1.601  0.00  0.00     0.018 C 
ENDBRANCH   1   8
TORSDOF 1
ENDMDL
