MODEL 1
REMARK minimizedAffinity 12.2811346
REMARK minimizedRMSD -1
REMARK  1 active torsions:
REMARK  status: ('A' for Active; 'I' for Inactive)
REMARK    1  A    between atoms: C1_2  and  C2_3 
ROOT
ATOM      1  C2  UNL d   1      -1.128   2.594  -2.104  0.00  0.00    -0.073 A 
ATOM      2  C3  UNL d   1      -1.052   2.642  -0.707  0.00  0.00    -0.002 A 
ATOM      3  C4  UNL d   1       0.178   2.504  -0.063  0.00  0.00     0.004 A 
ATOM      4  C5  UNL d   1       1.344   2.324  -0.806  0.00  0.00    -0.004 A 
ATOM      5  C6  UNL d   1       1.290   2.285  -2.203  0.00  0.00    -0.075 A 
ATOM      6  C7  UNL d   1       2.535   2.090  -3.018  0.00  0.00     0.076 C 
ATOM      7  C8  UNL d   1       0.051   2.422  -2.843  0.00  0.00     0.001 A 
ENDROOT
BRANCH   1   8
ATOM      8  C1  UNL d   1      -2.453   2.749  -2.804  0.00  0.00     0.053 C 
ATOM      9  C   UNL d   1      -3.588   3.010  -1.827  0.00  0.00     0.018 C 
ENDBRANCH   1   8
TORSDOF 1
ENDMDL
