MODEL 1
REMARK minimizedAffinity 16.0755844
REMARK minimizedRMSD -1
REMARK  1 active torsions:
REMARK  status: ('A' for Active; 'I' for Inactive)
REMARK    1  A    between atoms: C1_2  and  C2_3 
ROOT
ATOM      1  C2  UNL d   1       0.303  -4.044  -2.739  0.00  0.00    -0.073 A 
ATOM      2  C3  UNL d   1       1.204  -4.594  -1.820  0.00  0.00    -0.002 A 
ATOM      3  C4  UNL d   1       2.119  -5.566  -2.225  0.00  0.00     0.004 A 
ATOM      4  C5  UNL d   1       2.149  -5.992  -3.553  0.00  0.00    -0.004 A 
ATOM      5  C6  UNL d   1       1.265  -5.446  -4.489  0.00  0.00    -0.075 A 
ATOM      6  C7  UNL d   1       1.282  -5.895  -5.921  0.00  0.00     0.076 C 
ATOM      7  C8  UNL d   1       0.346  -4.472  -4.073  0.00  0.00     0.001 A 
ENDROOT
BRANCH   1   8
ATOM      8  C1  UNL d   1      -0.683  -2.990  -2.307  0.00  0.00     0.053 C 
ATOM      9  C   UNL d   1      -1.446  -3.401  -1.057  0.00  0.00     0.018 C 
ENDBRANCH   1   8
TORSDOF 1
ENDMDL
