MODEL 1
REMARK minimizedAffinity 12.4378214
REMARK minimizedRMSD -1
REMARK  1 active torsions:
REMARK  status: ('A' for Active; 'I' for Inactive)
REMARK    1  A    between atoms: C1_2  and  C2_3 
ROOT
ATOM      1  C2  UNL d   1      -4.618  -5.020   0.031  0.00  0.00    -0.073 A 
ATOM      2  C3  UNL d   1      -5.531  -5.994   0.452  0.00  0.00    -0.002 A 
ATOM      3  C4  UNL d   1      -6.000  -6.000   1.766  0.00  0.00     0.004 A 
ATOM      4  C5  UNL d   1      -5.568  -5.029   2.670  0.00  0.00    -0.004 A 
ATOM      5  C6  UNL d   1      -4.666  -4.040   2.265  0.00  0.00    -0.075 A 
ATOM      6  C7  UNL d   1      -4.190  -2.990   3.226  0.00  0.00     0.076 C 
ATOM      7  C8  UNL d   1      -4.197  -4.043   0.945  0.00  0.00     0.001 A 
ENDROOT
BRANCH   1   8
ATOM      8  C1  UNL d   1      -4.114  -5.005  -1.388  0.00  0.00     0.053 C 
ATOM      9  C   UNL d   1      -4.856  -6.000  -2.267  0.00  0.00     0.018 C 
ENDBRANCH   1   8
TORSDOF 1
ENDMDL
