MODEL 1
REMARK minimizedAffinity 2.35222459
REMARK minimizedRMSD -1
REMARK  3 active torsions:
REMARK  status: ('A' for Active; 'I' for Inactive)
REMARK    1  A    between atoms: C3'_2  and  C2'_3 
REMARK    2  A    between atoms: C2'_3  and  C1'_4 
REMARK    3  A    between atoms: C1'_4  and  C1_5 
ROOT
ATOM      1  C1  N4B d   1       0.076  -1.343   0.758  0.00  0.00    -0.075 A 
ATOM      2  C2  N4B d   1       0.059  -1.740   2.113  0.00  0.00     0.002 A 
ATOM      3  C3  N4B d   1      -0.985  -1.368   2.924  0.00  0.00     0.002 A 
ATOM      4  C4  N4B d   1      -2.008  -0.586   2.410  0.00  0.00    -0.004 A 
ATOM      5  C5  N4B d   1      -1.997  -0.228   1.093  0.00  0.00     0.002 A 
ATOM      6  C6  N4B d   1      -0.956  -0.598   0.266  0.00  0.00     0.002 A 
ENDROOT
BRANCH   1   7
ATOM      7  C1' N4B d   1       1.238  -1.653  -0.146  0.00  0.00     0.057 C 
BRANCH   7   8
ATOM      8  C2' N4B d   1       1.516  -0.446  -1.036  0.00  0.00     0.009 C 
BRANCH   8   9
ATOM      9  C3' N4B d   1       2.881   0.161  -0.761  0.00  0.00     0.004 C 
ATOM     10  C4' N4B d   1       3.197   1.315  -1.666  0.00  0.00     0.003 C 
ENDBRANCH   8   9
ENDBRANCH   7   8
ENDBRANCH   1   7
TORSDOF 3
ENDMDL
