MODEL 1
REMARK minimizedAffinity 4.89225245
REMARK minimizedRMSD -1
REMARK  3 active torsions:
REMARK  status: ('A' for Active; 'I' for Inactive)
REMARK    1  A    between atoms: C3'_2  and  C2'_3 
REMARK    2  A    between atoms: C2'_3  and  C1'_4 
REMARK    3  A    between atoms: C1'_4  and  C1_5 
ROOT
ATOM      1  C1  N4B d   1       3.033  -3.253  -0.106  0.00  0.00    -0.075 A 
ATOM      2  C2  N4B d   1       4.117  -4.155  -0.186  0.00  0.00     0.002 A 
ATOM      3  C3  N4B d   1       4.190  -5.218   0.681  0.00  0.00     0.002 A 
ATOM      4  C4  N4B d   1       3.207  -5.388   1.643  0.00  0.00    -0.004 A 
ATOM      5  C5  N4B d   1       2.150  -4.527   1.697  0.00  0.00     0.002 A 
ATOM      6  C6  N4B d   1       2.061  -3.456   0.830  0.00  0.00     0.002 A 
ENDROOT
BRANCH   1   7
ATOM      7  C1' N4B d   1       2.954  -2.028  -0.975  0.00  0.00     0.057 C 
BRANCH   7   8
ATOM      8  C2' N4B d   1       1.799  -1.151  -0.501  0.00  0.00     0.009 C 
BRANCH   8   9
ATOM      9  C3' N4B d   1       2.209   0.305  -0.364  0.00  0.00     0.004 C 
ATOM     10  C4' N4B d   1       3.036   0.786  -1.519  0.00  0.00     0.003 C 
ENDBRANCH   8   9
ENDBRANCH   7   8
ENDBRANCH   1   7
TORSDOF 3
ENDMDL
