MODEL 1
REMARK minimizedAffinity 12.5659399
REMARK minimizedRMSD -1
REMARK  2 active torsions:
REMARK  status: ('A' for Active; 'I' for Inactive)
REMARK    1  A    between atoms: C2'_3  and  C1'_4 
REMARK    2  A    between atoms: C1'_4  and  C1_5 
ROOT
ATOM      1  C1  I4B d   1       1.954  -0.091   1.948  0.00  0.00    -0.075 A 
ATOM      2  C2  I4B d   1       1.296   0.335   3.075  0.00  0.00     0.003 A 
ATOM      3  C3  I4B d   1       1.313   1.704   3.435  0.00  0.00     0.002 A 
ATOM      4  C4  I4B d   1       2.036   2.598   2.673  0.00  0.00    -0.004 A 
ATOM      5  C5  I4B d   1       2.684   2.168   1.518  0.00  0.00     0.002 A 
ATOM      6  C6  I4B d   1       2.632   0.817   1.146  0.00  0.00     0.003 A 
ENDROOT
BRANCH   1   7
ATOM      7  C1' I4B d   1       1.943  -1.550   1.615  0.00  0.00     0.060 C 
BRANCH   7   8
ATOM      8  C2' I4B d   1       0.915  -1.772   0.525  0.00  0.00    -0.013 C 
ATOM      9  C4' I4B d   1       0.812  -3.230   0.161  0.00  0.00     0.013 C 
ATOM     10  C3' I4B d   1      -0.400  -1.243   1.015  0.00  0.00     0.013 C 
ENDBRANCH   7   8
ENDBRANCH   1   7
TORSDOF 2
ENDMDL
