MODEL 1
REMARK minimizedAffinity 7.89130497
REMARK minimizedRMSD -1
REMARK  2 active torsions:
REMARK  status: ('A' for Active; 'I' for Inactive)
REMARK    1  A    between atoms: C2'_3  and  C1'_4 
REMARK    2  A    between atoms: C1'_4  and  C1_5 
ROOT
ATOM      1  C1  I4B d   1       2.353   1.445   0.712  0.00  0.00    -0.075 A 
ATOM      2  C2  I4B d   1       2.739   2.108   1.850  0.00  0.00     0.003 A 
ATOM      3  C3  I4B d   1       2.955   1.394   3.053  0.00  0.00     0.002 A 
ATOM      4  C4  I4B d   1       2.727   0.033   3.086  0.00  0.00    -0.004 A 
ATOM      5  C5  I4B d   1       2.358  -0.641   1.926  0.00  0.00     0.002 A 
ATOM      6  C6  I4B d   1       2.181   0.067   0.728  0.00  0.00     0.003 A 
ENDROOT
BRANCH   1   7
ATOM      7  C1' I4B d   1       2.101   2.235  -0.533  0.00  0.00     0.060 C 
BRANCH   7   8
ATOM      8  C2' I4B d   1       1.186   3.389  -0.176  0.00  0.00    -0.013 C 
ATOM      9  C4' I4B d   1       1.059   4.358  -1.322  0.00  0.00     0.013 C 
ATOM     10  C3' I4B d   1      -0.149   2.821   0.203  0.00  0.00     0.013 C 
ENDBRANCH   7   8
ENDBRANCH   1   7
TORSDOF 2
ENDMDL
