MODEL 1
REMARK minimizedAffinity 8.53164387
REMARK minimizedRMSD -1
REMARK  2 active torsions:
REMARK  status: ('A' for Active; 'I' for Inactive)
REMARK    1  A    between atoms: C2'_3  and  C1'_4 
REMARK    2  A    between atoms: C1'_4  and  C1_5 
ROOT
ATOM      1  C1  I4B d   1      -4.203   0.172  -4.893  0.00  0.00    -0.075 A 
ATOM      2  C2  I4B d   1      -4.547   1.488  -5.075  0.00  0.00     0.003 A 
ATOM      3  C3  I4B d   1      -4.145   2.467  -4.134  0.00  0.00     0.002 A 
ATOM      4  C4  I4B d   1      -3.448   2.081  -3.007  0.00  0.00    -0.004 A 
ATOM      5  C5  I4B d   1      -3.081   0.749  -2.836  0.00  0.00     0.002 A 
ATOM      6  C6  I4B d   1      -3.450  -0.210  -3.790  0.00  0.00     0.003 A 
ENDROOT
BRANCH   1   7
ATOM      7  C1' I4B d   1      -4.672  -0.840  -5.889  0.00  0.00     0.060 C 
BRANCH   7   8
ATOM      8  C2' I4B d   1      -4.629  -2.202  -5.227  0.00  0.00    -0.013 C 
ATOM      9  C4' I4B d   1      -5.999  -2.825  -5.171  0.00  0.00     0.013 C 
ATOM     10  C3' I4B d   1      -3.674  -3.063  -5.999  0.00  0.00     0.013 C 
ENDBRANCH   7   8
ENDBRANCH   1   7
TORSDOF 2
ENDMDL
