MODEL 1
REMARK minimizedAffinity 15.3947639
REMARK minimizedRMSD -1
REMARK  2 active torsions:
REMARK  status: ('A' for Active; 'I' for Inactive)
REMARK    1  A    between atoms: C2'_3  and  C1'_4 
REMARK    2  A    between atoms: C1'_4  and  C1_5 
ROOT
ATOM      1  C1  I4B d   1       1.393  -3.361   1.428  0.00  0.00    -0.075 A 
ATOM      2  C2  I4B d   1       2.124  -3.807   2.501  0.00  0.00     0.003 A 
ATOM      3  C3  I4B d   1       2.603  -5.139   2.533  0.00  0.00     0.002 A 
ATOM      4  C4  I4B d   1       2.288  -6.000   1.501  0.00  0.00    -0.004 A 
ATOM      5  C5  I4B d   1       1.566  -5.539   0.404  0.00  0.00     0.002 A 
ATOM      6  C6  I4B d   1       1.126  -4.208   0.361  0.00  0.00     0.003 A 
ENDROOT
BRANCH   1   7
ATOM      7  C1' I4B d   1       0.875  -1.958   1.442  0.00  0.00     0.060 C 
BRANCH   7   8
ATOM      8  C2' I4B d   1       1.850  -1.108   2.231  0.00  0.00    -0.013 C 
ATOM      9  C4' I4B d   1       1.848   0.317   1.745  0.00  0.00     0.013 C 
ATOM     10  C3' I4B d   1       1.469  -1.187   3.679  0.00  0.00     0.013 C 
ENDBRANCH   7   8
ENDBRANCH   1   7
TORSDOF 2
ENDMDL
