MODEL 1
REMARK minimizedAffinity 5.83071661
REMARK minimizedRMSD -1
REMARK  2 active torsions:
REMARK  status: ('A' for Active; 'I' for Inactive)
REMARK    1  A    between atoms: C2'_3  and  C1'_4 
REMARK    2  A    between atoms: C1'_4  and  C1_5 
ROOT
ATOM      1  C1  I4B d   1       1.089  -1.998   1.284  0.00  0.00    -0.075 A 
ATOM      2  C2  I4B d   1       1.227  -2.030  -0.081  0.00  0.00     0.003 A 
ATOM      3  C3  I4B d   1       1.393  -3.267  -0.752  0.00  0.00     0.002 A 
ATOM      4  C4  I4B d   1       1.466  -4.433  -0.018  0.00  0.00    -0.004 A 
ATOM      5  C5  I4B d   1       1.302  -4.401   1.364  0.00  0.00     0.002 A 
ATOM      6  C6  I4B d   1       1.100  -3.177   2.018  0.00  0.00     0.003 A 
ENDROOT
BRANCH   1   7
ATOM      7  C1' I4B d   1       0.948  -0.672   1.963  0.00  0.00     0.060 C 
BRANCH   7   8
ATOM      8  C2' I4B d   1       2.254  -0.369   2.670  0.00  0.00    -0.013 C 
ATOM      9  C4' I4B d   1       3.419  -0.447   1.719  0.00  0.00     0.013 C 
ATOM     10  C3' I4B d   1       2.143   0.996   3.280  0.00  0.00     0.013 C 
ENDBRANCH   7   8
ENDBRANCH   1   7
TORSDOF 2
ENDMDL
