MODEL 1
REMARK minimizedAffinity 5.74226332
REMARK minimizedRMSD -1
REMARK  2 active torsions:
REMARK  status: ('A' for Active; 'I' for Inactive)
REMARK    1  A    between atoms: C2'_3  and  C1'_4 
REMARK    2  A    between atoms: C1'_4  and  C1_5 
ROOT
ATOM      1  C1  I4B d   1       2.747   4.487  -2.635  0.00  0.00    -0.075 A 
ATOM      2  C2  I4B d   1       2.940   3.502  -1.699  0.00  0.00     0.003 A 
ATOM      3  C3  I4B d   1       2.010   3.329  -0.645  0.00  0.00     0.002 A 
ATOM      4  C4  I4B d   1       0.937   4.189  -0.538  0.00  0.00    -0.004 A 
ATOM      5  C5  I4B d   1       0.731   5.173  -1.501  0.00  0.00     0.002 A 
ATOM      6  C6  I4B d   1       1.635   5.315  -2.563  0.00  0.00     0.003 A 
ENDROOT
BRANCH   1   7
ATOM      7  C1' I4B d   1       3.766   4.663  -3.716  0.00  0.00     0.060 C 
BRANCH   7   8
ATOM      8  C2' I4B d   1       4.562   5.915  -3.408  0.00  0.00    -0.013 C 
ATOM      9  C4' I4B d   1       5.074   5.901  -1.991  0.00  0.00     0.013 C 
ATOM     10  C3' I4B d   1       5.692   5.999  -4.390  0.00  0.00     0.013 C 
ENDBRANCH   7   8
ENDBRANCH   1   7
TORSDOF 2
ENDMDL
