MODEL 1
REMARK minimizedAffinity 15.747014
REMARK minimizedRMSD -1
REMARK  2 active torsions:
REMARK  status: ('A' for Active; 'I' for Inactive)
REMARK    1  A    between atoms: C2'_3  and  C1'_4 
REMARK    2  A    between atoms: C1'_4  and  C1_5 
ROOT
ATOM      1  C1  I4B d   1       2.792   0.538   2.045  0.00  0.00    -0.075 A 
ATOM      2  C2  I4B d   1       3.980  -0.070   1.725  0.00  0.00     0.003 A 
ATOM      3  C3  I4B d   1       4.060  -1.481   1.645  0.00  0.00     0.002 A 
ATOM      4  C4  I4B d   1       2.947  -2.243   1.939  0.00  0.00    -0.004 A 
ATOM      5  C5  I4B d   1       1.737  -1.624   2.240  0.00  0.00     0.002 A 
ATOM      6  C6  I4B d   1       1.656  -0.224   2.282  0.00  0.00     0.003 A 
ENDROOT
BRANCH   1   7
ATOM      7  C1' I4B d   1       2.752   2.029   2.154  0.00  0.00     0.060 C 
BRANCH   7   8
ATOM      8  C2' I4B d   1       1.988   2.385   3.413  0.00  0.00    -0.013 C 
ATOM      9  C4' I4B d   1       2.857   3.142   4.382  0.00  0.00     0.013 C 
ATOM     10  C3' I4B d   1       0.790   3.194   3.014  0.00  0.00     0.013 C 
ENDBRANCH   7   8
ENDBRANCH   1   7
TORSDOF 2
ENDMDL
