MODEL 1
REMARK minimizedAffinity 3.89456534
REMARK minimizedRMSD -1
REMARK  1 active torsions:
REMARK  status: ('A' for Active; 'I' for Inactive)
REMARK    1  A    between atoms: C1_2  and  C2_3 
ROOT
ATOM      1  C2  UNL d   1      -1.270   0.035   0.471  0.00  0.00    -0.081 A 
ATOM      2  C3  UNL d   1      -1.900  -0.333   1.666  0.00  0.00     0.006 A 
ATOM      3  C4  UNL d   1      -1.564   0.296   2.867  0.00  0.00     0.002 A 
ATOM      4  C5  UNL d   1      -0.599   1.309   2.892  0.00  0.00    -0.080 A 
ATOM      5  C6  UNL d   1      -0.251   2.013   4.170  0.00  0.00     0.076 C 
ATOM      6  C7  UNL d   1       0.043   1.665   1.702  0.00  0.00     0.002 A 
ATOM      7  C8  UNL d   1      -0.292   1.035   0.501  0.00  0.00     0.006 A 
ENDROOT
BRANCH   1   8
ATOM      8  C1  UNL d   1      -1.676  -0.596  -0.836  0.00  0.00     0.054 C 
ATOM      9  C   UNL d   1      -3.097  -1.139  -0.770  0.00  0.00     0.018 C 
ENDBRANCH   1   8
TORSDOF 1
ENDMDL
