MODEL 1
REMARK minimizedAffinity -0.470115751
REMARK minimizedRMSD -1
REMARK  1 active torsions:
REMARK  status: ('A' for Active; 'I' for Inactive)
REMARK    1  A    between atoms: C1_2  and  C2_3 
ROOT
ATOM      1  C2  UNL d   1      -0.158  -0.711   0.122  0.00  0.00    -0.081 A 
ATOM      2  C3  UNL d   1       0.963  -0.470   0.926  0.00  0.00     0.006 A 
ATOM      3  C4  UNL d   1       0.851   0.302   2.084  0.00  0.00     0.002 A 
ATOM      4  C5  UNL d   1      -0.384   0.840   2.462  0.00  0.00    -0.080 A 
ATOM      5  C6  UNL d   1      -0.524   1.646   3.719  0.00  0.00     0.076 C 
ATOM      6  C7  UNL d   1      -1.501   0.614   1.650  0.00  0.00     0.002 A 
ATOM      7  C8  UNL d   1      -1.389  -0.158   0.491  0.00  0.00     0.006 A 
ENDROOT
BRANCH   1   8
ATOM      8  C1  UNL d   1      -0.054  -1.598  -1.093  0.00  0.00     0.054 C 
ATOM      9  C   UNL d   1      -0.467  -0.856  -2.356  0.00  0.00     0.018 C 
ENDBRANCH   1   8
TORSDOF 1
ENDMDL
