MODEL 1
REMARK minimizedAffinity -0.855182588
REMARK minimizedRMSD -1
REMARK  1 active torsions:
REMARK  status: ('A' for Active; 'I' for Inactive)
REMARK    1  A    between atoms: C1_2  and  C2_3 
ROOT
ATOM      1  C2  UNL d   1       0.898   0.216  -0.915  0.00  0.00    -0.081 A 
ATOM      2  C3  UNL d   1      -0.498   0.283  -0.830  0.00  0.00     0.006 A 
ATOM      3  C4  UNL d   1      -1.136   0.224   0.412  0.00  0.00     0.002 A 
ATOM      4  C5  UNL d   1      -0.389   0.105   1.588  0.00  0.00    -0.080 A 
ATOM      5  C6  UNL d   1      -1.059   0.072   2.930  0.00  0.00     0.076 C 
ATOM      6  C7  UNL d   1       1.005   0.020   1.502  0.00  0.00     0.002 A 
ATOM      7  C8  UNL d   1       1.643   0.078   0.261  0.00  0.00     0.006 A 
ENDROOT
BRANCH   1   8
ATOM      8  C1  UNL d   1       1.591   0.344  -2.247  0.00  0.00     0.054 C 
ATOM      9  C   UNL d   1       0.611   0.723  -3.347  0.00  0.00     0.018 C 
ENDBRANCH   1   8
TORSDOF 1
ENDMDL
