MODEL 1
REMARK minimizedAffinity -5.3947072
REMARK minimizedRMSD -1
REMARK  1 active torsions:
REMARK  status: ('A' for Active; 'I' for Inactive)
REMARK    1  A    between atoms: C1_2  and  C2_3 
ROOT
ATOM      1  C2  UNL d   1       0.249  -0.443  -0.205  0.00  0.00    -0.081 A 
ATOM      2  C3  UNL d   1      -1.066  -0.223   0.222  0.00  0.00     0.006 A 
ATOM      3  C4  UNL d   1      -1.338   0.708   1.227  0.00  0.00     0.002 A 
ATOM      4  C5  UNL d   1      -0.301   1.440   1.816  0.00  0.00    -0.080 A 
ATOM      5  C6  UNL d   1      -0.582   2.464   2.875  0.00  0.00     0.076 C 
ATOM      6  C7  UNL d   1       1.015   1.208   1.402  0.00  0.00     0.002 A 
ATOM      7  C8  UNL d   1       1.288   0.277   0.397  0.00  0.00     0.006 A 
ENDROOT
BRANCH   1   8
ATOM      8  C1  UNL d   1       0.539  -1.399  -1.334  0.00  0.00     0.054 C 
ATOM      9  C   UNL d   1       0.793  -0.655  -2.638  0.00  0.00     0.018 C 
ENDBRANCH   1   8
TORSDOF 1
ENDMDL
