MODEL 1
REMARK minimizedAffinity 11.8281565
REMARK minimizedRMSD -1
REMARK  1 active torsions:
REMARK  status: ('A' for Active; 'I' for Inactive)
REMARK    1  A    between atoms: C1_2  and  C2_3 
ROOT
ATOM      1  C2  UNL d   1       2.546  -4.987  -0.760  0.00  0.00    -0.073 A 
ATOM      2  C3  UNL d   1       3.512  -5.998  -0.805  0.00  0.00    -0.002 A 
ATOM      3  C4  UNL d   1       4.870  -5.678  -0.779  0.00  0.00     0.004 A 
ATOM      4  C5  UNL d   1       5.276  -4.346  -0.700  0.00  0.00    -0.004 A 
ATOM      5  C6  UNL d   1       4.326  -3.322  -0.641  0.00  0.00    -0.075 A 
ATOM      6  C7  UNL d   1       4.746  -1.883  -0.558  0.00  0.00     0.076 C 
ATOM      7  C8  UNL d   1       2.964  -3.651  -0.671  0.00  0.00     0.001 A 
ENDROOT
BRANCH   1   8
ATOM      8  C1  UNL d   1       1.078  -5.328  -0.781  0.00  0.00     0.053 C 
ATOM      9  C   UNL d   1       0.254  -4.255  -1.476  0.00  0.00     0.018 C 
ENDBRANCH   1   8
TORSDOF 1
ENDMDL
