MODEL 1
REMARK minimizedAffinity 10.042676
REMARK minimizedRMSD -1
REMARK  1 active torsions:
REMARK  status: ('A' for Active; 'I' for Inactive)
REMARK    1  A    between atoms: C1_2  and  C2_3 
ROOT
ATOM      1  C2  UNL d   1       4.570  -4.912  -3.422  0.00  0.00    -0.073 A 
ATOM      2  C3  UNL d   1       4.452  -6.000  -2.550  0.00  0.00    -0.002 A 
ATOM      3  C4  UNL d   1       4.841  -5.878  -1.215  0.00  0.00     0.004 A 
ATOM      4  C5  UNL d   1       5.344  -4.668  -0.738  0.00  0.00    -0.004 A 
ATOM      5  C6  UNL d   1       5.458  -3.566  -1.591  0.00  0.00    -0.075 A 
ATOM      6  C7  UNL d   1       6.000  -2.258  -1.094  0.00  0.00     0.076 C 
ATOM      7  C8  UNL d   1       5.068  -3.697  -2.931  0.00  0.00     0.001 A 
ENDROOT
BRANCH   1   8
ATOM      8  C1  UNL d   1       4.145  -5.036  -4.863  0.00  0.00     0.053 C 
ATOM      9  C   UNL d   1       5.035  -5.995  -5.638  0.00  0.00     0.018 C 
ENDBRANCH   1   8
TORSDOF 1
ENDMDL
