MODEL 1
REMARK minimizedAffinity 3.8955164
REMARK minimizedRMSD -1
REMARK  1 active torsions:
REMARK  status: ('A' for Active; 'I' for Inactive)
REMARK    1  A    between atoms: C1_2  and  C2_3 
ROOT
ATOM      1  C2  UNL d   1       0.591   1.666   2.425  0.00  0.00    -0.073 A 
ATOM      2  C3  UNL d   1       1.972   1.807   2.609  0.00  0.00    -0.002 A 
ATOM      3  C4  UNL d   1       2.740   2.503   1.675  0.00  0.00     0.004 A 
ATOM      4  C5  UNL d   1       2.136   3.071   0.553  0.00  0.00    -0.004 A 
ATOM      5  C6  UNL d   1       0.756   2.952   0.358  0.00  0.00    -0.075 A 
ATOM      6  C7  UNL d   1       0.091   3.555  -0.844  0.00  0.00     0.076 C 
ATOM      7  C8  UNL d   1      -0.008   2.249   1.300  0.00  0.00     0.001 A 
ENDROOT
BRANCH   1   8
ATOM      8  C1  UNL d   1      -0.243   0.920   3.435  0.00  0.00     0.053 C 
ATOM      9  C   UNL d   1       0.542  -0.192   4.112  0.00  0.00     0.018 C 
ENDBRANCH   1   8
TORSDOF 1
ENDMDL
