MODEL 1
REMARK minimizedAffinity 13.6036701
REMARK minimizedRMSD -1
REMARK  1 active torsions:
REMARK  status: ('A' for Active; 'I' for Inactive)
REMARK    1  A    between atoms: C1_2  and  C2_3 
ROOT
ATOM      1  C2  UNL d   1      -1.850   4.672  -1.626  0.00  0.00    -0.073 A 
ATOM      2  C3  UNL d   1      -1.211   5.906  -1.459  0.00  0.00    -0.002 A 
ATOM      3  C4  UNL d   1      -0.006   5.987  -0.761  0.00  0.00     0.004 A 
ATOM      4  C5  UNL d   1       0.577   4.837  -0.230  0.00  0.00    -0.004 A 
ATOM      5  C6  UNL d   1      -0.040   3.593  -0.397  0.00  0.00    -0.075 A 
ATOM      6  C7  UNL d   1       0.572   2.345   0.170  0.00  0.00     0.076 C 
ATOM      7  C8  UNL d   1      -1.252   3.520  -1.097  0.00  0.00     0.001 A 
ENDROOT
BRANCH   1   8
ATOM      8  C1  UNL d   1      -3.149   4.579  -2.385  0.00  0.00     0.053 C 
ATOM      9  C   UNL d   1      -4.316   4.233  -1.474  0.00  0.00     0.018 C 
ENDBRANCH   1   8
TORSDOF 1
ENDMDL
