MODEL 1
REMARK minimizedAffinity 8.66061401
REMARK minimizedRMSD -1
REMARK  1 active torsions:
REMARK  status: ('A' for Active; 'I' for Inactive)
REMARK    1  A    between atoms: C1_2  and  C2_3 
ROOT
ATOM      1  C2  UNL d   1       0.571   3.416   0.207  0.00  0.00    -0.073 A 
ATOM      2  C3  UNL d   1       1.719   4.154   0.519  0.00  0.00    -0.002 A 
ATOM      3  C4  UNL d   1       2.242   4.131   1.812  0.00  0.00     0.004 A 
ATOM      4  C5  UNL d   1       1.629   3.365   2.804  0.00  0.00    -0.004 A 
ATOM      5  C6  UNL d   1       0.489   2.611   2.509  0.00  0.00    -0.075 A 
ATOM      6  C7  UNL d   1      -0.184   1.784   3.565  0.00  0.00     0.076 C 
ATOM      7  C8  UNL d   1      -0.033   2.642   1.208  0.00  0.00     0.001 A 
ENDROOT
BRANCH   1   8
ATOM      8  C1  UNL d   1       0.006   3.433  -1.190  0.00  0.00     0.053 C 
ATOM      9  C   UNL d   1      -0.833   4.673  -1.451  0.00  0.00     0.018 C 
ENDBRANCH   1   8
TORSDOF 1
ENDMDL
