MODEL 1
REMARK minimizedAffinity 4.0047822
REMARK minimizedRMSD -1
REMARK  1 active torsions:
REMARK  status: ('A' for Active; 'I' for Inactive)
REMARK    1  A    between atoms: C1_2  and  C2_3 
ROOT
ATOM      1  C2  UNL d   1       0.233   4.337  -2.329  0.00  0.00    -0.073 A 
ATOM      2  C3  UNL d   1      -1.075   4.701  -1.989  0.00  0.00    -0.002 A 
ATOM      3  C4  UNL d   1      -1.509   4.618  -0.665  0.00  0.00     0.004 A 
ATOM      4  C5  UNL d   1      -0.639   4.178   0.332  0.00  0.00    -0.004 A 
ATOM      5  C6  UNL d   1       0.676   3.820   0.014  0.00  0.00    -0.075 A 
ATOM      6  C7  UNL d   1       1.623   3.342   1.075  0.00  0.00     0.076 C 
ATOM      7  C8  UNL d   1       1.103   3.904  -1.318  0.00  0.00     0.001 A 
ENDROOT
BRANCH   1   8
ATOM      8  C1  UNL d   1       0.708   4.431  -3.756  0.00  0.00     0.053 C 
ATOM      9  C   UNL d   1       0.819   5.873  -4.226  0.00  0.00     0.018 C 
ENDBRANCH   1   8
TORSDOF 1
ENDMDL
