MODEL 1
REMARK minimizedAffinity -4.67472792
REMARK minimizedRMSD -1
REMARK  0 active torsions:
REMARK  status: ('A' for Active; 'I' for Inactive)
ROOT
ATOM      1  C2' OXE d   1      -0.375  -0.887  -0.237  0.00  0.00     0.078 C 
ATOM      2  C1' OXE d   1      -1.215   1.128   1.528  0.00  0.00     0.078 C 
ATOM      3  C1  OXE d   1       0.199   1.193   1.007  0.00  0.00    -0.078 A 
ATOM      4  C2  OXE d   1       0.616   0.177   0.181  0.00  0.00    -0.078 A 
ATOM      5  C3  OXE d   1       1.893   0.218  -0.371  0.00  0.00     0.003 A 
ATOM      6  C4  OXE d   1       2.807   1.201   0.028  0.00  0.00    -0.002 A 
ATOM      7  C5  OXE d   1       2.415   2.223   0.900  0.00  0.00    -0.002 A 
ATOM      8  C6  OXE d   1       1.105   2.257   1.364  0.00  0.00     0.003 A 
ENDROOT
TORSDOF 0
ENDMDL
