MODEL 1
REMARK minimizedAffinity -4.23197794
REMARK minimizedRMSD -1
REMARK  0 active torsions:
REMARK  status: ('A' for Active; 'I' for Inactive)
ROOT
ATOM      1  C2' OXE d   1      -0.312  -0.960  -0.383  0.00  0.00     0.078 C 
ATOM      2  C1' OXE d   1       2.356  -0.213  -0.837  0.00  0.00     0.078 C 
ATOM      3  C1  OXE d   1       1.530   0.652   0.083  0.00  0.00    -0.078 A 
ATOM      4  C2  OXE d   1       0.212   0.305   0.262  0.00  0.00    -0.078 A 
ATOM      5  C3  OXE d   1      -0.579   1.036   1.143  0.00  0.00     0.003 A 
ATOM      6  C4  OXE d   1      -0.090   2.211   1.728  0.00  0.00    -0.002 A 
ATOM      7  C5  OXE d   1       1.237   2.604   1.527  0.00  0.00    -0.002 A 
ATOM      8  C6  OXE d   1       2.071   1.814   0.743  0.00  0.00     0.003 A 
ENDROOT
TORSDOF 0
ENDMDL
