MODEL 1
REMARK minimizedAffinity -4.32730246
REMARK minimizedRMSD -1
REMARK  0 active torsions:
REMARK  status: ('A' for Active; 'I' for Inactive)
ROOT
ATOM      1  C2' OXE d   1      -0.539  -0.156   0.227  0.00  0.00     0.078 C 
ATOM      2  C1' OXE d   1       1.865  -1.084  -0.886  0.00  0.00     0.078 C 
ATOM      3  C1  OXE d   1       1.900   0.214  -0.119  0.00  0.00    -0.078 A 
ATOM      4  C2  OXE d   1       0.711   0.684   0.383  0.00  0.00    -0.078 A 
ATOM      5  C3  OXE d   1       0.696   1.848   1.145  0.00  0.00     0.003 A 
ATOM      6  C4  OXE d   1       1.854   2.625   1.276  0.00  0.00    -0.002 A 
ATOM      7  C5  OXE d   1       3.068   2.184   0.739  0.00  0.00    -0.002 A 
ATOM      8  C6  OXE d   1       3.117   0.962   0.077  0.00  0.00     0.003 A 
ENDROOT
TORSDOF 0
ENDMDL
