MODEL 1
REMARK minimizedAffinity -2.51383662
REMARK minimizedRMSD -1
REMARK  0 active torsions:
REMARK  status: ('A' for Active; 'I' for Inactive)
ROOT
ATOM      1  C2' OXE d   1      -0.978   0.871   1.752  0.00  0.00     0.078 C 
ATOM      2  C1' OXE d   1      -0.794  -0.863  -0.449  0.00  0.00     0.078 C 
ATOM      3  C1  OXE d   1       0.475  -0.210   0.040  0.00  0.00    -0.078 A 
ATOM      4  C2  OXE d   1       0.368   0.673   1.088  0.00  0.00    -0.078 A 
ATOM      5  C3  OXE d   1       1.515   1.260   1.614  0.00  0.00     0.003 A 
ATOM      6  C4  OXE d   1       2.755   1.080   0.988  0.00  0.00    -0.002 A 
ATOM      7  C5  OXE d   1       2.879   0.216  -0.105  0.00  0.00    -0.002 A 
ATOM      8  C6  OXE d   1       1.759  -0.469  -0.564  0.00  0.00     0.003 A 
ENDROOT
TORSDOF 0
ENDMDL
