MODEL 1
REMARK minimizedAffinity -3.74174738
REMARK minimizedRMSD -1
REMARK  0 active torsions:
REMARK  status: ('A' for Active; 'I' for Inactive)
ROOT
ATOM      1  C2' OXE d   1       0.707   2.156   1.498  0.00  0.00     0.078 C 
ATOM      2  C1' OXE d   1      -1.628   0.608   1.680  0.00  0.00     0.078 C 
ATOM      3  C1  OXE d   1      -0.498   0.079   0.833  0.00  0.00    -0.078 A 
ATOM      4  C2  OXE d   1       0.623   0.865   0.712  0.00  0.00    -0.078 A 
ATOM      5  C3  OXE d   1       1.717   0.399  -0.012  0.00  0.00     0.003 A 
ATOM      6  C4  OXE d   1       1.628  -0.791  -0.743  0.00  0.00    -0.002 A 
ATOM      7  C5  OXE d   1       0.480  -1.588  -0.666  0.00  0.00    -0.002 A 
ATOM      8  C6  OXE d   1      -0.573  -1.189   0.150  0.00  0.00     0.003 A 
ENDROOT
TORSDOF 0
ENDMDL
