MODEL 1
REMARK minimizedAffinity -5.76258087
REMARK minimizedRMSD -1
REMARK  0 active torsions:
REMARK  status: ('A' for Active; 'I' for Inactive)
ROOT
ATOM      1  C2' OXE d   1      -0.334  -0.745  -0.051  0.00  0.00     0.078 C 
ATOM      2  C1' OXE d   1      -0.824   1.575   1.451  0.00  0.00     0.078 C 
ATOM      3  C1  OXE d   1       0.556   1.392   0.870  0.00  0.00    -0.078 A 
ATOM      4  C2  OXE d   1       0.801   0.232   0.175  0.00  0.00    -0.078 A 
ATOM      5  C3  OXE d   1       2.040   0.037  -0.428  0.00  0.00     0.003 A 
ATOM      6  C4  OXE d   1       3.086   0.940  -0.205  0.00  0.00    -0.002 A 
ATOM      7  C5  OXE d   1       2.870   2.109   0.533  0.00  0.00    -0.002 A 
ATOM      8  C6  OXE d   1       1.602   2.370   1.040  0.00  0.00     0.003 A 
ENDROOT
TORSDOF 0
ENDMDL
