MODEL 1
REMARK minimizedAffinity -3.50759673
REMARK minimizedRMSD -1
REMARK  0 active torsions:
REMARK  status: ('A' for Active; 'I' for Inactive)
ROOT
ATOM      1  C2' OXE d   1      -1.522  -1.851  -1.209  0.00  0.00     0.078 C 
ATOM      2  C1' OXE d   1      -1.144   0.138   0.735  0.00  0.00     0.078 C 
ATOM      3  C1  OXE d   1       0.080  -0.421   0.054  0.00  0.00    -0.078 A 
ATOM      4  C2  OXE d   1      -0.111  -1.428  -0.863  0.00  0.00    -0.078 A 
ATOM      5  C3  OXE d   1       0.979  -1.941  -1.560  0.00  0.00     0.003 A 
ATOM      6  C4  OXE d   1       2.281  -1.550  -1.226  0.00  0.00    -0.002 A 
ATOM      7  C5  OXE d   1       2.501  -0.555  -0.268  0.00  0.00    -0.002 A 
ATOM      8  C6  OXE d   1       1.411   0.048   0.350  0.00  0.00     0.003 A 
ENDROOT
TORSDOF 0
ENDMDL
