MODEL 1
REMARK minimizedAffinity -6.51200008
REMARK minimizedRMSD -1
REMARK  0 active torsions:
REMARK  status: ('A' for Active; 'I' for Inactive)
ROOT
ATOM      1  C2' OXE d   1      -1.287   0.185   1.551  0.00  0.00     0.078 C 
ATOM      2  C1' OXE d   1       0.079  -0.974  -0.610  0.00  0.00     0.078 C 
ATOM      3  C1  OXE d   1       0.731   0.192   0.090  0.00  0.00    -0.078 A 
ATOM      4  C2  OXE d   1       0.034   0.783   1.117  0.00  0.00    -0.078 A 
ATOM      5  C3  OXE d   1       0.614   1.827   1.832  0.00  0.00     0.003 A 
ATOM      6  C4  OXE d   1       1.832   2.380   1.418  0.00  0.00    -0.002 A 
ATOM      7  C5  OXE d   1       2.539   1.819   0.349  0.00  0.00    -0.002 A 
ATOM      8  C6  OXE d   1       2.024   0.700  -0.296  0.00  0.00     0.003 A 
ENDROOT
TORSDOF 0
ENDMDL
