MODEL 1
REMARK minimizedAffinity -4.07670975
REMARK minimizedRMSD -1
REMARK  0 active torsions:
REMARK  status: ('A' for Active; 'I' for Inactive)
ROOT
ATOM      1  C2' OXE d   1      -1.414   0.244   1.582  0.00  0.00     0.078 C 
ATOM      2  C1' OXE d   1      -0.587  -1.009  -0.790  0.00  0.00     0.078 C 
ATOM      3  C1  OXE d   1       0.432  -0.194  -0.032  0.00  0.00    -0.078 A 
ATOM      4  C2  OXE d   1       0.006   0.454   1.103  0.00  0.00    -0.078 A 
ATOM      5  C3  OXE d   1       0.918   1.174   1.869  0.00  0.00     0.003 A 
ATOM      6  C4  OXE d   1       2.227   1.371   1.413  0.00  0.00    -0.002 A 
ATOM      7  C5  OXE d   1       2.670   0.753   0.239  0.00  0.00    -0.002 A 
ATOM      8  C6  OXE d   1       1.799  -0.066  -0.471  0.00  0.00     0.003 A 
ENDROOT
TORSDOF 0
ENDMDL
