MODEL 1
REMARK minimizedAffinity -5.8889637
REMARK minimizedRMSD -1
REMARK  0 active torsions:
REMARK  status: ('A' for Active; 'I' for Inactive)
ROOT
ATOM      1  C2' OXE d   1       0.919  -0.826  -0.455  0.00  0.00     0.078 C 
ATOM      2  C1' OXE d   1      -1.005   0.472   1.124  0.00  0.00     0.078 C 
ATOM      3  C1  OXE d   1       0.356   1.112   1.005  0.00  0.00    -0.078 A 
ATOM      4  C2  OXE d   1       1.306   0.446   0.268  0.00  0.00    -0.078 A 
ATOM      5  C3  OXE d   1       2.560   1.019   0.081  0.00  0.00     0.003 A 
ATOM      6  C4  OXE d   1       2.913   2.190   0.762  0.00  0.00    -0.002 A 
ATOM      7  C5  OXE d   1       1.973   2.864   1.549  0.00  0.00    -0.002 A 
ATOM      8  C6  OXE d   1       0.680   2.362   1.647  0.00  0.00     0.003 A 
ENDROOT
TORSDOF 0
ENDMDL
