MODEL 1
REMARK minimizedAffinity -6.59731102
REMARK minimizedRMSD -1
REMARK  0 active torsions:
REMARK  status: ('A' for Active; 'I' for Inactive)
ROOT
ATOM      1  C2' OXE d   1      -0.352  -0.352   0.929  0.00  0.00     0.078 C 
ATOM      2  C1' OXE d   1       1.904  -0.847  -0.667  0.00  0.00     0.078 C 
ATOM      3  C1  OXE d   1       1.870   0.436   0.124  0.00  0.00    -0.078 A 
ATOM      4  C2  OXE d   1       0.742   0.693   0.866  0.00  0.00    -0.078 A 
ATOM      5  C3  OXE d   1       0.682   1.836   1.657  0.00  0.00     0.003 A 
ATOM      6  C4  OXE d   1       1.693   2.802   1.585  0.00  0.00    -0.002 A 
ATOM      7  C5  OXE d   1       2.833   2.579   0.805  0.00  0.00    -0.002 A 
ATOM      8  C6  OXE d   1       2.956   1.385   0.103  0.00  0.00     0.003 A 
ENDROOT
TORSDOF 0
ENDMDL
