MODEL 1
REMARK minimizedAffinity -5.72448921
REMARK minimizedRMSD -1
REMARK  0 active torsions:
REMARK  status: ('A' for Active; 'I' for Inactive)
ROOT
ATOM      1  C2' OXE d   1      -0.321  -0.177   1.318  0.00  0.00     0.078 C 
ATOM      2  C1' OXE d   1       1.523  -1.339  -0.452  0.00  0.00     0.078 C 
ATOM      3  C1  OXE d   1       1.848   0.023   0.109  0.00  0.00    -0.078 A 
ATOM      4  C2  OXE d   1       0.919   0.604   0.938  0.00  0.00    -0.078 A 
ATOM      5  C3  OXE d   1       1.194   1.835   1.526  0.00  0.00     0.003 A 
ATOM      6  C4  OXE d   1       2.338   2.555   1.161  0.00  0.00    -0.002 A 
ATOM      7  C5  OXE d   1       3.279   1.999   0.288  0.00  0.00    -0.002 A 
ATOM      8  C6  OXE d   1       3.070   0.718  -0.213  0.00  0.00     0.003 A 
ENDROOT
TORSDOF 0
ENDMDL
