MODEL 1
REMARK minimizedAffinity -6.01487446
REMARK minimizedRMSD -1
REMARK  0 active torsions:
REMARK  status: ('A' for Active; 'I' for Inactive)
ROOT
ATOM      1  C2' OXE d   1      -0.187  -1.352  -0.316  0.00  0.00     0.078 C 
ATOM      2  C1' OXE d   1      -1.519   0.259   1.558  0.00  0.00     0.078 C 
ATOM      3  C1  OXE d   1      -0.101   0.626   1.196  0.00  0.00    -0.078 A 
ATOM      4  C2  OXE d   1       0.558  -0.195   0.313  0.00  0.00    -0.078 A 
ATOM      5  C3  OXE d   1       1.848   0.129  -0.097  0.00  0.00     0.003 A 
ATOM      6  C4  OXE d   1       2.534   1.195   0.497  0.00  0.00    -0.002 A 
ATOM      7  C5  OXE d   1       1.894   2.021   1.428  0.00  0.00    -0.002 A 
ATOM      8  C6  OXE d   1       0.566   1.776   1.755  0.00  0.00     0.003 A 
ENDROOT
TORSDOF 0
ENDMDL
