MODEL 1
REMARK minimizedAffinity -2.76337981
REMARK minimizedRMSD -1
REMARK  0 active torsions:
REMARK  status: ('A' for Active; 'I' for Inactive)
ROOT
ATOM      1  C2' OXE d   1       3.383   0.322   0.378  0.00  0.00     0.078 C 
ATOM      2  C1' OXE d   1       1.285   1.603   1.733  0.00  0.00     0.078 C 
ATOM      3  C1  OXE d   1       0.952   0.378   0.919  0.00  0.00    -0.078 A 
ATOM      4  C2  OXE d   1       1.977  -0.216   0.222  0.00  0.00    -0.078 A 
ATOM      5  C3  OXE d   1       1.735  -1.381  -0.501  0.00  0.00     0.003 A 
ATOM      6  C4  OXE d   1       0.430  -1.865  -0.648  0.00  0.00    -0.002 A 
ATOM      7  C5  OXE d   1      -0.635  -1.253   0.021  0.00  0.00    -0.002 A 
ATOM      8  C6  OXE d   1      -0.385  -0.158   0.841  0.00  0.00     0.003 A 
ENDROOT
TORSDOF 0
ENDMDL
