MODEL 1
REMARK minimizedAffinity -3.53949356
REMARK minimizedRMSD -1
REMARK  0 active torsions:
REMARK  status: ('A' for Active; 'I' for Inactive)
ROOT
ATOM      1  C2' OXE d   1       3.316   1.200  -0.058  0.00  0.00     0.078 C 
ATOM      2  C1' OXE d   1       1.543   2.269   1.838  0.00  0.00     0.078 C 
ATOM      3  C1  OXE d   1       1.106   1.041   1.079  0.00  0.00    -0.078 A 
ATOM      4  C2  OXE d   1       1.960   0.552   0.120  0.00  0.00    -0.078 A 
ATOM      5  C3  OXE d   1       1.629  -0.610  -0.571  0.00  0.00     0.003 A 
ATOM      6  C4  OXE d   1       0.369  -1.197  -0.407  0.00  0.00    -0.002 A 
ATOM      7  C5  OXE d   1      -0.533  -0.692   0.536  0.00  0.00    -0.002 A 
ATOM      8  C6  OXE d   1      -0.163   0.399   1.316  0.00  0.00     0.003 A 
ENDROOT
TORSDOF 0
ENDMDL
