MODEL 1
REMARK minimizedAffinity -1.13404608
REMARK minimizedRMSD -1
REMARK  0 active torsions:
REMARK  status: ('A' for Active; 'I' for Inactive)
ROOT
ATOM      1  C2' OXE d   1       1.477  -0.298  -0.654  0.00  0.00     0.078 C 
ATOM      2  C1' OXE d   1      -1.189  -1.149  -0.879  0.00  0.00     0.078 C 
ATOM      3  C1  OXE d   1      -0.851  -0.179   0.225  0.00  0.00    -0.078 A 
ATOM      4  C2  OXE d   1       0.464   0.196   0.357  0.00  0.00    -0.078 A 
ATOM      5  C3  OXE d   1       0.821   1.131   1.324  0.00  0.00     0.003 A 
ATOM      6  C4  OXE d   1      -0.120   1.576   2.261  0.00  0.00    -0.002 A 
ATOM      7  C5  OXE d   1      -1.458   1.175   2.169  0.00  0.00    -0.002 A 
ATOM      8  C6  OXE d   1      -1.847   0.334   1.133  0.00  0.00     0.003 A 
ENDROOT
TORSDOF 0
ENDMDL
