MODEL 1
REMARK minimizedAffinity 0.0625363216
REMARK minimizedRMSD -1
REMARK  0 active torsions:
REMARK  status: ('A' for Active; 'I' for Inactive)
ROOT
ATOM      1  C   UNL d   1       0.613   0.184  -3.513  0.00  0.00    -0.002 A 
ATOM      2  C1  UNL d   1       1.714   0.765  -2.901  0.00  0.00     0.010 A 
ATOM      3  C2  UNL d   1       1.739   0.956  -1.518  0.00  0.00     0.041 A 
ATOM      4  C3  UNL d   1       0.629   0.547  -0.753  0.00  0.00    -0.075 A 
ATOM      5  S   UNL d   1       0.438   0.680   0.955  0.00  0.00     0.015 SA
ATOM      6  C4  UNL d   1      -1.110  -0.032   0.912  0.00  0.00     0.022 A 
ATOM      7  C5  UNL d   1      -1.487  -0.369  -0.366  0.00  0.00     0.026 A 
ATOM      8  C6  UNL d   1      -0.491  -0.041  -1.347  0.00  0.00    -0.082 A 
ATOM      9  C7  UNL d   1      -0.487  -0.220  -2.751  0.00  0.00     0.045 A 
ENDROOT
TORSDOF 0
ENDMDL
