MODEL 1
REMARK minimizedAffinity -4.16337109
REMARK minimizedRMSD -1
REMARK  0 active torsions:
REMARK  status: ('A' for Active; 'I' for Inactive)
ROOT
ATOM      1  C   UNL d   1      -1.363   1.416   2.604  0.00  0.00    -0.002 A 
ATOM      2  C1  UNL d   1       0.016   1.502   2.729  0.00  0.00     0.010 A 
ATOM      3  C2  UNL d   1       0.853   0.955   1.754  0.00  0.00     0.041 A 
ATOM      4  C3  UNL d   1       0.274   0.315   0.641  0.00  0.00    -0.075 A 
ATOM      5  S   UNL d   1       1.101  -0.427  -0.678  0.00  0.00     0.015 SA
ATOM      6  C4  UNL d   1      -0.357  -0.875  -1.438  0.00  0.00     0.022 A 
ATOM      7  C5  UNL d   1      -1.458  -0.476  -0.717  0.00  0.00     0.026 A 
ATOM      8  C6  UNL d   1      -1.112   0.217   0.492  0.00  0.00    -0.082 A 
ATOM      9  C7  UNL d   1      -1.934   0.781   1.498  0.00  0.00     0.045 A 
ENDROOT
TORSDOF 0
ENDMDL
