MODEL 1
REMARK minimizedAffinity -2.21159863
REMARK minimizedRMSD -1
REMARK  0 active torsions:
REMARK  status: ('A' for Active; 'I' for Inactive)
ROOT
ATOM      1  C   UNL d   1       1.507   0.774  -4.071  0.00  0.00    -0.002 A 
ATOM      2  C1  UNL d   1       0.626  -0.287  -4.222  0.00  0.00     0.010 A 
ATOM      3  C2  UNL d   1      -0.110  -0.760  -3.134  0.00  0.00     0.041 A 
ATOM      4  C3  UNL d   1       0.053  -0.139  -1.879  0.00  0.00    -0.075 A 
ATOM      5  S   UNL d   1      -0.744  -0.547  -0.406  0.00  0.00     0.015 SA
ATOM      6  C4  UNL d   1       0.065   0.679   0.458  0.00  0.00     0.022 A 
ATOM      7  C5  UNL d   1       0.926   1.392  -0.342  0.00  0.00     0.026 A 
ATOM      8  C6  UNL d   1       0.933   0.932  -1.703  0.00  0.00    -0.082 A 
ATOM      9  C7  UNL d   1       1.666   1.387  -2.825  0.00  0.00     0.045 A 
ENDROOT
TORSDOF 0
ENDMDL
