MODEL 1
REMARK minimizedAffinity -2.77682519
REMARK minimizedRMSD -1
REMARK  0 active torsions:
REMARK  status: ('A' for Active; 'I' for Inactive)
ROOT
ATOM      1  C   UNL d   1      -1.145   1.179   2.583  0.00  0.00    -0.002 A 
ATOM      2  C1  UNL d   1       0.232   1.012   2.555  0.00  0.00     0.010 A 
ATOM      3  C2  UNL d   1       0.857   0.448   1.441  0.00  0.00     0.041 A 
ATOM      4  C3  UNL d   1       0.067   0.053   0.344  0.00  0.00    -0.075 A 
ATOM      5  S   UNL d   1       0.614  -0.660  -1.128  0.00  0.00     0.015 SA
ATOM      6  C4  UNL d   1      -0.967  -0.758  -1.755  0.00  0.00     0.022 A 
ATOM      7  C5  UNL d   1      -1.902  -0.264  -0.876  0.00  0.00     0.026 A 
ATOM      8  C6  UNL d   1      -1.321   0.212   0.348  0.00  0.00    -0.082 A 
ATOM      9  C7  UNL d   1      -1.925   0.786   1.492  0.00  0.00     0.045 A 
ENDROOT
TORSDOF 0
ENDMDL
