MODEL 1
REMARK minimizedAffinity -3.24617982
REMARK minimizedRMSD -1
REMARK  0 active torsions:
REMARK  status: ('A' for Active; 'I' for Inactive)
ROOT
ATOM      1  C   UNL d   1      -1.503   1.485   2.371  0.00  0.00    -0.002 A 
ATOM      2  C1  UNL d   1      -0.152   1.638   2.651  0.00  0.00     0.010 A 
ATOM      3  C2  UNL d   1       0.815   1.107   1.795  0.00  0.00     0.041 A 
ATOM      4  C3  UNL d   1       0.398   0.415   0.641  0.00  0.00    -0.075 A 
ATOM      5  S   UNL d   1       1.404  -0.319  -0.551  0.00  0.00     0.015 SA
ATOM      6  C4  UNL d   1       0.065  -0.851  -1.461  0.00  0.00     0.022 A 
ATOM      7  C5  UNL d   1      -1.129  -0.488  -0.883  0.00  0.00     0.026 A 
ATOM      8  C6  UNL d   1      -0.956   0.249   0.338  0.00  0.00    -0.082 A 
ATOM      9  C7  UNL d   1      -1.912   0.798   1.226  0.00  0.00     0.045 A 
ENDROOT
TORSDOF 0
ENDMDL
