MODEL 1
REMARK minimizedAffinity 3.70947909
REMARK minimizedRMSD -1
REMARK  0 active torsions:
REMARK  status: ('A' for Active; 'I' for Inactive)
ROOT
ATOM      1  C1  DEN d   1       4.368   2.798   0.543  0.00  0.00     0.130 A 
ATOM      2  C2  DEN d   1       5.666   2.570  -0.086  0.00  0.00    -0.031 A 
ATOM      3  C3  DEN d   1       5.641   1.234  -0.714  0.00  0.00     0.027 A 
ATOM      4  C4  DEN d   1       3.726  -0.493  -0.778  0.00  0.00     0.027 A 
ATOM      5  C5  DEN d   1       2.435  -0.753  -0.374  0.00  0.00    -0.003 A 
ATOM      6  C6  DEN d   1       1.716   0.130   0.387  0.00  0.00     0.001 A 
ATOM      7  C7  DEN d   1       2.268   1.336   0.730  0.00  0.00     0.017 A 
ATOM      8  C8  DEN d   1       3.571   1.603   0.332  0.00  0.00    -0.094 A 
ATOM      9  C9  DEN d   1       4.277   0.702  -0.448  0.00  0.00    -0.072 A 
ENDROOT
TORSDOF 0
ENDMDL
