MODEL 1
REMARK minimizedAffinity 2.80352855
REMARK minimizedRMSD -1
REMARK  0 active torsions:
REMARK  status: ('A' for Active; 'I' for Inactive)
ROOT
ATOM      1  C1  DEN d   1       3.789   2.178   1.276  0.00  0.00     0.130 A 
ATOM      2  C2  DEN d   1       4.183   1.712  -0.051  0.00  0.00    -0.031 A 
ATOM      3  C3  DEN d   1       2.988   1.148  -0.709  0.00  0.00     0.027 A 
ATOM      4  C4  DEN d   1       0.578   0.955   0.190  0.00  0.00     0.027 A 
ATOM      5  C5  DEN d   1      -0.240   1.202   1.271  0.00  0.00    -0.003 A 
ATOM      6  C6  DEN d   1       0.231   1.757   2.431  0.00  0.00     0.001 A 
ATOM      7  C7  DEN d   1       1.548   2.124   2.523  0.00  0.00     0.017 A 
ATOM      8  C8  DEN d   1       2.380   1.871   1.441  0.00  0.00    -0.094 A 
ATOM      9  C9  DEN d   1       1.883   1.320   0.271  0.00  0.00    -0.072 A 
ENDROOT
TORSDOF 0
ENDMDL
