MODEL 1
REMARK minimizedAffinity 5.78869152
REMARK minimizedRMSD -1
REMARK  0 active torsions:
REMARK  status: ('A' for Active; 'I' for Inactive)
ROOT
ATOM      1  C1  DEN d   1       4.973   1.427   0.388  0.00  0.00     0.130 A 
ATOM      2  C2  DEN d   1       5.991   2.192  -0.328  0.00  0.00    -0.031 A 
ATOM      3  C3  DEN d   1       5.998   1.740  -1.733  0.00  0.00     0.027 A 
ATOM      4  C4  DEN d   1       4.535  -0.057  -2.867  0.00  0.00     0.027 A 
ATOM      5  C5  DEN d   1       3.537  -0.984  -2.663  0.00  0.00    -0.003 A 
ATOM      6  C6  DEN d   1       2.977  -1.195  -1.431  0.00  0.00     0.001 A 
ATOM      7  C7  DEN d   1       3.378  -0.437  -0.364  0.00  0.00     0.017 A 
ATOM      8  C8  DEN d   1       4.389   0.495  -0.560  0.00  0.00    -0.094 A 
ATOM      9  C9  DEN d   1       4.935   0.702  -1.815  0.00  0.00    -0.072 A 
ENDROOT
TORSDOF 0
ENDMDL
