MODEL 1
REMARK minimizedAffinity 9.32589245
REMARK minimizedRMSD -1
REMARK  0 active torsions:
REMARK  status: ('A' for Active; 'I' for Inactive)
ROOT
ATOM      1  C1  DEN d   1      -5.965   0.703  -2.621  0.00  0.00     0.130 A 
ATOM      2  C2  DEN d   1      -5.999   0.528  -1.172  0.00  0.00    -0.031 A 
ATOM      3  C3  DEN d   1      -5.908   1.863  -0.548  0.00  0.00     0.027 A 
ATOM      4  C4  DEN d   1      -5.725   4.174  -1.679  0.00  0.00     0.027 A 
ATOM      5  C5  DEN d   1      -5.648   4.828  -2.888  0.00  0.00    -0.003 A 
ATOM      6  C6  DEN d   1      -5.638   4.158  -4.083  0.00  0.00     0.001 A 
ATOM      7  C7  DEN d   1      -5.750   2.792  -4.095  0.00  0.00     0.017 A 
ATOM      8  C8  DEN d   1      -5.821   2.125  -2.880  0.00  0.00    -0.094 A 
ATOM      9  C9  DEN d   1      -5.842   2.822  -1.683  0.00  0.00    -0.072 A 
ENDROOT
TORSDOF 0
ENDMDL
