MODEL 1
REMARK minimizedAffinity 6.59013176
REMARK minimizedRMSD -1
REMARK  0 active torsions:
REMARK  status: ('A' for Active; 'I' for Inactive)
ROOT
ATOM      1  C1  DEN d   1       3.521   0.066  -2.028  0.00  0.00     0.130 A 
ATOM      2  C2  DEN d   1       4.375   0.670  -1.008  0.00  0.00    -0.031 A 
ATOM      3  C3  DEN d   1       4.088   0.007   0.279  0.00  0.00     0.027 A 
ATOM      4  C4  DEN d   1       2.417  -1.891   0.790  0.00  0.00     0.027 A 
ATOM      5  C5  DEN d   1       1.461  -2.721   0.247  0.00  0.00    -0.003 A 
ATOM      6  C6  DEN d   1       1.103  -2.657  -1.073  0.00  0.00     0.001 A 
ATOM      7  C7  DEN d   1       1.738  -1.775  -1.907  0.00  0.00     0.017 A 
ATOM      8  C8  DEN d   1       2.698  -0.930  -1.366  0.00  0.00    -0.094 A 
ATOM      9  C9  DEN d   1       3.055  -1.018  -0.031  0.00  0.00    -0.072 A 
ENDROOT
TORSDOF 0
ENDMDL
