MODEL 1
REMARK minimizedAffinity 2.30495811
REMARK minimizedRMSD -1
REMARK  1 active torsions:
REMARK  status: ('A' for Active; 'I' for Inactive)
REMARK    1  A    between atoms: C1_2  and  C2_3 
ROOT
ATOM      1  C2  UNL d   1      -5.394   3.347  -3.818  0.00  0.00    -0.073 A 
ATOM      2  C3  UNL d   1      -5.997   4.062  -2.777  0.00  0.00    -0.002 A 
ATOM      3  C4  UNL d   1      -5.616   5.378  -2.513  0.00  0.00     0.004 A 
ATOM      4  C5  UNL d   1      -4.634   5.994  -3.289  0.00  0.00    -0.004 A 
ATOM      5  C6  UNL d   1      -4.028   5.300  -4.341  0.00  0.00    -0.075 A 
ATOM      6  C7  UNL d   1      -2.969   5.947  -5.184  0.00  0.00     0.076 C 
ATOM      7  C8  UNL d   1      -4.415   3.978  -4.599  0.00  0.00     0.001 A 
ENDROOT
BRANCH   1   8
ATOM      8  C1  UNL d   1      -5.807   1.928  -4.112  0.00  0.00     0.053 C 
ATOM      9  C   UNL d   1      -5.621   1.571  -5.578  0.00  0.00     0.018 C 
ENDBRANCH   1   8
TORSDOF 1
ENDMDL
