MODEL 1
REMARK minimizedAffinity 2.61135936
REMARK minimizedRMSD -1
REMARK  1 active torsions:
REMARK  status: ('A' for Active; 'I' for Inactive)
REMARK    1  A    between atoms: C1_2  and  C2_3 
ROOT
ATOM      1  C2  UNL d   1      -4.734   4.812  -4.983  0.00  0.00    -0.073 A 
ATOM      2  C3  UNL d   1      -5.114   5.027  -3.654  0.00  0.00    -0.002 A 
ATOM      3  C4  UNL d   1      -5.746   4.016  -2.929  0.00  0.00     0.004 A 
ATOM      4  C5  UNL d   1      -5.997   2.779  -3.522  0.00  0.00    -0.004 A 
ATOM      5  C6  UNL d   1      -5.614   2.540  -4.846  0.00  0.00    -0.075 A 
ATOM      6  C7  UNL d   1      -5.878   1.216  -5.499  0.00  0.00     0.076 C 
ATOM      7  C8  UNL d   1      -4.982   3.562  -5.568  0.00  0.00     0.001 A 
ENDROOT
BRANCH   1   8
ATOM      8  C1  UNL d   1      -4.046   5.899  -5.768  0.00  0.00     0.053 C 
ATOM      9  C   UNL d   1      -2.567   5.998  -5.428  0.00  0.00     0.018 C 
ENDBRANCH   1   8
TORSDOF 1
ENDMDL
