MODEL 1
REMARK minimizedAffinity 1.49700916
REMARK minimizedRMSD -1
REMARK  1 active torsions:
REMARK  status: ('A' for Active; 'I' for Inactive)
REMARK    1  A    between atoms: C1_2  and  C2_3 
ROOT
ATOM      1  C2  UNL d   1      -0.234   5.239  -1.620  0.00  0.00    -0.073 A 
ATOM      2  C3  UNL d   1       0.713   4.218  -1.487  0.00  0.00    -0.002 A 
ATOM      3  C4  UNL d   1       0.825   3.512  -0.288  0.00  0.00     0.004 A 
ATOM      4  C5  UNL d   1      -0.012   3.815   0.786  0.00  0.00    -0.004 A 
ATOM      5  C6  UNL d   1      -0.973   4.825   0.668  0.00  0.00    -0.075 A 
ATOM      6  C7  UNL d   1      -1.879   5.165   1.814  0.00  0.00     0.076 C 
ATOM      7  C8  UNL d   1      -1.077   5.531  -0.538  0.00  0.00     0.001 A 
ENDROOT
BRANCH   1   8
ATOM      8  C1  UNL d   1      -0.363   5.999  -2.915  0.00  0.00     0.053 C 
ATOM      9  C   UNL d   1      -1.791   5.998  -3.437  0.00  0.00     0.018 C 
ENDBRANCH   1   8
TORSDOF 1
ENDMDL
