MODEL 1
REMARK minimizedAffinity 9.18596363
REMARK minimizedRMSD -1
REMARK  1 active torsions:
REMARK  status: ('A' for Active; 'I' for Inactive)
REMARK    1  A    between atoms: C1_2  and  C2_3 
ROOT
ATOM      1  C2  UNL d   1      -5.711   1.419  -5.173  0.00  0.00    -0.073 A 
ATOM      2  C3  UNL d   1      -5.797   1.445  -3.776  0.00  0.00    -0.002 A 
ATOM      3  C4  UNL d   1      -5.936   2.659  -3.101  0.00  0.00     0.004 A 
ATOM      4  C5  UNL d   1      -5.997   3.856  -3.814  0.00  0.00    -0.004 A 
ATOM      5  C6  UNL d   1      -5.925   3.850  -5.211  0.00  0.00    -0.075 A 
ATOM      6  C7  UNL d   1      -5.987   5.129  -5.993  0.00  0.00     0.076 C 
ATOM      7  C8  UNL d   1      -5.782   2.627  -5.882  0.00  0.00     0.001 A 
ENDROOT
BRANCH   1   8
ATOM      8  C1  UNL d   1      -5.567   0.111  -5.907  0.00  0.00     0.053 C 
ATOM      9  C   UNL d   1      -4.120  -0.353  -5.965  0.00  0.00     0.018 C 
ENDBRANCH   1   8
TORSDOF 1
ENDMDL
