MODEL 1
REMARK minimizedAffinity 2.06092048
REMARK minimizedRMSD -1
REMARK  1 active torsions:
REMARK  status: ('A' for Active; 'I' for Inactive)
REMARK    1  A    between atoms: C1_2  and  C2_3 
ROOT
ATOM      1  C2  UNL d   1       0.061   2.957   0.819  0.00  0.00    -0.073 A 
ATOM      2  C3  UNL d   1       0.138   4.275   0.354  0.00  0.00    -0.002 A 
ATOM      3  C4  UNL d   1      -0.278   4.591  -0.940  0.00  0.00     0.004 A 
ATOM      4  C5  UNL d   1      -0.782   3.597  -1.778  0.00  0.00    -0.004 A 
ATOM      5  C6  UNL d   1      -0.879   2.276  -1.327  0.00  0.00    -0.075 A 
ATOM      6  C7  UNL d   1      -1.417   1.194  -2.217  0.00  0.00     0.076 C 
ATOM      7  C8  UNL d   1      -0.456   1.966  -0.027  0.00  0.00     0.001 A 
ENDROOT
BRANCH   1   8
ATOM      8  C1  UNL d   1       0.504   2.612   2.218  0.00  0.00     0.053 C 
ATOM      9  C   UNL d   1      -0.411   1.586   2.868  0.00  0.00     0.018 C 
ENDBRANCH   1   8
TORSDOF 1
ENDMDL
