MODEL 1
REMARK minimizedAffinity 9.30636787
REMARK minimizedRMSD -1
REMARK  0 active torsions:
REMARK  status: ('A' for Active; 'I' for Inactive)
ROOT
ATOM      1  C   UNL d   1       1.030   3.221   3.379  0.00  0.00    -0.002 A 
ATOM      2  C1  UNL d   1       0.457   1.981   3.134  0.00  0.00     0.010 A 
ATOM      3  C2  UNL d   1      -0.088   1.685   1.884  0.00  0.00     0.041 A 
ATOM      4  C3  UNL d   1      -0.046   2.665   0.872  0.00  0.00    -0.075 A 
ATOM      5  S   UNL d   1      -0.651   2.525  -0.736  0.00  0.00     0.015 SA
ATOM      6  C4  UNL d   1      -0.163   4.108  -1.137  0.00  0.00     0.022 A 
ATOM      7  C5  UNL d   1       0.447   4.742  -0.081  0.00  0.00     0.026 A 
ATOM      8  C6  UNL d   1       0.525   3.921   1.094  0.00  0.00    -0.082 A 
ATOM      9  C7  UNL d   1       1.069   4.191   2.373  0.00  0.00     0.045 A 
ENDROOT
TORSDOF 0
ENDMDL
