MODEL 1
REMARK minimizedAffinity 10.9539232
REMARK minimizedRMSD -1
REMARK  0 active torsions:
REMARK  status: ('A' for Active; 'I' for Inactive)
ROOT
ATOM      1  C   UNL d   1      -1.288   5.987  -0.352  0.00  0.00    -0.002 A 
ATOM      2  C1  UNL d   1      -1.117   5.456  -1.623  0.00  0.00     0.010 A 
ATOM      3  C2  UNL d   1      -0.692   4.137  -1.790  0.00  0.00     0.041 A 
ATOM      4  C3  UNL d   1      -0.441   3.352  -0.648  0.00  0.00    -0.075 A 
ATOM      5  S   UNL d   1       0.086   1.710  -0.610  0.00  0.00     0.015 SA
ATOM      6  C4  UNL d   1       0.095   1.675   1.094  0.00  0.00     0.022 A 
ATOM      7  C5  UNL d   1      -0.292   2.877   1.637  0.00  0.00     0.026 A 
ATOM      8  C6  UNL d   1      -0.608   3.863   0.642  0.00  0.00    -0.082 A 
ATOM      9  C7  UNL d   1      -1.039   5.205   0.779  0.00  0.00     0.045 A 
ENDROOT
TORSDOF 0
ENDMDL
