MODEL 1
REMARK minimizedAffinity 4.23270321
REMARK minimizedRMSD -1
REMARK  0 active torsions:
REMARK  status: ('A' for Active; 'I' for Inactive)
ROOT
ATOM      1  C   UNL d   1       1.210   2.861   3.379  0.00  0.00    -0.002 A 
ATOM      2  C1  UNL d   1       1.602   3.902   2.550  0.00  0.00     0.010 A 
ATOM      3  C2  UNL d   1       1.003   4.080   1.302  0.00  0.00     0.041 A 
ATOM      4  C3  UNL d   1      -0.008   3.186   0.897  0.00  0.00    -0.075 A 
ATOM      5  S   UNL d   1      -0.883   3.210  -0.588  0.00  0.00     0.015 SA
ATOM      6  C4  UNL d   1      -1.799   1.838  -0.157  0.00  0.00     0.022 A 
ATOM      7  C5  UNL d   1      -1.458   1.361   1.087  0.00  0.00     0.026 A 
ATOM      8  C6  UNL d   1      -0.420   2.130   1.715  0.00  0.00    -0.082 A 
ATOM      9  C7  UNL d   1       0.207   1.976   2.974  0.00  0.00     0.045 A 
ENDROOT
TORSDOF 0
ENDMDL
