MODEL 1
REMARK minimizedAffinity 6.86523962
REMARK minimizedRMSD -1
REMARK  0 active torsions:
REMARK  status: ('A' for Active; 'I' for Inactive)
ROOT
ATOM      1  C   UNL d   1       5.091  -1.654  -0.670  0.00  0.00    -0.002 A 
ATOM      2  C1  UNL d   1       5.740  -1.843  -1.882  0.00  0.00     0.010 A 
ATOM      3  C2  UNL d   1       5.292  -2.810  -2.784  0.00  0.00     0.041 A 
ATOM      4  C3  UNL d   1       4.170  -3.591  -2.445  0.00  0.00    -0.075 A 
ATOM      5  S   UNL d   1       3.444  -4.834  -3.393  0.00  0.00     0.015 SA
ATOM      6  C4  UNL d   1       2.255  -5.144  -2.212  0.00  0.00     0.022 A 
ATOM      7  C5  UNL d   1       2.394  -4.328  -1.115  0.00  0.00     0.026 A 
ATOM      8  C6  UNL d   1       3.500  -3.419  -1.231  0.00  0.00    -0.082 A 
ATOM      9  C7  UNL d   1       3.978  -2.431  -0.337  0.00  0.00     0.045 A 
ENDROOT
TORSDOF 0
ENDMDL
