MODEL 1
REMARK minimizedAffinity 5.69404602
REMARK minimizedRMSD -1
REMARK  0 active torsions:
REMARK  status: ('A' for Active; 'I' for Inactive)
ROOT
ATOM      1  C   UNL d   1       0.808  -0.853   4.641  0.00  0.00    -0.002 A 
ATOM      2  C1  UNL d   1       1.801  -1.108   3.706  0.00  0.00     0.010 A 
ATOM      3  C2  UNL d   1       1.931  -0.307   2.570  0.00  0.00     0.041 A 
ATOM      4  C3  UNL d   1       1.038   0.768   2.389  0.00  0.00    -0.075 A 
ATOM      5  S   UNL d   1       1.008   1.884   1.076  0.00  0.00     0.015 SA
ATOM      6  C4  UNL d   1      -0.323   2.728   1.725  0.00  0.00     0.022 A 
ATOM      7  C5  UNL d   1      -0.747   2.184   2.914  0.00  0.00     0.026 A 
ATOM      8  C6  UNL d   1       0.031   1.046   3.317  0.00  0.00    -0.082 A 
ATOM      9  C7  UNL d   1      -0.075   0.214   4.458  0.00  0.00     0.045 A 
ENDROOT
TORSDOF 0
ENDMDL
