MODEL 1
REMARK minimizedAffinity 7.23724222
REMARK minimizedRMSD -1
REMARK  0 active torsions:
REMARK  status: ('A' for Active; 'I' for Inactive)
ROOT
ATOM      1  C   UNL d   1      -3.079  -0.564  -1.184  0.00  0.00    -0.002 A 
ATOM      2  C1  UNL d   1      -3.721   0.472  -1.848  0.00  0.00     0.010 A 
ATOM      3  C2  UNL d   1      -3.127   1.733  -1.940  0.00  0.00     0.041 A 
ATOM      4  C3  UNL d   1      -1.864   1.935  -1.349  0.00  0.00    -0.075 A 
ATOM      5  S   UNL d   1      -0.945   3.394  -1.337  0.00  0.00     0.015 SA
ATOM      6  C4  UNL d   1       0.322   2.675  -0.451  0.00  0.00     0.022 A 
ATOM      7  C5  UNL d   1       0.066   1.356  -0.163  0.00  0.00     0.026 A 
ATOM      8  C6  UNL d   1      -1.198   0.907  -0.677  0.00  0.00    -0.082 A 
ATOM      9  C7  UNL d   1      -1.826  -0.359  -0.600  0.00  0.00     0.045 A 
ENDROOT
TORSDOF 0
ENDMDL
