MODEL 1
REMARK minimizedAffinity -3.49421573
REMARK minimizedRMSD -1
REMARK  0 active torsions:
REMARK  status: ('A' for Active; 'I' for Inactive)
ROOT
ATOM      1  N1  IND d   1       0.218   0.079  -1.644  0.00  0.00    -0.196 N 
ATOM      2  C2  IND d   1      -1.057   0.458  -1.331  0.00  0.00     0.054 A 
ATOM      3  C3  IND d   1      -1.268   0.345  -0.000  0.00  0.00    -0.031 A 
ATOM      4  C4  IND d   1       0.371  -0.343   1.862  0.00  0.00     0.051 A 
ATOM      5  C5  IND d   1       1.639  -0.813   2.063  0.00  0.00    -0.031 A 
ATOM      6  C6  IND d   1       2.516  -1.011   1.016  0.00  0.00     0.015 A 
ATOM      7  C7  IND d   1       2.161  -0.735  -0.274  0.00  0.00    -0.016 A 
ATOM      8  C8  IND d   1       0.872  -0.264  -0.481  0.00  0.00    -0.047 A 
ATOM      9  C9  IND d   1      -0.037  -0.101   0.572  0.00  0.00    -0.096 A 
ATOM     10  HN1 IND d   1       0.556   0.058  -2.435  0.00  0.00     0.298 HD
ENDROOT
TORSDOF 0
ENDMDL
