MODEL 1
REMARK minimizedAffinity -3.14399195
REMARK minimizedRMSD -1
REMARK  0 active torsions:
REMARK  status: ('A' for Active; 'I' for Inactive)
ROOT
ATOM      1  N1  IND d   1       1.708  -1.096   0.966  0.00  0.00    -0.196 N 
ATOM      2  C2  IND d   1       1.305  -1.280   2.259  0.00  0.00     0.054 A 
ATOM      3  C3  IND d   1       0.076  -0.749   2.449  0.00  0.00    -0.031 A 
ATOM      4  C4  IND d   1      -1.499   0.377   0.752  0.00  0.00     0.051 A 
ATOM      5  C5  IND d   1      -1.557   0.805  -0.544  0.00  0.00    -0.031 A 
ATOM      6  C6  IND d   1      -0.509   0.616  -1.422  0.00  0.00     0.015 A 
ATOM      7  C7  IND d   1       0.636  -0.023  -1.038  0.00  0.00    -0.016 A 
ATOM      8  C8  IND d   1       0.701  -0.453   0.280  0.00  0.00    -0.047 A 
ATOM      9  C9  IND d   1      -0.342  -0.226   1.187  0.00  0.00    -0.096 A 
ATOM     10  HN1 IND d   1       2.463  -1.342   0.636  0.00  0.00     0.298 HD
ENDROOT
TORSDOF 0
ENDMDL
