MODEL 1
REMARK minimizedAffinity -3.3717978
REMARK minimizedRMSD -1
REMARK  0 active torsions:
REMARK  status: ('A' for Active; 'I' for Inactive)
ROOT
ATOM      1  N1  IND d   1       0.217  -0.172  -2.255  0.00  0.00    -0.196 N 
ATOM      2  C2  IND d   1      -0.971   0.493  -2.131  0.00  0.00     0.054 A 
ATOM      3  C3  IND d   1      -1.172   0.860  -0.845  0.00  0.00    -0.031 A 
ATOM      4  C4  IND d   1       0.362   0.562   1.201  0.00  0.00     0.051 A 
ATOM      5  C5  IND d   1       1.536  -0.018   1.591  0.00  0.00    -0.031 A 
ATOM      6  C6  IND d   1       2.349  -0.690   0.701  0.00  0.00     0.015 A 
ATOM      7  C7  IND d   1       2.021  -0.798  -0.621  0.00  0.00    -0.016 A 
ATOM      8  C8  IND d   1       0.826  -0.216  -1.020  0.00  0.00    -0.047 A 
ATOM      9  C9  IND d   1      -0.023   0.430  -0.112  0.00  0.00    -0.096 A 
ATOM     10  HN1 IND d   1       0.532  -0.506  -2.982  0.00  0.00     0.298 HD
ENDROOT
TORSDOF 0
ENDMDL
