MODEL 1
REMARK minimizedAffinity -0.307749152
REMARK minimizedRMSD -1
REMARK  0 active torsions:
REMARK  status: ('A' for Active; 'I' for Inactive)
ROOT
ATOM      1  N1  IND d   1      -0.740  -0.166  -0.903  0.00  0.00    -0.196 N 
ATOM      2  C2  IND d   1      -1.841  -0.298  -0.103  0.00  0.00     0.054 A 
ATOM      3  C3  IND d   1      -1.469  -0.442   1.188  0.00  0.00    -0.031 A 
ATOM      4  C4  IND d   1       0.886  -0.389   2.228  0.00  0.00     0.051 A 
ATOM      5  C5  IND d   1       2.209  -0.328   1.894  0.00  0.00    -0.031 A 
ATOM      6  C6  IND d   1       2.626  -0.205   0.584  0.00  0.00     0.015 A 
ATOM      7  C7  IND d   1       1.730  -0.127  -0.444  0.00  0.00    -0.016 A 
ATOM      8  C8  IND d   1       0.385  -0.195  -0.109  0.00  0.00    -0.047 A 
ATOM      9  C9  IND d   1      -0.043  -0.363   1.214  0.00  0.00    -0.096 A 
ATOM     10  HN1 IND d   1      -0.749  -0.080  -1.759  0.00  0.00     0.298 HD
ENDROOT
TORSDOF 0
ENDMDL
