MODEL 1
REMARK minimizedAffinity 0.214115441
REMARK minimizedRMSD -1
REMARK  0 active torsions:
REMARK  status: ('A' for Active; 'I' for Inactive)
ROOT
ATOM      1  N1  IND d   1       0.881  -0.775  -1.782  0.00  0.00    -0.196 N 
ATOM      2  C2  IND d   1      -0.235   0.015  -1.806  0.00  0.00     0.054 A 
ATOM      3  C3  IND d   1      -0.501   0.490  -0.569  0.00  0.00    -0.031 A 
ATOM      4  C4  IND d   1       0.818   0.184   1.620  0.00  0.00     0.051 A 
ATOM      5  C5  IND d   1       1.887  -0.484   2.149  0.00  0.00    -0.031 A 
ATOM      6  C6  IND d   1       2.693  -1.297   1.379  0.00  0.00     0.015 A 
ATOM      7  C7  IND d   1       2.465  -1.465   0.042  0.00  0.00    -0.016 A 
ATOM      8  C8  IND d   1       1.377  -0.794  -0.497  0.00  0.00    -0.047 A 
ATOM      9  C9  IND d   1       0.530  -0.001   0.288  0.00  0.00    -0.096 A 
ATOM     10  HN1 IND d   1       1.216  -1.191  -2.456  0.00  0.00     0.298 HD
ENDROOT
TORSDOF 0
ENDMDL
