MODEL 1
REMARK minimizedAffinity -3.75293827
REMARK minimizedRMSD -1
REMARK  0 active torsions:
REMARK  status: ('A' for Active; 'I' for Inactive)
ROOT
ATOM      1  N1  IND d   1       4.673   5.999   4.120  0.00  0.00    -0.196 N 
ATOM      2  C2  IND d   1       4.663   5.982   2.753  0.00  0.00     0.054 A 
ATOM      3  C3  IND d   1       3.393   5.942   2.292  0.00  0.00    -0.031 A 
ATOM      4  C4  IND d   1       1.176   6.000   3.599  0.00  0.00     0.051 A 
ATOM      5  C5  IND d   1       0.674   5.980   4.869  0.00  0.00    -0.031 A 
ATOM      6  C6  IND d   1       1.496   5.967   5.978  0.00  0.00     0.015 A 
ATOM      7  C7  IND d   1       2.856   5.987   5.856  0.00  0.00    -0.016 A 
ATOM      8  C8  IND d   1       3.370   6.000   4.567  0.00  0.00    -0.047 A 
ATOM      9  C9  IND d   1       2.541   5.970   3.438  0.00  0.00    -0.096 A 
ATOM     10  HN1 IND d   1       5.375   6.008   4.617  0.00  0.00     0.298 HD
ENDROOT
TORSDOF 0
ENDMDL
