MODEL 1
REMARK minimizedAffinity -2.04916406
REMARK minimizedRMSD -1
REMARK  0 active torsions:
REMARK  status: ('A' for Active; 'I' for Inactive)
ROOT
ATOM      1  N1  IND d   1       0.850   0.281  -0.700  0.00  0.00    -0.196 N 
ATOM      2  C2  IND d   1      -0.210   0.652  -1.480  0.00  0.00     0.054 A 
ATOM      3  C3  IND d   1      -1.372   0.463  -0.815  0.00  0.00    -0.031 A 
ATOM      4  C4  IND d   1      -1.764  -0.350   1.596  0.00  0.00     0.051 A 
ATOM      5  C5  IND d   1      -1.105  -0.842   2.687  0.00  0.00    -0.031 A 
ATOM      6  C6  IND d   1       0.268  -0.986   2.706  0.00  0.00     0.015 A 
ATOM      7  C7  IND d   1       1.036  -0.630   1.635  0.00  0.00    -0.016 A 
ATOM      8  C8  IND d   1       0.370  -0.136   0.522  0.00  0.00    -0.047 A 
ATOM      9  C9  IND d   1      -1.026  -0.028   0.481  0.00  0.00    -0.096 A 
ATOM     10  HN1 IND d   1       1.677   0.304  -0.933  0.00  0.00     0.298 HD
ENDROOT
TORSDOF 0
ENDMDL
