MODEL 1
REMARK minimizedAffinity -4.84877253
REMARK minimizedRMSD -1
REMARK  0 active torsions:
REMARK  status: ('A' for Active; 'I' for Inactive)
ROOT
ATOM      1  N1  IND d   1       1.499   0.303  -1.092  0.00  0.00    -0.196 N 
ATOM      2  C2  IND d   1       0.956  -0.273   0.023  0.00  0.00     0.054 A 
ATOM      3  C3  IND d   1      -0.239   0.291   0.309  0.00  0.00    -0.031 A 
ATOM      4  C4  IND d   1      -1.541   2.103  -0.975  0.00  0.00     0.051 A 
ATOM      5  C5  IND d   1      -1.434   2.960  -2.034  0.00  0.00    -0.031 A 
ATOM      6  C6  IND d   1      -0.323   2.973  -2.852  0.00  0.00     0.015 A 
ATOM      7  C7  IND d   1       0.723   2.118  -2.647  0.00  0.00    -0.016 A 
ATOM      8  C8  IND d   1       0.621   1.252  -1.567  0.00  0.00    -0.047 A 
ATOM      9  C9  IND d   1      -0.486   1.263  -0.708  0.00  0.00    -0.096 A 
ATOM     10  HN1 IND d   1       2.261   0.105  -1.438  0.00  0.00     0.298 HD
ENDROOT
TORSDOF 0
ENDMDL
