MODEL 1
REMARK minimizedAffinity 3.56995988
REMARK minimizedRMSD -1
REMARK  2 active torsions:
REMARK  status: ('A' for Active; 'I' for Inactive)
REMARK    1  A    between atoms: C1_2  and  C2_3 
REMARK    2  A    between atoms: C2_3  and  C3_4 
ROOT
ATOM      1  C3  UNL d   1      -0.176   5.210  -1.383  0.00  0.00    -0.075 A 
ATOM      2  C4  UNL d   1      -0.677   4.264  -0.477  0.00  0.00     0.002 A 
ATOM      3  C5  UNL d   1       0.065   3.895   0.645  0.00  0.00     0.002 A 
ATOM      4  C6  UNL d   1       1.319   4.458   0.870  0.00  0.00    -0.004 A 
ATOM      5  C7  UNL d   1       1.834   5.386  -0.032  0.00  0.00     0.002 A 
ATOM      6  C8  UNL d   1       1.092   5.761  -1.153  0.00  0.00     0.002 A 
ENDROOT
BRANCH   1   7
ATOM      7  C2  UNL d   1      -0.987   5.636  -2.583  0.00  0.00     0.056 C 
BRANCH   7   8
ATOM      8  C1  UNL d   1      -2.450   5.962  -2.264  0.00  0.00     0.007 C 
ATOM      9  C   UNL d   1      -3.401   4.811  -2.563  0.00  0.00     0.009 C 
ENDBRANCH   7   8
ENDBRANCH   1   7
TORSDOF 2
ENDMDL
