MODEL 1
REMARK minimizedAffinity 8.77268314
REMARK minimizedRMSD -1
REMARK  2 active torsions:
REMARK  status: ('A' for Active; 'I' for Inactive)
REMARK    1  A    between atoms: C1_2  and  C2_3 
REMARK    2  A    between atoms: C2_3  and  C3_4 
ROOT
ATOM      1  C3  UNL d   1       0.958   4.238   0.728  0.00  0.00    -0.075 A 
ATOM      2  C4  UNL d   1       2.105   4.615   1.443  0.00  0.00     0.002 A 
ATOM      3  C5  UNL d   1       2.362   4.076   2.704  0.00  0.00     0.002 A 
ATOM      4  C6  UNL d   1       1.473   3.163   3.270  0.00  0.00    -0.004 A 
ATOM      5  C7  UNL d   1       0.323   2.795   2.575  0.00  0.00     0.002 A 
ATOM      6  C8  UNL d   1       0.065   3.329   1.311  0.00  0.00     0.002 A 
ENDROOT
BRANCH   1   7
ATOM      7  C2  UNL d   1       0.690   4.796  -0.649  0.00  0.00     0.056 C 
BRANCH   7   8
ATOM      8  C1  UNL d   1      -0.258   6.000  -0.661  0.00  0.00     0.007 C 
ATOM      9  C   UNL d   1      -1.689   5.634  -1.031  0.00  0.00     0.009 C 
ENDBRANCH   7   8
ENDBRANCH   1   7
TORSDOF 2
ENDMDL
