MODEL 1
REMARK minimizedAffinity 10.4169455
REMARK minimizedRMSD -1
REMARK  2 active torsions:
REMARK  status: ('A' for Active; 'I' for Inactive)
REMARK    1  A    between atoms: C1_2  and  C2_3 
REMARK    2  A    between atoms: C2_3  and  C3_4 
ROOT
ATOM      1  C3  UNL d   1       0.642   5.314  -0.400  0.00  0.00    -0.075 A 
ATOM      2  C4  UNL d   1       0.991   4.010  -0.019  0.00  0.00     0.002 A 
ATOM      3  C5  UNL d   1       0.362   3.396   1.065  0.00  0.00     0.002 A 
ATOM      4  C6  UNL d   1      -0.613   4.080   1.786  0.00  0.00    -0.004 A 
ATOM      5  C7  UNL d   1      -0.957   5.382   1.427  0.00  0.00     0.002 A 
ATOM      6  C8  UNL d   1      -0.333   5.997   0.340  0.00  0.00     0.002 A 
ENDROOT
BRANCH   1   7
ATOM      7  C2  UNL d   1       1.297   5.973  -1.590  0.00  0.00     0.056 C 
BRANCH   7   8
ATOM      8  C1  UNL d   1       0.580   5.715  -2.920  0.00  0.00     0.007 C 
ATOM      9  C   UNL d   1       1.451   5.994  -4.137  0.00  0.00     0.009 C 
ENDBRANCH   7   8
ENDBRANCH   1   7
TORSDOF 2
ENDMDL
