MODEL 1
REMARK minimizedAffinity 3.23714972
REMARK minimizedRMSD -1
REMARK  2 active torsions:
REMARK  status: ('A' for Active; 'I' for Inactive)
REMARK    1  A    between atoms: C1_2  and  C2_3 
REMARK    2  A    between atoms: C2_3  and  C3_4 
ROOT
ATOM      1  C3  UNL d   1       1.039   4.072   0.721  0.00  0.00    -0.075 A 
ATOM      2  C4  UNL d   1       0.075   3.303   1.389  0.00  0.00     0.002 A 
ATOM      3  C5  UNL d   1       0.343   2.773   2.652  0.00  0.00     0.002 A 
ATOM      4  C6  UNL d   1       1.578   2.996   3.257  0.00  0.00    -0.004 A 
ATOM      5  C7  UNL d   1       2.549   3.744   2.595  0.00  0.00     0.002 A 
ATOM      6  C8  UNL d   1       2.282   4.279   1.333  0.00  0.00     0.002 A 
ENDROOT
BRANCH   1   7
ATOM      7  C2  UNL d   1       0.745   4.673  -0.633  0.00  0.00     0.056 C 
BRANCH   7   8
ATOM      8  C1  UNL d   1      -0.019   6.000  -0.573  0.00  0.00     0.007 C 
ATOM      9  C   UNL d   1      -1.292   5.997  -1.410  0.00  0.00     0.009 C 
ENDBRANCH   7   8
ENDBRANCH   1   7
TORSDOF 2
ENDMDL
