MODEL 1
REMARK minimizedAffinity 12.8746386
REMARK minimizedRMSD -1
REMARK  2 active torsions:
REMARK  status: ('A' for Active; 'I' for Inactive)
REMARK    1  A    between atoms: C1_2  and  C2_3 
REMARK    2  A    between atoms: C2_3  and  C3_4 
ROOT
ATOM      1  C3  UNL d   1       4.525  -4.236  -2.648  0.00  0.00    -0.075 A 
ATOM      2  C4  UNL d   1       4.547  -4.129  -1.250  0.00  0.00     0.002 A 
ATOM      3  C5  UNL d   1       5.277  -3.115  -0.629  0.00  0.00     0.002 A 
ATOM      4  C6  UNL d   1       6.000  -2.203  -1.395  0.00  0.00    -0.004 A 
ATOM      5  C7  UNL d   1       5.998  -2.310  -2.784  0.00  0.00     0.002 A 
ATOM      6  C8  UNL d   1       5.266  -3.321  -3.408  0.00  0.00     0.002 A 
ENDROOT
BRANCH   1   7
ATOM      7  C2  UNL d   1       3.714  -5.313  -3.327  0.00  0.00     0.056 C 
BRANCH   7   8
ATOM      8  C1  UNL d   1       2.201  -5.175  -3.126  0.00  0.00     0.007 C 
ATOM      9  C   UNL d   1       1.675  -5.990  -1.952  0.00  0.00     0.009 C 
ENDBRANCH   7   8
ENDBRANCH   1   7
TORSDOF 2
ENDMDL
