MODEL 1
REMARK minimizedAffinity 11.3822155
REMARK minimizedRMSD -1
REMARK  2 active torsions:
REMARK  status: ('A' for Active; 'I' for Inactive)
REMARK    1  A    between atoms: C1_2  and  C2_3 
REMARK    2  A    between atoms: C2_3  and  C3_4 
ROOT
ATOM      1  C3  UNL d   1       0.061   3.252   0.630  0.00  0.00    -0.075 A 
ATOM      2  C4  UNL d   1      -0.767   3.772   1.636  0.00  0.00     0.002 A 
ATOM      3  C5  UNL d   1      -1.064   5.134   1.674  0.00  0.00     0.002 A 
ATOM      4  C6  UNL d   1      -0.530   5.994   0.717  0.00  0.00    -0.004 A 
ATOM      5  C7  UNL d   1       0.307   5.492  -0.276  0.00  0.00     0.002 A 
ATOM      6  C8  UNL d   1       0.602   4.128  -0.320  0.00  0.00     0.002 A 
ENDROOT
BRANCH   1   7
ATOM      7  C2  UNL d   1       0.363   1.774   0.565  0.00  0.00     0.056 C 
BRANCH   7   8
ATOM      8  C1  UNL d   1      -0.428   1.023  -0.511  0.00  0.00     0.007 C 
ATOM      9  C   UNL d   1       0.424   0.044  -1.309  0.00  0.00     0.009 C 
ENDBRANCH   7   8
ENDBRANCH   1   7
TORSDOF 2
ENDMDL
