MODEL 1
REMARK minimizedAffinity 7.60456991
REMARK minimizedRMSD -1
REMARK  2 active torsions:
REMARK  status: ('A' for Active; 'I' for Inactive)
REMARK    1  A    between atoms: C1_2  and  C2_3 
REMARK    2  A    between atoms: C2_3  and  C3_4 
ROOT
ATOM      1  C3  UNL d   1      -0.022   3.203  -0.011  0.00  0.00    -0.075 A 
ATOM      2  C4  UNL d   1      -0.023   4.013   1.134  0.00  0.00     0.002 A 
ATOM      3  C5  UNL d   1      -0.005   5.403   1.018  0.00  0.00     0.002 A 
ATOM      4  C6  UNL d   1       0.024   6.000  -0.241  0.00  0.00    -0.004 A 
ATOM      5  C7  UNL d   1       0.041   5.204  -1.385  0.00  0.00     0.002 A 
ATOM      6  C8  UNL d   1       0.019   3.813  -1.272  0.00  0.00     0.002 A 
ENDROOT
BRANCH   1   7
ATOM      7  C2  UNL d   1      -0.071   1.698   0.107  0.00  0.00     0.056 C 
BRANCH   7   8
ATOM      8  C1  UNL d   1      -1.200   1.045  -0.698  0.00  0.00     0.007 C 
ATOM      9  C   UNL d   1      -2.471   0.833   0.113  0.00  0.00     0.009 C 
ENDBRANCH   7   8
ENDBRANCH   1   7
TORSDOF 2
ENDMDL
