MODEL 1
REMARK minimizedAffinity 1.18213165
REMARK minimizedRMSD -1
REMARK  2 active torsions:
REMARK  status: ('A' for Active; 'I' for Inactive)
REMARK    1  A    between atoms: C1_2  and  C2_3 
REMARK    2  A    between atoms: C2_3  and  C3_4 
ROOT
ATOM      1  C3  UNL d   1       0.161   3.682   0.992  0.00  0.00    -0.075 A 
ATOM      2  C4  UNL d   1       0.382   3.705  -0.392  0.00  0.00     0.002 A 
ATOM      3  C5  UNL d   1       0.124   4.860  -1.132  0.00  0.00     0.002 A 
ATOM      4  C6  UNL d   1      -0.368   6.000  -0.500  0.00  0.00    -0.004 A 
ATOM      5  C7  UNL d   1      -0.607   5.983   0.872  0.00  0.00     0.002 A 
ATOM      6  C8  UNL d   1      -0.345   4.831   1.616  0.00  0.00     0.002 A 
ENDROOT
BRANCH   1   7
ATOM      7  C2  UNL d   1       0.467   2.445   1.803  0.00  0.00     0.056 C 
BRANCH   7   8
ATOM      8  C1  UNL d   1       0.007   2.527   3.262  0.00  0.00     0.007 C 
ATOM      9  C   UNL d   1       0.496   1.361   4.112  0.00  0.00     0.009 C 
ENDBRANCH   7   8
ENDBRANCH   1   7
TORSDOF 2
ENDMDL
