MODEL 1
REMARK minimizedAffinity -2.20248723
REMARK minimizedRMSD -1
REMARK  0 active torsions:
REMARK  status: ('A' for Active; 'I' for Inactive)
ROOT
ATOM      1  O1  BZF d   1       2.237  -1.180  -0.836  0.00  0.00    -0.204 OA
ATOM      2  C2  BZF d   1       3.357  -1.952  -0.589  0.00  0.00     0.174 A 
ATOM      3  C3  BZF d   1       3.472  -2.220   0.728  0.00  0.00    -0.012 A 
ATOM      4  C3A BZF d   1       2.305  -1.654   1.331  0.00  0.00    -0.107 A 
ATOM      5  C4  BZF d   1       1.840  -1.606   2.614  0.00  0.00     0.055 A 
ATOM      6  C5  BZF d   1       0.702  -0.912   2.879  0.00  0.00    -0.016 A 
ATOM      7  C6  BZF d   1       0.007  -0.251   1.888  0.00  0.00     0.022 A 
ATOM      8  C7  BZF d   1       0.427  -0.273   0.599  0.00  0.00     0.029 A 
ATOM      9  C7A BZF d   1       1.558  -1.001   0.323  0.00  0.00     0.058 A 
ENDROOT
TORSDOF 0
ENDMDL
