MODEL 1
REMARK minimizedAffinity -6.8789506
REMARK minimizedRMSD -1
REMARK  0 active torsions:
REMARK  status: ('A' for Active; 'I' for Inactive)
ROOT
ATOM      1  O1  BZF d   1       0.346  -0.180  -0.883  0.00  0.00    -0.204 OA
ATOM      2  C2  BZF d   1      -0.946   0.187  -0.559  0.00  0.00     0.174 A 
ATOM      3  C3  BZF d   1      -1.193  -0.038   0.748  0.00  0.00    -0.012 A 
ATOM      4  C3A BZF d   1       0.049  -0.493   1.293  0.00  0.00    -0.107 A 
ATOM      5  C4  BZF d   1       0.444  -0.863   2.547  0.00  0.00     0.055 A 
ATOM      6  C5  BZF d   1       1.708  -1.328   2.730  0.00  0.00    -0.016 A 
ATOM      7  C6  BZF d   1       2.599  -1.440   1.683  0.00  0.00     0.022 A 
ATOM      8  C7  BZF d   1       2.254  -1.081   0.423  0.00  0.00     0.029 A 
ATOM      9  C7A BZF d   1       0.989  -0.580   0.240  0.00  0.00     0.058 A 
ENDROOT
TORSDOF 0
ENDMDL
