MODEL 1
REMARK minimizedAffinity -5.864501
REMARK minimizedRMSD -1
REMARK  0 active torsions:
REMARK  status: ('A' for Active; 'I' for Inactive)
ROOT
ATOM      1  O1  BZF d   1       0.380  -0.543  -1.306  0.00  0.00    -0.204 OA
ATOM      2  C2  BZF d   1      -0.835   0.008  -0.947  0.00  0.00     0.174 A 
ATOM      3  C3  BZF d   1      -1.014  -0.055   0.388  0.00  0.00    -0.012 A 
ATOM      4  C3A BZF d   1       0.203  -0.601   0.905  0.00  0.00    -0.107 A 
ATOM      5  C4  BZF d   1       0.641  -0.891   2.166  0.00  0.00     0.055 A 
ATOM      6  C5  BZF d   1       1.853  -1.485   2.324  0.00  0.00    -0.016 A 
ATOM      7  C6  BZF d   1       2.650  -1.808   1.245  0.00  0.00     0.022 A 
ATOM      8  C7  BZF d   1       2.260  -1.535  -0.024  0.00  0.00     0.029 A 
ATOM      9  C7A BZF d   1       1.051  -0.905  -0.185  0.00  0.00     0.058 A 
ENDROOT
TORSDOF 0
ENDMDL
