MODEL 1
REMARK minimizedAffinity -5.50342417
REMARK minimizedRMSD -1
REMARK  0 active torsions:
REMARK  status: ('A' for Active; 'I' for Inactive)
ROOT
ATOM      1  O1  BZF d   1       0.869  -0.457  -0.977  0.00  0.00    -0.204 OA
ATOM      2  C2  BZF d   1      -0.382   0.124  -1.059  0.00  0.00     0.174 A 
ATOM      3  C3  BZF d   1      -0.952   0.205   0.160  0.00  0.00    -0.012 A 
ATOM      4  C3A BZF d   1       0.039  -0.276   1.073  0.00  0.00    -0.107 A 
ATOM      5  C4  BZF d   1       0.073  -0.425   2.430  0.00  0.00     0.055 A 
ATOM      6  C5  BZF d   1       1.165  -0.993   3.005  0.00  0.00    -0.016 A 
ATOM      7  C6  BZF d   1       2.238  -1.427   2.254  0.00  0.00     0.022 A 
ATOM      8  C7  BZF d   1       2.253  -1.296   0.905  0.00  0.00     0.029 A 
ATOM      9  C7A BZF d   1       1.164  -0.692   0.324  0.00  0.00     0.058 A 
ENDROOT
TORSDOF 0
ENDMDL
