MODEL 1
REMARK minimizedAffinity -5.69196939
REMARK minimizedRMSD -1
REMARK  0 active torsions:
REMARK  status: ('A' for Active; 'I' for Inactive)
ROOT
ATOM      1  O1  BZF d   1       0.548  -0.404  -0.773  0.00  0.00    -0.204 OA
ATOM      2  C2  BZF d   1      -0.593   0.361  -0.623  0.00  0.00     0.174 A 
ATOM      3  C3  BZF d   1      -0.912   0.493   0.681  0.00  0.00    -0.012 A 
ATOM      4  C3A BZF d   1       0.144  -0.157   1.394  0.00  0.00    -0.107 A 
ATOM      5  C4  BZF d   1       0.402  -0.347   2.722  0.00  0.00     0.055 A 
ATOM      6  C5  BZF d   1       1.482  -1.089   3.085  0.00  0.00    -0.016 A 
ATOM      7  C6  BZF d   1       2.320  -1.658   2.149  0.00  0.00     0.022 A 
ATOM      8  C7  BZF d   1       2.107  -1.493   0.821  0.00  0.00     0.029 A 
ATOM      9  C7A BZF d   1       1.036  -0.717   0.451  0.00  0.00     0.058 A 
ENDROOT
TORSDOF 0
ENDMDL
