MODEL 1
REMARK minimizedAffinity -4.87906742
REMARK minimizedRMSD -1
REMARK  0 active torsions:
REMARK  status: ('A' for Active; 'I' for Inactive)
ROOT
ATOM      1  O1  BZF d   1       0.232  -0.008  -0.662  0.00  0.00    -0.204 OA
ATOM      2  C2  BZF d   1      -0.995   0.530  -0.325  0.00  0.00     0.174 A 
ATOM      3  C3  BZF d   1      -1.287   0.281   0.968  0.00  0.00    -0.012 A 
ATOM      4  C3A BZF d   1      -0.132  -0.378   1.495  0.00  0.00    -0.107 A 
ATOM      5  C4  BZF d   1       0.191  -0.862   2.730  0.00  0.00     0.055 A 
ATOM      6  C5  BZF d   1       1.371  -1.516   2.896  0.00  0.00    -0.016 A 
ATOM      7  C6  BZF d   1       2.248  -1.708   1.848  0.00  0.00     0.022 A 
ATOM      8  C7  BZF d   1       1.973  -1.242   0.606  0.00  0.00     0.029 A 
ATOM      9  C7A BZF d   1       0.797  -0.551   0.443  0.00  0.00     0.058 A 
ENDROOT
TORSDOF 0
ENDMDL
