MODEL 1
REMARK minimizedAffinity -5.99302197
REMARK minimizedRMSD -1
REMARK  0 active torsions:
REMARK  status: ('A' for Active; 'I' for Inactive)
ROOT
ATOM      1  O1  BZF d   1       0.796  -0.812  -1.153  0.00  0.00    -0.204 OA
ATOM      2  C2  BZF d   1      -0.400  -0.122  -1.125  0.00  0.00     0.174 A 
ATOM      3  C3  BZF d   1      -0.805   0.082   0.145  0.00  0.00    -0.012 A 
ATOM      4  C3A BZF d   1       0.248  -0.436   0.964  0.00  0.00    -0.107 A 
ATOM      5  C4  BZF d   1       0.438  -0.509   2.314  0.00  0.00     0.055 A 
ATOM      6  C5  BZF d   1       1.542  -1.142   2.793  0.00  0.00    -0.016 A 
ATOM      7  C6  BZF d   1       2.471  -1.717   1.951  0.00  0.00     0.022 A 
ATOM      8  C7  BZF d   1       2.328  -1.666   0.604  0.00  0.00     0.029 A 
ATOM      9  C7A BZF d   1       1.231  -0.998   0.117  0.00  0.00     0.058 A 
ENDROOT
TORSDOF 0
ENDMDL
