MODEL 1
REMARK minimizedAffinity -6.1639719
REMARK minimizedRMSD -1
REMARK  0 active torsions:
REMARK  status: ('A' for Active; 'I' for Inactive)
ROOT
ATOM      1  O1  BZF d   1       0.399  -0.703  -0.560  0.00  0.00    -0.204 OA
ATOM      2  C2  BZF d   1      -0.721   0.067  -0.312  0.00  0.00     0.174 A 
ATOM      3  C3  BZF d   1      -0.882   0.263   1.013  0.00  0.00    -0.012 A 
ATOM      4  C3A BZF d   1       0.257  -0.349   1.625  0.00  0.00    -0.107 A 
ATOM      5  C4  BZF d   1       0.674  -0.472   2.920  0.00  0.00     0.055 A 
ATOM      6  C5  BZF d   1       1.795  -1.193   3.187  0.00  0.00    -0.016 A 
ATOM      7  C6  BZF d   1       2.519  -1.807   2.186  0.00  0.00     0.022 A 
ATOM      8  C7  BZF d   1       2.147  -1.708   0.886  0.00  0.00     0.029 A 
ATOM      9  C7A BZF d   1       1.034  -0.953   0.610  0.00  0.00     0.058 A 
ENDROOT
TORSDOF 0
ENDMDL
