MODEL 1
REMARK minimizedAffinity -4.97655392
REMARK minimizedRMSD -1
REMARK  3 active torsions:
REMARK  status: ('A' for Active; 'I' for Inactive)
REMARK    1  A    between atoms: C3'_2  and  C2'_3 
REMARK    2  A    between atoms: C2'_3  and  C1'_4 
REMARK    3  A    between atoms: C1'_4  and  C1_5 
ROOT
ATOM      1  C1  N4B d   1      -0.629   0.134   0.493  0.00  0.00    -0.075 A 
ATOM      2  C2  N4B d   1       0.575   0.526  -0.132  0.00  0.00     0.002 A 
ATOM      3  C3  N4B d   1       0.956   1.845  -0.123  0.00  0.00     0.002 A 
ATOM      4  C4  N4B d   1       0.143   2.790   0.485  0.00  0.00    -0.004 A 
ATOM      5  C5  N4B d   1      -1.006   2.400   1.109  0.00  0.00     0.002 A 
ATOM      6  C6  N4B d   1      -1.399   1.076   1.112  0.00  0.00     0.002 A 
ENDROOT
BRANCH   1   7
ATOM      7  C1' N4B d   1      -1.129  -1.283   0.436  0.00  0.00     0.057 C 
BRANCH   7   8
ATOM      8  C2' N4B d   1      -0.278  -2.075  -0.552  0.00  0.00     0.009 C 
BRANCH   8   9
ATOM      9  C3' N4B d   1      -1.108  -3.066  -1.350  0.00  0.00     0.004 C 
ATOM     10  C4' N4B d   1      -0.458  -3.460  -2.643  0.00  0.00     0.003 C 
ENDBRANCH   8   9
ENDBRANCH   7   8
ENDBRANCH   1   7
TORSDOF 3
ENDMDL
