MODEL 1
REMARK minimizedAffinity -6.18380833
REMARK minimizedRMSD -1
REMARK  3 active torsions:
REMARK  status: ('A' for Active; 'I' for Inactive)
REMARK    1  A    between atoms: C3'_2  and  C2'_3 
REMARK    2  A    between atoms: C2'_3  and  C1'_4 
REMARK    3  A    between atoms: C1'_4  and  C1_5 
ROOT
ATOM      1  C1  N4B d   1       0.041  -0.034   0.252  0.00  0.00    -0.075 A 
ATOM      2  C2  N4B d   1      -1.280   0.317   0.608  0.00  0.00     0.002 A 
ATOM      3  C3  N4B d   1      -1.666   1.635   0.600  0.00  0.00     0.002 A 
ATOM      4  C4  N4B d   1      -0.748   2.616   0.259  0.00  0.00    -0.004 A 
ATOM      5  C5  N4B d   1       0.519   2.267  -0.109  0.00  0.00     0.002 A 
ATOM      6  C6  N4B d   1       0.920   0.946  -0.109  0.00  0.00     0.002 A 
ENDROOT
BRANCH   1   7
ATOM      7  C1' N4B d   1       0.534  -1.453   0.329  0.00  0.00     0.057 C 
BRANCH   7   8
ATOM      8  C2' N4B d   1      -0.515  -2.381  -0.277  0.00  0.00     0.009 C 
BRANCH   8   9
ATOM      9  C3' N4B d   1      -0.206  -2.719  -1.725  0.00  0.00     0.004 C 
ATOM     10  C4' N4B d   1      -1.439  -2.987  -2.535  0.00  0.00     0.003 C 
ENDBRANCH   8   9
ENDBRANCH   7   8
ENDBRANCH   1   7
TORSDOF 3
ENDMDL
