MODEL 1
REMARK minimizedAffinity -5.26076603
REMARK minimizedRMSD -1
REMARK  3 active torsions:
REMARK  status: ('A' for Active; 'I' for Inactive)
REMARK    1  A    between atoms: C3'_2  and  C2'_3 
REMARK    2  A    between atoms: C2'_3  and  C1'_4 
REMARK    3  A    between atoms: C1'_4  and  C1_5 
ROOT
ATOM      1  C1  N4B d   1       0.053   0.436   0.161  0.00  0.00    -0.075 A 
ATOM      2  C2  N4B d   1       1.106   1.043  -0.558  0.00  0.00     0.002 A 
ATOM      3  C3  N4B d   1       1.057   2.385  -0.845  0.00  0.00     0.002 A 
ATOM      4  C4  N4B d   1      -0.038   3.134  -0.441  0.00  0.00    -0.004 A 
ATOM      5  C5  N4B d   1      -1.039   2.545   0.275  0.00  0.00     0.002 A 
ATOM      6  C6  N4B d   1      -1.002   1.198   0.574  0.00  0.00     0.002 A 
ENDROOT
BRANCH   1   7
ATOM      7  C1' N4B d   1       0.020  -1.045   0.423  0.00  0.00     0.057 C 
BRANCH   7   8
ATOM      8  C2' N4B d   1      -1.016  -1.692  -0.491  0.00  0.00     0.009 C 
BRANCH   8   9
ATOM      9  C3' N4B d   1      -0.408  -2.145  -1.807  0.00  0.00     0.004 C 
ATOM     10  C4' N4B d   1      -1.235  -3.187  -2.501  0.00  0.00     0.003 C 
ENDBRANCH   8   9
ENDBRANCH   7   8
ENDBRANCH   1   7
TORSDOF 3
ENDMDL
