MODEL 1
REMARK minimizedAffinity -5.86808395
REMARK minimizedRMSD -1
REMARK  3 active torsions:
REMARK  status: ('A' for Active; 'I' for Inactive)
REMARK    1  A    between atoms: C3'_2  and  C2'_3 
REMARK    2  A    between atoms: C2'_3  and  C1'_4 
REMARK    3  A    between atoms: C1'_4  and  C1_5 
ROOT
ATOM      1  C1  N4B d   1      -0.560  -0.087  -0.137  0.00  0.00    -0.075 A 
ATOM      2  C2  N4B d   1      -1.631   0.777   0.181  0.00  0.00     0.002 A 
ATOM      3  C3  N4B d   1      -1.440   2.137   0.180  0.00  0.00     0.002 A 
ATOM      4  C4  N4B d   1      -0.188   2.653  -0.117  0.00  0.00    -0.004 A 
ATOM      5  C5  N4B d   1       0.835   1.813  -0.449  0.00  0.00     0.002 A 
ATOM      6  C6  N4B d   1       0.656   0.444  -0.455  0.00  0.00     0.002 A 
ENDROOT
BRANCH   1   7
ATOM      7  C1' N4B d   1      -0.698  -1.583  -0.065  0.00  0.00     0.057 C 
BRANCH   7   8
ATOM      8  C2' N4B d   1       0.523  -2.230  -0.712  0.00  0.00     0.009 C 
BRANCH   8   9
ATOM      9  C3' N4B d   1       0.158  -3.001  -1.969  0.00  0.00     0.004 C 
ATOM     10  C4' N4B d   1      -1.312  -2.975  -2.260  0.00  0.00     0.003 C 
ENDBRANCH   8   9
ENDBRANCH   7   8
ENDBRANCH   1   7
TORSDOF 3
ENDMDL
