MODEL 1
REMARK minimizedAffinity -6.22921896
REMARK minimizedRMSD -1
REMARK  3 active torsions:
REMARK  status: ('A' for Active; 'I' for Inactive)
REMARK    1  A    between atoms: C3'_2  and  C2'_3 
REMARK    2  A    between atoms: C2'_3  and  C1'_4 
REMARK    3  A    between atoms: C1'_4  and  C1_5 
ROOT
ATOM      1  C1  N4B d   1      -0.267  -0.132  -0.277  0.00  0.00    -0.075 A 
ATOM      2  C2  N4B d   1       0.818   0.739  -0.518  0.00  0.00     0.002 A 
ATOM      3  C3  N4B d   1       0.674   2.089  -0.312  0.00  0.00     0.002 A 
ATOM      4  C4  N4B d   1      -0.545   2.591   0.116  0.00  0.00    -0.004 A 
ATOM      5  C5  N4B d   1      -1.581   1.741   0.371  0.00  0.00     0.002 A 
ATOM      6  C6  N4B d   1      -1.450   0.381   0.171  0.00  0.00     0.002 A 
ENDROOT
BRANCH   1   7
ATOM      7  C1' N4B d   1      -0.184  -1.605  -0.570  0.00  0.00     0.057 C 
BRANCH   7   8
ATOM      8  C2' N4B d   1       0.627  -1.817  -1.845  0.00  0.00     0.009 C 
BRANCH   8   9
ATOM      9  C3' N4B d   1      -0.094  -2.716  -2.834  0.00  0.00     0.004 C 
ATOM     10  C4' N4B d   1      -1.228  -3.473  -2.211  0.00  0.00     0.003 C 
ENDBRANCH   8   9
ENDBRANCH   7   8
ENDBRANCH   1   7
TORSDOF 3
ENDMDL
