MODEL 1
REMARK minimizedAffinity -5.13336802
REMARK minimizedRMSD -1
REMARK  3 active torsions:
REMARK  status: ('A' for Active; 'I' for Inactive)
REMARK    1  A    between atoms: C3'_2  and  C2'_3 
REMARK    2  A    between atoms: C2'_3  and  C1'_4 
REMARK    3  A    between atoms: C1'_4  and  C1_5 
ROOT
ATOM      1  C1  N4B d   1       0.471   0.174   0.259  0.00  0.00    -0.075 A 
ATOM      2  C2  N4B d   1      -0.807   0.771   0.193  0.00  0.00     0.002 A 
ATOM      3  C3  N4B d   1      -0.939   2.129   0.355  0.00  0.00     0.002 A 
ATOM      4  C4  N4B d   1       0.184   2.903   0.602  0.00  0.00    -0.004 A 
ATOM      5  C5  N4B d   1       1.418   2.322   0.639  0.00  0.00     0.002 A 
ATOM      6  C6  N4B d   1       1.567   0.959   0.474  0.00  0.00     0.002 A 
ENDROOT
BRANCH   1   7
ATOM      7  C1' N4B d   1       0.656  -1.316   0.173  0.00  0.00     0.057 C 
BRANCH   7   8
ATOM      8  C2' N4B d   1      -0.537  -1.928  -0.555  0.00  0.00     0.009 C 
BRANCH   8   9
ATOM      9  C3' N4B d   1      -0.109  -2.731  -1.771  0.00  0.00     0.004 C 
ATOM     10  C4' N4B d   1      -1.262  -3.112  -2.651  0.00  0.00     0.003 C 
ENDBRANCH   8   9
ENDBRANCH   7   8
ENDBRANCH   1   7
TORSDOF 3
ENDMDL
