MODEL 1
REMARK minimizedAffinity -2.30051684
REMARK minimizedRMSD -1
REMARK  3 active torsions:
REMARK  status: ('A' for Active; 'I' for Inactive)
REMARK    1  A    between atoms: C3'_2  and  C2'_3 
REMARK    2  A    between atoms: C2'_3  and  C1'_4 
REMARK    3  A    between atoms: C1'_4  and  C1_5 
ROOT
ATOM      1  C1  N4B d   1       0.406   0.714  -0.395  0.00  0.00    -0.075 A 
ATOM      2  C2  N4B d   1       0.613   1.845  -1.214  0.00  0.00     0.002 A 
ATOM      3  C3  N4B d   1       0.143   3.074  -0.820  0.00  0.00     0.002 A 
ATOM      4  C4  N4B d   1      -0.549   3.192   0.376  0.00  0.00    -0.004 A 
ATOM      5  C5  N4B d   1      -0.723   2.099   1.174  0.00  0.00     0.002 A 
ATOM      6  C6  N4B d   1      -0.253   0.859   0.792  0.00  0.00     0.002 A 
ENDROOT
BRANCH   1   7
ATOM      7  C1' N4B d   1       0.825  -0.665  -0.825  0.00  0.00     0.057 C 
BRANCH   7   8
ATOM      8  C2' N4B d   1      -0.419  -1.512  -1.073  0.00  0.00     0.009 C 
BRANCH   8   9
ATOM      9  C3' N4B d   1      -0.244  -2.446  -2.258  0.00  0.00     0.004 C 
ATOM     10  C4' N4B d   1      -1.482  -3.234  -2.565  0.00  0.00     0.003 C 
ENDBRANCH   8   9
ENDBRANCH   7   8
ENDBRANCH   1   7
TORSDOF 3
ENDMDL
