MODEL 1
REMARK minimizedAffinity -5.62280273
REMARK minimizedRMSD -1
REMARK  3 active torsions:
REMARK  status: ('A' for Active; 'I' for Inactive)
REMARK    1  A    between atoms: C3'_2  and  C2'_3 
REMARK    2  A    between atoms: C2'_3  and  C1'_4 
REMARK    3  A    between atoms: C1'_4  and  C1_5 
ROOT
ATOM      1  C1  N4B d   1      -0.290  -0.114   0.316  0.00  0.00    -0.075 A 
ATOM      2  C2  N4B d   1      -1.390   0.757   0.477  0.00  0.00     0.002 A 
ATOM      3  C3  N4B d   1      -1.179   2.099   0.682  0.00  0.00     0.002 A 
ATOM      4  C4  N4B d   1       0.117   2.587   0.749  0.00  0.00    -0.004 A 
ATOM      5  C5  N4B d   1       1.173   1.743   0.568  0.00  0.00     0.002 A 
ATOM      6  C6  N4B d   1       0.976   0.393   0.357  0.00  0.00     0.002 A 
ENDROOT
BRANCH   1   7
ATOM      7  C1' N4B d   1      -0.469  -1.601   0.175  0.00  0.00     0.057 C 
BRANCH   7   8
ATOM      8  C2' N4B d   1       0.110  -2.050  -1.163  0.00  0.00     0.009 C 
BRANCH   8   9
ATOM      9  C3' N4B d   1      -0.521  -3.343  -1.650  0.00  0.00     0.004 C 
ATOM     10  C4' N4B d   1      -1.808  -3.121  -2.387  0.00  0.00     0.003 C 
ENDBRANCH   8   9
ENDBRANCH   7   8
ENDBRANCH   1   7
TORSDOF 3
ENDMDL
