MODEL 1
REMARK minimizedAffinity -5.06562281
REMARK minimizedRMSD -1
REMARK  0 active torsions:
REMARK  status: ('A' for Active; 'I' for Inactive)
ROOT
ATOM      1  C   UNL d   1       0.376   0.820  -0.357  0.00  0.00     0.078 C 
ATOM      2  C1  UNL d   1      -0.428  -0.181   0.418  0.00  0.00    -0.077 A 
ATOM      3  C2  UNL d   1      -1.775   0.055   0.719  0.00  0.00    -0.001 A 
ATOM      4  C3  UNL d   1      -2.509  -0.881   1.450  0.00  0.00     0.003 A 
ATOM      5  C4  UNL d   1      -1.904  -2.058   1.887  0.00  0.00    -0.005 A 
ATOM      6  C5  UNL d   1      -0.564  -2.300   1.594  0.00  0.00     0.003 A 
ATOM      7  C6  UNL d   1       0.172  -1.365   0.863  0.00  0.00    -0.001 A 
ENDROOT
TORSDOF 0
ENDMDL
