MODEL 1
REMARK minimizedAffinity -5.66768599
REMARK minimizedRMSD -1
REMARK  0 active torsions:
REMARK  status: ('A' for Active; 'I' for Inactive)
ROOT
ATOM      1  C   UNL d   1       0.335   1.057  -0.572  0.00  0.00     0.078 C 
ATOM      2  C1  UNL d   1      -0.552   0.027   0.061  0.00  0.00    -0.077 A 
ATOM      3  C2  UNL d   1      -0.073  -1.255   0.357  0.00  0.00    -0.001 A 
ATOM      4  C3  UNL d   1      -0.912  -2.207   0.938  0.00  0.00     0.003 A 
ATOM      5  C4  UNL d   1      -2.237  -1.887   1.227  0.00  0.00    -0.005 A 
ATOM      6  C5  UNL d   1      -2.725  -0.615   0.934  0.00  0.00     0.003 A 
ATOM      7  C6  UNL d   1      -1.886   0.338   0.354  0.00  0.00    -0.001 A 
ENDROOT
TORSDOF 0
ENDMDL
