MODEL 1
REMARK minimizedAffinity -4.09118843
REMARK minimizedRMSD -1
REMARK  0 active torsions:
REMARK  status: ('A' for Active; 'I' for Inactive)
ROOT
ATOM      1  C   UNL d   1      -2.514  -0.011   2.257  0.00  0.00     0.078 C 
ATOM      2  C1  UNL d   1      -1.304  -0.417   1.470  0.00  0.00    -0.077 A 
ATOM      3  C2  UNL d   1      -0.608   0.511   0.686  0.00  0.00    -0.001 A 
ATOM      4  C3  UNL d   1       0.511   0.117  -0.049  0.00  0.00     0.003 A 
ATOM      5  C4  UNL d   1       0.944  -1.207  -0.009  0.00  0.00    -0.005 A 
ATOM      6  C5  UNL d   1       0.257  -2.139   0.767  0.00  0.00     0.003 A 
ATOM      7  C6  UNL d   1      -0.863  -1.746   1.502  0.00  0.00    -0.001 A 
ENDROOT
TORSDOF 0
ENDMDL
