MODEL 1
REMARK minimizedAffinity -4.14426613
REMARK minimizedRMSD -1
REMARK  0 active torsions:
REMARK  status: ('A' for Active; 'I' for Inactive)
ROOT
ATOM      1  C   UNL d   1       0.285   1.002  -0.345  0.00  0.00     0.078 C 
ATOM      2  C1  UNL d   1      -0.428  -0.081   0.408  0.00  0.00    -0.077 A 
ATOM      3  C2  UNL d   1      -1.620   0.181   1.093  0.00  0.00    -0.001 A 
ATOM      4  C3  UNL d   1      -2.268  -0.835   1.798  0.00  0.00     0.003 A 
ATOM      5  C4  UNL d   1      -1.730  -2.120   1.825  0.00  0.00    -0.005 A 
ATOM      6  C5  UNL d   1      -0.542  -2.390   1.148  0.00  0.00     0.003 A 
ATOM      7  C6  UNL d   1       0.107  -1.375   0.443  0.00  0.00    -0.001 A 
ENDROOT
TORSDOF 0
ENDMDL
