MODEL 1
REMARK minimizedAffinity -3.29031539
REMARK minimizedRMSD -1
REMARK  0 active torsions:
REMARK  status: ('A' for Active; 'I' for Inactive)
ROOT
ATOM      1  C   UNL d   1      -0.854   1.302   0.910  0.00  0.00     0.078 C 
ATOM      2  C1  UNL d   1       0.191   0.269   0.610  0.00  0.00    -0.077 A 
ATOM      3  C2  UNL d   1      -0.130  -0.897  -0.095  0.00  0.00    -0.001 A 
ATOM      4  C3  UNL d   1       0.851  -1.855  -0.359  0.00  0.00     0.003 A 
ATOM      5  C4  UNL d   1       2.158  -1.656   0.080  0.00  0.00    -0.005 A 
ATOM      6  C5  UNL d   1       2.486  -0.500   0.785  0.00  0.00     0.003 A 
ATOM      7  C6  UNL d   1       1.507   0.459   1.049  0.00  0.00    -0.001 A 
ENDROOT
TORSDOF 0
ENDMDL
