MODEL 1
REMARK minimizedAffinity -4.02787113
REMARK minimizedRMSD -1
REMARK  0 active torsions:
REMARK  status: ('A' for Active; 'I' for Inactive)
ROOT
ATOM      1  C   UNL d   1       1.860   2.268  -1.890  0.00  0.00     0.078 C 
ATOM      2  C1  UNL d   1       0.931   1.504  -0.995  0.00  0.00    -0.077 A 
ATOM      3  C2  UNL d   1      -0.058   2.160  -0.252  0.00  0.00    -0.001 A 
ATOM      4  C3  UNL d   1      -0.910   1.437   0.584  0.00  0.00     0.003 A 
ATOM      5  C4  UNL d   1      -0.781   0.053   0.686  0.00  0.00    -0.005 A 
ATOM      6  C5  UNL d   1       0.201  -0.609  -0.048  0.00  0.00     0.003 A 
ATOM      7  C6  UNL d   1       1.054   0.113  -0.884  0.00  0.00    -0.001 A 
ENDROOT
TORSDOF 0
ENDMDL
