MODEL 1
REMARK minimizedAffinity -1.42041492
REMARK minimizedRMSD -1
REMARK  0 active torsions:
REMARK  status: ('A' for Active; 'I' for Inactive)
ROOT
ATOM      1  C   UNL d   1      -2.723   0.590   1.826  0.00  0.00     0.078 C 
ATOM      2  C1  UNL d   1      -1.519   0.105   1.074  0.00  0.00    -0.077 A 
ATOM      3  C2  UNL d   1      -1.267  -1.263   0.923  0.00  0.00    -0.001 A 
ATOM      4  C3  UNL d   1      -0.137  -1.700   0.229  0.00  0.00     0.003 A 
ATOM      5  C4  UNL d   1       0.750  -0.775  -0.317  0.00  0.00    -0.005 A 
ATOM      6  C5  UNL d   1       0.508   0.590  -0.170  0.00  0.00     0.003 A 
ATOM      7  C6  UNL d   1      -0.621   1.028   0.524  0.00  0.00    -0.001 A 
ENDROOT
TORSDOF 0
ENDMDL
