MODEL 1
REMARK minimizedAffinity -5.71693516
REMARK minimizedRMSD -1
REMARK  0 active torsions:
REMARK  status: ('A' for Active; 'I' for Inactive)
ROOT
ATOM      1  C   UNL d   1       1.972  -1.506   0.527  0.00  0.00     0.078 C 
ATOM      2  C1  UNL d   1       0.485  -1.410   0.693  0.00  0.00    -0.077 A 
ATOM      3  C2  UNL d   1      -0.200  -0.228   0.386  0.00  0.00    -0.001 A 
ATOM      4  C3  UNL d   1      -1.583  -0.149   0.554  0.00  0.00     0.003 A 
ATOM      5  C4  UNL d   1      -2.294  -1.249   1.031  0.00  0.00    -0.005 A 
ATOM      6  C5  UNL d   1      -1.621  -2.429   1.341  0.00  0.00     0.003 A 
ATOM      7  C6  UNL d   1      -0.238  -2.509   1.173  0.00  0.00    -0.001 A 
ENDROOT
TORSDOF 0
ENDMDL
