MODEL 1
REMARK minimizedAffinity -0.660348237
REMARK minimizedRMSD -1
REMARK  0 active torsions:
REMARK  status: ('A' for Active; 'I' for Inactive)
ROOT
ATOM      1  C   UNL d   1       0.398   0.622   0.134  0.00  0.00     0.078 C 
ATOM      2  C1  UNL d   1       0.645   1.325  -1.167  0.00  0.00    -0.077 A 
ATOM      3  C2  UNL d   1       1.948   1.591  -1.608  0.00  0.00    -0.001 A 
ATOM      4  C3  UNL d   1       2.162   2.254  -2.817  0.00  0.00     0.003 A 
ATOM      5  C4  UNL d   1       1.080   2.659  -3.594  0.00  0.00    -0.005 A 
ATOM      6  C5  UNL d   1      -0.220   2.402  -3.163  0.00  0.00     0.003 A 
ATOM      7  C6  UNL d   1      -0.437   1.738  -1.954  0.00  0.00    -0.001 A 
ENDROOT
TORSDOF 0
ENDMDL
