MODEL 1
REMARK minimizedAffinity -5.56268549
REMARK minimizedRMSD -1
REMARK  0 active torsions:
REMARK  status: ('A' for Active; 'I' for Inactive)
ROOT
ATOM      1  C   UNL d   1      -2.978  -2.647   2.149  0.00  0.00     0.078 C 
ATOM      2  C1  UNL d   1      -1.910  -1.817   1.503  0.00  0.00    -0.077 A 
ATOM      3  C2  UNL d   1      -0.630  -2.338   1.277  0.00  0.00    -0.001 A 
ATOM      4  C3  UNL d   1       0.358  -1.551   0.684  0.00  0.00     0.003 A 
ATOM      5  C4  UNL d   1       0.078  -0.237   0.314  0.00  0.00    -0.005 A 
ATOM      6  C5  UNL d   1      -1.192   0.291   0.537  0.00  0.00     0.003 A 
ATOM      7  C6  UNL d   1      -2.182  -0.495   1.130  0.00  0.00    -0.001 A 
ENDROOT
TORSDOF 0
ENDMDL
