MODEL 1
REMARK minimizedAffinity -4.9912343
REMARK minimizedRMSD -1
REMARK  0 active torsions:
REMARK  status: ('A' for Active; 'I' for Inactive)
ROOT
ATOM      1  C   UNL d   1       0.833   0.981  -0.295  0.00  0.00     0.078 C 
ATOM      2  C1  UNL d   1      -0.164   0.085   0.378  0.00  0.00    -0.077 A 
ATOM      3  C2  UNL d   1      -1.482   0.506   0.592  0.00  0.00    -0.001 A 
ATOM      4  C3  UNL d   1      -2.397  -0.334   1.228  0.00  0.00     0.003 A 
ATOM      5  C4  UNL d   1      -2.004  -1.600   1.657  0.00  0.00    -0.005 A 
ATOM      6  C5  UNL d   1      -0.694  -2.027   1.451  0.00  0.00     0.003 A 
ATOM      7  C6  UNL d   1       0.223  -1.188   0.815  0.00  0.00    -0.001 A 
ENDROOT
TORSDOF 0
ENDMDL
