MODEL 1
REMARK minimizedAffinity -4.77500963
REMARK minimizedRMSD -1
REMARK  0 active torsions:
REMARK  status: ('A' for Active; 'I' for Inactive)
ROOT
ATOM      1  C   UNL d   1      -0.404   0.592  -0.617  0.00  0.00     0.078 C 
ATOM      2  C1  UNL d   1      -1.157  -0.270   0.352  0.00  0.00    -0.077 A 
ATOM      3  C2  UNL d   1      -0.872  -1.635   0.475  0.00  0.00    -0.001 A 
ATOM      4  C3  UNL d   1      -1.588  -2.428   1.373  0.00  0.00     0.003 A 
ATOM      5  C4  UNL d   1      -2.595  -1.865   2.155  0.00  0.00    -0.005 A 
ATOM      6  C5  UNL d   1      -2.887  -0.507   2.038  0.00  0.00     0.003 A 
ATOM      7  C6  UNL d   1      -2.173   0.287   1.139  0.00  0.00    -0.001 A 
ENDROOT
TORSDOF 0
ENDMDL
