MODEL 1
REMARK minimizedAffinity -0.588506341
REMARK minimizedRMSD -1
REMARK  0 active torsions:
REMARK  status: ('A' for Active; 'I' for Inactive)
ROOT
ATOM      1  C4' PXY d   1      -0.733   2.926  -1.127  0.00  0.00     0.077 C 
ATOM      2  C1' PXY d   1      -1.359  -0.853   3.202  0.00  0.00     0.077 C 
ATOM      3  C1  PXY d   1      -1.207   0.143   2.069  0.00  0.00    -0.082 A 
ATOM      4  C2  PXY d   1      -0.331  -0.092   1.105  0.00  0.00     0.003 A 
ATOM      5  C3  PXY d   1      -0.158   0.813   0.090  0.00  0.00     0.003 A 
ATOM      6  C4  PXY d   1      -0.927   1.944   0.032  0.00  0.00    -0.082 A 
ATOM      7  C5  PXY d   1      -1.830   2.186   1.006  0.00  0.00     0.003 A 
ATOM      8  C6  PXY d   1      -1.962   1.275   2.050  0.00  0.00     0.003 A 
ENDROOT
TORSDOF 0
ENDMDL
