MODEL 1
REMARK minimizedAffinity 5.35755873
REMARK minimizedRMSD -1
REMARK  0 active torsions:
REMARK  status: ('A' for Active; 'I' for Inactive)
ROOT
ATOM      1  C4' PXY d   1       0.538   2.364  -1.762  0.00  0.00     0.077 C 
ATOM      2  C1' PXY d   1      -1.992   1.168   3.296  0.00  0.00     0.077 C 
ATOM      3  C1  PXY d   1      -1.317   1.478   1.975  0.00  0.00    -0.082 A 
ATOM      4  C2  PXY d   1      -1.877   2.338   1.140  0.00  0.00     0.003 A 
ATOM      5  C3  PXY d   1      -1.297   2.606  -0.073  0.00  0.00     0.003 A 
ATOM      6  C4  PXY d   1      -0.103   2.028  -0.413  0.00  0.00    -0.082 A 
ATOM      7  C5  PXY d   1       0.480   1.157   0.438  0.00  0.00     0.003 A 
ATOM      8  C6  PXY d   1      -0.146   0.867   1.647  0.00  0.00     0.003 A 
ENDROOT
TORSDOF 0
ENDMDL
