MODEL 1
REMARK minimizedAffinity -0.719684005
REMARK minimizedRMSD -1
REMARK  0 active torsions:
REMARK  status: ('A' for Active; 'I' for Inactive)
ROOT
ATOM      1  C4' PXY d   1      -4.025   0.272   0.215  0.00  0.00     0.077 C 
ATOM      2  C1' PXY d   1      -0.118   2.868   3.593  0.00  0.00     0.077 C 
ATOM      3  C1  PXY d   1      -1.133   2.179   2.703  0.00  0.00    -0.082 A 
ATOM      4  C2  PXY d   1      -2.163   2.864   2.233  0.00  0.00     0.003 A 
ATOM      5  C3  PXY d   1      -3.108   2.248   1.453  0.00  0.00     0.003 A 
ATOM      6  C4  PXY d   1      -2.969   0.930   1.108  0.00  0.00    -0.082 A 
ATOM      7  C5  PXY d   1      -1.916   0.227   1.576  0.00  0.00     0.003 A 
ATOM      8  C6  PXY d   1      -0.990   0.860   2.399  0.00  0.00     0.003 A 
ENDROOT
TORSDOF 0
ENDMDL
