MODEL 1
REMARK minimizedAffinity -1.78208828
REMARK minimizedRMSD -1
REMARK  0 active torsions:
REMARK  status: ('A' for Active; 'I' for Inactive)
ROOT
ATOM      1  C4' PXY d   1       1.994  -0.399  -0.165  0.00  0.00     0.077 C 
ATOM      2  C1' PXY d   1      -2.710   2.557   1.432  0.00  0.00     0.077 C 
ATOM      3  C1  PXY d   1      -1.473   1.780   1.026  0.00  0.00    -0.082 A 
ATOM      4  C2  PXY d   1      -0.943   1.974  -0.171  0.00  0.00     0.003 A 
ATOM      5  C3  PXY d   1       0.157   1.257  -0.566  0.00  0.00     0.003 A 
ATOM      6  C4  PXY d   1       0.751   0.370   0.292  0.00  0.00    -0.082 A 
ATOM      7  C5  PXY d   1       0.222   0.174   1.518  0.00  0.00     0.003 A 
ATOM      8  C6  PXY d   1      -0.919   0.882   1.885  0.00  0.00     0.003 A 
ENDROOT
TORSDOF 0
ENDMDL
