MODEL 1
REMARK minimizedAffinity 9.28759956
REMARK minimizedRMSD -1
REMARK  0 active torsions:
REMARK  status: ('A' for Active; 'I' for Inactive)
ROOT
ATOM      1  C4' PXY d   1       1.892  -1.854  -3.780  0.00  0.00     0.077 C 
ATOM      2  C1' PXY d   1      -1.035   2.142  -0.799  0.00  0.00     0.077 C 
ATOM      3  C1  PXY d   1      -0.277   1.086  -1.579  0.00  0.00    -0.082 A 
ATOM      4  C2  PXY d   1       1.044   1.131  -1.629  0.00  0.00     0.003 A 
ATOM      5  C3  PXY d   1       1.743   0.203  -2.356  0.00  0.00     0.003 A 
ATOM      6  C4  PXY d   1       1.086  -0.814  -2.996  0.00  0.00    -0.082 A 
ATOM      7  C5  PXY d   1      -0.261  -0.873  -2.941  0.00  0.00     0.003 A 
ATOM      8  C6  PXY d   1      -0.955   0.103  -2.232  0.00  0.00     0.003 A 
ENDROOT
TORSDOF 0
ENDMDL
