MODEL 1
REMARK minimizedAffinity 7.44770718
REMARK minimizedRMSD -1
REMARK  0 active torsions:
REMARK  status: ('A' for Active; 'I' for Inactive)
ROOT
ATOM      1  C4' PXY d   1      -1.466   1.520   3.386  0.00  0.00     0.077 C 
ATOM      2  C1' PXY d   1      -1.356   3.021  -2.195  0.00  0.00     0.077 C 
ATOM      3  C1  PXY d   1      -1.394   2.636  -0.730  0.00  0.00    -0.082 A 
ATOM      4  C2  PXY d   1      -0.318   2.117  -0.161  0.00  0.00     0.003 A 
ATOM      5  C3  PXY d   1      -0.345   1.734   1.155  0.00  0.00     0.003 A 
ATOM      6  C4  PXY d   1      -1.469   1.932   1.911  0.00  0.00    -0.082 A 
ATOM      7  C5  PXY d   1      -2.568   2.471   1.341  0.00  0.00     0.003 A 
ATOM      8  C6  PXY d   1      -2.533   2.815  -0.007  0.00  0.00     0.003 A 
ENDROOT
TORSDOF 0
ENDMDL
