MODEL 1
REMARK minimizedAffinity 10.3492241
REMARK minimizedRMSD -1
REMARK  0 active torsions:
REMARK  status: ('A' for Active; 'I' for Inactive)
ROOT
ATOM      1  C4' PXY d   1       6.000  -4.109  -3.171  0.00  0.00     0.077 C 
ATOM      2  C1' PXY d   1       1.748  -1.315  -5.916  0.00  0.00     0.077 C 
ATOM      3  C1  PXY d   1       2.872  -2.041  -5.203  0.00  0.00    -0.082 A 
ATOM      4  C2  PXY d   1       2.661  -3.251  -4.712  0.00  0.00     0.003 A 
ATOM      5  C3  PXY d   1       3.657  -3.908  -4.036  0.00  0.00     0.003 A 
ATOM      6  C4  PXY d   1       4.897  -3.343  -3.907  0.00  0.00    -0.082 A 
ATOM      7  C5  PXY d   1       5.123  -2.113  -4.415  0.00  0.00     0.003 A 
ATOM      8  C6  PXY d   1       4.087  -1.445  -5.062  0.00  0.00     0.003 A 
ENDROOT
TORSDOF 0
ENDMDL
