MODEL 1
REMARK minimizedAffinity 12.4201593
REMARK minimizedRMSD -1
REMARK  0 active torsions:
REMARK  status: ('A' for Active; 'I' for Inactive)
ROOT
ATOM      1  C4' PXY d   1       1.564  -3.380  -1.076  0.00  0.00     0.077 C 
ATOM      2  C1' PXY d   1       0.431   2.254  -1.701  0.00  0.00     0.077 C 
ATOM      3  C1  PXY d   1       0.717   0.773  -1.542  0.00  0.00    -0.082 A 
ATOM      4  C2  PXY d   1       1.594   0.369  -0.637  0.00  0.00     0.003 A 
ATOM      5  C3  PXY d   1       1.887  -0.963  -0.502  0.00  0.00     0.003 A 
ATOM      6  C4  PXY d   1       1.238  -1.896  -1.265  0.00  0.00    -0.082 A 
ATOM      7  C5  PXY d   1       0.334  -1.493  -2.183  0.00  0.00     0.003 A 
ATOM      8  C6  PXY d   1       0.080  -0.133  -2.333  0.00  0.00     0.003 A 
ENDROOT
TORSDOF 0
ENDMDL
