MODEL 1
REMARK minimizedAffinity -0.0569081716
REMARK minimizedRMSD -1
REMARK  0 active torsions:
REMARK  status: ('A' for Active; 'I' for Inactive)
ROOT
ATOM      1  C4' PXY d   1       2.013   0.042  -0.577  0.00  0.00     0.077 C 
ATOM      2  C1' PXY d   1      -2.807   2.520   1.435  0.00  0.00     0.077 C 
ATOM      3  C1  PXY d   1      -1.538   1.869   0.920  0.00  0.00    -0.082 A 
ATOM      4  C2  PXY d   1      -1.140   2.103  -0.320  0.00  0.00     0.003 A 
ATOM      5  C3  PXY d   1      -0.013   1.498  -0.812  0.00  0.00     0.003 A 
ATOM      6  C4  PXY d   1       0.744   0.685  -0.011  0.00  0.00    -0.082 A 
ATOM      7  C5  PXY d   1       0.350   0.450   1.259  0.00  0.00     0.003 A 
ATOM      8  C6  PXY d   1      -0.820   1.042   1.727  0.00  0.00     0.003 A 
ENDROOT
TORSDOF 0
ENDMDL
