MODEL 1
REMARK minimizedAffinity 7.45389128
REMARK minimizedRMSD -1
REMARK  0 active torsions:
REMARK  status: ('A' for Active; 'I' for Inactive)
ROOT
ATOM      1  C4' PXY d   1       0.792   0.989  -1.470  0.00  0.00     0.077 C 
ATOM      2  C1' PXY d   1      -2.542   1.836   3.175  0.00  0.00     0.077 C 
ATOM      3  C1  PXY d   1      -1.678   1.616   1.949  0.00  0.00    -0.082 A 
ATOM      4  C2  PXY d   1      -0.561   0.915   2.054  0.00  0.00     0.003 A 
ATOM      5  C3  PXY d   1       0.249   0.733   0.962  0.00  0.00     0.003 A 
ATOM      6  C4  PXY d   1      -0.116   1.229  -0.261  0.00  0.00    -0.082 A 
ATOM      7  C5  PXY d   1      -1.260   1.936  -0.378  0.00  0.00     0.003 A 
ATOM      8  C6  PXY d   1      -2.047   2.144   0.751  0.00  0.00     0.003 A 
ENDROOT
TORSDOF 0
ENDMDL
