MODEL 1
REMARK minimizedAffinity -1.45058095
REMARK minimizedRMSD -1
REMARK  0 active torsions:
REMARK  status: ('A' for Active; 'I' for Inactive)
ROOT
ATOM      1  C4' PXY d   1       0.490   2.160  -1.990  0.00  0.00     0.077 C 
ATOM      2  C1' PXY d   1      -1.826   0.688   3.097  0.00  0.00     0.077 C 
ATOM      3  C1  PXY d   1      -1.231   1.077   1.759  0.00  0.00    -0.082 A 
ATOM      4  C2  PXY d   1      -0.077   0.552   1.379  0.00  0.00     0.003 A 
ATOM      5  C3  PXY d   1       0.492   0.917   0.185  0.00  0.00     0.003 A 
ATOM      6  C4  PXY d   1      -0.153   1.789  -0.651  0.00  0.00    -0.082 A 
ATOM      7  C5  PXY d   1      -1.336   2.320  -0.275  0.00  0.00     0.003 A 
ATOM      8  C6  PXY d   1      -1.876   1.968   0.958  0.00  0.00     0.003 A 
ENDROOT
TORSDOF 0
ENDMDL
