MODEL 1
REMARK minimizedAffinity 8.34686184
REMARK minimizedRMSD -1
REMARK  0 active torsions:
REMARK  status: ('A' for Active; 'I' for Inactive)
ROOT
ATOM      1  C4' PXY d   1       4.639  -5.998  -2.773  0.00  0.00     0.077 C 
ATOM      2  C1' PXY d   1       5.999  -2.652   1.740  0.00  0.00     0.077 C 
ATOM      3  C1  PXY d   1       5.639  -3.519   0.550  0.00  0.00    -0.082 A 
ATOM      4  C2  PXY d   1       5.342  -4.795   0.736  0.00  0.00     0.003 A 
ATOM      5  C3  PXY d   1       5.045  -5.601  -0.333  0.00  0.00     0.003 A 
ATOM      6  C4  PXY d   1       4.999  -5.083  -1.600  0.00  0.00    -0.082 A 
ATOM      7  C5  PXY d   1       5.290  -3.780  -1.797  0.00  0.00     0.003 A 
ATOM      8  C6  PXY d   1       5.629  -2.988  -0.703  0.00  0.00     0.003 A 
ENDROOT
TORSDOF 0
ENDMDL
