MODEL 1
REMARK minimizedAffinity 9.32113647
REMARK minimizedRMSD -1
REMARK  0 active torsions:
REMARK  status: ('A' for Active; 'I' for Inactive)
ROOT
ATOM      1  C4' PXY d   1      -1.939   2.589   0.638  0.00  0.00     0.077 C 
ATOM      2  C1' PXY d   1       0.676  -0.373  -3.582  0.00  0.00     0.077 C 
ATOM      3  C1  PXY d   1       0.001   0.405  -2.469  0.00  0.00    -0.082 A 
ATOM      4  C2  PXY d   1      -1.307   0.304  -2.301  0.00  0.00     0.003 A 
ATOM      5  C3  PXY d   1      -1.938   1.025  -1.320  0.00  0.00     0.003 A 
ATOM      6  C4  PXY d   1      -1.214   1.815  -0.467  0.00  0.00    -0.082 A 
ATOM      7  C5  PXY d   1       0.123   1.915  -0.625  0.00  0.00     0.003 A 
ATOM      8  C6  PXY d   1       0.738   1.207  -1.653  0.00  0.00     0.003 A 
ENDROOT
TORSDOF 0
ENDMDL
