MODEL 1
REMARK minimizedAffinity 1.9613018
REMARK minimizedRMSD -1
REMARK  0 active torsions:
REMARK  status: ('A' for Active; 'I' for Inactive)
ROOT
ATOM      1  C4' PXY d   1       0.014   0.025  -1.161  0.00  0.00     0.077 C 
ATOM      2  C1' PXY d   1       0.627   5.662  -0.037  0.00  0.00     0.077 C 
ATOM      3  C1  PXY d   1       0.464   4.182  -0.319  0.00  0.00    -0.082 A 
ATOM      4  C2  PXY d   1       1.015   3.658  -1.402  0.00  0.00     0.003 A 
ATOM      5  C3  PXY d   1       0.851   2.327  -1.689  0.00  0.00     0.003 A 
ATOM      6  C4  PXY d   1       0.160   1.513  -0.831  0.00  0.00    -0.082 A 
ATOM      7  C5  PXY d   1      -0.396   2.038   0.281  0.00  0.00     0.003 A 
ATOM      8  C6  PXY d   1      -0.253   3.400   0.533  0.00  0.00     0.003 A 
ENDROOT
TORSDOF 0
ENDMDL
