MODEL 1
REMARK minimizedAffinity 10.4990454
REMARK minimizedRMSD -1
REMARK  0 active torsions:
REMARK  status: ('A' for Active; 'I' for Inactive)
ROOT
ATOM      1  C4' PXY d   1       1.175   0.369   3.724  0.00  0.00     0.077 C 
ATOM      2  C1' PXY d   1      -3.067   3.165   0.966  0.00  0.00     0.077 C 
ATOM      3  C1  PXY d   1      -1.946   2.437   1.681  0.00  0.00    -0.082 A 
ATOM      4  C2  PXY d   1      -2.217   1.352   2.388  0.00  0.00     0.003 A 
ATOM      5  C3  PXY d   1      -1.220   0.699   3.066  0.00  0.00     0.003 A 
ATOM      6  C4  PXY d   1       0.076   1.131   2.978  0.00  0.00    -0.082 A 
ATOM      7  C5  PXY d   1       0.362   2.231   2.250  0.00  0.00     0.003 A 
ATOM      8  C6  PXY d   1      -0.670   2.903   1.602  0.00  0.00     0.003 A 
ENDROOT
TORSDOF 0
ENDMDL
