MODEL 1
REMARK minimizedAffinity 10.1531858
REMARK minimizedRMSD -1
REMARK  0 active torsions:
REMARK  status: ('A' for Active; 'I' for Inactive)
ROOT
ATOM      1  C4' PXY d   1      -0.335  -0.826  -2.928  0.00  0.00     0.077 C 
ATOM      2  C1' PXY d   1      -2.534   2.836   0.967  0.00  0.00     0.077 C 
ATOM      3  C1  PXY d   1      -1.968   1.868  -0.052  0.00  0.00    -0.082 A 
ATOM      4  C2  PXY d   1      -0.670   1.876  -0.312  0.00  0.00     0.003 A 
ATOM      5  C3  PXY d   1      -0.146   1.029  -1.254  0.00  0.00     0.003 A 
ATOM      6  C4  PXY d   1      -0.949   0.128  -1.899  0.00  0.00    -0.082 A 
ATOM      7  C5  PXY d   1      -2.272   0.105  -1.632  0.00  0.00     0.003 A 
ATOM      8  C6  PXY d   1      -2.792   1.001  -0.702  0.00  0.00     0.003 A 
ENDROOT
TORSDOF 0
ENDMDL
