MODEL 1
REMARK minimizedAffinity 4.34028244
REMARK minimizedRMSD -1
REMARK  0 active torsions:
REMARK  status: ('A' for Active; 'I' for Inactive)
ROOT
ATOM      1  C4' PXY d   1       4.430  -5.974   1.993  0.00  0.00     0.077 C 
ATOM      2  C1' PXY d   1       3.408  -0.600   0.122  0.00  0.00     0.077 C 
ATOM      3  C1  PXY d   1       3.688  -2.009   0.608  0.00  0.00    -0.082 A 
ATOM      4  C2  PXY d   1       2.687  -2.860   0.760  0.00  0.00     0.003 A 
ATOM      5  C3  PXY d   1       2.919  -4.127   1.229  0.00  0.00     0.003 A 
ATOM      6  C4  PXY d   1       4.195  -4.545   1.495  0.00  0.00    -0.082 A 
ATOM      7  C5  PXY d   1       5.224  -3.686   1.333  0.00  0.00     0.003 A 
ATOM      8  C6  PXY d   1       4.962  -2.390   0.895  0.00  0.00     0.003 A 
ENDROOT
TORSDOF 0
ENDMDL
