MODEL 1
REMARK minimizedAffinity 2.52293515
REMARK minimizedRMSD -1
REMARK  0 active torsions:
REMARK  status: ('A' for Active; 'I' for Inactive)
ROOT
ATOM      1  C4' PXY d   1       6.000  -1.456   0.031  0.00  0.00     0.077 C 
ATOM      2  C1' PXY d   1       1.404  -4.663   1.446  0.00  0.00     0.077 C 
ATOM      3  C1  PXY d   1       2.601  -3.812   1.071  0.00  0.00    -0.082 A 
ATOM      4  C2  PXY d   1       3.741  -4.397   0.740  0.00  0.00     0.003 A 
ATOM      5  C3  PXY d   1       4.843  -3.642   0.430  0.00  0.00     0.003 A 
ATOM      6  C4  PXY d   1       4.762  -2.275   0.407  0.00  0.00    -0.082 A 
ATOM      7  C5  PXY d   1       3.600  -1.672   0.733  0.00  0.00     0.003 A 
ATOM      8  C6  PXY d   1       2.505  -2.455   1.085  0.00  0.00     0.003 A 
ENDROOT
TORSDOF 0
ENDMDL
