MODEL 1
REMARK minimizedAffinity 9.11350346
REMARK minimizedRMSD -1
REMARK  0 active torsions:
REMARK  status: ('A' for Active; 'I' for Inactive)
ROOT
ATOM      1  C4' PXY d   1      -0.952  -0.011   3.146  0.00  0.00     0.077 C 
ATOM      2  C1' PXY d   1      -3.108   4.594   0.396  0.00  0.00     0.077 C 
ATOM      3  C1  PXY d   1      -2.531   3.391   1.115  0.00  0.00    -0.082 A 
ATOM      4  C2  PXY d   1      -3.251   2.286   1.224  0.00  0.00     0.003 A 
ATOM      5  C3  PXY d   1      -2.756   1.199   1.898  0.00  0.00     0.003 A 
ATOM      6  C4  PXY d   1      -1.491   1.225   2.421  0.00  0.00    -0.082 A 
ATOM      7  C5  PXY d   1      -0.746   2.345   2.304  0.00  0.00     0.003 A 
ATOM      8  C6  PXY d   1      -1.282   3.451   1.652  0.00  0.00     0.003 A 
ENDROOT
TORSDOF 0
ENDMDL
