MODEL 1
REMARK minimizedAffinity -0.951928854
REMARK minimizedRMSD -1
REMARK  0 active torsions:
REMARK  status: ('A' for Active; 'I' for Inactive)
ROOT
ATOM      1  C4' PXY d   1      -1.858  -1.517   3.775  0.00  0.00     0.077 C 
ATOM      2  C1' PXY d   1      -1.914   3.132   0.340  0.00  0.00     0.077 C 
ATOM      3  C1  PXY d   1      -1.886   1.912   1.239  0.00  0.00    -0.082 A 
ATOM      4  C2  PXY d   1      -2.994   1.214   1.429  0.00  0.00     0.003 A 
ATOM      5  C3  PXY d   1      -2.995   0.127   2.264  0.00  0.00     0.003 A 
ATOM      6  C4  PXY d   1      -1.837  -0.283   2.869  0.00  0.00    -0.082 A 
ATOM      7  C5  PXY d   1      -0.699   0.417   2.671  0.00  0.00     0.003 A 
ATOM      8  C6  PXY d   1      -0.729   1.542   1.853  0.00  0.00     0.003 A 
ENDROOT
TORSDOF 0
ENDMDL
