MODEL 1
REMARK minimizedAffinity 11.6280794
REMARK minimizedRMSD -1
REMARK  0 active torsions:
REMARK  status: ('A' for Active; 'I' for Inactive)
ROOT
ATOM      1  O1  BZF d   1       3.124  -1.145  -3.045  0.00  0.00    -0.204 OA
ATOM      2  C2  BZF d   1       2.416  -2.288  -2.730  0.00  0.00     0.174 A 
ATOM      3  C3  BZF d   1       1.922  -2.215  -1.477  0.00  0.00    -0.012 A 
ATOM      4  C3A BZF d   1       2.269  -0.907  -1.012  0.00  0.00    -0.107 A 
ATOM      5  C4  BZF d   1       2.042  -0.234   0.155  0.00  0.00     0.055 A 
ATOM      6  C5  BZF d   1       2.579   1.003   0.319  0.00  0.00    -0.016 A 
ATOM      7  C6  BZF d   1       3.351   1.595  -0.659  0.00  0.00     0.022 A 
ATOM      8  C7  BZF d   1       3.600   0.969  -1.835  0.00  0.00     0.029 A 
ATOM      9  C7A BZF d   1       3.031  -0.268  -2.017  0.00  0.00     0.058 A 
ENDROOT
TORSDOF 0
ENDMDL
