MODEL 1
REMARK minimizedAffinity 6.76504374
REMARK minimizedRMSD -1
REMARK  0 active torsions:
REMARK  status: ('A' for Active; 'I' for Inactive)
ROOT
ATOM      1  O1  BZF d   1      -5.999   0.772  -3.617  0.00  0.00    -0.204 OA
ATOM      2  C2  BZF d   1      -5.605   0.458  -4.904  0.00  0.00     0.174 A 
ATOM      3  C3  BZF d   1      -4.285   0.189  -4.948  0.00  0.00    -0.012 A 
ATOM      4  C3A BZF d   1      -3.841   0.255  -3.589  0.00  0.00    -0.107 A 
ATOM      5  C4  BZF d   1      -2.631   0.066  -2.986  0.00  0.00     0.055 A 
ATOM      6  C5  BZF d   1      -2.519   0.277  -1.648  0.00  0.00    -0.016 A 
ATOM      7  C6  BZF d   1      -3.594   0.681  -0.885  0.00  0.00     0.022 A 
ATOM      8  C7  BZF d   1      -4.816   0.876  -1.437  0.00  0.00     0.029 A 
ATOM      9  C7A BZF d   1      -4.940   0.632  -2.783  0.00  0.00     0.058 A 
ENDROOT
TORSDOF 0
ENDMDL
