MODEL 1
REMARK minimizedAffinity 11.0914221
REMARK minimizedRMSD -1
REMARK  0 active torsions:
REMARK  status: ('A' for Active; 'I' for Inactive)
ROOT
ATOM      1  O1  BZF d   1       2.958  -0.608  -1.619  0.00  0.00    -0.204 OA
ATOM      2  C2  BZF d   1       2.226  -1.049  -0.534  0.00  0.00     0.174 A 
ATOM      3  C3  BZF d   1       2.267  -0.147   0.468  0.00  0.00    -0.012 A 
ATOM      4  C3A BZF d   1       2.998   0.965  -0.056  0.00  0.00    -0.107 A 
ATOM      5  C4  BZF d   1       3.358   2.178   0.458  0.00  0.00     0.055 A 
ATOM      6  C5  BZF d   1       4.134   3.007  -0.288  0.00  0.00    -0.016 A 
ATOM      7  C6  BZF d   1       4.572   2.654  -1.548  0.00  0.00     0.022 A 
ATOM      8  C7  BZF d   1       4.236   1.464  -2.102  0.00  0.00     0.029 A 
ATOM      9  C7A BZF d   1       3.425   0.637  -1.363  0.00  0.00     0.058 A 
ENDROOT
TORSDOF 0
ENDMDL
