MODEL 1
REMARK minimizedAffinity 19.3910275
REMARK minimizedRMSD -1
REMARK  0 active torsions:
REMARK  status: ('A' for Active; 'I' for Inactive)
ROOT
ATOM      1  O1  BZF d   1       5.168  -0.759   1.772  0.00  0.00    -0.204 OA
ATOM      2  C2  BZF d   1       6.000   0.323   1.555  0.00  0.00     0.174 A 
ATOM      3  C3  BZF d   1       5.436   1.194   0.694  0.00  0.00    -0.012 A 
ATOM      4  C3A BZF d   1       4.134   0.667   0.423  0.00  0.00    -0.107 A 
ATOM      5  C4  BZF d   1       3.090   1.093  -0.348  0.00  0.00     0.055 A 
ATOM      6  C5  BZF d   1       1.985   0.309  -0.454  0.00  0.00    -0.016 A 
ATOM      7  C6  BZF d   1       1.892  -0.907   0.191  0.00  0.00     0.022 A 
ATOM      8  C7  BZF d   1       2.899  -1.369   0.971  0.00  0.00     0.029 A 
ATOM      9  C7A BZF d   1       4.004  -0.564   1.107  0.00  0.00     0.058 A 
ENDROOT
TORSDOF 0
ENDMDL
