MODEL 1
REMARK minimizedAffinity 13.0237064
REMARK minimizedRMSD -1
REMARK  0 active torsions:
REMARK  status: ('A' for Active; 'I' for Inactive)
ROOT
ATOM      1  O1  BZF d   1      -3.661   5.956   4.743  0.00  0.00    -0.204 OA
ATOM      2  C2  BZF d   1      -4.340   5.968   5.946  0.00  0.00     0.174 A 
ATOM      3  C3  BZF d   1      -5.360   5.086   5.929  0.00  0.00    -0.012 A 
ATOM      4  C3A BZF d   1      -5.259   4.418   4.667  0.00  0.00    -0.107 A 
ATOM      5  C4  BZF d   1      -5.980   3.424   4.071  0.00  0.00     0.055 A 
ATOM      6  C5  BZF d   1      -5.666   3.050   2.802  0.00  0.00    -0.016 A 
ATOM      7  C6  BZF d   1      -4.642   3.651   2.101  0.00  0.00     0.022 A 
ATOM      8  C7  BZF d   1      -3.895   4.639   2.652  0.00  0.00     0.029 A 
ATOM      9  C7A BZF d   1      -4.189   4.996   3.946  0.00  0.00     0.058 A 
ENDROOT
TORSDOF 0
ENDMDL
