MODEL 1
REMARK minimizedAffinity 13.1059713
REMARK minimizedRMSD -1
REMARK  0 active torsions:
REMARK  status: ('A' for Active; 'I' for Inactive)
ROOT
ATOM      1  O1  BZF d   1       3.808   1.429  -2.558  0.00  0.00    -0.204 OA
ATOM      2  C2  BZF d   1       4.854   2.201  -2.091  0.00  0.00     0.174 A 
ATOM      3  C3  BZF d   1       4.912   2.164  -0.744  0.00  0.00    -0.012 A 
ATOM      4  C3A BZF d   1       3.891   1.244  -0.349  0.00  0.00    -0.107 A 
ATOM      5  C4  BZF d   1       3.467   0.774   0.862  0.00  0.00     0.055 A 
ATOM      6  C5  BZF d   1       2.397  -0.061   0.909  0.00  0.00    -0.016 A 
ATOM      7  C6  BZF d   1       1.724  -0.444  -0.233  0.00  0.00     0.022 A 
ATOM      8  C7  BZF d   1       2.110  -0.009  -1.457  0.00  0.00     0.029 A 
ATOM      9  C7A BZF d   1       3.212   0.810  -1.511  0.00  0.00     0.058 A 
ENDROOT
TORSDOF 0
ENDMDL
