MODEL 1
REMARK minimizedAffinity 19.9781361
REMARK minimizedRMSD -1
REMARK  0 active torsions:
REMARK  status: ('A' for Active; 'I' for Inactive)
ROOT
ATOM      1  O1  BZF d   1       1.745   6.000   3.290  0.00  0.00    -0.204 OA
ATOM      2  C2  BZF d   1       0.621   5.197   3.256  0.00  0.00     0.174 A 
ATOM      3  C3  BZF d   1       0.964   3.893   3.237  0.00  0.00    -0.012 A 
ATOM      4  C3A BZF d   1       2.390   3.878   3.353  0.00  0.00    -0.107 A 
ATOM      5  C4  BZF d   1       3.317   2.877   3.408  0.00  0.00     0.055 A 
ATOM      6  C5  BZF d   1       4.637   3.199   3.449  0.00  0.00    -0.016 A 
ATOM      7  C6  BZF d   1       5.064   4.511   3.431  0.00  0.00     0.022 A 
ATOM      8  C7  BZF d   1       4.182   5.538   3.382  0.00  0.00     0.029 A 
ATOM      9  C7A BZF d   1       2.847   5.216   3.374  0.00  0.00     0.058 A 
ENDROOT
TORSDOF 0
ENDMDL
