MODEL 1
REMARK minimizedAffinity 16.0165749
REMARK minimizedRMSD -1
REMARK  0 active torsions:
REMARK  status: ('A' for Active; 'I' for Inactive)
ROOT
ATOM      1  O1  BZF d   1      -5.710   0.760   0.717  0.00  0.00    -0.204 OA
ATOM      2  C2  BZF d   1      -6.000  -0.032  -0.377  0.00  0.00     0.174 A 
ATOM      3  C3  BZF d   1      -5.808   0.650  -1.525  0.00  0.00    -0.012 A 
ATOM      4  C3A BZF d   1      -5.282   1.919  -1.125  0.00  0.00    -0.107 A 
ATOM      5  C4  BZF d   1      -4.876   3.026  -1.814  0.00  0.00     0.055 A 
ATOM      6  C5  BZF d   1      -4.483   4.127  -1.122  0.00  0.00    -0.016 A 
ATOM      7  C6  BZF d   1      -4.488   4.158   0.257  0.00  0.00     0.022 A 
ATOM      8  C7  BZF d   1      -4.877   3.083   0.984  0.00  0.00     0.029 A 
ATOM      9  C7A BZF d   1      -5.244   1.957   0.288  0.00  0.00     0.058 A 
ENDROOT
TORSDOF 0
ENDMDL
