MODEL 1
REMARK minimizedAffinity 28.7116318
REMARK minimizedRMSD -1
REMARK  0 active torsions:
REMARK  status: ('A' for Active; 'I' for Inactive)
ROOT
ATOM      1  O1  BZF d   1       2.483   6.000   3.366  0.00  0.00    -0.204 OA
ATOM      2  C2  BZF d   1       1.144   5.786   3.102  0.00  0.00     0.174 A 
ATOM      3  C3  BZF d   1       0.905   4.480   2.864  0.00  0.00    -0.012 A 
ATOM      4  C3A BZF d   1       2.159   3.824   3.078  0.00  0.00    -0.107 A 
ATOM      5  C4  BZF d   1       2.559   2.520   3.011  0.00  0.00     0.055 A 
ATOM      6  C5  BZF d   1       3.870   2.221   3.206  0.00  0.00    -0.016 A 
ATOM      7  C6  BZF d   1       4.808   3.200   3.464  0.00  0.00     0.022 A 
ATOM      8  C7  BZF d   1       4.457   4.507   3.545  0.00  0.00     0.029 A 
ATOM      9  C7A BZF d   1       3.127   4.809   3.381  0.00  0.00     0.058 A 
ENDROOT
TORSDOF 0
ENDMDL
