MODEL 1
REMARK minimizedAffinity 11.9126759
REMARK minimizedRMSD -1
REMARK  0 active torsions:
REMARK  status: ('A' for Active; 'I' for Inactive)
ROOT
ATOM      1  O1  BZF d   1      -4.795   2.002   1.879  0.00  0.00    -0.204 OA
ATOM      2  C2  BZF d   1      -4.086   2.409   0.766  0.00  0.00     0.174 A 
ATOM      3  C3  BZF d   1      -3.983   3.753   0.729  0.00  0.00    -0.012 A 
ATOM      4  C3A BZF d   1      -4.591   4.211   1.940  0.00  0.00    -0.107 A 
ATOM      5  C4  BZF d   1      -4.784   5.448   2.485  0.00  0.00     0.055 A 
ATOM      6  C5  BZF d   1      -5.479   5.557   3.648  0.00  0.00    -0.016 A 
ATOM      7  C6  BZF d   1      -5.999   4.452   4.289  0.00  0.00     0.022 A 
ATOM      8  C7  BZF d   1      -5.829   3.203   3.790  0.00  0.00     0.029 A 
ATOM      9  C7A BZF d   1      -5.099   3.087   2.632  0.00  0.00     0.058 A 
ENDROOT
TORSDOF 0
ENDMDL
