MODEL 1
REMARK minimizedAffinity 3.01310873
REMARK minimizedRMSD -1
REMARK  0 active torsions:
REMARK  status: ('A' for Active; 'I' for Inactive)
ROOT
ATOM      1  C   UNL d   1       0.599   1.995  -0.210  0.00  0.00     0.172 C 
ATOM      2  N   UNL d   1      -0.656   1.456  -0.681  0.00  0.00    -0.070 N 
ATOM      3  C1  UNL d   1      -0.915   1.037  -1.958  0.00  0.00    -0.004 A 
ATOM      4  C2  UNL d   1      -2.220   0.594  -2.000  0.00  0.00    -0.047 A 
ATOM      5  C3  UNL d   1      -2.763   0.753  -0.703  0.00  0.00    -0.047 A 
ATOM      6  C4  UNL d   1      -1.773   1.289   0.094  0.00  0.00    -0.004 A 
ENDROOT
TORSDOF 0
ENDMDL
