MODEL 1
REMARK minimizedAffinity 4.5647316
REMARK minimizedRMSD -1
REMARK  0 active torsions:
REMARK  status: ('A' for Active; 'I' for Inactive)
ROOT
ATOM      1  C   UNL d   1       5.989   6.000   3.263  0.00  0.00     0.172 C 
ATOM      2  N   UNL d   1       5.204   5.204   4.178  0.00  0.00    -0.070 N 
ATOM      3  C1  UNL d   1       5.555   4.888   5.464  0.00  0.00    -0.004 A 
ATOM      4  C2  UNL d   1       4.545   4.119   6.000  0.00  0.00    -0.047 A 
ATOM      5  C3  UNL d   1       3.553   3.967   5.002  0.00  0.00    -0.047 A 
ATOM      6  C4  UNL d   1       3.987   4.649   3.884  0.00  0.00    -0.004 A 
ENDROOT
TORSDOF 0
ENDMDL
