MODEL 1
REMARK minimizedAffinity 3.12812996
REMARK minimizedRMSD -1
REMARK  0 active torsions:
REMARK  status: ('A' for Active; 'I' for Inactive)
ROOT
ATOM      1  C   UNL d   1      -0.903   0.931   2.957  0.00  0.00     0.172 C 
ATOM      2  N   UNL d   1      -0.230   1.381   1.762  0.00  0.00    -0.070 N 
ATOM      3  C1  UNL d   1       1.098   1.202   1.478  0.00  0.00    -0.004 A 
ATOM      4  C2  UNL d   1       1.347   1.772   0.248  0.00  0.00    -0.047 A 
ATOM      5  C3  UNL d   1       0.127   2.313  -0.223  0.00  0.00    -0.047 A 
ATOM      6  C4  UNL d   1      -0.832   2.056   0.733  0.00  0.00    -0.004 A 
ENDROOT
TORSDOF 0
ENDMDL
