MODEL 1
REMARK minimizedAffinity 5.06097889
REMARK minimizedRMSD -1
REMARK  0 active torsions:
REMARK  status: ('A' for Active; 'I' for Inactive)
ROOT
ATOM      1  C   UNL d   1      -1.173   1.490  -1.654  0.00  0.00     0.172 C 
ATOM      2  N   UNL d   1      -0.009   1.726  -0.833  0.00  0.00    -0.070 N 
ATOM      3  C1  UNL d   1       0.855   0.766  -0.378  0.00  0.00    -0.004 A 
ATOM      4  C2  UNL d   1       1.829   1.394   0.367  0.00  0.00    -0.047 A 
ATOM      5  C3  UNL d   1       1.540   2.780   0.361  0.00  0.00    -0.047 A 
ATOM      6  C4  UNL d   1       0.397   2.957  -0.390  0.00  0.00    -0.004 A 
ENDROOT
TORSDOF 0
ENDMDL
