MODEL 1
REMARK minimizedAffinity 3.14281988
REMARK minimizedRMSD -1
REMARK  0 active torsions:
REMARK  status: ('A' for Active; 'I' for Inactive)
ROOT
ATOM      1  C   UNL d   1       3.301  -1.031   1.864  0.00  0.00     0.172 C 
ATOM      2  N   UNL d   1       2.915  -1.423   0.529  0.00  0.00    -0.070 N 
ATOM      3  C1  UNL d   1       1.933  -2.323   0.213  0.00  0.00    -0.004 A 
ATOM      4  C2  UNL d   1       1.874  -2.419  -1.160  0.00  0.00    -0.047 A 
ATOM      5  C3  UNL d   1       2.856  -1.548  -1.688  0.00  0.00    -0.047 A 
ATOM      6  C4  UNL d   1       3.486  -0.944  -0.621  0.00  0.00    -0.004 A 
ENDROOT
TORSDOF 0
ENDMDL
