MODEL 1
REMARK minimizedAffinity 2.61336255
REMARK minimizedRMSD -1
REMARK  0 active torsions:
REMARK  status: ('A' for Active; 'I' for Inactive)
ROOT
ATOM      1  C   UNL d   1       4.871   5.979   2.706  0.00  0.00     0.172 C 
ATOM      2  N   UNL d   1       4.865   5.158   3.894  0.00  0.00    -0.070 N 
ATOM      3  C1  UNL d   1       5.238   5.564   5.147  0.00  0.00    -0.004 A 
ATOM      4  C2  UNL d   1       5.090   4.492   6.000  0.00  0.00    -0.047 A 
ATOM      5  C3  UNL d   1       4.611   3.404   5.233  0.00  0.00    -0.047 A 
ATOM      6  C4  UNL d   1       4.481   3.844   3.932  0.00  0.00    -0.004 A 
ENDROOT
TORSDOF 0
ENDMDL
