MODEL 1
REMARK minimizedAffinity -0.271194726
REMARK minimizedRMSD -1
REMARK  0 active torsions:
REMARK  status: ('A' for Active; 'I' for Inactive)
ROOT
ATOM      1  C   UNL d   1       2.385  -1.239  -0.012  0.00  0.00     0.172 C 
ATOM      2  N   UNL d   1       2.750   0.155   0.090  0.00  0.00    -0.070 N 
ATOM      3  C1  UNL d   1       1.880   1.196   0.275  0.00  0.00    -0.004 A 
ATOM      4  C2  UNL d   1       2.618   2.359   0.319  0.00  0.00    -0.047 A 
ATOM      5  C3  UNL d   1       3.978   2.005   0.154  0.00  0.00    -0.047 A 
ATOM      6  C4  UNL d   1       4.031   0.634   0.014  0.00  0.00    -0.004 A 
ENDROOT
TORSDOF 0
ENDMDL
