MODEL 1
REMARK minimizedAffinity 0.641994417
REMARK minimizedRMSD -1
REMARK  0 active torsions:
REMARK  status: ('A' for Active; 'I' for Inactive)
ROOT
ATOM      1  C   UNL d   1      -5.999   4.119  -3.752  0.00  0.00     0.172 C 
ATOM      2  N   UNL d   1      -5.695   3.014  -2.873  0.00  0.00    -0.070 N 
ATOM      3  C1  UNL d   1      -6.000   2.948  -1.540  0.00  0.00    -0.004 A 
ATOM      4  C2  UNL d   1      -5.544   1.738  -1.062  0.00  0.00    -0.047 A 
ATOM      5  C3  UNL d   1      -4.943   1.054  -2.146  0.00  0.00    -0.047 A 
ATOM      6  C4  UNL d   1      -5.051   1.867  -3.254  0.00  0.00    -0.004 A 
ENDROOT
TORSDOF 0
ENDMDL
