MODEL 1
REMARK minimizedAffinity -4.05344915
REMARK minimizedRMSD -1
REMARK  0 active torsions:
REMARK  status: ('A' for Active; 'I' for Inactive)
ROOT
ATOM      1  C   UNL d   1      -0.688   0.297   0.103  0.00  0.00     0.172 C 
ATOM      2  N   UNL d   1       0.551  -0.444   0.102  0.00  0.00    -0.070 N 
ATOM      3  C1  UNL d   1       0.929  -1.366  -0.837  0.00  0.00    -0.004 A 
ATOM      4  C2  UNL d   1       2.171  -1.845  -0.482  0.00  0.00    -0.047 A 
ATOM      5  C3  UNL d   1       2.553  -1.188   0.712  0.00  0.00    -0.047 A 
ATOM      6  C4  UNL d   1       1.532  -0.326   1.051  0.00  0.00    -0.004 A 
ENDROOT
TORSDOF 0
ENDMDL
