MODEL 1
REMARK minimizedAffinity -5.40691042
REMARK minimizedRMSD -1
REMARK  0 active torsions:
REMARK  status: ('A' for Active; 'I' for Inactive)
ROOT
ATOM      1  C   UNL d   1      -1.697   2.456   1.092  0.00  0.00     0.020 A 
ATOM      2  C1  UNL d   1      -1.136   2.754  -0.149  0.00  0.00     0.020 A 
ATOM      3  C2  UNL d   1      -0.340   1.810  -0.800  0.00  0.00     0.034 A 
ATOM      4  C3  UNL d   1      -0.103   0.563  -0.211  0.00  0.00     0.017 A 
ATOM      5  C4  UNL d   1      -0.666   0.264   1.034  0.00  0.00     0.017 A 
ATOM      6  C5  UNL d   1      -1.463   1.213   1.682  0.00  0.00     0.034 A 
ATOM      7 Cl   UNL d   1      -0.418  -1.253   1.824  0.00  0.00    -0.070 Cl
ATOM      8 Cl1  UNL d   1       0.891  -0.557  -1.074  0.00  0.00    -0.070 Cl
ENDROOT
TORSDOF 0
ENDMDL
