MODEL 1
REMARK minimizedAffinity -2.3959167
REMARK minimizedRMSD -1
REMARK  0 active torsions:
REMARK  status: ('A' for Active; 'I' for Inactive)
ROOT
ATOM      1  C   UNL d   1      -1.498   0.723   2.271  0.00  0.00     0.020 A 
ATOM      2  C1  UNL d   1      -1.008  -0.573   2.111  0.00  0.00     0.020 A 
ATOM      3  C2  UNL d   1      -0.110  -0.857   1.080  0.00  0.00     0.034 A 
ATOM      4  C3  UNL d   1       0.301   0.156   0.206  0.00  0.00     0.017 A 
ATOM      5  C4  UNL d   1      -0.191   1.456   0.368  0.00  0.00     0.017 A 
ATOM      6  C5  UNL d   1      -1.090   1.735   1.402  0.00  0.00     0.034 A 
ATOM      7 Cl   UNL d   1       0.270   2.758  -0.671  0.00  0.00    -0.070 Cl
ATOM      8 Cl1  UNL d   1       1.414  -0.266  -1.047  0.00  0.00    -0.070 Cl
ENDROOT
TORSDOF 0
ENDMDL
