MODEL 1
REMARK minimizedAffinity -3.75013542
REMARK minimizedRMSD -1
REMARK  0 active torsions:
REMARK  status: ('A' for Active; 'I' for Inactive)
ROOT
ATOM      1  C   UNL d   1      -1.220   2.635   0.149  0.00  0.00     0.020 A 
ATOM      2  C1  UNL d   1      -1.422   2.498   1.521  0.00  0.00     0.020 A 
ATOM      3  C2  UNL d   1      -1.025   1.328   2.172  0.00  0.00     0.034 A 
ATOM      4  C3  UNL d   1      -0.424   0.291   1.450  0.00  0.00     0.017 A 
ATOM      5  C4  UNL d   1      -0.221   0.429   0.073  0.00  0.00     0.017 A 
ATOM      6  C5  UNL d   1      -0.621   1.603  -0.574  0.00  0.00     0.034 A 
ATOM      7 Cl   UNL d   1       0.514  -0.807  -0.885  0.00  0.00    -0.070 Cl
ATOM      8 Cl1  UNL d   1       0.043  -1.127   2.320  0.00  0.00    -0.070 Cl
ENDROOT
TORSDOF 0
ENDMDL
