MODEL 1
REMARK minimizedAffinity -5.01088381
REMARK minimizedRMSD -1
REMARK  0 active torsions:
REMARK  status: ('A' for Active; 'I' for Inactive)
ROOT
ATOM      1  C   UNL d   1      -1.523   2.629   1.341  0.00  0.00     0.020 A 
ATOM      2  C1  UNL d   1      -1.074   2.851   0.039  0.00  0.00     0.020 A 
ATOM      3  C2  UNL d   1      -0.343   1.863  -0.625  0.00  0.00     0.034 A 
ATOM      4  C3  UNL d   1      -0.059   0.650   0.012  0.00  0.00     0.017 A 
ATOM      5  C4  UNL d   1      -0.510   0.428   1.319  0.00  0.00     0.017 A 
ATOM      6  C5  UNL d   1      -1.241   1.421   1.979  0.00  0.00     0.034 A 
ATOM      7 Cl   UNL d   1      -0.198  -1.043   2.170  0.00  0.00    -0.070 Cl
ATOM      8 Cl1  UNL d   1       0.849  -0.527  -0.869  0.00  0.00    -0.070 Cl
ENDROOT
TORSDOF 0
ENDMDL
