MODEL 1
REMARK minimizedAffinity -4.55352783
REMARK minimizedRMSD -1
REMARK  0 active torsions:
REMARK  status: ('A' for Active; 'I' for Inactive)
ROOT
ATOM      1  C   UNL d   1      -2.543   2.841   1.064  0.00  0.00     0.020 A 
ATOM      2  C1  UNL d   1      -1.330   3.264   0.524  0.00  0.00     0.020 A 
ATOM      3  C2  UNL d   1      -0.270   2.364   0.396  0.00  0.00     0.034 A 
ATOM      4  C3  UNL d   1      -0.421   1.035   0.809  0.00  0.00     0.017 A 
ATOM      5  C4  UNL d   1      -1.640   0.611   1.352  0.00  0.00     0.017 A 
ATOM      6  C5  UNL d   1      -2.698   1.517   1.477  0.00  0.00     0.034 A 
ATOM      7 Cl   UNL d   1      -1.902  -1.012   1.884  0.00  0.00    -0.070 Cl
ATOM      8 Cl1  UNL d   1       0.931  -0.024   0.621  0.00  0.00    -0.070 Cl
ENDROOT
TORSDOF 0
ENDMDL
