MODEL 1
REMARK minimizedAffinity -5.4581542
REMARK minimizedRMSD -1
REMARK  0 active torsions:
REMARK  status: ('A' for Active; 'I' for Inactive)
ROOT
ATOM      1  C   UNL d   1      -1.349   3.327   0.463  0.00  0.00     0.020 A 
ATOM      2  C1  UNL d   1      -1.821   2.166   1.075  0.00  0.00     0.020 A 
ATOM      3  C2  UNL d   1      -1.261   0.929   0.750  0.00  0.00     0.034 A 
ATOM      4  C3  UNL d   1      -0.226   0.849  -0.190  0.00  0.00     0.017 A 
ATOM      5  C4  UNL d   1       0.246   2.015  -0.804  0.00  0.00     0.017 A 
ATOM      6  C5  UNL d   1      -0.318   3.251  -0.475  0.00  0.00     0.034 A 
ATOM      7 Cl   UNL d   1       1.519   1.996  -1.972  0.00  0.00    -0.070 Cl
ATOM      8 Cl1  UNL d   1       0.419  -0.714  -0.543  0.00  0.00    -0.070 Cl
ENDROOT
TORSDOF 0
ENDMDL
