MODEL 1
REMARK minimizedAffinity -3.64130807
REMARK minimizedRMSD -1
REMARK  0 active torsions:
REMARK  status: ('A' for Active; 'I' for Inactive)
ROOT
ATOM      1  C   UNL d   1      -0.630   2.900  -0.235  0.00  0.00     0.020 A 
ATOM      2  C1  UNL d   1      -1.294   2.964   0.989  0.00  0.00     0.020 A 
ATOM      3  C2  UNL d   1      -1.490   1.801   1.738  0.00  0.00     0.034 A 
ATOM      4  C3  UNL d   1      -1.022   0.571   1.264  0.00  0.00     0.017 A 
ATOM      5  C4  UNL d   1      -0.356   0.508   0.034  0.00  0.00     0.017 A 
ATOM      6  C5  UNL d   1      -0.162   1.675  -0.712  0.00  0.00     0.034 A 
ATOM      7 Cl   UNL d   1       0.250  -0.974  -0.617  0.00  0.00    -0.070 Cl
ATOM      8 Cl1  UNL d   1      -1.299  -0.826   2.242  0.00  0.00    -0.070 Cl
ENDROOT
TORSDOF 0
ENDMDL
