MODEL 1
REMARK minimizedAffinity -4.70064688
REMARK minimizedRMSD -1
REMARK  0 active torsions:
REMARK  status: ('A' for Active; 'I' for Inactive)
ROOT
ATOM      1  C   UNL d   1      -1.921   2.952   1.568  0.00  0.00     0.020 A 
ATOM      2  C1  UNL d   1      -1.846   3.208   0.199  0.00  0.00     0.020 A 
ATOM      3  C2  UNL d   1      -1.239   2.282  -0.652  0.00  0.00     0.034 A 
ATOM      4  C3  UNL d   1      -0.705   1.096  -0.136  0.00  0.00     0.017 A 
ATOM      5  C4  UNL d   1      -0.781   0.839   1.237  0.00  0.00     0.017 A 
ATOM      6  C5  UNL d   1      -1.390   1.770   2.085  0.00  0.00     0.034 A 
ATOM      7 Cl   UNL d   1      -0.146  -0.603   1.948  0.00  0.00    -0.070 Cl
ATOM      8 Cl1  UNL d   1       0.030  -0.004  -1.248  0.00  0.00    -0.070 Cl
ENDROOT
TORSDOF 0
ENDMDL
