MODEL 1
REMARK minimizedAffinity -4.83630323
REMARK minimizedRMSD -1
REMARK  0 active torsions:
REMARK  status: ('A' for Active; 'I' for Inactive)
ROOT
ATOM      1  C   UNL d   1      -2.403   2.651   1.439  0.00  0.00     0.020 A 
ATOM      2  C1  UNL d   1      -2.258   1.314   1.805  0.00  0.00     0.020 A 
ATOM      3  C2  UNL d   1      -1.306   0.514   1.169  0.00  0.00     0.034 A 
ATOM      4  C3  UNL d   1      -0.496   1.052   0.162  0.00  0.00     0.017 A 
ATOM      5  C4  UNL d   1      -0.642   2.394  -0.205  0.00  0.00     0.017 A 
ATOM      6  C5  UNL d   1      -1.596   3.190   0.436  0.00  0.00     0.034 A 
ATOM      7 Cl   UNL d   1       0.322   3.128  -1.438  0.00  0.00    -0.070 Cl
ATOM      8 Cl1  UNL d   1       0.661   0.006  -0.582  0.00  0.00    -0.070 Cl
ENDROOT
TORSDOF 0
ENDMDL
