MODEL 1
REMARK minimizedAffinity -5.8931942
REMARK minimizedRMSD -1
REMARK  0 active torsions:
REMARK  status: ('A' for Active; 'I' for Inactive)
ROOT
ATOM      1  C   UNL d   1      -2.001   2.596   1.116  0.00  0.00     0.020 A 
ATOM      2  C1  UNL d   1      -1.371   2.952  -0.076  0.00  0.00     0.020 A 
ATOM      3  C2  UNL d   1      -0.435   2.092  -0.655  0.00  0.00     0.034 A 
ATOM      4  C3  UNL d   1      -0.126   0.873  -0.041  0.00  0.00     0.017 A 
ATOM      5  C4  UNL d   1      -0.758   0.517   1.155  0.00  0.00     0.017 A 
ATOM      6  C5  UNL d   1      -1.695   1.382   1.730  0.00  0.00     0.034 A 
ATOM      7 Cl   UNL d   1      -0.429  -0.971   1.971  0.00  0.00    -0.070 Cl
ATOM      8 Cl1  UNL d   1       1.042  -0.141  -0.812  0.00  0.00    -0.070 Cl
ENDROOT
TORSDOF 0
ENDMDL
