MODEL 1
REMARK minimizedAffinity -5.06943893
REMARK minimizedRMSD -1
REMARK  0 active torsions:
REMARK  status: ('A' for Active; 'I' for Inactive)
ROOT
ATOM      1  C   UNL d   1      -0.585   3.373  -0.453  0.00  0.00     0.020 A 
ATOM      2  C1  UNL d   1      -1.467   3.468   0.623  0.00  0.00     0.020 A 
ATOM      3  C2  UNL d   1      -1.738   2.344   1.405  0.00  0.00     0.034 A 
ATOM      4  C3  UNL d   1      -1.126   1.119   1.114  0.00  0.00     0.017 A 
ATOM      5  C4  UNL d   1      -0.241   1.025   0.034  0.00  0.00     0.017 A 
ATOM      6  C5  UNL d   1       0.027   2.154  -0.746  0.00  0.00     0.034 A 
ATOM      7 Cl   UNL d   1       0.553  -0.452  -0.388  0.00  0.00    -0.070 Cl
ATOM      8 Cl1  UNL d   1      -1.507  -0.230   2.124  0.00  0.00    -0.070 Cl
ENDROOT
TORSDOF 0
ENDMDL
