MODEL 1
REMARK minimizedAffinity -3.0686903
REMARK minimizedRMSD -1
REMARK  0 active torsions:
REMARK  status: ('A' for Active; 'I' for Inactive)
ROOT
ATOM      1  C   UNL d   1      -1.618   1.992   1.922  0.00  0.00     0.020 A 
ATOM      2  C1  UNL d   1      -1.281   0.678   2.247  0.00  0.00     0.020 A 
ATOM      3  C2  UNL d   1      -0.458  -0.062   1.395  0.00  0.00     0.034 A 
ATOM      4  C3  UNL d   1       0.031   0.511   0.216  0.00  0.00     0.017 A 
ATOM      5  C4  UNL d   1      -0.307   1.830  -0.109  0.00  0.00     0.017 A 
ATOM      6  C5  UNL d   1      -1.132   2.566   0.747  0.00  0.00     0.034 A 
ATOM      7 Cl   UNL d   1       0.259   2.605  -1.546  0.00  0.00    -0.070 Cl
ATOM      8 Cl1  UNL d   1       1.045  -0.462  -0.790  0.00  0.00    -0.070 Cl
ENDROOT
TORSDOF 0
ENDMDL
