MODEL 1
REMARK minimizedAffinity -5.2086215
REMARK minimizedRMSD -1
REMARK  0 active torsions:
REMARK  status: ('A' for Active; 'I' for Inactive)
ROOT
ATOM      1  C   UNL d   1      -1.970   2.754   0.948  0.00  0.00     0.020 A 
ATOM      2  C1  UNL d   1      -1.259   3.009  -0.224  0.00  0.00     0.020 A 
ATOM      3  C2  UNL d   1      -0.326   2.081  -0.691  0.00  0.00     0.034 A 
ATOM      4  C3  UNL d   1      -0.101   0.893   0.014  0.00  0.00     0.017 A 
ATOM      5  C4  UNL d   1      -0.814   0.638   1.190  0.00  0.00     0.017 A 
ATOM      6  C5  UNL d   1      -1.748   1.570   1.654  0.00  0.00     0.034 A 
ATOM      7 Cl   UNL d   1      -0.591  -0.805   2.115  0.00  0.00    -0.070 Cl
ATOM      8 Cl1  UNL d   1       1.068  -0.210  -0.622  0.00  0.00    -0.070 Cl
ENDROOT
TORSDOF 0
ENDMDL
