MODEL 1
REMARK minimizedAffinity -5.09458399
REMARK minimizedRMSD -1
REMARK  0 active torsions:
REMARK  status: ('A' for Active; 'I' for Inactive)
ROOT
ATOM      1  C   UNL d   1      -0.800   3.130   1.204  0.00  0.00     0.020 A 
ATOM      2  C1  UNL d   1      -0.338   3.165  -0.111  0.00  0.00     0.020 A 
ATOM      3  C2  UNL d   1       0.178   2.010  -0.702  0.00  0.00     0.034 A 
ATOM      4  C3  UNL d   1       0.232   0.813   0.023  0.00  0.00     0.017 A 
ATOM      5  C4  UNL d   1      -0.232   0.778   1.343  0.00  0.00     0.017 A 
ATOM      6  C5  UNL d   1      -0.747   1.939   1.929  0.00  0.00     0.034 A 
ATOM      7 Cl   UNL d   1      -0.197  -0.660   2.300  0.00  0.00    -0.070 Cl
ATOM      8 Cl1  UNL d   1       0.882  -0.577  -0.771  0.00  0.00    -0.070 Cl
ENDROOT
TORSDOF 0
ENDMDL
