MODEL 1
REMARK minimizedAffinity -2.4100771
REMARK minimizedRMSD -1
REMARK  0 active torsions:
REMARK  status: ('A' for Active; 'I' for Inactive)
ROOT
ATOM      1  C   UNL d   1       0.493  -2.142  -2.844  0.00  0.00     0.020 A 
ATOM      2  C1  UNL d   1       1.203  -2.918  -1.928  0.00  0.00     0.020 A 
ATOM      3  C2  UNL d   1       1.315  -2.503  -0.600  0.00  0.00     0.034 A 
ATOM      4  C3  UNL d   1       0.717  -1.308  -0.183  0.00  0.00     0.017 A 
ATOM      5  C4  UNL d   1       0.005  -0.530  -1.102  0.00  0.00     0.017 A 
ATOM      6  C5  UNL d   1      -0.105  -0.950  -2.431  0.00  0.00     0.034 A 
ATOM      7 Cl   UNL d   1      -0.761   0.956  -0.662  0.00  0.00    -0.070 Cl
ATOM      8 Cl1  UNL d   1       0.896  -0.856   1.475  0.00  0.00    -0.070 Cl
ENDROOT
TORSDOF 0
ENDMDL
