MODEL 1
REMARK minimizedAffinity -4.57591152
REMARK minimizedRMSD -1
REMARK  0 active torsions:
REMARK  status: ('A' for Active; 'I' for Inactive)
ROOT
ATOM      1  C   UNL d   1      -1.297   2.833   0.000  0.00  0.00     0.020 A 
ATOM      2  C1  UNL d   1      -1.799   2.608   1.282  0.00  0.00     0.020 A 
ATOM      3  C2  UNL d   1      -1.590   1.377   1.907  0.00  0.00     0.034 A 
ATOM      4  C3  UNL d   1      -0.877   0.367   1.252  0.00  0.00     0.017 A 
ATOM      5  C4  UNL d   1      -0.374   0.593  -0.034  0.00  0.00     0.017 A 
ATOM      6  C5  UNL d   1      -0.586   1.828  -0.656  0.00  0.00     0.034 A 
ATOM      7 Cl   UNL d   1       0.516  -0.605  -0.906  0.00  0.00    -0.070 Cl
ATOM      8 Cl1  UNL d   1      -0.655  -1.130   2.086  0.00  0.00    -0.070 Cl
ENDROOT
TORSDOF 0
ENDMDL
