MODEL 1
REMARK minimizedAffinity -3.5365622
REMARK minimizedRMSD -1
REMARK  0 active torsions:
REMARK  status: ('A' for Active; 'I' for Inactive)
ROOT
ATOM      1  C   UNL d   1      -1.151   2.570   0.025  0.00  0.00     0.020 A 
ATOM      2  C1  UNL d   1      -1.910   2.450   1.189  0.00  0.00     0.020 A 
ATOM      3  C2  UNL d   1      -1.940   1.238   1.881  0.00  0.00     0.034 A 
ATOM      4  C3  UNL d   1      -1.209   0.141   1.411  0.00  0.00     0.017 A 
ATOM      5  C4  UNL d   1      -0.447   0.262   0.243  0.00  0.00     0.017 A 
ATOM      6  C5  UNL d   1      -0.421   1.478  -0.446  0.00  0.00     0.034 A 
ATOM      7 Cl   UNL d   1       0.481  -1.047  -0.398  0.00  0.00    -0.070 Cl
ATOM      8 Cl1  UNL d   1      -1.291  -1.328   2.318  0.00  0.00    -0.070 Cl
ENDROOT
TORSDOF 0
ENDMDL
