MODEL 1
REMARK minimizedAffinity -4.60070992
REMARK minimizedRMSD -1
REMARK  0 active torsions:
REMARK  status: ('A' for Active; 'I' for Inactive)
ROOT
ATOM      1  C   UNL d   1      -0.763   3.460   0.030  0.00  0.00     0.020 A 
ATOM      2  C1  UNL d   1      -1.545   3.048   1.109  0.00  0.00     0.020 A 
ATOM      3  C2  UNL d   1      -1.438   1.742   1.591  0.00  0.00     0.034 A 
ATOM      4  C3  UNL d   1      -0.546   0.843   0.995  0.00  0.00     0.017 A 
ATOM      5  C4  UNL d   1       0.238   1.256  -0.087  0.00  0.00     0.017 A 
ATOM      6  C5  UNL d   1       0.127   2.565  -0.566  0.00  0.00     0.034 A 
ATOM      7 Cl   UNL d   1       1.360   0.204  -0.875  0.00  0.00    -0.070 Cl
ATOM      8 Cl1  UNL d   1      -0.465  -0.757   1.644  0.00  0.00    -0.070 Cl
ENDROOT
TORSDOF 0
ENDMDL
