MODEL 1
REMARK minimizedAffinity 6.55612898
REMARK minimizedRMSD -1
REMARK  0 active torsions:
REMARK  status: ('A' for Active; 'I' for Inactive)
ROOT
ATOM      1  C1  BNZ d   1      -0.481   3.060  -1.796  0.00  0.00     0.000 A 
ATOM      2  C2  BNZ d   1       0.745   3.375  -1.274  0.00  0.00     0.000 A 
ATOM      3  C3  BNZ d   1       0.977   3.289   0.071  0.00  0.00     0.000 A 
ATOM      4  C4  BNZ d   1      -0.028   2.928   0.894  0.00  0.00     0.000 A 
ATOM      5  C5  BNZ d   1      -1.273   2.616   0.384  0.00  0.00     0.000 A 
ATOM      6  C6  BNZ d   1      -1.491   2.667  -0.973  0.00  0.00     0.000 A 
ENDROOT
TORSDOF 0
ENDMDL
