MODEL 1
REMARK minimizedAffinity 9.501688
REMARK minimizedRMSD -1
REMARK  0 active torsions:
REMARK  status: ('A' for Active; 'I' for Inactive)
ROOT
ATOM      1  C1  BNZ d   1      -1.431   2.833   0.281  0.00  0.00     0.000 A 
ATOM      2  C2  BNZ d   1      -1.159   3.642  -0.790  0.00  0.00     0.000 A 
ATOM      3  C3  BNZ d   1       0.127   3.843  -1.207  0.00  0.00     0.000 A 
ATOM      4  C4  BNZ d   1       1.141   3.267  -0.529  0.00  0.00     0.000 A 
ATOM      5  C5  BNZ d   1       0.884   2.457   0.559  0.00  0.00     0.000 A 
ATOM      6  C6  BNZ d   1      -0.415   2.226   0.952  0.00  0.00     0.000 A 
ENDROOT
TORSDOF 0
ENDMDL
