MODEL 1
REMARK minimizedAffinity 5.75473022
REMARK minimizedRMSD -1
REMARK  0 active torsions:
REMARK  status: ('A' for Active; 'I' for Inactive)
ROOT
ATOM      1  C1  BNZ d   1      -0.657   1.927   0.085  0.00  0.00     0.000 A 
ATOM      2  C2  BNZ d   1       0.567   1.841  -0.523  0.00  0.00     0.000 A 
ATOM      3  C3  BNZ d   1       0.939   2.746  -1.478  0.00  0.00     0.000 A 
ATOM      4  C4  BNZ d   1       0.072   3.709  -1.853  0.00  0.00     0.000 A 
ATOM      5  C5  BNZ d   1      -1.169   3.803  -1.256  0.00  0.00     0.000 A 
ATOM      6  C6  BNZ d   1      -1.525   2.915  -0.267  0.00  0.00     0.000 A 
ENDROOT
TORSDOF 0
ENDMDL
