MODEL 1
REMARK minimizedAffinity -0.1764431
REMARK minimizedRMSD -1
REMARK  0 active torsions:
REMARK  status: ('A' for Active; 'I' for Inactive)
ROOT
ATOM      1  C1  BNZ d   1      -3.614  -3.602  -5.643  0.00  0.00     0.000 A 
ATOM      2  C2  BNZ d   1      -4.934  -3.676  -6.000  0.00  0.00     0.000 A 
ATOM      3  C3  BNZ d   1      -5.592  -4.874  -6.000  0.00  0.00     0.000 A 
ATOM      4  C4  BNZ d   1      -4.921  -6.000  -5.682  0.00  0.00     0.000 A 
ATOM      5  C5  BNZ d   1      -3.588  -5.942  -5.329  0.00  0.00     0.000 A 
ATOM      6  C6  BNZ d   1      -2.938  -4.730  -5.292  0.00  0.00     0.000 A 
ENDROOT
TORSDOF 0
ENDMDL
