MODEL 1
REMARK minimizedAffinity 5.12655258
REMARK minimizedRMSD -1
REMARK  0 active torsions:
REMARK  status: ('A' for Active; 'I' for Inactive)
ROOT
ATOM      1  C1  BNZ d   1      -1.214   2.689   1.572  0.00  0.00     0.000 A 
ATOM      2  C2  BNZ d   1      -1.050   3.197   0.311  0.00  0.00     0.000 A 
ATOM      3  C3  BNZ d   1       0.157   3.113  -0.326  0.00  0.00     0.000 A 
ATOM      4  C4  BNZ d   1       1.207   2.557   0.314  0.00  0.00     0.000 A 
ATOM      5  C5  BNZ d   1       1.059   2.049   1.589  0.00  0.00     0.000 A 
ATOM      6  C6  BNZ d   1      -0.167   2.100   2.211  0.00  0.00     0.000 A 
ENDROOT
TORSDOF 0
ENDMDL
