MODEL 1
REMARK minimizedAffinity 8.44276142
REMARK minimizedRMSD -1
REMARK  0 active torsions:
REMARK  status: ('A' for Active; 'I' for Inactive)
ROOT
ATOM      1  C1  BNZ d   1      -0.995   3.494  -1.541  0.00  0.00     0.000 A 
ATOM      2  C2  BNZ d   1      -0.449   4.684  -1.943  0.00  0.00     0.000 A 
ATOM      3  C3  BNZ d   1       0.811   5.042  -1.555  0.00  0.00     0.000 A 
ATOM      4  C4  BNZ d   1       1.508   4.230  -0.734  0.00  0.00     0.000 A 
ATOM      5  C5  BNZ d   1       0.968   3.031  -0.312  0.00  0.00     0.000 A 
ATOM      6  C6  BNZ d   1      -0.286   2.656  -0.737  0.00  0.00     0.000 A 
ENDROOT
TORSDOF 0
ENDMDL
