MODEL 1
REMARK minimizedAffinity 7.8132515
REMARK minimizedRMSD -1
REMARK  0 active torsions:
REMARK  status: ('A' for Active; 'I' for Inactive)
ROOT
ATOM      1  C1  BNZ d   1      -0.046   3.009  -0.954  0.00  0.00     0.000 A 
ATOM      2  C2  BNZ d   1       0.601   2.028  -0.252  0.00  0.00     0.000 A 
ATOM      3  C3  BNZ d   1       0.161   1.645   0.984  0.00  0.00     0.000 A 
ATOM      4  C4  BNZ d   1      -0.900   2.272   1.534  0.00  0.00     0.000 A 
ATOM      5  C5  BNZ d   1      -1.557   3.269   0.842  0.00  0.00     0.000 A 
ATOM      6  C6  BNZ d   1      -1.135   3.625  -0.418  0.00  0.00     0.000 A 
ENDROOT
TORSDOF 0
ENDMDL
