MODEL 1
REMARK minimizedAffinity 5.02629805
REMARK minimizedRMSD -1
REMARK  0 active torsions:
REMARK  status: ('A' for Active; 'I' for Inactive)
ROOT
ATOM      1  C1  BNZ d   1       5.569  -4.902  -0.875  0.00  0.00     0.000 A 
ATOM      2  C2  BNZ d   1       5.196  -5.984  -1.628  0.00  0.00     0.000 A 
ATOM      3  C3  BNZ d   1       5.245  -5.937  -2.993  0.00  0.00     0.000 A 
ATOM      4  C4  BNZ d   1       5.628  -4.797  -3.604  0.00  0.00     0.000 A 
ATOM      5  C5  BNZ d   1       5.998  -3.695  -2.859  0.00  0.00     0.000 A 
ATOM      6  C6  BNZ d   1       5.985  -3.759  -1.484  0.00  0.00     0.000 A 
ENDROOT
TORSDOF 0
ENDMDL
