MODEL 1
REMARK minimizedAffinity 0.852632642
REMARK minimizedRMSD -1
REMARK  0 active torsions:
REMARK  status: ('A' for Active; 'I' for Inactive)
ROOT
ATOM      1  C1  BNZ d   1       1.077   0.746  -1.390  0.00  0.00     0.000 A 
ATOM      2  C2  BNZ d   1       0.547   2.008  -1.371  0.00  0.00     0.000 A 
ATOM      3  C3  BNZ d   1      -0.783   2.206  -1.122  0.00  0.00     0.000 A 
ATOM      4  C4  BNZ d   1      -1.587   1.140  -0.932  0.00  0.00     0.000 A 
ATOM      5  C5  BNZ d   1      -1.069  -0.140  -0.956  0.00  0.00     0.000 A 
ATOM      6  C6  BNZ d   1       0.276  -0.332  -1.169  0.00  0.00     0.000 A 
ENDROOT
TORSDOF 0
ENDMDL
