MODEL 1
REMARK minimizedAffinity 7.73387289
REMARK minimizedRMSD -1
REMARK  0 active torsions:
REMARK  status: ('A' for Active; 'I' for Inactive)
ROOT
ATOM      1  C1  BNZ d   1      -3.016   0.422  -0.687  0.00  0.00     0.000 A 
ATOM      2  C2  BNZ d   1      -4.083   0.765  -1.474  0.00  0.00     0.000 A 
ATOM      3  C3  BNZ d   1      -4.310   2.069  -1.817  0.00  0.00     0.000 A 
ATOM      4  C4  BNZ d   1      -3.494   3.031  -1.340  0.00  0.00     0.000 A 
ATOM      5  C5  BNZ d   1      -2.419   2.702  -0.538  0.00  0.00     0.000 A 
ATOM      6  C6  BNZ d   1      -2.172   1.385  -0.227  0.00  0.00     0.000 A 
ENDROOT
TORSDOF 0
ENDMDL
