MODEL 1
REMARK minimizedAffinity 6.46530247
REMARK minimizedRMSD -1
REMARK  0 active torsions:
REMARK  status: ('A' for Active; 'I' for Inactive)
ROOT
ATOM      1  C1  BNZ d   1       0.965  -3.750  -1.402  0.00  0.00     0.000 A 
ATOM      2  C2  BNZ d   1       0.255  -2.598  -1.608  0.00  0.00     0.000 A 
ATOM      3  C3  BNZ d   1      -0.645  -2.504  -2.633  0.00  0.00     0.000 A 
ATOM      4  C4  BNZ d   1      -0.803  -3.546  -3.474  0.00  0.00     0.000 A 
ATOM      5  C5  BNZ d   1      -0.087  -4.712  -3.285  0.00  0.00     0.000 A 
ATOM      6  C6  BNZ d   1       0.789  -4.817  -2.229  0.00  0.00     0.000 A 
ENDROOT
TORSDOF 0
ENDMDL
