MODEL 1
REMARK minimizedAffinity -2.05577445
REMARK minimizedRMSD -1
REMARK  0 active torsions:
REMARK  status: ('A' for Active; 'I' for Inactive)
ROOT
ATOM      1  N1  IND d   1      -1.286   3.159  -3.768  0.00  0.00    -0.196 N 
ATOM      2  C2  IND d   1      -0.690   1.935  -3.650  0.00  0.00     0.054 A 
ATOM      3  C3  IND d   1      -1.615   0.984  -3.388  0.00  0.00    -0.031 A 
ATOM      4  C4  IND d   1      -4.174   1.197  -3.211  0.00  0.00     0.051 A 
ATOM      5  C5  IND d   1      -5.181   2.122  -3.209  0.00  0.00    -0.031 A 
ATOM      6  C6  IND d   1      -4.936   3.467  -3.400  0.00  0.00     0.015 A 
ATOM      7  C7  IND d   1      -3.671   3.937  -3.612  0.00  0.00    -0.016 A 
ATOM      8  C8  IND d   1      -2.646   3.002  -3.607  0.00  0.00    -0.047 A 
ATOM      9  C9  IND d   1      -2.883   1.642  -3.372  0.00  0.00    -0.096 A 
ATOM     10  HN1 IND d   1      -0.881   3.902  -3.917  0.00  0.00     0.298 HD
ENDROOT
TORSDOF 0
ENDMDL
