MODEL 1
REMARK minimizedAffinity 2.57304955
REMARK minimizedRMSD -1
REMARK  0 active torsions:
REMARK  status: ('A' for Active; 'I' for Inactive)
ROOT
ATOM      1  N1  IND d   1       3.613  -4.960   1.442  0.00  0.00    -0.196 N 
ATOM      2  C2  IND d   1       4.081  -3.685   1.597  0.00  0.00     0.054 A 
ATOM      3  C3  IND d   1       3.483  -2.854   0.714  0.00  0.00    -0.031 A 
ATOM      4  C4  IND d   1       1.635  -3.352  -1.007  0.00  0.00     0.051 A 
ATOM      5  C5  IND d   1       0.911  -4.380  -1.543  0.00  0.00    -0.031 A 
ATOM      6  C6  IND d   1       1.052  -5.680  -1.101  0.00  0.00     0.015 A 
ATOM      7  C7  IND d   1       1.917  -5.999  -0.094  0.00  0.00    -0.016 A 
ATOM      8  C8  IND d   1       2.659  -4.960   0.448  0.00  0.00    -0.047 A 
ATOM      9  C9  IND d   1       2.551  -3.646  -0.025  0.00  0.00    -0.096 A 
ATOM     10  HN1 IND d   1       3.872  -5.648   1.890  0.00  0.00     0.298 HD
ENDROOT
TORSDOF 0
ENDMDL
