MODEL 1
REMARK minimizedAffinity 6.43187904
REMARK minimizedRMSD -1
REMARK  0 active torsions:
REMARK  status: ('A' for Active; 'I' for Inactive)
ROOT
ATOM      1  N1  IND d   1       2.953  -2.311  -4.507  0.00  0.00    -0.196 N 
ATOM      2  C2  IND d   1       3.854  -1.539  -5.187  0.00  0.00     0.054 A 
ATOM      3  C3  IND d   1       4.837  -2.310  -5.705  0.00  0.00    -0.031 A 
ATOM      4  C4  IND d   1       5.110  -4.869  -5.648  0.00  0.00     0.051 A 
ATOM      5  C5  IND d   1       4.558  -6.000  -5.115  0.00  0.00    -0.031 A 
ATOM      6  C6  IND d   1       3.418  -5.958  -4.339  0.00  0.00     0.015 A 
ATOM      7  C7  IND d   1       2.778  -4.780  -4.075  0.00  0.00    -0.016 A 
ATOM      8  C8  IND d   1       3.340  -3.629  -4.609  0.00  0.00    -0.047 A 
ATOM      9  C9  IND d   1       4.521  -3.660  -5.362  0.00  0.00    -0.096 A 
ATOM     10  HN1 IND d   1       2.261  -2.022  -4.087  0.00  0.00     0.298 HD
ENDROOT
TORSDOF 0
ENDMDL
