MODEL 1
REMARK minimizedAffinity 10.3505707
REMARK minimizedRMSD -1
REMARK  0 active torsions:
REMARK  status: ('A' for Active; 'I' for Inactive)
ROOT
ATOM      1  N1  IND d   1       6.000  -5.049  -5.986  0.00  0.00    -0.196 N 
ATOM      2  C2  IND d   1       5.287  -5.995  -5.305  0.00  0.00     0.054 A 
ATOM      3  C3  IND d   1       4.418  -5.406  -4.453  0.00  0.00    -0.031 A 
ATOM      4  C4  IND d   1       3.927  -2.906  -4.086  0.00  0.00     0.051 A 
ATOM      5  C5  IND d   1       4.352  -1.660  -4.453  0.00  0.00    -0.031 A 
ATOM      6  C6  IND d   1       5.367  -1.476  -5.369  0.00  0.00     0.015 A 
ATOM      7  C7  IND d   1       5.989  -2.536  -5.965  0.00  0.00    -0.016 A 
ATOM      8  C8  IND d   1       5.565  -3.803  -5.590  0.00  0.00    -0.047 A 
ATOM      9  C9  IND d   1       4.565  -3.996  -4.629  0.00  0.00    -0.096 A 
ATOM     10  HN1 IND d   1       6.617  -5.205  -6.564  0.00  0.00     0.298 HD
ENDROOT
TORSDOF 0
ENDMDL
