MODEL 1
REMARK minimizedAffinity 7.97815418
REMARK minimizedRMSD -1
REMARK  0 active torsions:
REMARK  status: ('A' for Active; 'I' for Inactive)
ROOT
ATOM      1  N1  IND d   1       4.327  -4.050   3.029  0.00  0.00    -0.196 N 
ATOM      2  C2  IND d   1       4.592  -3.795   1.712  0.00  0.00     0.054 A 
ATOM      3  C3  IND d   1       3.866  -2.739   1.282  0.00  0.00    -0.031 A 
ATOM      4  C4  IND d   1       2.258  -1.216   2.595  0.00  0.00     0.051 A 
ATOM      5  C5  IND d   1       1.666  -1.075   3.819  0.00  0.00    -0.031 A 
ATOM      6  C6  IND d   1       1.938  -1.934   4.864  0.00  0.00     0.015 A 
ATOM      7  C7  IND d   1       2.826  -2.964   4.726  0.00  0.00    -0.016 A 
ATOM      8  C8  IND d   1       3.423  -3.115   3.483  0.00  0.00    -0.047 A 
ATOM      9  C9  IND d   1       3.118  -2.272   2.406  0.00  0.00    -0.096 A 
ATOM     10  HN1 IND d   1       4.667  -4.687   3.495  0.00  0.00     0.298 HD
ENDROOT
TORSDOF 0
ENDMDL
