MODEL 1
REMARK minimizedAffinity 8.73619461
REMARK minimizedRMSD -1
REMARK  0 active torsions:
REMARK  status: ('A' for Active; 'I' for Inactive)
ROOT
ATOM      1  N1  IND d   1       5.997  -2.652  -5.945  0.00  0.00    -0.196 N 
ATOM      2  C2  IND d   1       5.095  -1.625  -5.951  0.00  0.00     0.054 A 
ATOM      3  C3  IND d   1       3.888  -2.057  -5.522  0.00  0.00    -0.031 A 
ATOM      4  C4  IND d   1       3.194  -4.382  -4.662  0.00  0.00     0.051 A 
ATOM      5  C5  IND d   1       3.663  -5.656  -4.503  0.00  0.00    -0.031 A 
ATOM      6  C6  IND d   1       4.961  -6.000  -4.820  0.00  0.00     0.015 A 
ATOM      7  C7  IND d   1       5.846  -5.076  -5.300  0.00  0.00    -0.016 A 
ATOM      8  C8  IND d   1       5.371  -3.783  -5.469  0.00  0.00    -0.047 A 
ATOM      9  C9  IND d   1       4.043  -3.438  -5.189  0.00  0.00    -0.096 A 
ATOM     10  HN1 IND d   1       6.818  -2.600  -6.196  0.00  0.00     0.298 HD
ENDROOT
TORSDOF 0
ENDMDL
