MODEL 1
REMARK minimizedAffinity 13.8679657
REMARK minimizedRMSD -1
REMARK  0 active torsions:
REMARK  status: ('A' for Active; 'I' for Inactive)
ROOT
ATOM      1  N1  IND d   1       4.547  -4.264   3.315  0.00  0.00    -0.196 N 
ATOM      2  C2  IND d   1       4.907  -4.223   1.996  0.00  0.00     0.054 A 
ATOM      3  C3  IND d   1       4.160  -3.311   1.333  0.00  0.00    -0.031 A 
ATOM      4  C4  IND d   1       2.363  -1.703   2.233  0.00  0.00     0.051 A 
ATOM      5  C5  IND d   1       1.664  -1.394   3.366  0.00  0.00    -0.031 A 
ATOM      6  C6  IND d   1       1.897  -2.037   4.564  0.00  0.00     0.015 A 
ATOM      7  C7  IND d   1       2.849  -3.009   4.678  0.00  0.00    -0.016 A 
ATOM      8  C8  IND d   1       3.557  -3.330   3.528  0.00  0.00    -0.047 A 
ATOM      9  C9  IND d   1       3.295  -2.711   2.299  0.00  0.00    -0.096 A 
ATOM     10  HN1 IND d   1       4.883  -4.784   3.910  0.00  0.00     0.298 HD
ENDROOT
TORSDOF 0
ENDMDL
