MODEL 1
REMARK minimizedAffinity 2.2980969
REMARK minimizedRMSD -1
REMARK  0 active torsions:
REMARK  status: ('A' for Active; 'I' for Inactive)
ROOT
ATOM      1  N1  IND d   1       5.997   4.908  -3.286  0.00  0.00    -0.196 N 
ATOM      2  C2  IND d   1       5.921   3.812  -4.098  0.00  0.00     0.054 A 
ATOM      3  C3  IND d   1       4.743   3.174  -3.918  0.00  0.00    -0.031 A 
ATOM      4  C4  IND d   1       2.751   3.810  -2.416  0.00  0.00     0.051 A 
ATOM      5  C5  IND d   1       2.366   4.709  -1.461  0.00  0.00    -0.031 A 
ATOM      6  C6  IND d   1       3.188   5.743  -1.059  0.00  0.00     0.015 A 
ATOM      7  C7  IND d   1       4.425   5.924  -1.609  0.00  0.00    -0.016 A 
ATOM      8  C8  IND d   1       4.823   5.009  -2.573  0.00  0.00    -0.047 A 
ATOM      9  C9  IND d   1       4.011   3.933  -2.954  0.00  0.00    -0.096 A 
ATOM     10  HN1 IND d   1       6.667   5.445  -3.229  0.00  0.00     0.298 HD
ENDROOT
TORSDOF 0
ENDMDL
