MODEL 1
REMARK minimizedAffinity 3.35578966
REMARK minimizedRMSD -1
REMARK  0 active torsions:
REMARK  status: ('A' for Active; 'I' for Inactive)
ROOT
ATOM      1  N1  IND d   1      -2.154  -3.140   0.622  0.00  0.00    -0.196 N 
ATOM      2  C2  IND d   1      -2.635  -4.344   1.055  0.00  0.00     0.054 A 
ATOM      3  C3  IND d   1      -2.010  -5.358   0.416  0.00  0.00    -0.031 A 
ATOM      4  C4  IND d   1      -0.097  -5.274  -1.305  0.00  0.00     0.051 A 
ATOM      5  C5  IND d   1       0.652  -4.399  -2.041  0.00  0.00    -0.031 A 
ATOM      6  C6  IND d   1       0.503  -3.033  -1.923  0.00  0.00     0.015 A 
ATOM      7  C7  IND d   1      -0.397  -2.487  -1.052  0.00  0.00    -0.016 A 
ATOM      8  C8  IND d   1      -1.165  -3.372  -0.308  0.00  0.00    -0.047 A 
ATOM      9  C9  IND d   1      -1.047  -4.761  -0.455  0.00  0.00    -0.096 A 
ATOM     10  HN1 IND d   1      -2.425  -2.368   0.886  0.00  0.00     0.298 HD
ENDROOT
TORSDOF 0
ENDMDL
