MODEL 1
REMARK minimizedAffinity -0.357075155
REMARK minimizedRMSD -1
REMARK  0 active torsions:
REMARK  status: ('A' for Active; 'I' for Inactive)
ROOT
ATOM      1  N1  IND d   1       6.000  -4.450  -3.733  0.00  0.00    -0.196 N 
ATOM      2  C2  IND d   1       5.940  -5.151  -4.905  0.00  0.00     0.054 A 
ATOM      3  C3  IND d   1       5.847  -4.304  -5.955  0.00  0.00    -0.031 A 
ATOM      4  C4  IND d   1       5.877  -1.731  -5.988  0.00  0.00     0.051 A 
ATOM      5  C5  IND d   1       5.881  -0.642  -5.161  0.00  0.00    -0.031 A 
ATOM      6  C6  IND d   1       5.928  -0.770  -3.788  0.00  0.00     0.015 A 
ATOM      7  C7  IND d   1       5.985  -1.997  -3.189  0.00  0.00    -0.016 A 
ATOM      8  C8  IND d   1       5.975  -3.104  -4.025  0.00  0.00    -0.047 A 
ATOM      9  C9  IND d   1       5.884  -2.981  -5.418  0.00  0.00    -0.096 A 
ATOM     10  HN1 IND d   1       6.046  -4.792  -2.945  0.00  0.00     0.298 HD
ENDROOT
TORSDOF 0
ENDMDL
