MODEL 1
REMARK minimizedAffinity -1.28407931
REMARK minimizedRMSD -1
REMARK  0 active torsions:
REMARK  status: ('A' for Active; 'I' for Inactive)
ROOT
ATOM      1  C   UNL d   1      -0.398  -2.681  -0.222  0.00  0.00     0.077 C 
ATOM      2  C1  UNL d   1       0.303  -1.361  -0.353  0.00  0.00    -0.074 A 
ATOM      3  C2  UNL d   1       1.695  -1.296  -0.476  0.00  0.00    -0.005 A 
ATOM      4  C3  UNL d   1       2.332  -0.062  -0.607  0.00  0.00     0.006 A 
ATOM      5  C4  UNL d   1       1.585   1.117  -0.617  0.00  0.00    -0.005 A 
ATOM      6  C5  UNL d   1       0.193   1.071  -0.496  0.00  0.00    -0.074 A 
ATOM      7  C6  UNL d   1      -0.626   2.328  -0.514  0.00  0.00     0.077 C 
ATOM      8  C7  UNL d   1      -0.441  -0.173  -0.372  0.00  0.00    -0.001 A 
ENDROOT
TORSDOF 0
ENDMDL
