MODEL 1
REMARK minimizedAffinity -3.11791158
REMARK minimizedRMSD -1
REMARK  0 active torsions:
REMARK  status: ('A' for Active; 'I' for Inactive)
ROOT
ATOM      1  C   UNL d   1      -0.634  -2.498   1.126  0.00  0.00     0.077 C 
ATOM      2  C1  UNL d   1      -0.033  -1.301   0.452  0.00  0.00    -0.074 A 
ATOM      3  C2  UNL d   1      -0.726  -0.087   0.390  0.00  0.00    -0.005 A 
ATOM      4  C3  UNL d   1      -0.151   1.020  -0.232  0.00  0.00     0.006 A 
ATOM      5  C4  UNL d   1       1.121   0.926  -0.799  0.00  0.00    -0.005 A 
ATOM      6  C5  UNL d   1       1.829  -0.278  -0.747  0.00  0.00    -0.074 A 
ATOM      7  C6  UNL d   1       3.201  -0.394  -1.342  0.00  0.00     0.077 C 
ATOM      8  C7  UNL d   1       1.247  -1.385  -0.113  0.00  0.00    -0.001 A 
ENDROOT
TORSDOF 0
ENDMDL
