MODEL 1
REMARK minimizedAffinity -3.91041684
REMARK minimizedRMSD -1
REMARK  0 active torsions:
REMARK  status: ('A' for Active; 'I' for Inactive)
ROOT
ATOM      1  C   UNL d   1      -1.066   1.025   0.329  0.00  0.00     0.077 C 
ATOM      2  C1  UNL d   1      -0.005   0.021  -0.008  0.00  0.00    -0.074 A 
ATOM      3  C2  UNL d   1      -0.243  -1.351   0.130  0.00  0.00    -0.005 A 
ATOM      4  C3  UNL d   1       0.750  -2.274  -0.196  0.00  0.00     0.006 A 
ATOM      5  C4  UNL d   1       1.990  -1.835  -0.663  0.00  0.00    -0.005 A 
ATOM      6  C5  UNL d   1       2.247  -0.468  -0.808  0.00  0.00    -0.074 A 
ATOM      7  C6  UNL d   1       3.570   0.019  -1.317  0.00  0.00     0.077 C 
ATOM      8  C7  UNL d   1       1.241   0.453  -0.484  0.00  0.00    -0.001 A 
ENDROOT
TORSDOF 0
ENDMDL
