MODEL 1
REMARK minimizedAffinity -3.73444915
REMARK minimizedRMSD -1
REMARK  0 active torsions:
REMARK  status: ('A' for Active; 'I' for Inactive)
ROOT
ATOM      1  C   UNL d   1      -0.629   2.079  -0.420  0.00  0.00     0.077 C 
ATOM      2  C1  UNL d   1       0.217   0.840  -0.434  0.00  0.00    -0.074 A 
ATOM      3  C2  UNL d   1      -0.345  -0.417  -0.187  0.00  0.00    -0.005 A 
ATOM      4  C3  UNL d   1       0.453  -1.561  -0.212  0.00  0.00     0.006 A 
ATOM      5  C4  UNL d   1       1.818  -1.459  -0.484  0.00  0.00    -0.005 A 
ATOM      6  C5  UNL d   1       2.397  -0.211  -0.734  0.00  0.00    -0.074 A 
ATOM      7  C6  UNL d   1       3.861  -0.086  -1.037  0.00  0.00     0.077 C 
ATOM      8  C7  UNL d   1       1.587   0.933  -0.714  0.00  0.00    -0.001 A 
ENDROOT
TORSDOF 0
ENDMDL
