MODEL 1
REMARK minimizedAffinity -3.31510139
REMARK minimizedRMSD -1
REMARK  0 active torsions:
REMARK  status: ('A' for Active; 'I' for Inactive)
ROOT
ATOM      1  C   UNL d   1       3.384  -0.374  -0.515  0.00  0.00     0.077 C 
ATOM      2  C1  UNL d   1       1.915  -0.671  -0.446  0.00  0.00    -0.074 A 
ATOM      3  C2  UNL d   1       1.448  -1.989  -0.437  0.00  0.00    -0.005 A 
ATOM      4  C3  UNL d   1       0.080  -2.250  -0.364  0.00  0.00     0.006 A 
ATOM      5  C4  UNL d   1      -0.834  -1.197  -0.298  0.00  0.00    -0.005 A 
ATOM      6  C5  UNL d   1      -0.385   0.127  -0.304  0.00  0.00    -0.074 A 
ATOM      7  C6  UNL d   1      -1.353   1.270  -0.224  0.00  0.00     0.077 C 
ATOM      8  C7  UNL d   1       0.992   0.381  -0.372  0.00  0.00    -0.001 A 
ENDROOT
TORSDOF 0
ENDMDL
