MODEL 1
REMARK minimizedAffinity -5.50455284
REMARK minimizedRMSD -1
REMARK  0 active torsions:
REMARK  status: ('A' for Active; 'I' for Inactive)
ROOT
ATOM      1  C   UNL d   1       3.002  -0.125  -0.793  0.00  0.00     0.077 C 
ATOM      2  C1  UNL d   1       1.542  -0.162  -0.451  0.00  0.00    -0.074 A 
ATOM      3  C2  UNL d   1       0.895  -1.374  -0.192  0.00  0.00    -0.005 A 
ATOM      4  C3  UNL d   1      -0.461  -1.392   0.134  0.00  0.00     0.006 A 
ATOM      5  C4  UNL d   1      -1.183  -0.200   0.203  0.00  0.00    -0.005 A 
ATOM      6  C5  UNL d   1      -0.552   1.022  -0.052  0.00  0.00    -0.074 A 
ATOM      7  C6  UNL d   1      -1.311   2.314   0.028  0.00  0.00     0.077 C 
ATOM      8  C7  UNL d   1       0.812   1.032  -0.372  0.00  0.00    -0.001 A 
ENDROOT
TORSDOF 0
ENDMDL
