MODEL 1
REMARK minimizedAffinity -3.59625936
REMARK minimizedRMSD -1
REMARK  0 active torsions:
REMARK  status: ('A' for Active; 'I' for Inactive)
ROOT
ATOM      1  C   UNL d   1       0.427   2.386  -1.842  0.00  0.00     0.077 C 
ATOM      2  C1  UNL d   1       0.885   1.021  -1.421  0.00  0.00    -0.074 A 
ATOM      3  C2  UNL d   1       2.054   0.462  -1.947  0.00  0.00    -0.005 A 
ATOM      4  C3  UNL d   1       2.473  -0.805  -1.539  0.00  0.00     0.006 A 
ATOM      5  C4  UNL d   1       1.729  -1.523  -0.603  0.00  0.00    -0.005 A 
ATOM      6  C5  UNL d   1       0.557  -0.980  -0.065  0.00  0.00    -0.074 A 
ATOM      7  C6  UNL d   1      -0.249  -1.735   0.949  0.00  0.00     0.077 C 
ATOM      8  C7  UNL d   1       0.147   0.296  -0.475  0.00  0.00    -0.001 A 
ENDROOT
TORSDOF 0
ENDMDL
