MODEL 1
REMARK minimizedAffinity -1.30014539
REMARK minimizedRMSD -1
REMARK  0 active torsions:
REMARK  status: ('A' for Active; 'I' for Inactive)
ROOT
ATOM      1  C   UNL d   1       5.908  -2.456   5.966  0.00  0.00     0.077 C 
ATOM      2  C1  UNL d   1       5.795  -1.161   5.218  0.00  0.00    -0.074 A 
ATOM      3  C2  UNL d   1       5.556  -1.146   3.840  0.00  0.00    -0.005 A 
ATOM      4  C3  UNL d   1       5.444   0.066   3.159  0.00  0.00     0.006 A 
ATOM      5  C4  UNL d   1       5.570   1.273   3.847  0.00  0.00    -0.005 A 
ATOM      6  C5  UNL d   1       5.808   1.278   5.225  0.00  0.00    -0.074 A 
ATOM      7  C6  UNL d   1       5.936   2.566   5.982  0.00  0.00     0.077 C 
ATOM      8  C7  UNL d   1       5.912   0.056   5.904  0.00  0.00    -0.001 A 
ENDROOT
TORSDOF 0
ENDMDL
