MODEL 1
REMARK minimizedAffinity -3.33683348
REMARK minimizedRMSD -1
REMARK  0 active torsions:
REMARK  status: ('A' for Active; 'I' for Inactive)
ROOT
ATOM      1  C   UNL d   1      -1.125   0.928   3.831  0.00  0.00     0.077 C 
ATOM      2  C1  UNL d   1      -1.018   0.855   2.337  0.00  0.00    -0.074 A 
ATOM      3  C2  UNL d   1      -2.107   1.179   1.521  0.00  0.00    -0.005 A 
ATOM      4  C3  UNL d   1      -1.989   1.115   0.133  0.00  0.00     0.006 A 
ATOM      5  C4  UNL d   1      -0.783   0.727  -0.453  0.00  0.00    -0.005 A 
ATOM      6  C5  UNL d   1       0.316   0.400   0.346  0.00  0.00    -0.074 A 
ATOM      7  C6  UNL d   1       1.622  -0.009  -0.268  0.00  0.00     0.077 C 
ATOM      8  C7  UNL d   1       0.192   0.474   1.740  0.00  0.00    -0.001 A 
ENDROOT
TORSDOF 0
ENDMDL
