MODEL 1
REMARK minimizedAffinity -3.34144783
REMARK minimizedRMSD -1
REMARK  0 active torsions:
REMARK  status: ('A' for Active; 'I' for Inactive)
ROOT
ATOM      1  C   UNL d   1       3.413  -0.176  -0.879  0.00  0.00     0.077 C 
ATOM      2  C1  UNL d   1       1.948  -0.166  -0.560  0.00  0.00    -0.074 A 
ATOM      3  C2  UNL d   1       1.264   1.037  -0.360  0.00  0.00    -0.005 A 
ATOM      4  C3  UNL d   1      -0.101   1.031  -0.073  0.00  0.00     0.006 A 
ATOM      5  C4  UNL d   1      -0.795  -0.176   0.016  0.00  0.00    -0.005 A 
ATOM      6  C5  UNL d   1      -0.128  -1.390  -0.181  0.00  0.00    -0.074 A 
ATOM      7  C6  UNL d   1      -0.861  -2.696  -0.098  0.00  0.00     0.077 C 
ATOM      8  C7  UNL d   1       1.242  -1.375  -0.476  0.00  0.00    -0.001 A 
ENDROOT
TORSDOF 0
ENDMDL
