MODEL 1
REMARK minimizedAffinity -0.846749485
REMARK minimizedRMSD -1
REMARK  0 active torsions:
REMARK  status: ('A' for Active; 'I' for Inactive)
ROOT
ATOM      1  C   UNL d   1      -0.450   2.334  -0.822  0.00  0.00     0.077 C 
ATOM      2  C1  UNL d   1      -0.116   0.912  -0.480  0.00  0.00    -0.074 A 
ATOM      3  C2  UNL d   1      -0.876   0.200   0.453  0.00  0.00    -0.005 A 
ATOM      4  C3  UNL d   1      -0.559  -1.125   0.753  0.00  0.00     0.006 A 
ATOM      5  C4  UNL d   1       0.519  -1.750   0.125  0.00  0.00    -0.005 A 
ATOM      6  C5  UNL d   1       1.290  -1.053  -0.811  0.00  0.00    -0.074 A 
ATOM      7  C6  UNL d   1       2.446  -1.712  -1.503  0.00  0.00     0.077 C 
ATOM      8  C7  UNL d   1       0.961   0.276  -1.113  0.00  0.00    -0.001 A 
ENDROOT
TORSDOF 0
ENDMDL
