MODEL 1
REMARK minimizedAffinity -5.57508135
REMARK minimizedRMSD -1
REMARK  0 active torsions:
REMARK  status: ('A' for Active; 'I' for Inactive)
ROOT
ATOM      1  C   UNL d   1       3.181  -0.096  -1.268  0.00  0.00     0.077 C 
ATOM      2  C1  UNL d   1       1.779  -0.200  -0.746  0.00  0.00    -0.074 A 
ATOM      3  C2  UNL d   1       0.991   0.942  -0.568  0.00  0.00    -0.005 A 
ATOM      4  C3  UNL d   1      -0.314   0.828  -0.091  0.00  0.00     0.006 A 
ATOM      5  C4  UNL d   1      -0.845  -0.426   0.213  0.00  0.00    -0.005 A 
ATOM      6  C5  UNL d   1      -0.073  -1.579   0.040  0.00  0.00    -0.074 A 
ATOM      7  C6  UNL d   1      -0.631  -2.936   0.352  0.00  0.00     0.077 C 
ATOM      8  C7  UNL d   1       1.236  -1.457  -0.447  0.00  0.00    -0.001 A 
ENDROOT
TORSDOF 0
ENDMDL
