MODEL 1
REMARK minimizedAffinity -4.86461306
REMARK minimizedRMSD -1
REMARK  0 active torsions:
REMARK  status: ('A' for Active; 'I' for Inactive)
ROOT
ATOM      1  C   UNL d   1       3.500  -0.328  -1.275  0.00  0.00     0.077 C 
ATOM      2  C1  UNL d   1       2.125  -0.706  -0.812  0.00  0.00    -0.074 A 
ATOM      3  C2  UNL d   1       1.855  -1.993  -0.336  0.00  0.00    -0.005 A 
ATOM      4  C3  UNL d   1       0.573  -2.327   0.100  0.00  0.00     0.006 A 
ATOM      5  C4  UNL d   1      -0.450  -1.379   0.067  0.00  0.00    -0.005 A 
ATOM      6  C5  UNL d   1      -0.199  -0.087  -0.405  0.00  0.00    -0.074 A 
ATOM      7  C6  UNL d   1      -1.285   0.947  -0.439  0.00  0.00     0.077 C 
ATOM      8  C7  UNL d   1       1.093   0.243  -0.835  0.00  0.00    -0.001 A 
ENDROOT
TORSDOF 0
ENDMDL
