MODEL 1
REMARK minimizedAffinity -4.38662481
REMARK minimizedRMSD -1
REMARK  0 active torsions:
REMARK  status: ('A' for Active; 'I' for Inactive)
ROOT
ATOM      1  C   UNL d   1      -0.850   0.157   0.808  0.00  0.00     0.077 C 
ATOM      2  C1  UNL d   1       0.342  -0.112  -0.061  0.00  0.00    -0.074 A 
ATOM      3  C2  UNL d   1       1.502   0.661   0.049  0.00  0.00    -0.005 A 
ATOM      4  C3  UNL d   1       2.606   0.393  -0.760  0.00  0.00     0.006 A 
ATOM      5  C4  UNL d   1       2.561  -0.650  -1.686  0.00  0.00    -0.005 A 
ATOM      6  C5  UNL d   1       1.410  -1.434  -1.810  0.00  0.00    -0.074 A 
ATOM      7  C6  UNL d   1       1.349  -2.565  -2.794  0.00  0.00     0.077 C 
ATOM      8  C7  UNL d   1       0.307  -1.163  -0.989  0.00  0.00    -0.001 A 
ENDROOT
TORSDOF 0
ENDMDL
