MODEL 1
REMARK minimizedAffinity -2.71956396
REMARK minimizedRMSD -1
REMARK  0 active torsions:
REMARK  status: ('A' for Active; 'I' for Inactive)
ROOT
ATOM      1  C   UNL d   1       3.215  -0.467  -1.226  0.00  0.00     0.077 C 
ATOM      2  C1  UNL d   1       1.853  -0.780  -0.682  0.00  0.00    -0.074 A 
ATOM      3  C2  UNL d   1       1.613  -1.968   0.016  0.00  0.00    -0.005 A 
ATOM      4  C3  UNL d   1       0.344  -2.241   0.525  0.00  0.00     0.006 A 
ATOM      5  C4  UNL d   1      -0.697  -1.330   0.342  0.00  0.00    -0.005 A 
ATOM      6  C5  UNL d   1      -0.476  -0.136  -0.352  0.00  0.00    -0.074 A 
ATOM      7  C6  UNL d   1      -1.581   0.859  -0.549  0.00  0.00     0.077 C 
ATOM      8  C7  UNL d   1       0.804   0.134  -0.854  0.00  0.00    -0.001 A 
ENDROOT
TORSDOF 0
ENDMDL
