MODEL 1
REMARK minimizedAffinity -3.21676922
REMARK minimizedRMSD -1
REMARK  0 active torsions:
REMARK  status: ('A' for Active; 'I' for Inactive)
ROOT
ATOM      1  C   UNL d   1       1.796  -1.985  -3.272  0.00  0.00     0.077 C 
ATOM      2  C1  UNL d   1       1.836  -1.129  -2.041  0.00  0.00    -0.074 A 
ATOM      3  C2  UNL d   1       3.013  -0.480  -1.655  0.00  0.00    -0.005 A 
ATOM      4  C3  UNL d   1       3.033   0.320  -0.512  0.00  0.00     0.006 A 
ATOM      5  C4  UNL d   1       1.877   0.479   0.254  0.00  0.00    -0.005 A 
ATOM      6  C5  UNL d   1       0.691  -0.162  -0.117  0.00  0.00    -0.074 A 
ATOM      7  C6  UNL d   1      -0.562   0.006   0.690  0.00  0.00     0.077 C 
ATOM      8  C7  UNL d   1       0.677  -0.958  -1.270  0.00  0.00    -0.001 A 
ENDROOT
TORSDOF 0
ENDMDL
