MODEL 1
REMARK minimizedAffinity -4.42193222
REMARK minimizedRMSD -1
REMARK  0 active torsions:
REMARK  status: ('A' for Active; 'I' for Inactive)
ROOT
ATOM      1  C   UNL d   1      -0.024   0.780  -0.349  0.00  0.00     0.077 C 
ATOM      2  C1  UNL d   1      -1.027   0.985   0.747  0.00  0.00    -0.074 A 
ATOM      3  C2  UNL d   1      -0.821   1.949   1.740  0.00  0.00    -0.005 A 
ATOM      4  C3  UNL d   1      -1.767   2.135   2.747  0.00  0.00     0.006 A 
ATOM      5  C4  UNL d   1      -2.928   1.360   2.773  0.00  0.00    -0.005 A 
ATOM      6  C5  UNL d   1      -3.151   0.392   1.788  0.00  0.00    -0.074 A 
ATOM      7  C6  UNL d   1      -4.398  -0.443   1.795  0.00  0.00     0.077 C 
ATOM      8  C7  UNL d   1      -2.199   0.216   0.775  0.00  0.00    -0.001 A 
ENDROOT
TORSDOF 0
ENDMDL
