MODEL 1
REMARK minimizedAffinity -3.08402014
REMARK minimizedRMSD -1
REMARK  1 active torsions:
REMARK  status: ('A' for Active; 'I' for Inactive)
REMARK    1  A    between atoms: N_2  and  C1_3 
ROOT
ATOM      1  C1  UNL d   1      -0.020  -0.395  -0.393  0.00  0.00     0.143 A 
ATOM      2  C2  UNL d   1      -0.210  -0.267   0.988  0.00  0.00    -0.057 A 
ATOM      3  C3  UNL d   1      -0.782   0.886   1.538  0.00  0.00     0.033 A 
ATOM      4  C4  UNL d   1      -1.149   1.948   0.718  0.00  0.00    -0.042 A 
ATOM      5  C5  UNL d   1      -0.947   1.853  -0.654  0.00  0.00     0.033 A 
ATOM      6  C6  UNL d   1      -0.382   0.696  -1.199  0.00  0.00    -0.057 A 
ENDROOT
BRANCH   1   7
ATOM      7  N   UNL d   1       0.633  -1.475  -0.991  0.00  0.00    -0.732 N 
ATOM      8  C   UNL d   1      -0.106  -2.652  -1.394  0.00  0.00     0.284 C 
ATOM      9  H3  UNL d   1       1.340  -1.178  -1.661  0.00  0.00     0.395 HD
ENDBRANCH   1   7
TORSDOF 1
ENDMDL
