MODEL 1
REMARK minimizedAffinity -2.17606759
REMARK minimizedRMSD -1
REMARK  1 active torsions:
REMARK  status: ('A' for Active; 'I' for Inactive)
REMARK    1  A    between atoms: N_2  and  C1_3 
ROOT
ATOM      1  C1  UNL d   1      -0.142   1.185   1.271  0.00  0.00     0.143 A 
ATOM      2  C2  UNL d   1       0.321  -0.094   1.600  0.00  0.00    -0.057 A 
ATOM      3  C3  UNL d   1       0.608  -1.039   0.608  0.00  0.00     0.033 A 
ATOM      4  C4  UNL d   1       0.409  -0.730  -0.734  0.00  0.00    -0.042 A 
ATOM      5  C5  UNL d   1      -0.074   0.526  -1.082  0.00  0.00     0.033 A 
ATOM      6  C6  UNL d   1      -0.352   1.468  -0.087  0.00  0.00    -0.057 A 
ENDROOT
BRANCH   1   7
ATOM      7  N   UNL d   1      -0.538   2.135   2.216  0.00  0.00    -0.732 N 
ATOM      8  C   UNL d   1      -1.525   3.140   1.881  0.00  0.00     0.284 C 
ATOM      9  H3  UNL d   1      -0.650   1.736   3.145  0.00  0.00     0.395 HD
ENDBRANCH   1   7
TORSDOF 1
ENDMDL
