MODEL 1
REMARK minimizedAffinity -2.58165264
REMARK minimizedRMSD -1
REMARK  1 active torsions:
REMARK  status: ('A' for Active; 'I' for Inactive)
REMARK    1  A    between atoms: N_2  and  C1_3 
ROOT
ATOM      1  C1  UNL d   1      -0.207  -1.888  -0.854  0.00  0.00     0.143 A 
ATOM      2  C2  UNL d   1       0.398  -0.670  -1.182  0.00  0.00    -0.057 A 
ATOM      3  C3  UNL d   1       0.556   0.342  -0.227  0.00  0.00     0.033 A 
ATOM      4  C4  UNL d   1       0.084   0.164   1.069  0.00  0.00    -0.042 A 
ATOM      5  C5  UNL d   1      -0.543  -1.029   1.410  0.00  0.00     0.033 A 
ATOM      6  C6  UNL d   1      -0.692  -2.039   0.455  0.00  0.00    -0.057 A 
ENDROOT
BRANCH   1   7
ATOM      7  N   UNL d   1      -0.481  -2.895  -1.783  0.00  0.00    -0.732 N 
ATOM      8  C   UNL d   1      -0.626  -4.271  -1.357  0.00  0.00     0.284 C 
ATOM      9  H3  UNL d   1      -1.159  -2.603  -2.483  0.00  0.00     0.395 HD
ENDBRANCH   1   7
TORSDOF 1
ENDMDL
