MODEL 1
REMARK minimizedAffinity -2.70237088
REMARK minimizedRMSD -1
REMARK  1 active torsions:
REMARK  status: ('A' for Active; 'I' for Inactive)
REMARK    1  A    between atoms: N_2  and  C1_3 
ROOT
ATOM      1  C1  UNL d   1       0.674  -0.705  -0.705  0.00  0.00     0.143 A 
ATOM      2  C2  UNL d   1       0.852   0.116  -1.824  0.00  0.00    -0.057 A 
ATOM      3  C3  UNL d   1       0.238   1.372  -1.907  0.00  0.00     0.033 A 
ATOM      4  C4  UNL d   1      -0.590   1.817  -0.882  0.00  0.00    -0.042 A 
ATOM      5  C5  UNL d   1      -0.800   1.007   0.228  0.00  0.00     0.033 A 
ATOM      6  C6  UNL d   1      -0.180  -0.243   0.309  0.00  0.00    -0.057 A 
ENDROOT
BRANCH   1   7
ATOM      7  N   UNL d   1       1.177  -2.005  -0.606  0.00  0.00    -0.732 N 
ATOM      8  C   UNL d   1       0.332  -3.146  -0.887  0.00  0.00     0.284 C 
ATOM      9  H3  UNL d   1       2.121  -2.085  -0.978  0.00  0.00     0.395 HD
ENDBRANCH   1   7
TORSDOF 1
ENDMDL
