MODEL 1
REMARK minimizedAffinity -1.83144021
REMARK minimizedRMSD -1
REMARK  0 active torsions:
REMARK  status: ('A' for Active; 'I' for Inactive)
ROOT
ATOM      1  C   UNL d   1       0.214   3.182  -0.565  0.00  0.00    -0.002 A 
ATOM      2  C1  UNL d   1      -0.069   2.830  -1.877  0.00  0.00     0.010 A 
ATOM      3  C2  UNL d   1      -0.355   1.505  -2.212  0.00  0.00     0.041 A 
ATOM      4  C3  UNL d   1      -0.352   0.530  -1.196  0.00  0.00    -0.075 A 
ATOM      5  S   UNL d   1      -0.673  -1.155  -1.371  0.00  0.00     0.015 SA
ATOM      6  C4  UNL d   1      -0.443  -1.448   0.292  0.00  0.00     0.022 A 
ATOM      7  C5  UNL d   1      -0.127  -0.300   0.979  0.00  0.00     0.026 A 
ATOM      8  C6  UNL d   1      -0.070   0.859   0.133  0.00  0.00    -0.082 A 
ATOM      9  C7  UNL d   1       0.216   2.211   0.440  0.00  0.00     0.045 A 
ENDROOT
TORSDOF 0
ENDMDL
