MODEL 1
REMARK minimizedAffinity -4.57630682
REMARK minimizedRMSD -1
REMARK  0 active torsions:
REMARK  status: ('A' for Active; 'I' for Inactive)
ROOT
ATOM      1  C   UNL d   1       0.298   3.301  -0.174  0.00  0.00    -0.002 A 
ATOM      2  C1  UNL d   1       1.410   2.543  -0.513  0.00  0.00     0.010 A 
ATOM      3  C2  UNL d   1       1.442   1.172  -0.250  0.00  0.00     0.041 A 
ATOM      4  C3  UNL d   1       0.326   0.570   0.364  0.00  0.00    -0.075 A 
ATOM      5  S   UNL d   1       0.140  -1.093   0.782  0.00  0.00     0.015 SA
ATOM      6  C4  UNL d   1      -1.419  -0.835   1.420  0.00  0.00     0.022 A 
ATOM      7  C5  UNL d   1      -1.804   0.481   1.325  0.00  0.00     0.026 A 
ATOM      8  C6  UNL d   1      -0.805   1.313   0.715  0.00  0.00    -0.082 A 
ATOM      9  C7  UNL d   1      -0.806   2.700   0.436  0.00  0.00     0.045 A 
ENDROOT
TORSDOF 0
ENDMDL
