MODEL 1
REMARK minimizedAffinity 0.872114956
REMARK minimizedRMSD -1
REMARK  0 active torsions:
REMARK  status: ('A' for Active; 'I' for Inactive)
ROOT
ATOM      1  C   UNL d   1      -1.383   2.600   0.534  0.00  0.00    -0.002 A 
ATOM      2  C1  UNL d   1      -2.013   1.364   0.568  0.00  0.00     0.010 A 
ATOM      3  C2  UNL d   1      -1.265   0.187   0.632  0.00  0.00     0.041 A 
ATOM      4  C3  UNL d   1       0.141   0.275   0.664  0.00  0.00    -0.075 A 
ATOM      5  S   UNL d   1       1.262  -1.033   0.743  0.00  0.00     0.015 SA
ATOM      6  C4  UNL d   1       2.603   0.019   0.735  0.00  0.00     0.022 A 
ATOM      7  C5  UNL d   1       2.224   1.338   0.673  0.00  0.00     0.026 A 
ATOM      8  C6  UNL d   1       0.798   1.508   0.631  0.00  0.00    -0.082 A 
ATOM      9  C7  UNL d   1       0.011   2.683   0.565  0.00  0.00     0.045 A 
ENDROOT
TORSDOF 0
ENDMDL
