MODEL 1
REMARK minimizedAffinity -2.34258056
REMARK minimizedRMSD -1
REMARK  0 active torsions:
REMARK  status: ('A' for Active; 'I' for Inactive)
ROOT
ATOM      1  C   UNL d   1      -0.178  -1.557  -0.547  0.00  0.00    -0.002 A 
ATOM      2  C1  UNL d   1      -0.738  -1.440   0.718  0.00  0.00     0.010 A 
ATOM      3  C2  UNL d   1      -0.835  -0.193   1.339  0.00  0.00     0.041 A 
ATOM      4  C3  UNL d   1      -0.357   0.945   0.661  0.00  0.00    -0.075 A 
ATOM      5  S   UNL d   1      -0.372   2.574   1.226  0.00  0.00     0.015 SA
ATOM      6  C4  UNL d   1       0.363   3.154  -0.198  0.00  0.00     0.022 A 
ATOM      7  C5  UNL d   1       0.621   2.143  -1.093  0.00  0.00     0.026 A 
ATOM      8  C6  UNL d   1       0.210   0.853  -0.613  0.00  0.00    -0.082 A 
ATOM      9  C7  UNL d   1       0.295  -0.425  -1.216  0.00  0.00     0.045 A 
ENDROOT
TORSDOF 0
ENDMDL
