MODEL 1
REMARK minimizedAffinity -2.73555446
REMARK minimizedRMSD -1
REMARK  0 active torsions:
REMARK  status: ('A' for Active; 'I' for Inactive)
ROOT
ATOM      1  C   UNL d   1      -0.715   2.781   0.165  0.00  0.00    -0.002 A 
ATOM      2  C1  UNL d   1       0.643   2.942  -0.068  0.00  0.00     0.010 A 
ATOM      3  C2  UNL d   1       1.499   1.839  -0.078  0.00  0.00     0.041 A 
ATOM      4  C3  UNL d   1       0.960   0.557   0.151  0.00  0.00    -0.075 A 
ATOM      5  S   UNL d   1       1.815  -0.939   0.184  0.00  0.00     0.015 SA
ATOM      6  C4  UNL d   1       0.398  -1.828   0.508  0.00  0.00     0.022 A 
ATOM      7  C5  UNL d   1      -0.710  -1.019   0.592  0.00  0.00     0.026 A 
ATOM      8  C6  UNL d   1      -0.405   0.369   0.387  0.00  0.00    -0.082 A 
ATOM      9  C7  UNL d   1      -1.245   1.508   0.392  0.00  0.00     0.045 A 
ENDROOT
TORSDOF 0
ENDMDL
