MODEL 1
REMARK minimizedAffinity -3.62576103
REMARK minimizedRMSD -1
REMARK  0 active torsions:
REMARK  status: ('A' for Active; 'I' for Inactive)
ROOT
ATOM      1  C   UNL d   1      -0.329   3.410   0.126  0.00  0.00    -0.002 A 
ATOM      2  C1  UNL d   1       0.803   3.173  -0.642  0.00  0.00     0.010 A 
ATOM      3  C2  UNL d   1       1.252   1.870  -0.862  0.00  0.00     0.041 A 
ATOM      4  C3  UNL d   1       0.538   0.797  -0.292  0.00  0.00    -0.075 A 
ATOM      5  S   UNL d   1       0.902  -0.882  -0.428  0.00  0.00     0.015 SA
ATOM      6  C4  UNL d   1      -0.437  -1.326   0.530  0.00  0.00     0.022 A 
ATOM      7  C5  UNL d   1      -1.154  -0.231   0.952  0.00  0.00     0.026 A 
ATOM      8  C6  UNL d   1      -0.605   1.010   0.484  0.00  0.00    -0.082 A 
ATOM      9  C7  UNL d   1      -1.035   2.343   0.689  0.00  0.00     0.045 A 
ENDROOT
TORSDOF 0
ENDMDL
