MODEL 1
REMARK minimizedAffinity -3.02900839
REMARK minimizedRMSD -1
REMARK  0 active torsions:
REMARK  status: ('A' for Active; 'I' for Inactive)
ROOT
ATOM      1  C   UNL d   1      -1.130   2.723   0.773  0.00  0.00    -0.002 A 
ATOM      2  C1  UNL d   1       0.067   3.174   0.235  0.00  0.00     0.010 A 
ATOM      3  C2  UNL d   1       0.908   2.301  -0.458  0.00  0.00     0.041 A 
ATOM      4  C3  UNL d   1       0.520   0.954  -0.604  0.00  0.00    -0.075 A 
ATOM      5  S   UNL d   1       1.389  -0.295  -1.414  0.00  0.00     0.015 SA
ATOM      6  C4  UNL d   1       0.191  -1.457  -1.066  0.00  0.00     0.022 A 
ATOM      7  C5  UNL d   1      -0.853  -0.922  -0.350  0.00  0.00     0.026 A 
ATOM      8  C6  UNL d   1      -0.681   0.477  -0.072  0.00  0.00    -0.082 A 
ATOM      9  C7  UNL d   1      -1.511   1.387   0.626  0.00  0.00     0.045 A 
ENDROOT
TORSDOF 0
ENDMDL
