MODEL 1
REMARK minimizedAffinity -3.23820281
REMARK minimizedRMSD -1
REMARK  0 active torsions:
REMARK  status: ('A' for Active; 'I' for Inactive)
ROOT
ATOM      1  C   UNL d   1      -0.734  -2.823  -3.592  0.00  0.00    -0.002 A 
ATOM      2  C1  UNL d   1      -0.897  -3.759  -2.581  0.00  0.00     0.010 A 
ATOM      3  C2  UNL d   1      -0.674  -3.410  -1.247  0.00  0.00     0.041 A 
ATOM      4  C3  UNL d   1      -0.283  -2.091  -0.944  0.00  0.00    -0.075 A 
ATOM      5  S   UNL d   1       0.045  -1.437   0.617  0.00  0.00     0.015 SA
ATOM      6  C4  UNL d   1       0.408   0.101  -0.022  0.00  0.00     0.022 A 
ATOM      7  C5  UNL d   1       0.288   0.132  -1.391  0.00  0.00     0.026 A 
ATOM      8  C6  UNL d   1      -0.113  -1.130  -1.945  0.00  0.00    -0.082 A 
ATOM      9  C7  UNL d   1      -0.345  -1.516  -3.288  0.00  0.00     0.045 A 
ENDROOT
TORSDOF 0
ENDMDL
