MODEL 1
REMARK minimizedAffinity -4.35367966
REMARK minimizedRMSD -1
REMARK  0 active torsions:
REMARK  status: ('A' for Active; 'I' for Inactive)
ROOT
ATOM      1  C   UNL d   1       0.522   2.815   0.395  0.00  0.00    -0.002 A 
ATOM      2  C1  UNL d   1      -0.739   2.497   0.878  0.00  0.00     0.010 A 
ATOM      3  C2  UNL d   1      -1.306   1.248   0.616  0.00  0.00     0.041 A 
ATOM      4  C3  UNL d   1      -0.575   0.314  -0.144  0.00  0.00    -0.075 A 
ATOM      5  S   UNL d   1      -1.067  -1.278  -0.588  0.00  0.00     0.015 SA
ATOM      6  C4  UNL d   1       0.386  -1.573  -1.428  0.00  0.00     0.022 A 
ATOM      7  C5  UNL d   1       1.237  -0.495  -1.382  0.00  0.00     0.026 A 
ATOM      8  C6  UNL d   1       0.698   0.611  -0.640  0.00  0.00    -0.082 A 
ATOM      9  C7  UNL d   1       1.244   1.886  -0.359  0.00  0.00     0.045 A 
ENDROOT
TORSDOF 0
ENDMDL
