MODEL 1
REMARK minimizedAffinity -5.79342365
REMARK minimizedRMSD -1
REMARK  0 active torsions:
REMARK  status: ('A' for Active; 'I' for Inactive)
ROOT
ATOM      1  C   UNL d   1       0.030   2.911  -0.062  0.00  0.00    -0.002 A 
ATOM      2  C1  UNL d   1       1.392   2.683   0.076  0.00  0.00     0.010 A 
ATOM      3  C2  UNL d   1       1.886   1.382   0.194  0.00  0.00     0.041 A 
ATOM      4  C3  UNL d   1       0.979   0.304   0.168  0.00  0.00    -0.075 A 
ATOM      5  S   UNL d   1       1.356  -1.374   0.295  0.00  0.00     0.015 SA
ATOM      6  C4  UNL d   1      -0.282  -1.827   0.167  0.00  0.00     0.022 A 
ATOM      7  C5  UNL d   1      -1.110  -0.738   0.031  0.00  0.00     0.026 A 
ATOM      8  C6  UNL d   1      -0.396   0.508   0.029  0.00  0.00    -0.082 A 
ATOM      9  C7  UNL d   1      -0.866   1.839  -0.087  0.00  0.00     0.045 A 
ENDROOT
TORSDOF 0
ENDMDL
