MODEL 1
REMARK minimizedAffinity 5.31057882
REMARK minimizedRMSD -1
REMARK  0 active torsions:
REMARK  status: ('A' for Active; 'I' for Inactive)
ROOT
ATOM      1  C   UNL d   1       2.125   3.046   1.234  0.00  0.00    -0.002 A 
ATOM      2  C1  UNL d   1       2.834   1.897   0.911  0.00  0.00     0.010 A 
ATOM      3  C2  UNL d   1       2.164   0.731   0.537  0.00  0.00     0.041 A 
ATOM      4  C3  UNL d   1       0.756   0.739   0.489  0.00  0.00    -0.075 A 
ATOM      5  S   UNL d   1      -0.277  -0.572   0.057  0.00  0.00     0.015 SA
ATOM      6  C4  UNL d   1      -1.684   0.361   0.290  0.00  0.00     0.022 A 
ATOM      7  C5  UNL d   1      -1.391   1.644   0.688  0.00  0.00     0.026 A 
ATOM      8  C6  UNL d   1       0.020   1.883   0.809  0.00  0.00    -0.082 A 
ATOM      9  C7  UNL d   1       0.728   3.050   1.186  0.00  0.00     0.045 A 
ENDROOT
TORSDOF 0
ENDMDL
