MODEL 1
REMARK minimizedAffinity -5.4196043
REMARK minimizedRMSD -1
REMARK  0 active torsions:
REMARK  status: ('A' for Active; 'I' for Inactive)
ROOT
ATOM      1  C   UNL d   1      -0.275   3.106  -1.054  0.00  0.00    -0.002 A 
ATOM      2  C1  UNL d   1      -0.171   3.087   0.330  0.00  0.00     0.010 A 
ATOM      3  C2  UNL d   1      -0.089   1.875   1.019  0.00  0.00     0.041 A 
ATOM      4  C3  UNL d   1      -0.111   0.672   0.287  0.00  0.00    -0.075 A 
ATOM      5  S   UNL d   1      -0.022  -0.930   0.918  0.00  0.00     0.015 SA
ATOM      6  C4  UNL d   1      -0.119  -1.627  -0.635  0.00  0.00     0.022 A 
ATOM      7  C5  UNL d   1      -0.218  -0.675  -1.622  0.00  0.00     0.026 A 
ATOM      8  C6  UNL d   1      -0.214   0.665  -1.107  0.00  0.00    -0.082 A 
ATOM      9  C7  UNL d   1      -0.297   1.910  -1.777  0.00  0.00     0.045 A 
ENDROOT
TORSDOF 0
ENDMDL
