MODEL 1
REMARK minimizedAffinity -6.30856562
REMARK minimizedRMSD -1
REMARK  0 active torsions:
REMARK  status: ('A' for Active; 'I' for Inactive)
ROOT
ATOM      1  C   UNL d   1       1.585   3.913   0.406  0.00  0.00    -0.002 A 
ATOM      2  C1  UNL d   1       2.827   3.302   0.306  0.00  0.00     0.010 A 
ATOM      3  C2  UNL d   1       2.933   1.910   0.269  0.00  0.00     0.041 A 
ATOM      4  C3  UNL d   1       1.758   1.135   0.333  0.00  0.00    -0.075 A 
ATOM      5  S   UNL d   1       1.644  -0.585   0.303  0.00  0.00     0.015 SA
ATOM      6  C4  UNL d   1      -0.056  -0.549   0.422  0.00  0.00     0.022 A 
ATOM      7  C5  UNL d   1      -0.541   0.736   0.485  0.00  0.00     0.026 A 
ATOM      8  C6  UNL d   1       0.496   1.728   0.434  0.00  0.00    -0.082 A 
ATOM      9  C7  UNL d   1       0.422   3.141   0.470  0.00  0.00     0.045 A 
ENDROOT
TORSDOF 0
ENDMDL
