MODEL 1
REMARK minimizedAffinity 4.00060081
REMARK minimizedRMSD -1
REMARK  0 active torsions:
REMARK  status: ('A' for Active; 'I' for Inactive)
ROOT
ATOM      1  C   UNL d   1       3.964  -5.997  -6.000  0.00  0.00     0.077 C 
ATOM      2  C1  UNL d   1       2.705  -5.723  -5.232  0.00  0.00    -0.074 A 
ATOM      3  C2  UNL d   1       1.451  -5.999  -5.787  0.00  0.00    -0.005 A 
ATOM      4  C3  UNL d   1       0.289  -5.748  -5.057  0.00  0.00     0.006 A 
ATOM      5  C4  UNL d   1       0.369  -5.220  -3.768  0.00  0.00    -0.005 A 
ATOM      6  C5  UNL d   1       1.614  -4.938  -3.197  0.00  0.00    -0.074 A 
ATOM      7  C6  UNL d   1       1.718  -4.380  -1.809  0.00  0.00     0.077 C 
ATOM      8  C7  UNL d   1       2.778  -5.200  -3.934  0.00  0.00    -0.001 A 
ENDROOT
TORSDOF 0
ENDMDL
