MODEL 1
REMARK minimizedAffinity 2.3523674
REMARK minimizedRMSD -1
REMARK  0 active torsions:
REMARK  status: ('A' for Active; 'I' for Inactive)
ROOT
ATOM      1  C   UNL d   1      -2.001  -3.332   4.765  0.00  0.00     0.077 C 
ATOM      2  C1  UNL d   1      -0.910  -2.359   4.427  0.00  0.00    -0.074 A 
ATOM      3  C2  UNL d   1      -0.427  -1.460   5.383  0.00  0.00    -0.005 A 
ATOM      4  C3  UNL d   1       0.594  -0.568   5.057  0.00  0.00     0.006 A 
ATOM      5  C4  UNL d   1       1.142  -0.566   3.774  0.00  0.00    -0.005 A 
ATOM      6  C5  UNL d   1       0.673  -1.458   2.805  0.00  0.00    -0.074 A 
ATOM      7  C6  UNL d   1       1.257  -1.475   1.424  0.00  0.00     0.077 C 
ATOM      8  C7  UNL d   1      -0.349  -2.356   3.142  0.00  0.00    -0.001 A 
ENDROOT
TORSDOF 0
ENDMDL
