MODEL 1
REMARK minimizedAffinity 14.576539
REMARK minimizedRMSD -1
REMARK  0 active torsions:
REMARK  status: ('A' for Active; 'I' for Inactive)
ROOT
ATOM      1  C   UNL d   1       0.769   6.000   0.377  0.00  0.00     0.077 C 
ATOM      2  C1  UNL d   1       0.585   4.678  -0.309  0.00  0.00    -0.074 A 
ATOM      3  C2  UNL d   1       1.604   3.720  -0.308  0.00  0.00    -0.005 A 
ATOM      4  C3  UNL d   1       1.414   2.492  -0.941  0.00  0.00     0.006 A 
ATOM      5  C4  UNL d   1       0.206   2.210  -1.581  0.00  0.00    -0.005 A 
ATOM      6  C5  UNL d   1      -0.824   3.155  -1.591  0.00  0.00    -0.074 A 
ATOM      7  C6  UNL d   1      -2.132   2.864  -2.264  0.00  0.00     0.077 C 
ATOM      8  C7  UNL d   1      -0.629   4.384  -0.946  0.00  0.00    -0.001 A 
ENDROOT
TORSDOF 0
ENDMDL
