MODEL 1
REMARK minimizedAffinity 10.68013
REMARK minimizedRMSD -1
REMARK  0 active torsions:
REMARK  status: ('A' for Active; 'I' for Inactive)
ROOT
ATOM      1  C   UNL d   1      -1.976  -1.540   5.903  0.00  0.00     0.077 C 
ATOM      2  C1  UNL d   1      -0.747  -0.985   5.246  0.00  0.00    -0.074 A 
ATOM      3  C2  UNL d   1       0.249  -0.357   6.000  0.00  0.00    -0.005 A 
ATOM      4  C3  UNL d   1       1.391   0.146   5.376  0.00  0.00     0.006 A 
ATOM      5  C4  UNL d   1       1.548   0.025   3.995  0.00  0.00    -0.005 A 
ATOM      6  C5  UNL d   1       0.562  -0.601   3.225  0.00  0.00    -0.074 A 
ATOM      7  C6  UNL d   1       0.719  -0.747   1.740  0.00  0.00     0.077 C 
ATOM      8  C7  UNL d   1      -0.579  -1.109   3.860  0.00  0.00    -0.001 A 
ENDROOT
TORSDOF 0
ENDMDL
