MODEL 1
REMARK minimizedAffinity 13.5933552
REMARK minimizedRMSD -1
REMARK  0 active torsions:
REMARK  status: ('A' for Active; 'I' for Inactive)
ROOT
ATOM      1  C   UNL d   1      -1.132  -0.286   5.417  0.00  0.00     0.077 C 
ATOM      2  C1  UNL d   1      -0.597  -0.879   4.147  0.00  0.00    -0.074 A 
ATOM      3  C2  UNL d   1      -0.976  -2.161   3.737  0.00  0.00    -0.005 A 
ATOM      4  C3  UNL d   1      -0.478  -2.696   2.549  0.00  0.00     0.006 A 
ATOM      5  C4  UNL d   1       0.404  -1.955   1.761  0.00  0.00    -0.005 A 
ATOM      6  C5  UNL d   1       0.793  -0.671   2.154  0.00  0.00    -0.074 A 
ATOM      7  C6  UNL d   1       1.732   0.143   1.314  0.00  0.00     0.077 C 
ATOM      8  C7  UNL d   1       0.282  -0.138   3.346  0.00  0.00    -0.001 A 
ENDROOT
TORSDOF 0
ENDMDL
