MODEL 1
REMARK minimizedAffinity 12.0633554
REMARK minimizedRMSD -1
REMARK  0 active torsions:
REMARK  status: ('A' for Active; 'I' for Inactive)
ROOT
ATOM      1  C   UNL d   1       0.911  -0.808   2.699  0.00  0.00     0.077 C 
ATOM      2  C1  UNL d   1       1.630  -1.693   1.725  0.00  0.00    -0.074 A 
ATOM      3  C2  UNL d   1       1.186  -2.996   1.475  0.00  0.00    -0.005 A 
ATOM      4  C3  UNL d   1       1.859  -3.804   0.559  0.00  0.00     0.006 A 
ATOM      5  C4  UNL d   1       2.981  -3.319  -0.115  0.00  0.00    -0.005 A 
ATOM      6  C5  UNL d   1       3.439  -2.019   0.122  0.00  0.00    -0.074 A 
ATOM      7  C6  UNL d   1       4.637  -1.479  -0.600  0.00  0.00     0.077 C 
ATOM      8  C7  UNL d   1       2.753  -1.211   1.039  0.00  0.00    -0.001 A 
ENDROOT
TORSDOF 0
ENDMDL
