MODEL 1
REMARK minimizedAffinity 13.9594183
REMARK minimizedRMSD -1
REMARK  0 active torsions:
REMARK  status: ('A' for Active; 'I' for Inactive)
ROOT
ATOM      1  C   UNL d   1       1.648  -0.426   1.540  0.00  0.00     0.077 C 
ATOM      2  C1  UNL d   1       0.646  -0.812   2.587  0.00  0.00    -0.074 A 
ATOM      3  C2  UNL d   1       0.521  -0.073   3.768  0.00  0.00    -0.005 A 
ATOM      4  C3  UNL d   1      -0.422  -0.439   4.729  0.00  0.00     0.006 A 
ATOM      5  C4  UNL d   1      -1.247  -1.544   4.519  0.00  0.00    -0.005 A 
ATOM      6  C5  UNL d   1      -1.137  -2.294   3.344  0.00  0.00    -0.074 A 
ATOM      7  C6  UNL d   1      -2.023  -3.479   3.098  0.00  0.00     0.077 C 
ATOM      8  C7  UNL d   1      -0.192  -1.916   2.380  0.00  0.00    -0.001 A 
ENDROOT
TORSDOF 0
ENDMDL
