MODEL 1
REMARK minimizedAffinity 11.7826166
REMARK minimizedRMSD -1
REMARK  0 active torsions:
REMARK  status: ('A' for Active; 'I' for Inactive)
ROOT
ATOM      1  C   UNL d   1      -4.177   2.584  -0.009  0.00  0.00     0.077 C 
ATOM      2  C1  UNL d   1      -3.070   2.645  -1.019  0.00  0.00    -0.074 A 
ATOM      3  C2  UNL d   1      -3.348   2.749  -2.385  0.00  0.00    -0.005 A 
ATOM      4  C3  UNL d   1      -2.307   2.815  -3.312  0.00  0.00     0.006 A 
ATOM      5  C4  UNL d   1      -0.980   2.777  -2.882  0.00  0.00    -0.005 A 
ATOM      6  C5  UNL d   1      -0.683   2.674  -1.519  0.00  0.00    -0.074 A 
ATOM      7  C6  UNL d   1       0.738   2.642  -1.040  0.00  0.00     0.077 C 
ATOM      8  C7  UNL d   1      -1.734   2.616  -0.594  0.00  0.00    -0.001 A 
ENDROOT
TORSDOF 0
ENDMDL
