MODEL 1
REMARK minimizedAffinity 10.4668407
REMARK minimizedRMSD -1
REMARK  0 active torsions:
REMARK  status: ('A' for Active; 'I' for Inactive)
ROOT
ATOM      1  C   UNL d   1      -3.503  -5.197  -0.092  0.00  0.00     0.077 C 
ATOM      2  C1  UNL d   1      -3.468  -4.324   1.127  0.00  0.00    -0.074 A 
ATOM      3  C2  UNL d   1      -2.476  -4.488   2.100  0.00  0.00    -0.005 A 
ATOM      4  C3  UNL d   1      -2.451  -3.663   3.224  0.00  0.00     0.006 A 
ATOM      5  C4  UNL d   1      -3.415  -2.667   3.387  0.00  0.00    -0.005 A 
ATOM      6  C5  UNL d   1      -4.413  -2.488   2.424  0.00  0.00    -0.074 A 
ATOM      7  C6  UNL d   1      -5.451  -1.416   2.579  0.00  0.00     0.077 C 
ATOM      8  C7  UNL d   1      -4.428  -3.317   1.294  0.00  0.00    -0.001 A 
ENDROOT
TORSDOF 0
ENDMDL
