MODEL 1
REMARK minimizedAffinity 3.96272945
REMARK minimizedRMSD -1
REMARK  0 active torsions:
REMARK  status: ('A' for Active; 'I' for Inactive)
ROOT
ATOM      1  C   UNL d   1      -4.991  -5.999  -0.769  0.00  0.00     0.077 C 
ATOM      2  C1  UNL d   1      -4.937  -5.273   0.542  0.00  0.00    -0.074 A 
ATOM      3  C2  UNL d   1      -4.537  -3.935   0.607  0.00  0.00    -0.005 A 
ATOM      4  C3  UNL d   1      -4.501  -3.269   1.832  0.00  0.00     0.006 A 
ATOM      5  C4  UNL d   1      -4.865  -3.935   3.004  0.00  0.00    -0.005 A 
ATOM      6  C5  UNL d   1      -5.269  -5.273   2.958  0.00  0.00    -0.074 A 
ATOM      7  C6  UNL d   1      -5.673  -6.000   4.207  0.00  0.00     0.077 C 
ATOM      8  C7  UNL d   1      -5.309  -5.932   1.722  0.00  0.00    -0.001 A 
ENDROOT
TORSDOF 0
ENDMDL
