MODEL 1
REMARK minimizedAffinity 8.26259804
REMARK minimizedRMSD -1
REMARK  0 active torsions:
REMARK  status: ('A' for Active; 'I' for Inactive)
ROOT
ATOM      1  C   UNL d   1       5.999  -4.355  -6.000  0.00  0.00     0.077 C 
ATOM      2  C1  UNL d   1       5.387  -3.272  -5.162  0.00  0.00    -0.074 A 
ATOM      3  C2  UNL d   1       4.335  -2.492  -5.652  0.00  0.00    -0.005 A 
ATOM      4  C3  UNL d   1       3.769  -1.495  -4.857  0.00  0.00     0.006 A 
ATOM      5  C4  UNL d   1       4.248  -1.269  -3.566  0.00  0.00    -0.005 A 
ATOM      6  C5  UNL d   1       5.299  -2.040  -3.058  0.00  0.00    -0.074 A 
ATOM      7  C6  UNL d   1       5.819  -1.817  -1.670  0.00  0.00     0.077 C 
ATOM      8  C7  UNL d   1       5.858  -3.045  -3.861  0.00  0.00    -0.001 A 
ENDROOT
TORSDOF 0
ENDMDL
