MODEL 1
REMARK minimizedAffinity -3.7737174
REMARK minimizedRMSD -1
REMARK  0 active torsions:
REMARK  status: ('A' for Active; 'I' for Inactive)
ROOT
ATOM      1  C   UNL d   1       1.993  -3.911   0.750  0.00  0.00     0.077 C 
ATOM      2  C1  UNL d   1       1.313  -2.820   1.524  0.00  0.00    -0.074 A 
ATOM      3  C2  UNL d   1      -0.080  -2.785   1.644  0.00  0.00    -0.005 A 
ATOM      4  C3  UNL d   1      -0.697  -1.770   2.374  0.00  0.00     0.006 A 
ATOM      5  C4  UNL d   1       0.070  -0.782   2.991  0.00  0.00    -0.005 A 
ATOM      6  C5  UNL d   1       1.464  -0.801   2.883  0.00  0.00    -0.074 A 
ATOM      7  C6  UNL d   1       2.305   0.248   3.548  0.00  0.00     0.077 C 
ATOM      8  C7  UNL d   1       2.078  -1.828   2.153  0.00  0.00    -0.001 A 
ENDROOT
TORSDOF 0
ENDMDL
