MODEL 1
REMARK minimizedAffinity 14.7269773
REMARK minimizedRMSD -1
REMARK  0 active torsions:
REMARK  status: ('A' for Active; 'I' for Inactive)
ROOT
ATOM      1  C   UNL d   1      -0.851   6.000  -3.210  0.00  0.00     0.077 C 
ATOM      2  C1  UNL d   1      -0.775   4.547  -2.846  0.00  0.00    -0.074 A 
ATOM      3  C2  UNL d   1      -1.516   3.590  -3.547  0.00  0.00    -0.005 A 
ATOM      4  C3  UNL d   1      -1.427   2.241  -3.203  0.00  0.00     0.006 A 
ATOM      5  C4  UNL d   1      -0.598   1.836  -2.157  0.00  0.00    -0.005 A 
ATOM      6  C5  UNL d   1       0.152   2.778  -1.446  0.00  0.00    -0.074 A 
ATOM      7  C6  UNL d   1       1.056   2.359  -0.325  0.00  0.00     0.077 C 
ATOM      8  C7  UNL d   1       0.063   4.131  -1.802  0.00  0.00    -0.001 A 
ENDROOT
TORSDOF 0
ENDMDL
