MODEL 1
REMARK minimizedAffinity 14.927084
REMARK minimizedRMSD -1
REMARK  0 active torsions:
REMARK  status: ('A' for Active; 'I' for Inactive)
ROOT
ATOM      1  C   UNL d   1      -0.564   3.097  -2.334  0.00  0.00     0.077 C 
ATOM      2  C1  UNL d   1      -1.604   3.427  -3.363  0.00  0.00    -0.074 A 
ATOM      3  C2  UNL d   1      -1.262   4.098  -4.542  0.00  0.00    -0.005 A 
ATOM      4  C3  UNL d   1      -2.238   4.390  -5.494  0.00  0.00     0.006 A 
ATOM      5  C4  UNL d   1      -3.565   4.015  -5.277  0.00  0.00    -0.005 A 
ATOM      6  C5  UNL d   1      -3.926   3.342  -4.106  0.00  0.00    -0.074 A 
ATOM      7  C6  UNL d   1      -5.345   2.922  -3.862  0.00  0.00     0.077 C 
ATOM      8  C7  UNL d   1      -2.937   3.046  -3.157  0.00  0.00    -0.001 A 
ENDROOT
TORSDOF 0
ENDMDL
