MODEL 1
REMARK minimizedAffinity 10.8170919
REMARK minimizedRMSD -1
REMARK  0 active torsions:
REMARK  status: ('A' for Active; 'I' for Inactive)
ROOT
ATOM      1  C   UNL d   1      -0.795   3.147  -2.278  0.00  0.00     0.077 C 
ATOM      2  C1  UNL d   1       0.108   3.554  -1.151  0.00  0.00    -0.074 A 
ATOM      3  C2  UNL d   1       0.106   4.866  -0.667  0.00  0.00    -0.005 A 
ATOM      4  C3  UNL d   1       0.944   5.228   0.388  0.00  0.00     0.006 A 
ATOM      5  C4  UNL d   1       1.791   4.283   0.968  0.00  0.00    -0.005 A 
ATOM      6  C5  UNL d   1       1.807   2.966   0.497  0.00  0.00    -0.074 A 
ATOM      7  C6  UNL d   1       2.704   1.935   1.116  0.00  0.00     0.077 C 
ATOM      8  C7  UNL d   1       0.956   2.609  -0.558  0.00  0.00    -0.001 A 
ENDROOT
TORSDOF 0
ENDMDL
