MODEL 1
REMARK minimizedAffinity -3.62022924
REMARK minimizedRMSD -1
REMARK  0 active torsions:
REMARK  status: ('A' for Active; 'I' for Inactive)
ROOT
ATOM      1  C2' OXE d   1      -0.560   0.501  -1.464  0.00  0.00     0.078 C 
ATOM      2  C1' OXE d   1       1.715  -1.025  -0.852  0.00  0.00     0.078 C 
ATOM      3  C1  OXE d   1       0.758  -0.708   0.270  0.00  0.00    -0.078 A 
ATOM      4  C2  OXE d   1      -0.328   0.078  -0.029  0.00  0.00    -0.078 A 
ATOM      5  C3  OXE d   1      -1.271   0.355   0.956  0.00  0.00     0.003 A 
ATOM      6  C4  OXE d   1      -1.044  -0.031   2.283  0.00  0.00    -0.002 A 
ATOM      7  C5  OXE d   1       0.076  -0.799   2.617  0.00  0.00    -0.002 A 
ATOM      8  C6  OXE d   1       0.963  -1.181   1.617  0.00  0.00     0.003 A 
ENDROOT
TORSDOF 0
ENDMDL
