MODEL 1
REMARK minimizedAffinity -4.36827898
REMARK minimizedRMSD -1
REMARK  0 active torsions:
REMARK  status: ('A' for Active; 'I' for Inactive)
ROOT
ATOM      1  C2' OXE d   1      -0.291  -0.056  -1.841  0.00  0.00     0.078 C 
ATOM      2  C1' OXE d   1       2.149  -1.061  -0.885  0.00  0.00     0.078 C 
ATOM      3  C1  OXE d   1       1.082  -0.725   0.126  0.00  0.00    -0.078 A 
ATOM      4  C2  OXE d   1      -0.091  -0.189  -0.347  0.00  0.00    -0.078 A 
ATOM      5  C3  OXE d   1      -1.129   0.088   0.538  0.00  0.00     0.003 A 
ATOM      6  C4  OXE d   1      -0.933  -0.029   1.920  0.00  0.00    -0.002 A 
ATOM      7  C5  OXE d   1       0.270  -0.535   2.425  0.00  0.00    -0.002 A 
ATOM      8  C6  OXE d   1       1.270  -0.927   1.542  0.00  0.00     0.003 A 
ENDROOT
TORSDOF 0
ENDMDL
