MODEL 1
REMARK minimizedAffinity -4.51047754
REMARK minimizedRMSD -1
REMARK  0 active torsions:
REMARK  status: ('A' for Active; 'I' for Inactive)
ROOT
ATOM      1  C2' OXE d   1      -1.131  -0.787  -1.517  0.00  0.00     0.078 C 
ATOM      2  C1' OXE d   1      -0.423   1.893  -1.074  0.00  0.00     0.078 C 
ATOM      3  C1  OXE d   1       0.028   0.870  -0.061  0.00  0.00    -0.078 A 
ATOM      4  C2  OXE d   1      -0.363  -0.432  -0.262  0.00  0.00    -0.078 A 
ATOM      5  C3  OXE d   1       0.072  -1.425   0.612  0.00  0.00     0.003 A 
ATOM      6  C4  OXE d   1       0.773  -1.087   1.776  0.00  0.00    -0.002 A 
ATOM      7  C5  OXE d   1       1.147   0.239   2.020  0.00  0.00    -0.002 A 
ATOM      8  C6  OXE d   1       0.820   1.221   1.091  0.00  0.00     0.003 A 
ENDROOT
TORSDOF 0
ENDMDL
