MODEL 1
REMARK minimizedAffinity -4.53195572
REMARK minimizedRMSD -1
REMARK  0 active torsions:
REMARK  status: ('A' for Active; 'I' for Inactive)
ROOT
ATOM      1  C2' OXE d   1       2.428  -1.123   0.211  0.00  0.00     0.078 C 
ATOM      2  C1' OXE d   1       1.269  -0.887   2.757  0.00  0.00     0.078 C 
ATOM      3  C1  OXE d   1       0.461  -0.423   1.570  0.00  0.00    -0.078 A 
ATOM      4  C2  OXE d   1       1.055  -0.498   0.333  0.00  0.00    -0.078 A 
ATOM      5  C3  OXE d   1       0.334  -0.134  -0.800  0.00  0.00     0.003 A 
ATOM      6  C4  OXE d   1      -0.932   0.451  -0.678  0.00  0.00    -0.002 A 
ATOM      7  C5  OXE d   1      -1.539   0.575   0.577  0.00  0.00    -0.002 A 
ATOM      8  C6  OXE d   1      -0.874   0.104   1.704  0.00  0.00     0.003 A 
ENDROOT
TORSDOF 0
ENDMDL
