MODEL 1
REMARK minimizedAffinity -3.29715705
REMARK minimizedRMSD -1
REMARK  0 active torsions:
REMARK  status: ('A' for Active; 'I' for Inactive)
ROOT
ATOM      1  C2' OXE d   1      -1.643   0.495   1.633  0.00  0.00     0.078 C 
ATOM      2  C1' OXE d   1       0.849  -0.282   2.666  0.00  0.00     0.078 C 
ATOM      3  C1  OXE d   1       0.637  -0.400   1.178  0.00  0.00    -0.078 A 
ATOM      4  C2  OXE d   1      -0.601  -0.062   0.687  0.00  0.00    -0.078 A 
ATOM      5  C3  OXE d   1      -0.833  -0.101  -0.685  0.00  0.00     0.003 A 
ATOM      6  C4  OXE d   1       0.132  -0.627  -1.552  0.00  0.00    -0.002 A 
ATOM      7  C5  OXE d   1       1.386  -1.015  -1.068  0.00  0.00    -0.002 A 
ATOM      8  C6  OXE d   1       1.669  -0.868   0.286  0.00  0.00     0.003 A 
ENDROOT
TORSDOF 0
ENDMDL
