MODEL 1
REMARK minimizedAffinity 1.83135772
REMARK minimizedRMSD -1
REMARK  0 active torsions:
REMARK  status: ('A' for Active; 'I' for Inactive)
ROOT
ATOM      1  C2' OXE d   1       2.722  -1.121  -0.149  0.00  0.00     0.078 C 
ATOM      2  C1' OXE d   1       1.285  -1.102   2.262  0.00  0.00     0.078 C 
ATOM      3  C1  OXE d   1       0.614  -0.529   1.039  0.00  0.00    -0.078 A 
ATOM      4  C2  OXE d   1       1.342  -0.500  -0.126  0.00  0.00    -0.078 A 
ATOM      5  C3  OXE d   1       0.751  -0.033  -1.297  0.00  0.00     0.003 A 
ATOM      6  C4  OXE d   1      -0.522   0.549  -1.265  0.00  0.00    -0.002 A 
ATOM      7  C5  OXE d   1      -1.265   0.566  -0.080  0.00  0.00    -0.002 A 
ATOM      8  C6  OXE d   1      -0.730  -0.007   1.069  0.00  0.00     0.003 A 
ENDROOT
TORSDOF 0
ENDMDL
