MODEL 1
REMARK minimizedAffinity -3.79422665
REMARK minimizedRMSD -1
REMARK  0 active torsions:
REMARK  status: ('A' for Active; 'I' for Inactive)
ROOT
ATOM      1  C2' OXE d   1      -2.237   0.229   1.341  0.00  0.00     0.078 C 
ATOM      2  C1' OXE d   1      -0.709   0.455  -1.003  0.00  0.00     0.078 C 
ATOM      3  C1  OXE d   1      -0.026  -0.072   0.234  0.00  0.00    -0.078 A 
ATOM      4  C2  OXE d   1      -0.769  -0.135   1.388  0.00  0.00    -0.078 A 
ATOM      5  C3  OXE d   1      -0.203  -0.665   2.544  0.00  0.00     0.003 A 
ATOM      6  C4  OXE d   1       1.159  -0.991   2.582  0.00  0.00    -0.002 A 
ATOM      7  C5  OXE d   1       1.943  -0.896   1.428  0.00  0.00    -0.002 A 
ATOM      8  C6  OXE d   1       1.358  -0.480   0.238  0.00  0.00     0.003 A 
ENDROOT
TORSDOF 0
ENDMDL
