MODEL 1
REMARK minimizedAffinity -4.36897898
REMARK minimizedRMSD -1
REMARK  0 active torsions:
REMARK  status: ('A' for Active; 'I' for Inactive)
ROOT
ATOM      1  C2' OXE d   1      -2.256  -0.388   1.109  0.00  0.00     0.078 C 
ATOM      2  C1' OXE d   1      -0.529   0.089  -1.052  0.00  0.00     0.078 C 
ATOM      3  C1  OXE d   1       0.088  -0.122   0.309  0.00  0.00    -0.078 A 
ATOM      4  C2  OXE d   1      -0.767  -0.308   1.368  0.00  0.00    -0.078 A 
ATOM      5  C3  OXE d   1      -0.249  -0.561   2.635  0.00  0.00     0.003 A 
ATOM      6  C4  OXE d   1       1.129  -0.475   2.868  0.00  0.00    -0.002 A 
ATOM      7  C5  OXE d   1       2.015  -0.247   1.810  0.00  0.00    -0.002 A 
ATOM      8  C6  OXE d   1       1.515  -0.111   0.520  0.00  0.00     0.003 A 
ENDROOT
TORSDOF 0
ENDMDL
