MODEL 1
REMARK minimizedAffinity -3.42011571
REMARK minimizedRMSD -1
REMARK  3 active torsions:
REMARK  status: ('A' for Active; 'I' for Inactive)
REMARK    1  A    between atoms: C3'_2  and  C2'_3 
REMARK    2  A    between atoms: C2'_3  and  C1'_4 
REMARK    3  A    between atoms: C1'_4  and  C1_5 
ROOT
ATOM      1  C1  N4B d   1       0.346  -0.081  -0.634  0.00  0.00    -0.075 A 
ATOM      2  C2  N4B d   1       1.677  -0.132  -1.105  0.00  0.00     0.002 A 
ATOM      3  C3  N4B d   1       2.567   0.853  -0.755  0.00  0.00     0.002 A 
ATOM      4  C4  N4B d   1       2.147   1.905   0.045  0.00  0.00    -0.004 A 
ATOM      5  C5  N4B d   1       0.867   1.934   0.516  0.00  0.00     0.002 A 
ATOM      6  C6  N4B d   1      -0.038   0.948   0.176  0.00  0.00     0.002 A 
ENDROOT
BRANCH   1   7
ATOM      7  C1' N4B d   1      -0.686  -1.089  -1.060  0.00  0.00     0.057 C 
BRANCH   7   8
ATOM      8  C2' N4B d   1      -1.117  -0.790  -2.492  0.00  0.00     0.009 C 
BRANCH   8   9
ATOM      9  C3' N4B d   1      -2.213  -1.730  -2.964  0.00  0.00     0.004 C 
ATOM     10  C4' N4B d   1      -3.589  -1.217  -2.661  0.00  0.00     0.003 C 
ENDBRANCH   8   9
ENDBRANCH   7   8
ENDBRANCH   1   7
TORSDOF 3
ENDMDL
