MODEL 1
REMARK minimizedAffinity -3.78462863
REMARK minimizedRMSD -1
REMARK  3 active torsions:
REMARK  status: ('A' for Active; 'I' for Inactive)
REMARK    1  A    between atoms: C3'_2  and  C2'_3 
REMARK    2  A    between atoms: C2'_3  and  C1'_4 
REMARK    3  A    between atoms: C1'_4  and  C1_5 
ROOT
ATOM      1  C1  N4B d   1       0.186   0.111   0.626  0.00  0.00    -0.075 A 
ATOM      2  C2  N4B d   1      -0.097   0.599   1.921  0.00  0.00     0.002 A 
ATOM      3  C3  N4B d   1       0.341   1.845   2.296  0.00  0.00     0.002 A 
ATOM      4  C4  N4B d   1       1.077   2.611   1.404  0.00  0.00    -0.004 A 
ATOM      5  C5  N4B d   1       1.324   2.143   0.147  0.00  0.00     0.002 A 
ATOM      6  C6  N4B d   1       0.886   0.894  -0.245  0.00  0.00     0.002 A 
ENDROOT
BRANCH   1   7
ATOM      7  C1' N4B d   1      -0.198  -1.279   0.200  0.00  0.00     0.057 C 
BRANCH   7   8
ATOM      8  C2' N4B d   1      -1.342  -1.775   1.080  0.00  0.00     0.009 C 
BRANCH   8   9
ATOM      9  C3' N4B d   1      -0.943  -2.991   1.899  0.00  0.00     0.004 C 
ATOM     10  C4' N4B d   1      -1.010  -2.743   3.377  0.00  0.00     0.003 C 
ENDBRANCH   8   9
ENDBRANCH   7   8
ENDBRANCH   1   7
TORSDOF 3
ENDMDL
