MODEL 1
REMARK minimizedAffinity -5.01139784
REMARK minimizedRMSD -1
REMARK  3 active torsions:
REMARK  status: ('A' for Active; 'I' for Inactive)
REMARK    1  A    between atoms: C3'_2  and  C2'_3 
REMARK    2  A    between atoms: C2'_3  and  C1'_4 
REMARK    3  A    between atoms: C1'_4  and  C1_5 
ROOT
ATOM      1  C1  N4B d   1       0.066   0.121   0.212  0.00  0.00    -0.075 A 
ATOM      2  C2  N4B d   1       1.165   0.709  -0.451  0.00  0.00     0.002 A 
ATOM      3  C3  N4B d   1       1.633   1.936  -0.049  0.00  0.00     0.002 A 
ATOM      4  C4  N4B d   1       1.009   2.599   0.997  0.00  0.00    -0.004 A 
ATOM      5  C5  N4B d   1      -0.036   2.013   1.649  0.00  0.00     0.002 A 
ATOM      6  C6  N4B d   1      -0.514   0.778   1.258  0.00  0.00     0.002 A 
ENDROOT
BRANCH   1   7
ATOM      7  C1' N4B d   1      -0.535  -1.180  -0.246  0.00  0.00     0.057 C 
BRANCH   7   8
ATOM      8  C2' N4B d   1      -0.864  -1.082  -1.733  0.00  0.00     0.009 C 
BRANCH   8   9
ATOM      9  C3' N4B d   1      -2.033  -1.974  -2.115  0.00  0.00     0.004 C 
ATOM     10  C4' N4B d   1      -3.109  -1.237  -2.855  0.00  0.00     0.003 C 
ENDBRANCH   8   9
ENDBRANCH   7   8
ENDBRANCH   1   7
TORSDOF 3
ENDMDL
