MODEL 1
REMARK minimizedAffinity -3.19324684
REMARK minimizedRMSD -1
REMARK  3 active torsions:
REMARK  status: ('A' for Active; 'I' for Inactive)
REMARK    1  A    between atoms: C3'_2  and  C2'_3 
REMARK    2  A    between atoms: C2'_3  and  C1'_4 
REMARK    3  A    between atoms: C1'_4  and  C1_5 
ROOT
ATOM      1  C1  N4B d   1      -0.049  -1.450  -0.955  0.00  0.00    -0.075 A 
ATOM      2  C2  N4B d   1       1.287  -1.585  -1.391  0.00  0.00     0.002 A 
ATOM      3  C3  N4B d   1       2.178  -0.557  -1.204  0.00  0.00     0.002 A 
ATOM      4  C4  N4B d   1       1.752   0.618  -0.603  0.00  0.00    -0.004 A 
ATOM      5  C5  N4B d   1       0.466   0.731  -0.162  0.00  0.00     0.002 A 
ATOM      6  C6  N4B d   1      -0.439  -0.296  -0.339  0.00  0.00     0.002 A 
ENDROOT
BRANCH   1   7
ATOM      7  C1' N4B d   1      -1.081  -2.514  -1.214  0.00  0.00     0.057 C 
BRANCH   7   8
ATOM      8  C2' N4B d   1      -1.065  -3.518  -0.065  0.00  0.00     0.009 C 
BRANCH   8   9
ATOM      9  C3' N4B d   1      -0.328  -4.793  -0.436  0.00  0.00     0.004 C 
ATOM     10  C4' N4B d   1      -1.028  -5.579  -1.504  0.00  0.00     0.003 C 
ENDBRANCH   8   9
ENDBRANCH   7   8
ENDBRANCH   1   7
TORSDOF 3
ENDMDL
