MODEL 1
REMARK minimizedAffinity -5.76975727
REMARK minimizedRMSD -1
REMARK  3 active torsions:
REMARK  status: ('A' for Active; 'I' for Inactive)
REMARK    1  A    between atoms: C3'_2  and  C2'_3 
REMARK    2  A    between atoms: C2'_3  and  C1'_4 
REMARK    3  A    between atoms: C1'_4  and  C1_5 
ROOT
ATOM      1  C1  N4B d   1      -0.086  -0.185   0.359  0.00  0.00    -0.075 A 
ATOM      2  C2  N4B d   1      -0.665   0.640   1.348  0.00  0.00     0.002 A 
ATOM      3  C3  N4B d   1      -0.089   1.848   1.658  0.00  0.00     0.002 A 
ATOM      4  C4  N4B d   1       1.071   2.241   1.007  0.00  0.00    -0.004 A 
ATOM      5  C5  N4B d   1       1.609   1.450   0.034  0.00  0.00     0.002 A 
ATOM      6  C6  N4B d   1       1.039   0.236  -0.290  0.00  0.00     0.002 A 
ENDROOT
BRANCH   1   7
ATOM      7  C1' N4B d   1      -0.631  -1.552   0.047  0.00  0.00     0.057 C 
BRANCH   7   8
ATOM      8  C2' N4B d   1      -0.366  -2.479   1.230  0.00  0.00     0.009 C 
BRANCH   8   9
ATOM      9  C3' N4B d   1      -1.653  -3.021   1.827  0.00  0.00     0.004 C 
ATOM     10  C4' N4B d   1      -1.847  -2.615   3.257  0.00  0.00     0.003 C 
ENDBRANCH   8   9
ENDBRANCH   7   8
ENDBRANCH   1   7
TORSDOF 3
ENDMDL
