MODEL 1
REMARK minimizedAffinity -2.85205698
REMARK minimizedRMSD -1
REMARK  3 active torsions:
REMARK  status: ('A' for Active; 'I' for Inactive)
REMARK    1  A    between atoms: C3'_2  and  C2'_3 
REMARK    2  A    between atoms: C2'_3  and  C1'_4 
REMARK    3  A    between atoms: C1'_4  and  C1_5 
ROOT
ATOM      1  C1  N4B d   1       0.079   0.291   0.142  0.00  0.00    -0.075 A 
ATOM      2  C2  N4B d   1      -0.086   0.465   1.534  0.00  0.00     0.002 A 
ATOM      3  C3  N4B d   1       0.209   1.674   2.114  0.00  0.00     0.002 A 
ATOM      4  C4  N4B d   1       0.688   2.713   1.329  0.00  0.00    -0.004 A 
ATOM      5  C5  N4B d   1       0.820   2.544  -0.018  0.00  0.00     0.002 A 
ATOM      6  C6  N4B d   1       0.523   1.336  -0.615  0.00  0.00     0.002 A 
ENDROOT
BRANCH   1   7
ATOM      7  C1' N4B d   1      -0.150  -1.039  -0.524  0.00  0.00     0.057 C 
BRANCH   7   8
ATOM      8  C2' N4B d   1      -0.967  -0.828  -1.795  0.00  0.00     0.009 C 
BRANCH   8   9
ATOM      9  C3' N4B d   1      -2.103  -1.830  -1.913  0.00  0.00     0.004 C 
ATOM     10  C4' N4B d   1      -3.034  -1.522  -3.048  0.00  0.00     0.003 C 
ENDBRANCH   8   9
ENDBRANCH   7   8
ENDBRANCH   1   7
TORSDOF 3
ENDMDL
