MODEL 1
REMARK minimizedAffinity -5.936028
REMARK minimizedRMSD -1
REMARK  3 active torsions:
REMARK  status: ('A' for Active; 'I' for Inactive)
REMARK    1  A    between atoms: C3'_2  and  C2'_3 
REMARK    2  A    between atoms: C2'_3  and  C1'_4 
REMARK    3  A    between atoms: C1'_4  and  C1_5 
ROOT
ATOM      1  C1  N4B d   1       1.068   0.247  -0.154  0.00  0.00    -0.075 A 
ATOM      2  C2  N4B d   1       0.210   0.963   0.710  0.00  0.00     0.002 A 
ATOM      3  C3  N4B d   1       0.659   2.098   1.338  0.00  0.00     0.002 A 
ATOM      4  C4  N4B d   1       1.963   2.525   1.134  0.00  0.00    -0.004 A 
ATOM      5  C5  N4B d   1       2.777   1.842   0.278  0.00  0.00     0.002 A 
ATOM      6  C6  N4B d   1       2.337   0.702  -0.363  0.00  0.00     0.002 A 
ENDROOT
BRANCH   1   7
ATOM      7  C1' N4B d   1       0.648  -1.047  -0.796  0.00  0.00     0.057 C 
BRANCH   7   8
ATOM      8  C2' N4B d   1      -0.856  -1.015  -1.051  0.00  0.00     0.009 C 
BRANCH   8   9
ATOM      9  C3' N4B d   1      -1.183  -1.093  -2.533  0.00  0.00     0.004 C 
ATOM     10  C4' N4B d   1      -2.638  -1.343  -2.794  0.00  0.00     0.003 C 
ENDBRANCH   8   9
ENDBRANCH   7   8
ENDBRANCH   1   7
TORSDOF 3
ENDMDL
