MODEL 1
REMARK minimizedAffinity -6.05056047
REMARK minimizedRMSD -1
REMARK  3 active torsions:
REMARK  status: ('A' for Active; 'I' for Inactive)
REMARK    1  A    between atoms: C3'_2  and  C2'_3 
REMARK    2  A    between atoms: C2'_3  and  C1'_4 
REMARK    3  A    between atoms: C1'_4  and  C1_5 
ROOT
ATOM      1  C1  N4B d   1       0.340   0.002   0.024  0.00  0.00    -0.075 A 
ATOM      2  C2  N4B d   1       1.379   0.817  -0.478  0.00  0.00     0.002 A 
ATOM      3  C3  N4B d   1       1.636   2.035   0.101  0.00  0.00     0.002 A 
ATOM      4  C4  N4B d   1       0.859   2.467   1.166  0.00  0.00    -0.004 A 
ATOM      5  C5  N4B d   1      -0.126   1.663   1.660  0.00  0.00     0.002 A 
ATOM      6  C6  N4B d   1      -0.394   0.434   1.091  0.00  0.00     0.002 A 
ENDROOT
BRANCH   1   7
ATOM      7  C1' N4B d   1      -0.035  -1.299  -0.631  0.00  0.00     0.057 C 
BRANCH   7   8
ATOM      8  C2' N4B d   1      -0.651  -1.014  -1.997  0.00  0.00     0.009 C 
BRANCH   8   9
ATOM      9  C3' N4B d   1      -1.709  -2.039  -2.369  0.00  0.00     0.004 C 
ATOM     10  C4' N4B d   1      -2.874  -1.434  -3.094  0.00  0.00     0.003 C 
ENDBRANCH   8   9
ENDBRANCH   7   8
ENDBRANCH   1   7
TORSDOF 3
ENDMDL
