MODEL 1
REMARK minimizedAffinity -3.37951493
REMARK minimizedRMSD -1
REMARK  3 active torsions:
REMARK  status: ('A' for Active; 'I' for Inactive)
REMARK    1  A    between atoms: C3'_2  and  C2'_3 
REMARK    2  A    between atoms: C2'_3  and  C1'_4 
REMARK    3  A    between atoms: C1'_4  and  C1_5 
ROOT
ATOM      1  C1  N4B d   1      -1.236  -2.103  -1.002  0.00  0.00    -0.075 A 
ATOM      2  C2  N4B d   1      -2.418  -2.760  -1.410  0.00  0.00     0.002 A 
ATOM      3  C3  N4B d   1      -2.908  -2.567  -2.678  0.00  0.00     0.002 A 
ATOM      4  C4  N4B d   1      -2.247  -1.710  -3.546  0.00  0.00    -0.004 A 
ATOM      5  C5  N4B d   1      -1.092  -1.100  -3.153  0.00  0.00     0.002 A 
ATOM      6  C6  N4B d   1      -0.586  -1.288  -1.883  0.00  0.00     0.002 A 
ENDROOT
BRANCH   1   7
ATOM      7  C1' N4B d   1      -0.709  -2.216   0.402  0.00  0.00     0.057 C 
BRANCH   7   8
ATOM      8  C2' N4B d   1      -1.114  -3.568   0.982  0.00  0.00     0.009 C 
BRANCH   8   9
ATOM      9  C3' N4B d   1      -0.991  -3.597   2.495  0.00  0.00     0.004 C 
ATOM     10  C4' N4B d   1      -2.064  -2.805   3.181  0.00  0.00     0.003 C 
ENDBRANCH   8   9
ENDBRANCH   7   8
ENDBRANCH   1   7
TORSDOF 3
ENDMDL
