MODEL 1
REMARK minimizedAffinity -3.5911808
REMARK minimizedRMSD -1
REMARK  3 active torsions:
REMARK  status: ('A' for Active; 'I' for Inactive)
REMARK    1  A    between atoms: C3'_2  and  C2'_3 
REMARK    2  A    between atoms: C2'_3  and  C1'_4 
REMARK    3  A    between atoms: C1'_4  and  C1_5 
ROOT
ATOM      1  C1  N4B d   1       0.003  -0.981  -0.141  0.00  0.00    -0.075 A 
ATOM      2  C2  N4B d   1      -0.307   0.270   0.437  0.00  0.00     0.002 A 
ATOM      3  C3  N4B d   1       0.596   1.302   0.364  0.00  0.00     0.002 A 
ATOM      4  C4  N4B d   1       1.817   1.103  -0.263  0.00  0.00    -0.004 A 
ATOM      5  C5  N4B d   1       2.098  -0.101  -0.841  0.00  0.00     0.002 A 
ATOM      6  C6  N4B d   1       1.199  -1.146  -0.779  0.00  0.00     0.002 A 
ENDROOT
BRANCH   1   7
ATOM      7  C1' N4B d   1      -0.916  -2.165  -0.013  0.00  0.00     0.057 C 
BRANCH   7   8
ATOM      8  C2' N4B d   1      -0.266  -3.207   0.893  0.00  0.00     0.009 C 
BRANCH   8   9
ATOM      9  C3' N4B d   1      -1.239  -3.747   1.926  0.00  0.00     0.004 C 
ATOM     10  C4' N4B d   1      -1.283  -2.916   3.174  0.00  0.00     0.003 C 
ENDBRANCH   8   9
ENDBRANCH   7   8
ENDBRANCH   1   7
TORSDOF 3
ENDMDL
