MODEL 1
REMARK minimizedAffinity -1.68060231
REMARK minimizedRMSD -1
REMARK  0 active torsions:
REMARK  status: ('A' for Active; 'I' for Inactive)
ROOT
ATOM      1  C   UNL d   1       5.865  -3.255   5.978  0.00  0.00     0.023 A 
ATOM      2  C1  UNL d   1       4.949  -2.653   5.115  0.00  0.00     0.003 A 
ATOM      3  C2  UNL d   1       4.161  -3.440   4.272  0.00  0.00     0.048 A 
ATOM      4  C3  UNL d   1       4.294  -4.827   4.297  0.00  0.00     0.023 A 
ATOM      5  C4  UNL d   1       5.209  -5.434   5.159  0.00  0.00     0.048 A 
ATOM      6  C5  UNL d   1       5.995  -4.644   6.000  0.00  0.00     0.003 A 
ATOM      7  I   UNL d   1       3.123  -6.000   3.043  0.00  0.00    -0.146 I 
ENDROOT
TORSDOF 0
ENDMDL
