MODEL 1
REMARK minimizedAffinity 9.68825912
REMARK minimizedRMSD -1
REMARK  0 active torsions:
REMARK  status: ('A' for Active; 'I' for Inactive)
ROOT
ATOM      1  C   UNL d   1      -2.072   5.488   6.000  0.00  0.00     0.023 A 
ATOM      2  C1  UNL d   1      -3.360   6.000   5.844  0.00  0.00     0.003 A 
ATOM      3  C2  UNL d   1      -4.145   5.600   4.761  0.00  0.00     0.048 A 
ATOM      4  C3  UNL d   1      -3.636   4.688   3.837  0.00  0.00     0.023 A 
ATOM      5  C4  UNL d   1      -2.348   4.172   3.989  0.00  0.00     0.048 A 
ATOM      6  C5  UNL d   1      -1.566   4.576   5.074  0.00  0.00     0.003 A 
ATOM      7  I   UNL d   1      -4.803   4.091   2.224  0.00  0.00    -0.146 I 
ENDROOT
TORSDOF 0
ENDMDL
