MODEL 1
REMARK minimizedAffinity 0.749033868
REMARK minimizedRMSD -1
REMARK  0 active torsions:
REMARK  status: ('A' for Active; 'I' for Inactive)
ROOT
ATOM      1  C   UNL d   1       4.207   5.229  -1.181  0.00  0.00     0.023 A 
ATOM      2  C1  UNL d   1       5.516   4.872  -0.859  0.00  0.00     0.003 A 
ATOM      3  C2  UNL d   1       5.999   5.078   0.435  0.00  0.00     0.048 A 
ATOM      4  C3  UNL d   1       5.166   5.642   1.402  0.00  0.00     0.023 A 
ATOM      5  C4  UNL d   1       3.855   6.000   1.084  0.00  0.00     0.048 A 
ATOM      6  C5  UNL d   1       3.378   5.793  -0.211  0.00  0.00     0.003 A 
ATOM      7  I   UNL d   1       5.883   5.949   3.329  0.00  0.00    -0.146 I 
ENDROOT
TORSDOF 0
ENDMDL
