MODEL 1
REMARK minimizedAffinity 21.6959972
REMARK minimizedRMSD -1
REMARK  0 active torsions:
REMARK  status: ('A' for Active; 'I' for Inactive)
ROOT
ATOM      1  C   UNL d   1      -2.643   5.873   5.925  0.00  0.00     0.023 A 
ATOM      2  C1  UNL d   1      -3.549   5.833   4.866  0.00  0.00     0.003 A 
ATOM      3  C2  UNL d   1      -3.087   5.866   3.548  0.00  0.00     0.048 A 
ATOM      4  C3  UNL d   1      -1.717   5.937   3.298  0.00  0.00     0.023 A 
ATOM      5  C4  UNL d   1      -0.806   5.977   4.356  0.00  0.00     0.048 A 
ATOM      6  C5  UNL d   1      -1.273   5.945   5.671  0.00  0.00     0.003 A 
ATOM      7  I   UNL d   1      -1.026   5.986   1.339  0.00  0.00    -0.146 I 
ENDROOT
TORSDOF 0
ENDMDL
