MODEL 1
REMARK minimizedAffinity 10.107852
REMARK minimizedRMSD -1
REMARK  0 active torsions:
REMARK  status: ('A' for Active; 'I' for Inactive)
ROOT
ATOM      1  C   UNL d   1      -2.297   4.458   1.399  0.00  0.00     0.023 A 
ATOM      2  C1  UNL d   1      -2.818   3.712   2.456  0.00  0.00     0.003 A 
ATOM      3  C2  UNL d   1      -2.581   4.106   3.775  0.00  0.00     0.048 A 
ATOM      4  C3  UNL d   1      -1.823   5.248   4.029  0.00  0.00     0.023 A 
ATOM      5  C4  UNL d   1      -1.300   5.999   2.975  0.00  0.00     0.048 A 
ATOM      6  C5  UNL d   1      -1.539   5.600   1.658  0.00  0.00     0.003 A 
ATOM      7  I   UNL d   1      -1.468   5.837   5.991  0.00  0.00    -0.146 I 
ENDROOT
TORSDOF 0
ENDMDL
