MODEL 1
REMARK minimizedAffinity 8.54081535
REMARK minimizedRMSD -1
REMARK  0 active torsions:
REMARK  status: ('A' for Active; 'I' for Inactive)
ROOT
ATOM      1  C   UNL d   1      -3.726   1.187   2.543  0.00  0.00     0.023 A 
ATOM      2  C1  UNL d   1      -2.693   1.277   3.477  0.00  0.00     0.003 A 
ATOM      3  C2  UNL d   1      -2.433   2.491   4.117  0.00  0.00     0.048 A 
ATOM      4  C3  UNL d   1      -3.211   3.609   3.821  0.00  0.00     0.023 A 
ATOM      5  C4  UNL d   1      -4.246   3.524   2.888  0.00  0.00     0.048 A 
ATOM      6  C5  UNL d   1      -4.501   2.309   2.249  0.00  0.00     0.003 A 
ATOM      7  I   UNL d   1      -2.826   5.416   4.774  0.00  0.00    -0.146 I 
ENDROOT
TORSDOF 0
ENDMDL
