MODEL 1
REMARK minimizedAffinity 7.72741413
REMARK minimizedRMSD -1
REMARK  0 active torsions:
REMARK  status: ('A' for Active; 'I' for Inactive)
ROOT
ATOM      1  C   UNL d   1      -2.612   1.802   1.747  0.00  0.00     0.023 A 
ATOM      2  C1  UNL d   1      -1.867   1.882   2.924  0.00  0.00     0.003 A 
ATOM      3  C2  UNL d   1      -1.994   2.995   3.757  0.00  0.00     0.048 A 
ATOM      4  C3  UNL d   1      -2.869   4.024   3.409  0.00  0.00     0.023 A 
ATOM      5  C4  UNL d   1      -3.617   3.947   2.233  0.00  0.00     0.048 A 
ATOM      6  C5  UNL d   1      -3.486   2.833   1.402  0.00  0.00     0.003 A 
ATOM      7  I   UNL d   1      -3.060   5.682   4.648  0.00  0.00    -0.146 I 
ENDROOT
TORSDOF 0
ENDMDL
