MODEL 1
REMARK minimizedAffinity 2.21372962
REMARK minimizedRMSD -1
REMARK  0 active torsions:
REMARK  status: ('A' for Active; 'I' for Inactive)
ROOT
ATOM      1  C   UNL d   1       3.097   0.824  -1.685  0.00  0.00     0.023 A 
ATOM      2  C1  UNL d   1       1.807   0.363  -1.948  0.00  0.00     0.003 A 
ATOM      3  C2  UNL d   1       1.148   0.755  -3.115  0.00  0.00     0.048 A 
ATOM      4  C3  UNL d   1       1.787   1.607  -4.016  0.00  0.00     0.023 A 
ATOM      5  C4  UNL d   1       3.078   2.069  -3.758  0.00  0.00     0.048 A 
ATOM      6  C5  UNL d   1       3.732   1.676  -2.589  0.00  0.00     0.003 A 
ATOM      7  I   UNL d   1       0.809   2.191  -5.755  0.00  0.00    -0.146 I 
ENDROOT
TORSDOF 0
ENDMDL
