MODEL 1
REMARK minimizedAffinity 12.1289034
REMARK minimizedRMSD -1
REMARK  0 active torsions:
REMARK  status: ('A' for Active; 'I' for Inactive)
ROOT
ATOM      1  C   UNL d   1       3.596   4.201   0.744  0.00  0.00     0.023 A 
ATOM      2  C1  UNL d   1       3.269   5.496   1.146  0.00  0.00     0.003 A 
ATOM      3  C2  UNL d   1       3.757   5.997   2.355  0.00  0.00     0.048 A 
ATOM      4  C3  UNL d   1       4.572   5.198   3.156  0.00  0.00     0.023 A 
ATOM      5  C4  UNL d   1       4.902   3.901   2.756  0.00  0.00     0.048 A 
ATOM      6  C5  UNL d   1       4.411   3.405   1.548  0.00  0.00     0.003 A 
ATOM      7  I   UNL d   1       5.300   5.941   4.955  0.00  0.00    -0.146 I 
ENDROOT
TORSDOF 0
ENDMDL
