MODEL 1
REMARK minimizedAffinity 10.6310606
REMARK minimizedRMSD -1
REMARK  0 active torsions:
REMARK  status: ('A' for Active; 'I' for Inactive)
ROOT
ATOM      1  C   UNL d   1       1.004  -2.607  -1.629  0.00  0.00     0.023 A 
ATOM      2  C1  UNL d   1       1.887  -1.548  -1.837  0.00  0.00     0.003 A 
ATOM      3  C2  UNL d   1       1.398  -0.251  -2.002  0.00  0.00     0.048 A 
ATOM      4  C3  UNL d   1       0.023  -0.019  -1.955  0.00  0.00     0.023 A 
ATOM      5  C4  UNL d   1      -0.864  -1.076  -1.746  0.00  0.00     0.048 A 
ATOM      6  C5  UNL d   1      -0.370  -2.372  -1.584  0.00  0.00     0.003 A 
ATOM      7  I   UNL d   1      -0.708   1.911  -2.199  0.00  0.00    -0.146 I 
ENDROOT
TORSDOF 0
ENDMDL
