MODEL 1
REMARK minimizedAffinity 11.6675653
REMARK minimizedRMSD -1
REMARK  0 active torsions:
REMARK  status: ('A' for Active; 'I' for Inactive)
ROOT
ATOM      1  C   UNL d   1       5.981   4.550   3.614  0.00  0.00     0.023 A 
ATOM      2  C1  UNL d   1       5.148   5.581   4.051  0.00  0.00     0.003 A 
ATOM      3  C2  UNL d   1       4.077   5.998   3.258  0.00  0.00     0.048 A 
ATOM      4  C3  UNL d   1       3.844   5.379   2.030  0.00  0.00     0.023 A 
ATOM      5  C4  UNL d   1       4.674   4.347   1.590  0.00  0.00     0.048 A 
ATOM      6  C5  UNL d   1       5.744   3.934   2.386  0.00  0.00     0.003 A 
ATOM      7  I   UNL d   1       2.250   5.998   0.848  0.00  0.00    -0.146 I 
ENDROOT
TORSDOF 0
ENDMDL
