MODEL 1
REMARK minimizedAffinity 5.2159915
REMARK minimizedRMSD -1
REMARK  0 active torsions:
REMARK  status: ('A' for Active; 'I' for Inactive)
ROOT
ATOM      1  C   UNL d   1      -5.470  -0.723  -0.828  0.00  0.00     0.023 A 
ATOM      2  C1  UNL d   1      -6.000  -0.851   0.457  0.00  0.00     0.003 A 
ATOM      3  C2  UNL d   1      -5.193  -0.616   1.572  0.00  0.00     0.048 A 
ATOM      4  C3  UNL d   1      -3.859  -0.252   1.396  0.00  0.00     0.023 A 
ATOM      5  C4  UNL d   1      -3.325  -0.122   0.113  0.00  0.00     0.048 A 
ATOM      6  C5  UNL d   1      -4.135  -0.359  -0.999  0.00  0.00     0.003 A 
ATOM      7  I   UNL d   1      -2.657   0.099   3.055  0.00  0.00    -0.146 I 
ENDROOT
TORSDOF 0
ENDMDL
