MODEL 1
REMARK minimizedAffinity 14.4951239
REMARK minimizedRMSD -1
REMARK  0 active torsions:
REMARK  status: ('A' for Active; 'I' for Inactive)
ROOT
ATOM      1  C   UNL d   1      -3.233  -0.559   4.305  0.00  0.00     0.023 A 
ATOM      2  C1  UNL d   1      -2.758   0.348   3.358  0.00  0.00     0.003 A 
ATOM      3  C2  UNL d   1      -2.542   1.681   3.713  0.00  0.00     0.048 A 
ATOM      4  C3  UNL d   1      -2.802   2.100   5.018  0.00  0.00     0.023 A 
ATOM      5  C4  UNL d   1      -3.276   1.195   5.969  0.00  0.00     0.048 A 
ATOM      6  C5  UNL d   1      -3.492  -0.136   5.609  0.00  0.00     0.003 A 
ATOM      7  I   UNL d   1      -2.481   4.084   5.549  0.00  0.00    -0.146 I 
ENDROOT
TORSDOF 0
ENDMDL
