MODEL 1
REMARK minimizedAffinity 9.27700901
REMARK minimizedRMSD -1
REMARK  0 active torsions:
REMARK  status: ('A' for Active; 'I' for Inactive)
ROOT
ATOM      1  C   UNL d   1      -1.402   1.111   2.954  0.00  0.00     0.023 A 
ATOM      2  C1  UNL d   1      -1.800  -0.177   2.597  0.00  0.00     0.003 A 
ATOM      3  C2  UNL d   1      -3.119  -0.420   2.210  0.00  0.00     0.048 A 
ATOM      4  C3  UNL d   1      -4.036   0.630   2.180  0.00  0.00     0.023 A 
ATOM      5  C4  UNL d   1      -3.642   1.922   2.536  0.00  0.00     0.048 A 
ATOM      6  C5  UNL d   1      -2.322   2.159   2.923  0.00  0.00     0.003 A 
ATOM      7  I   UNL d   1      -6.000   0.272   1.604  0.00  0.00    -0.146 I 
ENDROOT
TORSDOF 0
ENDMDL
