MODEL 1
REMARK minimizedAffinity -0.579538822
REMARK minimizedRMSD -1
REMARK  0 active torsions:
REMARK  status: ('A' for Active; 'I' for Inactive)
ROOT
ATOM      1  C   UNL d   1      -5.701  -1.499  -0.498  0.00  0.00     0.023 A 
ATOM      2  C1  UNL d   1      -6.000  -0.957   0.752  0.00  0.00     0.003 A 
ATOM      3  C2  UNL d   1      -4.982  -0.425   1.546  0.00  0.00     0.048 A 
ATOM      4  C3  UNL d   1      -3.666  -0.437   1.083  0.00  0.00     0.023 A 
ATOM      5  C4  UNL d   1      -3.362  -0.978  -0.167  0.00  0.00     0.048 A 
ATOM      6  C5  UNL d   1      -4.383  -1.509  -0.957  0.00  0.00     0.003 A 
ATOM      7  I   UNL d   1      -2.149   0.354   2.263  0.00  0.00    -0.146 I 
ENDROOT
TORSDOF 0
ENDMDL
