MODEL 1
REMARK minimizedAffinity 7.82255793
REMARK minimizedRMSD -1
REMARK  0 active torsions:
REMARK  status: ('A' for Active; 'I' for Inactive)
ROOT
ATOM      1  C   UNL d   1      -5.737  -0.538   5.032  0.00  0.00     0.023 A 
ATOM      2  C1  UNL d   1      -5.892  -0.399   3.653  0.00  0.00     0.003 A 
ATOM      3  C2  UNL d   1      -4.785  -0.116   2.850  0.00  0.00     0.048 A 
ATOM      4  C3  UNL d   1      -3.526   0.026   3.432  0.00  0.00     0.023 A 
ATOM      5  C4  UNL d   1      -3.366  -0.113   4.812  0.00  0.00     0.048 A 
ATOM      6  C5  UNL d   1      -4.476  -0.395   5.611  0.00  0.00     0.003 A 
ATOM      7  I   UNL d   1      -1.877   0.448   2.239  0.00  0.00    -0.146 I 
ENDROOT
TORSDOF 0
ENDMDL
