MODEL 1
REMARK minimizedAffinity 10.1696033
REMARK minimizedRMSD -1
REMARK  0 active torsions:
REMARK  status: ('A' for Active; 'I' for Inactive)
ROOT
ATOM      1  C   UNL d   1       2.089   1.511  -1.118  0.00  0.00     0.023 A 
ATOM      2  C1  UNL d   1       2.986   2.489  -0.687  0.00  0.00     0.003 A 
ATOM      3  C2  UNL d   1       2.927   3.777  -1.222  0.00  0.00     0.048 A 
ATOM      4  C3  UNL d   1       1.967   4.082  -2.186  0.00  0.00     0.023 A 
ATOM      5  C4  UNL d   1       1.066   3.108  -2.620  0.00  0.00     0.048 A 
ATOM      6  C5  UNL d   1       1.131   1.820  -2.083  0.00  0.00     0.003 A 
ATOM      7  I   UNL d   1       1.876   6.000  -2.983  0.00  0.00    -0.146 I 
ENDROOT
TORSDOF 0
ENDMDL
