MODEL 1
REMARK minimizedAffinity -2.95259213
REMARK minimizedRMSD -1
REMARK  0 active torsions:
REMARK  status: ('A' for Active; 'I' for Inactive)
ROOT
ATOM      1  O1  BZF d   1       3.515   2.646  -4.885  0.00  0.00    -0.204 OA
ATOM      2  C2  BZF d   1       4.783   3.010  -5.294  0.00  0.00     0.174 A 
ATOM      3  C3  BZF d   1       4.775   4.245  -5.835  0.00  0.00    -0.012 A 
ATOM      4  C3A BZF d   1       3.434   4.717  -5.675  0.00  0.00    -0.107 A 
ATOM      5  C4  BZF d   1       2.804   5.885  -6.000  0.00  0.00     0.055 A 
ATOM      6  C5  BZF d   1       1.469   6.000  -5.774  0.00  0.00    -0.016 A 
ATOM      7  C6  BZF d   1       0.732   4.967  -5.232  0.00  0.00     0.022 A 
ATOM      8  C7  BZF d   1       1.314   3.792  -4.889  0.00  0.00     0.029 A 
ATOM      9  C7A BZF d   1       2.669   3.684  -5.085  0.00  0.00     0.058 A 
ENDROOT
TORSDOF 0
ENDMDL
