MODEL 1
REMARK minimizedAffinity 1.98915195
REMARK minimizedRMSD -1
REMARK  0 active torsions:
REMARK  status: ('A' for Active; 'I' for Inactive)
ROOT
ATOM      1  O1  BZF d   1       4.639   5.497  -5.867  0.00  0.00    -0.204 OA
ATOM      2  C2  BZF d   1       5.943   5.061  -6.000  0.00  0.00     0.174 A 
ATOM      3  C3  BZF d   1       5.999   3.713  -5.996  0.00  0.00    -0.012 A 
ATOM      4  C3A BZF d   1       4.637   3.279  -5.944  0.00  0.00    -0.107 A 
ATOM      5  C4  BZF d   1       4.043   2.050  -5.931  0.00  0.00     0.055 A 
ATOM      6  C5  BZF d   1       2.693   1.970  -5.802  0.00  0.00    -0.016 A 
ATOM      7  C6  BZF d   1       1.907   3.097  -5.678  0.00  0.00     0.022 A 
ATOM      8  C7  BZF d   1       2.450   4.339  -5.690  0.00  0.00     0.029 A 
ATOM      9  C7A BZF d   1       3.812   4.424  -5.854  0.00  0.00     0.058 A 
ENDROOT
TORSDOF 0
ENDMDL
