MODEL 1
REMARK minimizedAffinity -2.39168048
REMARK minimizedRMSD -1
REMARK  0 active torsions:
REMARK  status: ('A' for Active; 'I' for Inactive)
ROOT
ATOM      1  O1  BZF d   1       1.074   3.743  -5.958  0.00  0.00    -0.204 OA
ATOM      2  C2  BZF d   1       0.362   4.926  -5.955  0.00  0.00     0.174 A 
ATOM      3  C3  BZF d   1       1.195   5.986  -5.915  0.00  0.00    -0.012 A 
ATOM      4  C3A BZF d   1       2.512   5.432  -5.984  0.00  0.00    -0.107 A 
ATOM      5  C4  BZF d   1       3.763   5.981  -5.999  0.00  0.00     0.055 A 
ATOM      6  C5  BZF d   1       4.845   5.159  -5.998  0.00  0.00    -0.016 A 
ATOM      7  C6  BZF d   1       4.714   3.786  -5.977  0.00  0.00     0.022 A 
ATOM      8  C7  BZF d   1       3.495   3.195  -5.966  0.00  0.00     0.029 A 
ATOM      9  C7A BZF d   1       2.399   4.022  -6.000  0.00  0.00     0.058 A 
ENDROOT
TORSDOF 0
ENDMDL
