MODEL 1
REMARK minimizedAffinity -1.31861711
REMARK minimizedRMSD -1
REMARK  0 active torsions:
REMARK  status: ('A' for Active; 'I' for Inactive)
ROOT
ATOM      1  O1  BZF d   1       3.961   3.352   1.569  0.00  0.00    -0.204 OA
ATOM      2  C2  BZF d   1       5.190   3.856   1.947  0.00  0.00     0.174 A 
ATOM      3  C3  BZF d   1       5.996   2.870   2.392  0.00  0.00    -0.012 A 
ATOM      4  C3A BZF d   1       5.254   1.662   2.198  0.00  0.00    -0.107 A 
ATOM      5  C4  BZF d   1       5.526   0.345   2.433  0.00  0.00     0.055 A 
ATOM      6  C5  BZF d   1       4.559  -0.581   2.201  0.00  0.00    -0.016 A 
ATOM      7  C6  BZF d   1       3.309  -0.225   1.739  0.00  0.00     0.022 A 
ATOM      8  C7  BZF d   1       2.993   1.068   1.487  0.00  0.00     0.029 A 
ATOM      9  C7A BZF d   1       3.979   2.003   1.689  0.00  0.00     0.058 A 
ENDROOT
TORSDOF 0
ENDMDL
