MODEL 1
REMARK minimizedAffinity -2.96965718
REMARK minimizedRMSD -1
REMARK  0 active torsions:
REMARK  status: ('A' for Active; 'I' for Inactive)
ROOT
ATOM      1  O1  BZF d   1       0.751   3.924  -5.909  0.00  0.00    -0.204 OA
ATOM      2  C2  BZF d   1       0.482   5.276  -5.989  0.00  0.00     0.174 A 
ATOM      3  C3  BZF d   1       1.621   5.995  -5.939  0.00  0.00    -0.012 A 
ATOM      4  C3A BZF d   1       2.676   5.028  -5.913  0.00  0.00    -0.107 A 
ATOM      5  C4  BZF d   1       4.037   5.125  -5.877  0.00  0.00     0.055 A 
ATOM      6  C5  BZF d   1       4.778   3.989  -5.785  0.00  0.00    -0.016 A 
ATOM      7  C6  BZF d   1       4.190   2.743  -5.721  0.00  0.00     0.022 A 
ATOM      8  C7  BZF d   1       2.843   2.596  -5.758  0.00  0.00     0.029 A 
ATOM      9  C7A BZF d   1       2.093   3.740  -5.885  0.00  0.00     0.058 A 
ENDROOT
TORSDOF 0
ENDMDL
