MODEL 1
REMARK minimizedAffinity -2.96696496
REMARK minimizedRMSD -1
REMARK  0 active torsions:
REMARK  status: ('A' for Active; 'I' for Inactive)
ROOT
ATOM      1  O1  BZF d   1       1.064   3.919  -5.956  0.00  0.00    -0.204 OA
ATOM      2  C2  BZF d   1       0.777   5.271  -5.946  0.00  0.00     0.174 A 
ATOM      3  C3  BZF d   1       1.911   6.000  -5.902  0.00  0.00    -0.012 A 
ATOM      4  C3A BZF d   1       2.975   5.046  -5.978  0.00  0.00    -0.107 A 
ATOM      5  C4  BZF d   1       4.336   5.157  -5.994  0.00  0.00     0.055 A 
ATOM      6  C5  BZF d   1       5.091   4.027  -6.000  0.00  0.00    -0.016 A 
ATOM      7  C6  BZF d   1       4.519   2.772  -5.984  0.00  0.00     0.022 A 
ATOM      8  C7  BZF d   1       3.173   2.611  -5.972  0.00  0.00     0.029 A 
ATOM      9  C7A BZF d   1       2.407   3.751  -6.000  0.00  0.00     0.058 A 
ENDROOT
TORSDOF 0
ENDMDL
