MODEL 1
REMARK minimizedAffinity 0.0624081753
REMARK minimizedRMSD -1
REMARK  0 active torsions:
REMARK  status: ('A' for Active; 'I' for Inactive)
ROOT
ATOM      1  O1  BZF d   1       2.133   5.668  -5.988  0.00  0.00    -0.204 OA
ATOM      2  C2  BZF d   1       0.924   5.066  -5.700  0.00  0.00     0.174 A 
ATOM      3  C3  BZF d   1       1.097   3.763  -5.396  0.00  0.00    -0.012 A 
ATOM      4  C3A BZF d   1       2.513   3.559  -5.412  0.00  0.00    -0.107 A 
ATOM      5  C4  BZF d   1       3.308   2.474  -5.174  0.00  0.00     0.055 A 
ATOM      6  C5  BZF d   1       4.651   2.589  -5.344  0.00  0.00    -0.016 A 
ATOM      7  C6  BZF d   1       5.232   3.771  -5.756  0.00  0.00     0.022 A 
ATOM      8  C7  BZF d   1       4.486   4.875  -6.000  0.00  0.00     0.029 A 
ATOM      9  C7A BZF d   1       3.131   4.771  -5.797  0.00  0.00     0.058 A 
ENDROOT
TORSDOF 0
ENDMDL
