MODEL 1
REMARK minimizedAffinity -1.97270513
REMARK minimizedRMSD -1
REMARK  0 active torsions:
REMARK  status: ('A' for Active; 'I' for Inactive)
ROOT
ATOM      1  O1  BZF d   1       1.377   3.827  -5.615  0.00  0.00    -0.204 OA
ATOM      2  C2  BZF d   1       0.858   5.083  -5.863  0.00  0.00     0.174 A 
ATOM      3  C3  BZF d   1       1.847   5.990  -6.000  0.00  0.00    -0.012 A 
ATOM      4  C3A BZF d   1       3.061   5.238  -5.918  0.00  0.00    -0.107 A 
ATOM      5  C4  BZF d   1       4.382   5.576  -5.999  0.00  0.00     0.055 A 
ATOM      6  C5  BZF d   1       5.323   4.615  -5.805  0.00  0.00    -0.016 A 
ATOM      7  C6  BZF d   1       4.980   3.309  -5.524  0.00  0.00     0.022 A 
ATOM      8  C7  BZF d   1       3.683   2.925  -5.439  0.00  0.00     0.029 A 
ATOM      9  C7A BZF d   1       2.729   3.887  -5.667  0.00  0.00     0.058 A 
ENDROOT
TORSDOF 0
ENDMDL
