MODEL 1
REMARK minimizedAffinity -3.32170534
REMARK minimizedRMSD -1
REMARK  0 active torsions:
REMARK  status: ('A' for Active; 'I' for Inactive)
ROOT
ATOM      1  O1  BZF d   1       1.502   3.748  -5.945  0.00  0.00    -0.204 OA
ATOM      2  C2  BZF d   1       0.915   4.998  -5.917  0.00  0.00     0.174 A 
ATOM      3  C3  BZF d   1       1.852   5.966  -5.867  0.00  0.00    -0.012 A 
ATOM      4  C3A BZF d   1       3.105   5.281  -5.958  0.00  0.00    -0.107 A 
ATOM      5  C4  BZF d   1       4.405   5.700  -5.977  0.00  0.00     0.055 A 
ATOM      6  C5  BZF d   1       5.398   4.772  -6.000  0.00  0.00    -0.016 A 
ATOM      7  C6  BZF d   1       5.127   3.419  -5.998  0.00  0.00     0.022 A 
ATOM      8  C7  BZF d   1       3.854   2.956  -5.985  0.00  0.00     0.029 A 
ATOM      9  C7A BZF d   1       2.848   3.891  -5.995  0.00  0.00     0.058 A 
ENDROOT
TORSDOF 0
ENDMDL
