MODEL 1
REMARK minimizedAffinity -1.500103
REMARK minimizedRMSD -1
REMARK  0 active torsions:
REMARK  status: ('A' for Active; 'I' for Inactive)
ROOT
ATOM      1  O1  BZF d   1       2.148   5.530  -5.926  0.00  0.00    -0.204 OA
ATOM      2  C2  BZF d   1       1.092   4.640  -5.926  0.00  0.00     0.174 A 
ATOM      3  C3  BZF d   1       1.536   3.369  -6.000  0.00  0.00    -0.012 A 
ATOM      4  C3A BZF d   1       2.963   3.466  -5.957  0.00  0.00    -0.107 A 
ATOM      5  C4  BZF d   1       3.968   2.542  -5.979  0.00  0.00     0.055 A 
ATOM      6  C5  BZF d   1       5.258   2.970  -5.997  0.00  0.00    -0.016 A 
ATOM      7  C6  BZF d   1       5.578   4.312  -6.000  0.00  0.00     0.022 A 
ATOM      8  C7  BZF d   1       4.616   5.265  -5.973  0.00  0.00     0.029 A 
ATOM      9  C7A BZF d   1       3.312   4.836  -5.921  0.00  0.00     0.058 A 
ENDROOT
TORSDOF 0
ENDMDL
