MODEL 1
REMARK minimizedAffinity 3.67100191
REMARK minimizedRMSD -1
REMARK  0 active torsions:
REMARK  status: ('A' for Active; 'I' for Inactive)
ROOT
ATOM      1  O1  BZF d   1       2.261   0.348   2.045  0.00  0.00    -0.204 OA
ATOM      2  C2  BZF d   1       2.529   0.752   0.751  0.00  0.00     0.174 A 
ATOM      3  C3  BZF d   1       3.858   0.793   0.528  0.00  0.00    -0.012 A 
ATOM      4  C3A BZF d   1       4.457   0.301   1.730  0.00  0.00    -0.107 A 
ATOM      5  C4  BZF d   1       5.749   0.088   2.117  0.00  0.00     0.055 A 
ATOM      6  C5  BZF d   1       5.999  -0.333   3.384  0.00  0.00    -0.016 A 
ATOM      7  C6  BZF d   1       4.982  -0.545   4.292  0.00  0.00     0.022 A 
ATOM      8  C7  BZF d   1       3.684  -0.353   3.954  0.00  0.00     0.029 A 
ATOM      9  C7A BZF d   1       3.427   0.041   2.663  0.00  0.00     0.058 A 
ENDROOT
TORSDOF 0
ENDMDL
