MODEL 1
REMARK minimizedAffinity 6.08881426
REMARK minimizedRMSD -1
REMARK  0 active torsions:
REMARK  status: ('A' for Active; 'I' for Inactive)
ROOT
ATOM      1  O1  BZF d   1      -3.508   4.751   0.250  0.00  0.00    -0.204 OA
ATOM      2  C2  BZF d   1      -2.809   5.206  -0.852  0.00  0.00     0.174 A 
ATOM      3  C3  BZF d   1      -1.490   4.959  -0.718  0.00  0.00    -0.012 A 
ATOM      4  C3A BZF d   1      -1.367   4.225   0.504  0.00  0.00    -0.107 A 
ATOM      5  C4  BZF d   1      -0.306   3.681   1.170  0.00  0.00     0.055 A 
ATOM      6  C5  BZF d   1      -0.515   3.092   2.377  0.00  0.00    -0.016 A 
ATOM      7  C6  BZF d   1      -1.769   3.035   2.949  0.00  0.00     0.022 A 
ATOM      8  C7  BZF d   1      -2.853   3.556   2.325  0.00  0.00     0.029 A 
ATOM      9  C7A BZF d   1      -2.650   4.122   1.090  0.00  0.00     0.058 A 
ENDROOT
TORSDOF 0
ENDMDL
