MODEL 1
REMARK minimizedAffinity 15.5704651
REMARK minimizedRMSD -1
REMARK  0 active torsions:
REMARK  status: ('A' for Active; 'I' for Inactive)
ROOT
ATOM      1  O1  BZF d   1      -2.279  -0.727  -4.979  0.00  0.00    -0.204 OA
ATOM      2  C2  BZF d   1      -1.750  -1.492  -6.000  0.00  0.00     0.174 A 
ATOM      3  C3  BZF d   1      -1.117  -2.576  -5.507  0.00  0.00    -0.012 A 
ATOM      4  C3A BZF d   1      -1.339  -2.532  -4.094  0.00  0.00    -0.107 A 
ATOM      5  C4  BZF d   1      -0.973  -3.345  -3.060  0.00  0.00     0.055 A 
ATOM      6  C5  BZF d   1      -1.287  -2.980  -1.789  0.00  0.00    -0.016 A 
ATOM      7  C6  BZF d   1      -1.961  -1.807  -1.516  0.00  0.00     0.022 A 
ATOM      8  C7  BZF d   1      -2.350  -0.971  -2.510  0.00  0.00     0.029 A 
ATOM      9  C7A BZF d   1      -2.062  -1.353  -3.797  0.00  0.00     0.058 A 
ENDROOT
TORSDOF 0
ENDMDL
