MODEL 1
REMARK minimizedAffinity 7.56685019
REMARK minimizedRMSD -1
REMARK  0 active torsions:
REMARK  status: ('A' for Active; 'I' for Inactive)
ROOT
ATOM      1  O1  BZF d   1       4.096  -0.824   2.109  0.00  0.00    -0.204 OA
ATOM      2  C2  BZF d   1       5.239  -0.092   2.364  0.00  0.00     0.174 A 
ATOM      3  C3  BZF d   1       5.169   1.122   1.781  0.00  0.00    -0.012 A 
ATOM      4  C3A BZF d   1       3.864   1.185   1.197  0.00  0.00    -0.107 A 
ATOM      5  C4  BZF d   1       3.196   2.145   0.492  0.00  0.00     0.055 A 
ATOM      6  C5  BZF d   1       1.960   1.864   0.001  0.00  0.00    -0.016 A 
ATOM      7  C6  BZF d   1       1.366   0.633   0.191  0.00  0.00     0.022 A 
ATOM      8  C7  BZF d   1       1.988  -0.349   0.887  0.00  0.00     0.029 A 
ATOM      9  C7A BZF d   1       3.223  -0.057   1.413  0.00  0.00     0.058 A 
ENDROOT
TORSDOF 0
ENDMDL
