MODEL 1
REMARK minimizedAffinity 3.02244473
REMARK minimizedRMSD -1
REMARK  0 active torsions:
REMARK  status: ('A' for Active; 'I' for Inactive)
ROOT
ATOM      1  O1  BZF d   1       0.408   3.221   1.991  0.00  0.00    -0.204 OA
ATOM      2  C2  BZF d   1      -0.563   2.594   2.748  0.00  0.00     0.174 A 
ATOM      3  C3  BZF d   1      -0.217   1.317   3.008  0.00  0.00    -0.012 A 
ATOM      4  C3A BZF d   1       1.093   1.161   2.453  0.00  0.00    -0.107 A 
ATOM      5  C4  BZF d   1       1.974   0.119   2.404  0.00  0.00     0.055 A 
ATOM      6  C5  BZF d   1       3.140   0.272   1.723  0.00  0.00    -0.016 A 
ATOM      7  C6  BZF d   1       3.453   1.448   1.074  0.00  0.00     0.022 A 
ATOM      8  C7  BZF d   1       2.613   2.511   1.098  0.00  0.00     0.029 A 
ATOM      9  C7A BZF d   1       1.449   2.371   1.814  0.00  0.00     0.058 A 
ENDROOT
TORSDOF 0
ENDMDL
