MODEL 1
REMARK minimizedAffinity 0.794866085
REMARK minimizedRMSD -1
REMARK  0 active torsions:
REMARK  status: ('A' for Active; 'I' for Inactive)
ROOT
ATOM      1  O1  BZF d   1       2.377   2.454  -5.987  0.00  0.00    -0.204 OA
ATOM      2  C2  BZF d   1       1.063   2.877  -5.925  0.00  0.00     0.174 A 
ATOM      3  C3  BZF d   1       0.997   4.219  -5.817  0.00  0.00    -0.012 A 
ATOM      4  C3A BZF d   1       2.352   4.671  -5.903  0.00  0.00    -0.107 A 
ATOM      5  C4  BZF d   1       2.933   5.907  -5.876  0.00  0.00     0.055 A 
ATOM      6  C5  BZF d   1       4.289   6.000  -5.909  0.00  0.00    -0.016 A 
ATOM      7  C6  BZF d   1       5.092   4.880  -5.964  0.00  0.00     0.022 A 
ATOM      8  C7  BZF d   1       4.561   3.633  -5.999  0.00  0.00     0.029 A 
ATOM      9  C7A BZF d   1       3.191   3.537  -5.999  0.00  0.00     0.058 A 
ENDROOT
TORSDOF 0
ENDMDL
