MODEL 1
REMARK minimizedAffinity 1.19636559
REMARK minimizedRMSD -1
REMARK  0 active torsions:
REMARK  status: ('A' for Active; 'I' for Inactive)
ROOT
ATOM      1  O1  BZF d   1       0.400  -2.260   0.480  0.00  0.00    -0.204 OA
ATOM      2  C2  BZF d   1      -0.928  -1.920   0.655  0.00  0.00     0.174 A 
ATOM      3  C3  BZF d   1      -1.039  -0.710   1.240  0.00  0.00    -0.012 A 
ATOM      4  C3A BZF d   1       0.302  -0.225   1.358  0.00  0.00    -0.107 A 
ATOM      5  C4  BZF d   1       0.843   0.931   1.846  0.00  0.00     0.055 A 
ATOM      6  C5  BZF d   1       2.195   1.062   1.884  0.00  0.00    -0.016 A 
ATOM      7  C6  BZF d   1       3.035   0.059   1.449  0.00  0.00     0.022 A 
ATOM      8  C7  BZF d   1       2.545  -1.103   0.952  0.00  0.00     0.029 A 
ATOM      9  C7A BZF d   1       1.179  -1.226   0.881  0.00  0.00     0.058 A 
ENDROOT
TORSDOF 0
ENDMDL
