MODEL 1
REMARK minimizedAffinity -2.47922754
REMARK minimizedRMSD -1
REMARK  0 active torsions:
REMARK  status: ('A' for Active; 'I' for Inactive)
ROOT
ATOM      1  O1  BZF d   1       5.974   2.389  -5.866  0.00  0.00    -0.204 OA
ATOM      2  C2  BZF d   1       4.990   1.428  -5.995  0.00  0.00     0.174 A 
ATOM      3  C3  BZF d   1       3.766   1.995  -6.000  0.00  0.00    -0.012 A 
ATOM      4  C3A BZF d   1       4.004   3.405  -5.959  0.00  0.00    -0.107 A 
ATOM      5  C4  BZF d   1       3.183   4.496  -5.958  0.00  0.00     0.055 A 
ATOM      6  C5  BZF d   1       3.730   5.734  -5.836  0.00  0.00    -0.016 A 
ATOM      7  C6  BZF d   1       5.091   5.918  -5.709  0.00  0.00     0.022 A 
ATOM      8  C7  BZF d   1       5.946   4.866  -5.710  0.00  0.00     0.029 A 
ATOM      9  C7A BZF d   1       5.399   3.616  -5.865  0.00  0.00     0.058 A 
ENDROOT
TORSDOF 0
ENDMDL
