MODEL 1
REMARK minimizedAffinity -3.87707877
REMARK minimizedRMSD -1
REMARK  0 active torsions:
REMARK  status: ('A' for Active; 'I' for Inactive)
ROOT
ATOM      1  C2' OXE d   1       0.375  -0.700  -0.609  0.00  0.00     0.078 C 
ATOM      2  C1' OXE d   1       1.226  -0.630   2.065  0.00  0.00     0.078 C 
ATOM      3  C1  OXE d   1       0.246   0.423   1.611  0.00  0.00    -0.078 A 
ATOM      4  C2  OXE d   1      -0.129   0.410   0.289  0.00  0.00    -0.078 A 
ATOM      5  C3  OXE d   1      -1.072   1.325  -0.169  0.00  0.00     0.003 A 
ATOM      6  C4  OXE d   1      -1.525   2.354   0.665  0.00  0.00    -0.002 A 
ATOM      7  C5  OXE d   1      -1.125   2.410   2.004  0.00  0.00    -0.002 A 
ATOM      8  C6  OXE d   1      -0.275   1.429   2.503  0.00  0.00     0.003 A 
ENDROOT
TORSDOF 0
ENDMDL
