MODEL 1
REMARK minimizedAffinity -0.597251832
REMARK minimizedRMSD -1
REMARK  0 active torsions:
REMARK  status: ('A' for Active; 'I' for Inactive)
ROOT
ATOM      1  C2' OXE d   1      -1.382   0.266  -1.352  0.00  0.00     0.078 C 
ATOM      2  C1' OXE d   1       0.699  -1.025   0.022  0.00  0.00     0.078 C 
ATOM      3  C1  OXE d   1       0.091   0.201   0.657  0.00  0.00    -0.078 A 
ATOM      4  C2  OXE d   1      -0.895   0.853  -0.044  0.00  0.00    -0.078 A 
ATOM      5  C3  OXE d   1      -1.527   1.957   0.520  0.00  0.00     0.003 A 
ATOM      6  C4  OXE d   1      -1.064   2.500   1.725  0.00  0.00    -0.002 A 
ATOM      7  C5  OXE d   1      -0.035   1.874   2.436  0.00  0.00    -0.002 A 
ATOM      8  C6  OXE d   1       0.523   0.702   1.938  0.00  0.00     0.003 A 
ENDROOT
TORSDOF 0
ENDMDL
