MODEL 1
REMARK minimizedAffinity -3.44342017
REMARK minimizedRMSD -1
REMARK  0 active torsions:
REMARK  status: ('A' for Active; 'I' for Inactive)
ROOT
ATOM      1  C2' OXE d   1       0.467   0.821  -2.184  0.00  0.00     0.078 C 
ATOM      2  C1' OXE d   1       0.198  -1.603  -0.794  0.00  0.00     0.078 C 
ATOM      3  C1  OXE d   1       0.110  -0.323  -0.001  0.00  0.00    -0.078 A 
ATOM      4  C2  OXE d   1       0.289   0.857  -0.681  0.00  0.00    -0.078 A 
ATOM      5  C3  OXE d   1       0.164   2.068  -0.007  0.00  0.00     0.003 A 
ATOM      6  C4  OXE d   1       0.010   2.092   1.385  0.00  0.00    -0.002 A 
ATOM      7  C5  OXE d   1      -0.135   0.900   2.103  0.00  0.00    -0.002 A 
ATOM      8  C6  OXE d   1      -0.130  -0.312   1.421  0.00  0.00     0.003 A 
ENDROOT
TORSDOF 0
ENDMDL
