MODEL 1
REMARK minimizedAffinity -3.39078927
REMARK minimizedRMSD -1
REMARK  0 active torsions:
REMARK  status: ('A' for Active; 'I' for Inactive)
ROOT
ATOM      1  C2' OXE d   1       0.652   0.360  -1.681  0.00  0.00     0.078 C 
ATOM      2  C1' OXE d   1      -0.315  -2.103  -0.741  0.00  0.00     0.078 C 
ATOM      3  C1  OXE d   1      -0.299  -0.940   0.220  0.00  0.00    -0.078 A 
ATOM      4  C2  OXE d   1       0.218   0.249  -0.235  0.00  0.00    -0.078 A 
ATOM      5  C3  OXE d   1       0.206   1.368   0.593  0.00  0.00     0.003 A 
ATOM      6  C4  OXE d   1      -0.187   1.254   1.932  0.00  0.00    -0.002 A 
ATOM      7  C5  OXE d   1      -0.681   0.043   2.427  0.00  0.00    -0.002 A 
ATOM      8  C6  OXE d   1      -0.783  -1.051   1.574  0.00  0.00     0.003 A 
ENDROOT
TORSDOF 0
ENDMDL
