MODEL 1
REMARK minimizedAffinity 6.49031782
REMARK minimizedRMSD -1
REMARK  0 active torsions:
REMARK  status: ('A' for Active; 'I' for Inactive)
ROOT
ATOM      1  C2' OXE d   1       1.135  -1.717   0.449  0.00  0.00     0.078 C 
ATOM      2  C1' OXE d   1       1.039   0.692  -0.990  0.00  0.00     0.078 C 
ATOM      3  C1  OXE d   1       0.838   0.756   0.504  0.00  0.00    -0.078 A 
ATOM      4  C2  OXE d   1       0.840  -0.433   1.193  0.00  0.00    -0.078 A 
ATOM      5  C3  OXE d   1       0.714  -0.426   2.580  0.00  0.00     0.003 A 
ATOM      6  C4  OXE d   1       0.431   0.765   3.259  0.00  0.00    -0.002 A 
ATOM      7  C5  OXE d   1       0.386   1.982   2.571  0.00  0.00    -0.002 A 
ATOM      8  C6  OXE d   1       0.629   2.000   1.202  0.00  0.00     0.003 A 
ENDROOT
TORSDOF 0
ENDMDL
