MODEL 1
REMARK minimizedAffinity -4.33053589
REMARK minimizedRMSD -1
REMARK  0 active torsions:
REMARK  status: ('A' for Active; 'I' for Inactive)
ROOT
ATOM      1  C2' OXE d   1      -1.253  -3.711  -1.126  0.00  0.00     0.078 C 
ATOM      2  C1' OXE d   1       1.543  -3.491  -1.007  0.00  0.00     0.078 C 
ATOM      3  C1  OXE d   1       0.725  -2.290  -0.602  0.00  0.00    -0.078 A 
ATOM      4  C2  OXE d   1      -0.641  -2.392  -0.708  0.00  0.00    -0.078 A 
ATOM      5  C3  OXE d   1      -1.445  -1.333  -0.295  0.00  0.00     0.003 A 
ATOM      6  C4  OXE d   1      -0.872  -0.112   0.081  0.00  0.00    -0.002 A 
ATOM      7  C5  OXE d   1       0.518   0.025   0.158  0.00  0.00    -0.002 A 
ATOM      8  C6  OXE d   1       1.328  -1.065  -0.139  0.00  0.00     0.003 A 
ENDROOT
TORSDOF 0
ENDMDL
