MODEL 1
REMARK minimizedAffinity -1.52138782
REMARK minimizedRMSD -1
REMARK  0 active torsions:
REMARK  status: ('A' for Active; 'I' for Inactive)
ROOT
ATOM      1  C2' OXE d   1       0.167   0.269  -2.084  0.00  0.00     0.078 C 
ATOM      2  C1' OXE d   1       0.440  -0.371   0.636  0.00  0.00     0.078 C 
ATOM      3  C1  OXE d   1      -0.012  -1.462  -0.302  0.00  0.00    -0.078 A 
ATOM      4  C2  OXE d   1      -0.188  -1.128  -1.623  0.00  0.00    -0.078 A 
ATOM      5  C3  OXE d   1      -0.551  -2.110  -2.540  0.00  0.00     0.003 A 
ATOM      6  C4  OXE d   1      -0.887  -3.398  -2.104  0.00  0.00    -0.002 A 
ATOM      7  C5  OXE d   1      -0.753  -3.749  -0.757  0.00  0.00    -0.002 A 
ATOM      8  C6  OXE d   1      -0.277  -2.806   0.148  0.00  0.00     0.003 A 
ENDROOT
TORSDOF 0
ENDMDL
