MODEL 1
REMARK minimizedAffinity 5.07425451
REMARK minimizedRMSD -1
REMARK  0 active torsions:
REMARK  status: ('A' for Active; 'I' for Inactive)
ROOT
ATOM      1  C2' OXE d   1      -2.369  -0.084  -1.305  0.00  0.00     0.078 C 
ATOM      2  C1' OXE d   1      -0.246   1.647  -1.919  0.00  0.00     0.078 C 
ATOM      3  C1  OXE d   1      -0.095   0.747  -0.718  0.00  0.00    -0.078 A 
ATOM      4  C2  OXE d   1      -1.158  -0.063  -0.398  0.00  0.00    -0.078 A 
ATOM      5  C3  OXE d   1      -1.050  -0.953   0.668  0.00  0.00     0.003 A 
ATOM      6  C4  OXE d   1       0.070  -0.920   1.508  0.00  0.00    -0.002 A 
ATOM      7  C5  OXE d   1       1.147  -0.075   1.223  0.00  0.00    -0.002 A 
ATOM      8  C6  OXE d   1       1.098   0.733   0.092  0.00  0.00     0.003 A 
ENDROOT
TORSDOF 0
ENDMDL
