MODEL 1
REMARK minimizedAffinity -5.40570402
REMARK minimizedRMSD -1
REMARK  0 active torsions:
REMARK  status: ('A' for Active; 'I' for Inactive)
ROOT
ATOM      1  C2' OXE d   1       0.140   1.104  -1.966  0.00  0.00     0.078 C 
ATOM      2  C1' OXE d   1      -0.504  -1.252  -0.583  0.00  0.00     0.078 C 
ATOM      3  C1  OXE d   1      -0.823   0.063   0.082  0.00  0.00    -0.078 A 
ATOM      4  C2  OXE d   1      -0.462   1.211  -0.582  0.00  0.00    -0.078 A 
ATOM      5  C3  OXE d   1      -0.784   2.452  -0.038  0.00  0.00     0.003 A 
ATOM      6  C4  OXE d   1      -1.332   2.542   1.247  0.00  0.00    -0.002 A 
ATOM      7  C5  OXE d   1      -1.671   1.385   1.957  0.00  0.00    -0.002 A 
ATOM      8  C6  OXE d   1      -1.463   0.141   1.372  0.00  0.00     0.003 A 
ENDROOT
TORSDOF 0
ENDMDL
