MODEL 1
REMARK minimizedAffinity 8.50167656
REMARK minimizedRMSD -1
REMARK  0 active torsions:
REMARK  status: ('A' for Active; 'I' for Inactive)
ROOT
ATOM      1  C2' OXE d   1      -5.762   2.458  -3.650  0.00  0.00     0.078 C 
ATOM      2  C1' OXE d   1      -3.212   3.405  -2.957  0.00  0.00     0.078 C 
ATOM      3  C1  OXE d   1      -3.990   4.174  -3.995  0.00  0.00    -0.078 A 
ATOM      4  C2  OXE d   1      -5.218   3.677  -4.362  0.00  0.00    -0.078 A 
ATOM      5  C3  OXE d   1      -6.000   4.378  -5.276  0.00  0.00     0.003 A 
ATOM      6  C4  OXE d   1      -5.485   5.499  -5.937  0.00  0.00    -0.002 A 
ATOM      7  C5  OXE d   1      -4.220   5.999  -5.608  0.00  0.00    -0.002 A 
ATOM      8  C6  OXE d   1      -3.480   5.375  -4.610  0.00  0.00     0.003 A 
ENDROOT
TORSDOF 0
ENDMDL
