MODEL 1
REMARK minimizedAffinity 4.75105286
REMARK minimizedRMSD -1
REMARK  0 active torsions:
REMARK  status: ('A' for Active; 'I' for Inactive)
ROOT
ATOM      1  C2' OXE d   1      -2.200   3.909   1.139  0.00  0.00     0.078 C 
ATOM      2  C1' OXE d   1      -0.742   2.759  -0.967  0.00  0.00     0.078 C 
ATOM      3  C1  OXE d   1      -0.467   2.265   0.431  0.00  0.00    -0.078 A 
ATOM      4  C2  OXE d   1      -1.152   2.866   1.460  0.00  0.00    -0.078 A 
ATOM      5  C3  OXE d   1      -0.976   2.410   2.764  0.00  0.00     0.003 A 
ATOM      6  C4  OXE d   1       0.003   1.452   3.054  0.00  0.00    -0.002 A 
ATOM      7  C5  OXE d   1       0.739   0.855   2.025  0.00  0.00    -0.002 A 
ATOM      8  C6  OXE d   1       0.487   1.219   0.707  0.00  0.00     0.003 A 
ENDROOT
TORSDOF 0
ENDMDL
