MODEL 1
REMARK minimizedAffinity 2.07587242
REMARK minimizedRMSD -1
REMARK  0 active torsions:
REMARK  status: ('A' for Active; 'I' for Inactive)
ROOT
ATOM      1  C2' OXE d   1      -1.544  -4.517  -2.071  0.00  0.00     0.078 C 
ATOM      2  C1' OXE d   1      -1.688  -3.093  -4.486  0.00  0.00     0.078 C 
ATOM      3  C1  OXE d   1      -0.835  -2.521  -3.382  0.00  0.00    -0.078 A 
ATOM      4  C2  OXE d   1      -0.807  -3.200  -2.187  0.00  0.00    -0.078 A 
ATOM      5  C3  OXE d   1       0.008  -2.746  -1.154  0.00  0.00     0.003 A 
ATOM      6  C4  OXE d   1       0.678  -1.522  -1.267  0.00  0.00    -0.002 A 
ATOM      7  C5  OXE d   1       0.632  -0.794  -2.460  0.00  0.00    -0.002 A 
ATOM      8  C6  OXE d   1      -0.084  -1.300  -3.540  0.00  0.00     0.003 A 
ENDROOT
TORSDOF 0
ENDMDL
