MODEL 1
REMARK minimizedAffinity -0.945455194
REMARK minimizedRMSD -1
REMARK  0 active torsions:
REMARK  status: ('A' for Active; 'I' for Inactive)
ROOT
ATOM      1  C2' OXE d   1       1.460  -1.699   1.217  0.00  0.00     0.078 C 
ATOM      2  C1' OXE d   1       0.873  -1.251   3.926  0.00  0.00     0.078 C 
ATOM      3  C1  OXE d   1       0.555  -0.150   2.946  0.00  0.00    -0.078 A 
ATOM      4  C2  OXE d   1       0.888  -0.359   1.629  0.00  0.00    -0.078 A 
ATOM      5  C3  OXE d   1       0.566   0.602   0.675  0.00  0.00     0.003 A 
ATOM      6  C4  OXE d   1       0.046   1.842   1.066  0.00  0.00    -0.002 A 
ATOM      7  C5  OXE d   1      -0.264   2.091   2.407  0.00  0.00    -0.002 A 
ATOM      8  C6  OXE d   1      -0.056   1.092   3.351  0.00  0.00     0.003 A 
ENDROOT
TORSDOF 0
ENDMDL
