MODEL 1
REMARK minimizedAffinity -4.2226429
REMARK minimizedRMSD -1
REMARK  0 active torsions:
REMARK  status: ('A' for Active; 'I' for Inactive)
ROOT
ATOM      1  C1  DEN d   1       2.413  -4.587  -0.267  0.00  0.00     0.130 A 
ATOM      2  C2  DEN d   1       3.787  -4.097  -0.221  0.00  0.00    -0.031 A 
ATOM      3  C3  DEN d   1       3.745  -2.644   0.044  0.00  0.00     0.027 A 
ATOM      4  C4  DEN d   1       1.695  -1.117   0.389  0.00  0.00     0.027 A 
ATOM      5  C5  DEN d   1       0.319  -1.077   0.428  0.00  0.00    -0.003 A 
ATOM      6  C6  DEN d   1      -0.450  -2.189   0.206  0.00  0.00     0.001 A 
ATOM      7  C7  DEN d   1       0.153  -3.398  -0.020  0.00  0.00     0.017 A 
ATOM      8  C8  DEN d   1       1.540  -3.444  -0.068  0.00  0.00    -0.094 A 
ATOM      9  C9  DEN d   1       2.300  -2.312   0.171  0.00  0.00    -0.072 A 
ENDROOT
TORSDOF 0
ENDMDL
