MODEL 1
REMARK minimizedAffinity -2.27551246
REMARK minimizedRMSD -1
REMARK  0 active torsions:
REMARK  status: ('A' for Active; 'I' for Inactive)
ROOT
ATOM      1  C1  DEN d   1       1.081  -3.909  -0.505  0.00  0.00     0.130 A 
ATOM      2  C2  DEN d   1       2.540  -3.879  -0.543  0.00  0.00    -0.031 A 
ATOM      3  C3  DEN d   1       2.983  -2.563  -0.039  0.00  0.00     0.027 A 
ATOM      4  C4  DEN d   1       1.558  -0.583   0.797  0.00  0.00     0.027 A 
ATOM      5  C5  DEN d   1       0.272  -0.135   1.007  0.00  0.00    -0.003 A 
ATOM      6  C6  DEN d   1      -0.825  -0.894   0.699  0.00  0.00     0.001 A 
ATOM      7  C7  DEN d   1      -0.658  -2.160   0.205  0.00  0.00     0.017 A 
ATOM      8  C8  DEN d   1       0.635  -2.617  -0.016  0.00  0.00    -0.094 A 
ATOM      9  C9  DEN d   1       1.732  -1.839   0.313  0.00  0.00    -0.072 A 
ENDROOT
TORSDOF 0
ENDMDL
