MODEL 1
REMARK minimizedAffinity -3.27265501
REMARK minimizedRMSD -1
REMARK  0 active torsions:
REMARK  status: ('A' for Active; 'I' for Inactive)
ROOT
ATOM      1  C1  DEN d   1      -0.457  -2.902   0.231  0.00  0.00     0.130 A 
ATOM      2  C2  DEN d   1      -0.764  -1.517   0.578  0.00  0.00    -0.031 A 
ATOM      3  C3  DEN d   1       0.510  -0.775   0.662  0.00  0.00     0.027 A 
ATOM      4  C4  DEN d   1       2.914  -1.630   0.287  0.00  0.00     0.027 A 
ATOM      5  C5  DEN d   1       3.678  -2.736  -0.016  0.00  0.00    -0.003 A 
ATOM      6  C6  DEN d   1       3.124  -3.972  -0.222  0.00  0.00     0.001 A 
ATOM      7  C7  DEN d   1       1.763  -4.122  -0.173  0.00  0.00     0.017 A 
ATOM      8  C8  DEN d   1       0.987  -3.014   0.139  0.00  0.00    -0.094 A 
ATOM      9  C9  DEN d   1       1.565  -1.770   0.332  0.00  0.00    -0.072 A 
ENDROOT
TORSDOF 0
ENDMDL
