MODEL 1
REMARK minimizedAffinity -0.331422508
REMARK minimizedRMSD -1
REMARK  0 active torsions:
REMARK  status: ('A' for Active; 'I' for Inactive)
ROOT
ATOM      1  C1  DEN d   1      -0.342  -0.491   0.859  0.00  0.00     0.130 A 
ATOM      2  C2  DEN d   1      -1.368  -1.499   0.606  0.00  0.00    -0.031 A 
ATOM      3  C3  DEN d   1      -0.697  -2.805   0.446  0.00  0.00     0.027 A 
ATOM      4  C4  DEN d   1       1.819  -3.361   0.569  0.00  0.00     0.027 A 
ATOM      5  C5  DEN d   1       3.078  -2.832   0.750  0.00  0.00    -0.003 A 
ATOM      6  C6  DEN d   1       3.286  -1.492   0.945  0.00  0.00     0.001 A 
ATOM      7  C7  DEN d   1       2.215  -0.641   1.008  0.00  0.00     0.017 A 
ATOM      8  C8  DEN d   1       0.943  -1.165   0.819  0.00  0.00    -0.094 A 
ATOM      9  C9  DEN d   1       0.752  -2.524   0.635  0.00  0.00    -0.072 A 
ENDROOT
TORSDOF 0
ENDMDL
