MODEL 1
REMARK minimizedAffinity 1.62662458
REMARK minimizedRMSD -1
REMARK  0 active torsions:
REMARK  status: ('A' for Active; 'I' for Inactive)
ROOT
ATOM      1  C1  DEN d   1       0.118  -0.294   1.942  0.00  0.00     0.130 A 
ATOM      2  C2  DEN d   1      -0.620  -0.810   0.792  0.00  0.00    -0.031 A 
ATOM      3  C3  DEN d   1       0.357  -1.372  -0.163  0.00  0.00     0.027 A 
ATOM      4  C4  DEN d   1       2.926  -1.497   0.030  0.00  0.00     0.027 A 
ATOM      5  C5  DEN d   1       4.010  -1.179   0.820  0.00  0.00    -0.003 A 
ATOM      6  C6  DEN d   1       3.875  -0.520   2.012  0.00  0.00     0.001 A 
ATOM      7  C7  DEN d   1       2.626  -0.196   2.472  0.00  0.00     0.017 A 
ATOM      8  C8  DEN d   1       1.530  -0.506   1.679  0.00  0.00    -0.094 A 
ATOM      9  C9  DEN d   1       1.685  -1.185   0.482  0.00  0.00    -0.072 A 
ENDROOT
TORSDOF 0
ENDMDL
