MODEL 1
REMARK minimizedAffinity -6.26020479
REMARK minimizedRMSD -1
REMARK  0 active torsions:
REMARK  status: ('A' for Active; 'I' for Inactive)
ROOT
ATOM      1  C1  DEN d   1      -0.919  -2.751   1.193  0.00  0.00     0.130 A 
ATOM      2  C2  DEN d   1      -1.520  -1.491   1.623  0.00  0.00    -0.031 A 
ATOM      3  C3  DEN d   1      -0.490  -0.437   1.526  0.00  0.00     0.027 A 
ATOM      4  C4  DEN d   1       1.962  -0.632   0.751  0.00  0.00     0.027 A 
ATOM      5  C5  DEN d   1       2.932  -1.500   0.300  0.00  0.00    -0.003 A 
ATOM      6  C6  DEN d   1       2.697  -2.841   0.149  0.00  0.00     0.001 A 
ATOM      7  C7  DEN d   1       1.450  -3.346   0.408  0.00  0.00     0.017 A 
ATOM      8  C8  DEN d   1       0.470  -2.478   0.870  0.00  0.00    -0.094 A 
ATOM      9  C9  DEN d   1       0.723  -1.123   1.005  0.00  0.00    -0.072 A 
ENDROOT
TORSDOF 0
ENDMDL
