MODEL 1
REMARK minimizedAffinity -4.30802011
REMARK minimizedRMSD -1
REMARK  0 active torsions:
REMARK  status: ('A' for Active; 'I' for Inactive)
ROOT
ATOM      1  C1  DEN d   1       2.486  -0.293   0.982  0.00  0.00     0.130 A 
ATOM      2  C2  DEN d   1       3.771  -0.953   0.765  0.00  0.00    -0.031 A 
ATOM      3  C3  DEN d   1       3.506  -2.361   0.407  0.00  0.00     0.027 A 
ATOM      4  C4  DEN d   1       1.244  -3.576   0.162  0.00  0.00     0.027 A 
ATOM      5  C5  DEN d   1      -0.123  -3.433   0.257  0.00  0.00    -0.003 A 
ATOM      6  C6  DEN d   1      -0.709  -2.253   0.631  0.00  0.00     0.001 A 
ATOM      7  C7  DEN d   1       0.071  -1.155   0.879  0.00  0.00     0.017 A 
ATOM      8  C8  DEN d   1       1.451  -1.293   0.792  0.00  0.00    -0.094 A 
ATOM      9  C9  DEN d   1       2.024  -2.491   0.401  0.00  0.00    -0.072 A 
ENDROOT
TORSDOF 0
ENDMDL
