MODEL 1
REMARK minimizedAffinity -3.55526638
REMARK minimizedRMSD -1
REMARK  0 active torsions:
REMARK  status: ('A' for Active; 'I' for Inactive)
ROOT
ATOM      1  C1  DEN d   1       1.085  -4.167  -0.040  0.00  0.00     0.130 A 
ATOM      2  C2  DEN d   1       2.540  -4.232  -0.140  0.00  0.00    -0.031 A 
ATOM      3  C3  DEN d   1       3.079  -2.888   0.150  0.00  0.00     0.027 A 
ATOM      4  C4  DEN d   1       1.807  -0.725   0.747  0.00  0.00     0.027 A 
ATOM      5  C5  DEN d   1       0.560  -0.173   0.941  0.00  0.00    -0.003 A 
ATOM      6  C6  DEN d   1      -0.591  -0.899   0.790  0.00  0.00     0.001 A 
ATOM      7  C7  DEN d   1      -0.518  -2.231   0.478  0.00  0.00     0.017 A 
ATOM      8  C8  DEN d   1       0.736  -2.793   0.274  0.00  0.00    -0.094 A 
ATOM      9  C9  DEN d   1       1.889  -2.045   0.444  0.00  0.00    -0.072 A 
ENDROOT
TORSDOF 0
ENDMDL
