MODEL 1
REMARK minimizedAffinity -1.28754508
REMARK minimizedRMSD -1
REMARK  0 active torsions:
REMARK  status: ('A' for Active; 'I' for Inactive)
ROOT
ATOM      1  C1  DEN d   1      -0.153  -1.196   0.946  0.00  0.00     0.130 A 
ATOM      2  C2  DEN d   1      -1.237  -2.138   0.682  0.00  0.00    -0.031 A 
ATOM      3  C3  DEN d   1      -0.635  -3.423   0.271  0.00  0.00     0.027 A 
ATOM      4  C4  DEN d   1       1.857  -4.042   0.024  0.00  0.00     0.027 A 
ATOM      5  C5  DEN d   1       3.146  -3.569   0.127  0.00  0.00    -0.003 A 
ATOM      6  C6  DEN d   1       3.424  -2.274   0.475  0.00  0.00     0.001 A 
ATOM      7  C7  DEN d   1       2.398  -1.417   0.776  0.00  0.00     0.017 A 
ATOM      8  C8  DEN d   1       1.095  -1.884   0.667  0.00  0.00    -0.094 A 
ATOM      9  C9  DEN d   1       0.835  -3.201   0.326  0.00  0.00    -0.072 A 
ENDROOT
TORSDOF 0
ENDMDL
