MODEL 1
REMARK minimizedAffinity -4.88269138
REMARK minimizedRMSD -1
REMARK  0 active torsions:
REMARK  status: ('A' for Active; 'I' for Inactive)
ROOT
ATOM      1  C1  DEN d   1       0.818  -3.895  -0.186  0.00  0.00     0.130 A 
ATOM      2  C2  DEN d   1       2.257  -4.051   0.012  0.00  0.00    -0.031 A 
ATOM      3  C3  DEN d   1       2.799  -2.756   0.467  0.00  0.00     0.027 A 
ATOM      4  C4  DEN d   1       1.556  -0.535   0.889  0.00  0.00     0.027 A 
ATOM      5  C5  DEN d   1       0.329   0.090   0.848  0.00  0.00    -0.003 A 
ATOM      6  C6  DEN d   1      -0.805  -0.554   0.430  0.00  0.00     0.001 A 
ATOM      7  C7  DEN d   1      -0.744  -1.877   0.080  0.00  0.00     0.017 A 
ATOM      8  C8  DEN d   1       0.490  -2.512   0.112  0.00  0.00    -0.094 A 
ATOM      9  C9  DEN d   1       1.623  -1.847   0.549  0.00  0.00    -0.072 A 
ENDROOT
TORSDOF 0
ENDMDL
