MODEL 1
REMARK minimizedAffinity 0.108645625
REMARK minimizedRMSD -1
REMARK  0 active torsions:
REMARK  status: ('A' for Active; 'I' for Inactive)
ROOT
ATOM      1  C1  DEN d   1      -0.880  -2.011   1.205  0.00  0.00     0.130 A 
ATOM      2  C2  DEN d   1      -0.617  -0.643   1.643  0.00  0.00    -0.031 A 
ATOM      3  C3  DEN d   1       0.788  -0.322   1.320  0.00  0.00     0.027 A 
ATOM      4  C4  DEN d   1       2.571  -1.802   0.186  0.00  0.00     0.027 A 
ATOM      5  C5  DEN d   1       2.820  -3.044  -0.354  0.00  0.00    -0.003 A 
ATOM      6  C6  DEN d   1       1.873  -4.032  -0.381  0.00  0.00     0.001 A 
ATOM      7  C7  DEN d   1       0.615  -3.780   0.101  0.00  0.00     0.017 A 
ATOM      8  C8  DEN d   1       0.358  -2.533   0.653  0.00  0.00    -0.094 A 
ATOM      9  C9  DEN d   1       1.326  -1.543   0.660  0.00  0.00    -0.072 A 
ENDROOT
TORSDOF 0
ENDMDL
