MODEL 1
REMARK minimizedAffinity -0.190603435
REMARK minimizedRMSD -1
REMARK  0 active torsions:
REMARK  status: ('A' for Active; 'I' for Inactive)
ROOT
ATOM      1  C1  DEN d   1       1.477  -0.123   1.356  0.00  0.00     0.130 A 
ATOM      2  C2  DEN d   1       0.021  -0.199   1.442  0.00  0.00    -0.031 A 
ATOM      3  C3  DEN d   1      -0.392  -1.551   1.015  0.00  0.00     0.027 A 
ATOM      4  C4  DEN d   1       1.075  -3.526   0.237  0.00  0.00     0.027 A 
ATOM      5  C5  DEN d   1       2.366  -3.935  -0.013  0.00  0.00    -0.003 A 
ATOM      6  C6  DEN d   1       3.440  -3.098   0.142  0.00  0.00     0.001 A 
ATOM      7  C7  DEN d   1       3.246  -1.823   0.602  0.00  0.00     0.017 A 
ATOM      8  C8  DEN d   1       1.946  -1.401   0.849  0.00  0.00    -0.094 A 
ATOM      9  C9  DEN d   1       0.875  -2.265   0.698  0.00  0.00    -0.072 A 
ENDROOT
TORSDOF 0
ENDMDL
