MODEL 1
REMARK minimizedAffinity 4.67958546
REMARK minimizedRMSD -1
REMARK  0 active torsions:
REMARK  status: ('A' for Active; 'I' for Inactive)
ROOT
ATOM      1  C1  DEN d   1       2.057   4.508  -1.038  0.00  0.00     0.130 A 
ATOM      2  C2  DEN d   1       2.870   4.608   0.171  0.00  0.00    -0.031 A 
ATOM      3  C3  DEN d   1       3.717   3.401   0.253  0.00  0.00     0.027 A 
ATOM      4  C4  DEN d   1       3.852   1.401  -1.370  0.00  0.00     0.027 A 
ATOM      5  C5  DEN d   1       3.345   0.861  -2.531  0.00  0.00    -0.003 A 
ATOM      6  C6  DEN d   1       2.357   1.478  -3.252  0.00  0.00     0.001 A 
ATOM      7  C7  DEN d   1       1.876   2.694  -2.843  0.00  0.00     0.017 A 
ATOM      8  C8  DEN d   1       2.377   3.240  -1.669  0.00  0.00    -0.094 A 
ATOM      9  C9  DEN d   1       3.384   2.607  -0.961  0.00  0.00    -0.072 A 
ENDROOT
TORSDOF 0
ENDMDL
