MODEL 1
REMARK minimizedAffinity 12.0442963
REMARK minimizedRMSD -1
REMARK  0 active torsions:
REMARK  status: ('A' for Active; 'I' for Inactive)
ROOT
ATOM      1  C1  DEN d   1      -1.790   1.930   2.046  0.00  0.00     0.130 A 
ATOM      2  C2  DEN d   1      -2.852   2.618   2.774  0.00  0.00    -0.031 A 
ATOM      3  C3  DEN d   1      -2.898   2.068   4.143  0.00  0.00     0.027 A 
ATOM      4  C4  DEN d   1      -1.433   0.229   5.203  0.00  0.00     0.027 A 
ATOM      5  C5  DEN d   1      -0.405  -0.659   4.973  0.00  0.00    -0.003 A 
ATOM      6  C6  DEN d   1       0.205  -0.769   3.752  0.00  0.00     0.001 A 
ATOM      7  C7  DEN d   1      -0.177   0.054   2.726  0.00  0.00     0.017 A 
ATOM      8  C8  DEN d   1      -1.217   0.946   2.947  0.00  0.00    -0.094 A 
ATOM      9  C9  DEN d   1      -1.813   1.051   4.193  0.00  0.00    -0.072 A 
ENDROOT
TORSDOF 0
ENDMDL
