MODEL 1
REMARK minimizedAffinity 3.26120591
REMARK minimizedRMSD -1
REMARK  0 active torsions:
REMARK  status: ('A' for Active; 'I' for Inactive)
ROOT
ATOM      1  C1  DEN d   1       3.268  -6.000   0.049  0.00  0.00     0.130 A 
ATOM      2  C2  DEN d   1       4.715  -5.953  -0.146  0.00  0.00    -0.031 A 
ATOM      3  C3  DEN d   1       5.120  -4.535  -0.223  0.00  0.00     0.027 A 
ATOM      4  C4  DEN d   1       3.656  -2.418  -0.055  0.00  0.00     0.027 A 
ATOM      5  C5  DEN d   1       2.369  -1.953   0.100  0.00  0.00    -0.003 A 
ATOM      6  C6  DEN d   1       1.296  -2.797   0.214  0.00  0.00     0.001 A 
ATOM      7  C7  DEN d   1       1.496  -4.152   0.220  0.00  0.00     0.017 A 
ATOM      8  C8  DEN d   1       2.790  -4.629   0.057  0.00  0.00    -0.094 A 
ATOM      9  C9  DEN d   1       3.863  -3.760  -0.045  0.00  0.00    -0.072 A 
ENDROOT
TORSDOF 0
ENDMDL
