MODEL 1
REMARK minimizedAffinity -3.63262415
REMARK minimizedRMSD -1
REMARK  0 active torsions:
REMARK  status: ('A' for Active; 'I' for Inactive)
ROOT
ATOM      1  C1  DEN d   1      -0.977  -1.323   0.238  0.00  0.00     0.130 A 
ATOM      2  C2  DEN d   1      -0.496  -0.034   0.727  0.00  0.00    -0.031 A 
ATOM      3  C3  DEN d   1       0.980  -0.082   0.762  0.00  0.00     0.027 A 
ATOM      4  C4  DEN d   1       2.557  -2.013   0.105  0.00  0.00     0.027 A 
ATOM      5  C5  DEN d   1       2.613  -3.310  -0.356  0.00  0.00    -0.003 A 
ATOM      6  C6  DEN d   1       1.484  -4.041  -0.618  0.00  0.00     0.001 A 
ATOM      7  C7  DEN d   1       0.251  -3.464  -0.463  0.00  0.00     0.017 A 
ATOM      8  C8  DEN d   1       0.187  -2.160   0.010  0.00  0.00    -0.094 A 
ATOM      9  C9  DEN d   1       1.340  -1.434   0.257  0.00  0.00    -0.072 A 
ENDROOT
TORSDOF 0
ENDMDL
