MODEL 1
REMARK minimizedAffinity 4.84483719
REMARK minimizedRMSD -1
REMARK  0 active torsions:
REMARK  status: ('A' for Active; 'I' for Inactive)
ROOT
ATOM      1  O1  BZF d   1      -3.485  -5.471  -0.129  0.00  0.00    -0.204 OA
ATOM      2  C2  BZF d   1      -4.608  -5.735  -0.889  0.00  0.00     0.174 A 
ATOM      3  C3  BZF d   1      -5.670  -5.043  -0.429  0.00  0.00    -0.012 A 
ATOM      4  C3A BZF d   1      -5.159  -4.230   0.632  0.00  0.00    -0.107 A 
ATOM      5  C4  BZF d   1      -5.728  -3.313   1.469  0.00  0.00     0.055 A 
ATOM      6  C5  BZF d   1      -4.968  -2.750   2.445  0.00  0.00    -0.016 A 
ATOM      7  C6  BZF d   1      -3.641  -3.084   2.616  0.00  0.00     0.022 A 
ATOM      8  C7  BZF d   1      -3.032  -3.985   1.807  0.00  0.00     0.029 A 
ATOM      9  C7A BZF d   1      -3.788  -4.532   0.799  0.00  0.00     0.058 A 
ENDROOT
TORSDOF 0
ENDMDL
