MODEL 1
REMARK minimizedAffinity 19.1235542
REMARK minimizedRMSD -1
REMARK  0 active torsions:
REMARK  status: ('A' for Active; 'I' for Inactive)
ROOT
ATOM      1  O1  BZF d   1      -3.033   3.033  -0.267  0.00  0.00    -0.204 OA
ATOM      2  C2  BZF d   1      -3.629   2.778  -1.487  0.00  0.00     0.174 A 
ATOM      3  C3  BZF d   1      -2.698   2.598  -2.446  0.00  0.00    -0.012 A 
ATOM      4  C3A BZF d   1      -1.440   2.659  -1.766  0.00  0.00    -0.107 A 
ATOM      5  C4  BZF d   1      -0.144   2.535  -2.176  0.00  0.00     0.055 A 
ATOM      6  C5  BZF d   1       0.855   2.720  -1.273  0.00  0.00    -0.016 A 
ATOM      7  C6  BZF d   1       0.594   3.034   0.044  0.00  0.00     0.022 A 
ATOM      8  C7  BZF d   1      -0.676   3.161   0.500  0.00  0.00     0.029 A 
ATOM      9  C7A BZF d   1      -1.688   2.943  -0.403  0.00  0.00     0.058 A 
ENDROOT
TORSDOF 0
ENDMDL
