MODEL 1
REMARK minimizedAffinity 8.15897942
REMARK minimizedRMSD -1
REMARK  0 active torsions:
REMARK  status: ('A' for Active; 'I' for Inactive)
ROOT
ATOM      1  O1  BZF d   1      -3.414  -5.186  -1.122  0.00  0.00    -0.204 OA
ATOM      2  C2  BZF d   1      -4.529  -6.000  -1.175  0.00  0.00     0.174 A 
ATOM      3  C3  BZF d   1      -5.178  -6.000   0.007  0.00  0.00    -0.012 A 
ATOM      4  C3A BZF d   1      -4.473  -5.059   0.823  0.00  0.00    -0.107 A 
ATOM      5  C4  BZF d   1      -4.647  -4.609   2.101  0.00  0.00     0.055 A 
ATOM      6  C5  BZF d   1      -3.740  -3.743   2.625  0.00  0.00    -0.016 A 
ATOM      7  C6  BZF d   1      -2.647  -3.312   1.903  0.00  0.00     0.022 A 
ATOM      8  C7  BZF d   1      -2.435  -3.727   0.631  0.00  0.00     0.029 A 
ATOM      9  C7A BZF d   1      -3.367  -4.576   0.087  0.00  0.00     0.058 A 
ENDROOT
TORSDOF 0
ENDMDL
