MODEL 1
REMARK minimizedAffinity 14.8898735
REMARK minimizedRMSD -1
REMARK  0 active torsions:
REMARK  status: ('A' for Active; 'I' for Inactive)
ROOT
ATOM      1  O1  BZF d   1       3.725   0.840   3.191  0.00  0.00    -0.204 OA
ATOM      2  C2  BZF d   1       4.474   0.464   2.093  0.00  0.00     0.174 A 
ATOM      3  C3  BZF d   1       3.791  -0.409   1.324  0.00  0.00    -0.012 A 
ATOM      4  C3A BZF d   1       2.501  -0.519   1.935  0.00  0.00    -0.107 A 
ATOM      5  C4  BZF d   1       1.374  -1.224   1.626  0.00  0.00     0.055 A 
ATOM      6  C5  BZF d   1       0.308  -1.168   2.468  0.00  0.00    -0.016 A 
ATOM      7  C6  BZF d   1       0.339  -0.423   3.628  0.00  0.00     0.022 A 
ATOM      8  C7  BZF d   1       1.433   0.298   3.974  0.00  0.00     0.029 A 
ATOM      9  C7A BZF d   1       2.499   0.270   3.109  0.00  0.00     0.058 A 
ENDROOT
TORSDOF 0
ENDMDL
