MODEL 1
REMARK minimizedAffinity 16.1352291
REMARK minimizedRMSD -1
REMARK  0 active torsions:
REMARK  status: ('A' for Active; 'I' for Inactive)
ROOT
ATOM      1  O1  BZF d   1       0.565   2.387  -1.548  0.00  0.00    -0.204 OA
ATOM      2  C2  BZF d   1       0.821   3.036  -0.356  0.00  0.00     0.174 A 
ATOM      3  C3  BZF d   1      -0.220   3.818  -0.003  0.00  0.00    -0.012 A 
ATOM      4  C3A BZF d   1      -1.224   3.576  -0.993  0.00  0.00    -0.107 A 
ATOM      5  C4  BZF d   1      -2.492   4.048  -1.179  0.00  0.00     0.055 A 
ATOM      6  C5  BZF d   1      -3.182   3.669  -2.287  0.00  0.00    -0.016 A 
ATOM      7  C6  BZF d   1      -2.634   2.825  -3.230  0.00  0.00     0.022 A 
ATOM      8  C7  BZF d   1      -1.382   2.326  -3.087  0.00  0.00     0.029 A 
ATOM      9  C7A BZF d   1      -0.694   2.682  -1.952  0.00  0.00     0.058 A 
ENDROOT
TORSDOF 0
ENDMDL
