MODEL 1
REMARK minimizedAffinity 15.0062895
REMARK minimizedRMSD -1
REMARK  0 active torsions:
REMARK  status: ('A' for Active; 'I' for Inactive)
ROOT
ATOM      1  O1  BZF d   1       0.875   0.363   3.648  0.00  0.00    -0.204 OA
ATOM      2  C2  BZF d   1      -0.221  -0.403   3.300  0.00  0.00     0.174 A 
ATOM      3  C3  BZF d   1       0.088  -1.253   2.300  0.00  0.00    -0.012 A 
ATOM      4  C3A BZF d   1       1.488  -1.068   2.067  0.00  0.00    -0.107 A 
ATOM      5  C4  BZF d   1       2.380  -1.640   1.207  0.00  0.00     0.055 A 
ATOM      6  C5  BZF d   1       3.660  -1.183   1.182  0.00  0.00    -0.016 A 
ATOM      7  C6  BZF d   1       4.079  -0.153   1.998  0.00  0.00     0.022 A 
ATOM      8  C7  BZF d   1       3.231   0.442   2.872  0.00  0.00     0.029 A 
ATOM      9  C7A BZF d   1       1.946  -0.040   2.923  0.00  0.00     0.058 A 
ENDROOT
TORSDOF 0
ENDMDL
