MODEL 1
REMARK minimizedAffinity 20.1321545
REMARK minimizedRMSD -1
REMARK  0 active torsions:
REMARK  status: ('A' for Active; 'I' for Inactive)
ROOT
ATOM      1  O1  BZF d   1      -2.148   4.448  -1.993  0.00  0.00    -0.204 OA
ATOM      2  C2  BZF d   1      -2.254   3.075  -1.879  0.00  0.00     0.174 A 
ATOM      3  C3  BZF d   1      -2.230   2.492  -3.095  0.00  0.00    -0.012 A 
ATOM      4  C3A BZF d   1      -2.008   3.560  -4.021  0.00  0.00    -0.107 A 
ATOM      5  C4  BZF d   1      -1.872   3.612  -5.379  0.00  0.00     0.055 A 
ATOM      6  C5  BZF d   1      -1.739   4.822  -5.983  0.00  0.00    -0.016 A 
ATOM      7  C6  BZF d   1      -1.743   5.998  -5.262  0.00  0.00     0.022 A 
ATOM      8  C7  BZF d   1      -1.870   5.996  -3.913  0.00  0.00     0.029 A 
ATOM      9  C7A BZF d   1      -1.972   4.773  -3.296  0.00  0.00     0.058 A 
ENDROOT
TORSDOF 0
ENDMDL
