MODEL 1
REMARK minimizedAffinity 18.6207218
REMARK minimizedRMSD -1
REMARK  0 active torsions:
REMARK  status: ('A' for Active; 'I' for Inactive)
ROOT
ATOM      1  O1  BZF d   1      -0.274   1.997  -0.343  0.00  0.00    -0.204 OA
ATOM      2  C2  BZF d   1       0.762   2.906  -0.438  0.00  0.00     0.174 A 
ATOM      3  C3  BZF d   1       0.652   3.641  -1.564  0.00  0.00    -0.012 A 
ATOM      4  C3A BZF d   1      -0.576   3.224  -2.166  0.00  0.00    -0.107 A 
ATOM      5  C4  BZF d   1      -1.242   3.600  -3.298  0.00  0.00     0.055 A 
ATOM      6  C5  BZF d   1      -2.382   2.946  -3.642  0.00  0.00    -0.016 A 
ATOM      7  C6  BZF d   1      -2.882   1.909  -2.881  0.00  0.00     0.022 A 
ATOM      8  C7  BZF d   1      -2.260   1.504  -1.747  0.00  0.00     0.029 A 
ATOM      9  C7A BZF d   1      -1.125   2.185  -1.379  0.00  0.00     0.058 A 
ENDROOT
TORSDOF 0
ENDMDL
