MODEL 1
REMARK minimizedAffinity 13.2052307
REMARK minimizedRMSD -1
REMARK  0 active torsions:
REMARK  status: ('A' for Active; 'I' for Inactive)
ROOT
ATOM      1  O1  BZF d   1      -2.425  -2.252   3.966  0.00  0.00    -0.204 OA
ATOM      2  C2  BZF d   1      -2.853  -3.352   3.247  0.00  0.00     0.174 A 
ATOM      3  C3  BZF d   1      -1.993  -3.634   2.247  0.00  0.00    -0.012 A 
ATOM      4  C3A BZF d   1      -0.916  -2.705   2.404  0.00  0.00    -0.107 A 
ATOM      5  C4  BZF d   1       0.250  -2.496   1.724  0.00  0.00     0.055 A 
ATOM      6  C5  BZF d   1       1.050  -1.459   2.088  0.00  0.00    -0.016 A 
ATOM      7  C6  BZF d   1       0.713  -0.610   3.122  0.00  0.00     0.022 A 
ATOM      8  C7  BZF d   1      -0.431  -0.781   3.829  0.00  0.00     0.029 A 
ATOM      9  C7A BZF d   1      -1.225  -1.848   3.485  0.00  0.00     0.058 A 
ENDROOT
TORSDOF 0
ENDMDL
