MODEL 1
REMARK minimizedAffinity 25.0173187
REMARK minimizedRMSD -1
REMARK  0 active torsions:
REMARK  status: ('A' for Active; 'I' for Inactive)
ROOT
ATOM      1  O1  BZF d   1       0.400   0.071   4.364  0.00  0.00    -0.204 OA
ATOM      2  C2  BZF d   1      -0.618  -0.402   3.559  0.00  0.00     0.174 A 
ATOM      3  C3  BZF d   1      -0.146  -0.744   2.343  0.00  0.00    -0.012 A 
ATOM      4  C3A BZF d   1       1.270  -0.554   2.422  0.00  0.00    -0.107 A 
ATOM      5  C4  BZF d   1       2.293  -0.740   1.536  0.00  0.00     0.055 A 
ATOM      6  C5  BZF d   1       3.554  -0.390   1.902  0.00  0.00    -0.016 A 
ATOM      7  C6  BZF d   1       3.827   0.152   3.141  0.00  0.00     0.022 A 
ATOM      8  C7  BZF d   1       2.846   0.350   4.054  0.00  0.00     0.029 A 
ATOM      9  C7A BZF d   1       1.576  -0.033   3.700  0.00  0.00     0.058 A 
ENDROOT
TORSDOF 0
ENDMDL
