MODEL 1
REMARK minimizedAffinity 22.6523838
REMARK minimizedRMSD -1
REMARK  0 active torsions:
REMARK  status: ('A' for Active; 'I' for Inactive)
ROOT
ATOM      1  O1  BZF d   1       1.043   0.270   5.183  0.00  0.00    -0.204 OA
ATOM      2  C2  BZF d   1      -0.039   0.006   6.000  0.00  0.00     0.174 A 
ATOM      3  C3  BZF d   1      -0.965  -0.725   5.346  0.00  0.00    -0.012 A 
ATOM      4  C3A BZF d   1      -0.386  -1.009   4.069  0.00  0.00    -0.107 A 
ATOM      5  C4  BZF d   1      -0.815  -1.712   2.979  0.00  0.00     0.055 A 
ATOM      6  C5  BZF d   1      -0.041  -1.737   1.863  0.00  0.00    -0.016 A 
ATOM      7  C6  BZF d   1       1.163  -1.067   1.799  0.00  0.00     0.022 A 
ATOM      8  C7  BZF d   1       1.633  -0.361   2.856  0.00  0.00     0.029 A 
ATOM      9  C7A BZF d   1       0.869  -0.361   3.997  0.00  0.00     0.058 A 
ENDROOT
TORSDOF 0
ENDMDL
