MODEL 1
REMARK minimizedAffinity 9.83424091
REMARK minimizedRMSD -1
REMARK  0 active torsions:
REMARK  status: ('A' for Active; 'I' for Inactive)
ROOT
ATOM      1  O1  BZF d   1       1.353   0.403   3.886  0.00  0.00    -0.204 OA
ATOM      2  C2  BZF d   1       0.234  -0.336   3.554  0.00  0.00     0.174 A 
ATOM      3  C3  BZF d   1       0.492  -1.153   2.513  0.00  0.00    -0.012 A 
ATOM      4  C3A BZF d   1       1.884  -0.977   2.232  0.00  0.00    -0.107 A 
ATOM      5  C4  BZF d   1       2.734  -1.529   1.317  0.00  0.00     0.055 A 
ATOM      6  C5  BZF d   1       4.018  -1.088   1.259  0.00  0.00    -0.016 A 
ATOM      7  C6  BZF d   1       4.483  -0.094   2.095  0.00  0.00     0.022 A 
ATOM      8  C7  BZF d   1       3.678   0.480   3.022  0.00  0.00     0.029 A 
ATOM      9  C7A BZF d   1       2.390   0.013   3.106  0.00  0.00     0.058 A 
ENDROOT
TORSDOF 0
ENDMDL
