MODEL 1
REMARK minimizedAffinity 17.5806026
REMARK minimizedRMSD -1
REMARK  0 active torsions:
REMARK  status: ('A' for Active; 'I' for Inactive)
ROOT
ATOM      1  O1  BZF d   1       0.229   0.138   4.938  0.00  0.00    -0.204 OA
ATOM      2  C2  BZF d   1      -0.997  -0.345   4.521  0.00  0.00     0.174 A 
ATOM      3  C3  BZF d   1      -0.929  -0.790   3.250  0.00  0.00    -0.012 A 
ATOM      4  C3A BZF d   1       0.446  -0.657   2.878  0.00  0.00    -0.107 A 
ATOM      5  C4  BZF d   1       1.143  -0.948   1.740  0.00  0.00     0.055 A 
ATOM      6  C5  BZF d   1       2.462  -0.630   1.674  0.00  0.00    -0.016 A 
ATOM      7  C6  BZF d   1       3.114  -0.016   2.723  0.00  0.00     0.022 A 
ATOM      8  C7  BZF d   1       2.466   0.288   3.874  0.00  0.00     0.029 A 
ATOM      9  C7A BZF d   1       1.141  -0.063   3.956  0.00  0.00     0.058 A 
ENDROOT
TORSDOF 0
ENDMDL
