MODEL 1
REMARK minimizedAffinity 6.65450668
REMARK minimizedRMSD -1
REMARK  0 active torsions:
REMARK  status: ('A' for Active; 'I' for Inactive)
ROOT
ATOM      1  O1  BZF d   1      -4.480   3.797  -0.542  0.00  0.00    -0.204 OA
ATOM      2  C2  BZF d   1      -4.666   5.136  -0.825  0.00  0.00     0.174 A 
ATOM      3  C3  BZF d   1      -3.726   5.578  -1.686  0.00  0.00    -0.012 A 
ATOM      4  C3A BZF d   1      -2.957   4.421  -2.030  0.00  0.00    -0.107 A 
ATOM      5  C4  BZF d   1      -1.891   4.215  -2.858  0.00  0.00     0.055 A 
ATOM      6  C5  BZF d   1      -1.328   2.980  -2.914  0.00  0.00    -0.016 A 
ATOM      7  C6  BZF d   1      -1.801   1.931  -2.153  0.00  0.00     0.022 A 
ATOM      8  C7  BZF d   1      -2.859   2.086  -1.321  0.00  0.00     0.029 A 
ATOM      9  C7A BZF d   1      -3.451   3.325  -1.287  0.00  0.00     0.058 A 
ENDROOT
TORSDOF 0
ENDMDL
