MODEL 1
REMARK minimizedAffinity 13.882987
REMARK minimizedRMSD -1
REMARK  0 active torsions:
REMARK  status: ('A' for Active; 'I' for Inactive)
ROOT
ATOM      1  O1  BZF d   1       5.389  -5.997   3.776  0.00  0.00    -0.204 OA
ATOM      2  C2  BZF d   1       5.999  -5.993   5.015  0.00  0.00     0.174 A 
ATOM      3  C3  BZF d   1       5.082  -5.911   6.000  0.00  0.00    -0.012 A 
ATOM      4  C3A BZF d   1       3.814  -5.954   5.338  0.00  0.00    -0.107 A 
ATOM      5  C4  BZF d   1       2.522  -5.927   5.780  0.00  0.00     0.055 A 
ATOM      6  C5  BZF d   1       1.513  -5.911   4.871  0.00  0.00    -0.016 A 
ATOM      7  C6  BZF d   1       1.758  -5.916   3.513  0.00  0.00     0.022 A 
ATOM      8  C7  BZF d   1       3.023  -5.948   3.027  0.00  0.00     0.029 A 
ATOM      9  C7A BZF d   1       4.045  -5.997   3.943  0.00  0.00     0.058 A 
ENDROOT
TORSDOF 0
ENDMDL
