MODEL 1
REMARK minimizedAffinity 1.41814828
REMARK minimizedRMSD -1
REMARK  0 active torsions:
REMARK  status: ('A' for Active; 'I' for Inactive)
ROOT
ATOM      1  O1  BZF d   1      -2.070   0.128   1.134  0.00  0.00    -0.204 OA
ATOM      2  C2  BZF d   1      -2.468  -1.195   1.165  0.00  0.00     0.174 A 
ATOM      3  C3  BZF d   1      -1.471  -2.003   0.752  0.00  0.00    -0.012 A 
ATOM      4  C3A BZF d   1      -0.352  -1.139   0.531  0.00  0.00    -0.107 A 
ATOM      5  C4  BZF d   1       0.934  -1.354   0.127  0.00  0.00     0.055 A 
ATOM      6  C5  BZF d   1       1.755  -0.287  -0.059  0.00  0.00    -0.016 A 
ATOM      7  C6  BZF d   1       1.321   1.007   0.144  0.00  0.00     0.022 A 
ATOM      8  C7  BZF d   1       0.055   1.269   0.550  0.00  0.00     0.029 A 
ATOM      9  C7A BZF d   1      -0.767   0.191   0.771  0.00  0.00     0.058 A 
ENDROOT
TORSDOF 0
ENDMDL
