MODEL 1
REMARK minimizedAffinity 9.43562984
REMARK minimizedRMSD -1
REMARK  0 active torsions:
REMARK  status: ('A' for Active; 'I' for Inactive)
ROOT
ATOM      1  C   UNL d   1      -1.199  -5.840  -1.156  0.00  0.00     0.077 C 
ATOM      2  C1  UNL d   1       0.240  -5.887  -1.576  0.00  0.00    -0.074 A 
ATOM      3  C2  UNL d   1       1.265  -5.921  -0.625  0.00  0.00    -0.005 A 
ATOM      4  C3  UNL d   1       2.599  -5.975  -1.030  0.00  0.00     0.006 A 
ATOM      5  C4  UNL d   1       2.920  -5.995  -2.388  0.00  0.00    -0.005 A 
ATOM      6  C5  UNL d   1       1.908  -5.963  -3.353  0.00  0.00    -0.074 A 
ATOM      7  C6  UNL d   1       2.236  -5.995  -4.816  0.00  0.00     0.077 C 
ATOM      8  C7  UNL d   1       0.571  -5.916  -2.938  0.00  0.00    -0.001 A 
ENDROOT
TORSDOF 0
ENDMDL
