MODEL 1
REMARK minimizedAffinity 0.855259717
REMARK minimizedRMSD -1
REMARK  0 active torsions:
REMARK  status: ('A' for Active; 'I' for Inactive)
ROOT
ATOM      1  C   UNL d   1       5.974  -5.708  -5.997  0.00  0.00     0.077 C 
ATOM      2  C1  UNL d   1       4.867  -5.707  -4.985  0.00  0.00    -0.074 A 
ATOM      3  C2  UNL d   1       3.550  -5.995  -5.360  0.00  0.00    -0.005 A 
ATOM      4  C3  UNL d   1       2.533  -5.999  -4.406  0.00  0.00     0.006 A 
ATOM      5  C4  UNL d   1       2.821  -5.716  -3.070  0.00  0.00    -0.005 A 
ATOM      6  C5  UNL d   1       4.131  -5.426  -2.677  0.00  0.00    -0.074 A 
ATOM      7  C6  UNL d   1       4.459  -5.129  -1.244  0.00  0.00     0.077 C 
ATOM      8  C7  UNL d   1       5.149  -5.431  -3.640  0.00  0.00    -0.001 A 
ENDROOT
TORSDOF 0
ENDMDL
