MODEL 1
REMARK minimizedAffinity 1.26291883
REMARK minimizedRMSD -1
REMARK  0 active torsions:
REMARK  status: ('A' for Active; 'I' for Inactive)
ROOT
ATOM      1  C   UNL d   1       5.153  -2.905   3.541  0.00  0.00     0.077 C 
ATOM      2  C1  UNL d   1       3.658  -2.863   3.660  0.00  0.00    -0.074 A 
ATOM      3  C2  UNL d   1       2.908  -1.915   2.957  0.00  0.00    -0.005 A 
ATOM      4  C3  UNL d   1       1.518  -1.894   3.071  0.00  0.00     0.006 A 
ATOM      5  C4  UNL d   1       0.865  -2.819   3.887  0.00  0.00    -0.005 A 
ATOM      6  C5  UNL d   1       1.599  -3.775   4.597  0.00  0.00    -0.074 A 
ATOM      7  C6  UNL d   1       0.913  -4.782   5.471  0.00  0.00     0.077 C 
ATOM      8  C7  UNL d   1       2.995  -3.794   4.472  0.00  0.00    -0.001 A 
ENDROOT
TORSDOF 0
ENDMDL
