MODEL 1
REMARK minimizedAffinity 0.785744011
REMARK minimizedRMSD -1
REMARK  0 active torsions:
REMARK  status: ('A' for Active; 'I' for Inactive)
ROOT
ATOM      1  C   UNL d   1       1.147  -5.999  -5.802  0.00  0.00     0.077 C 
ATOM      2  C1  UNL d   1       2.397  -5.992  -4.973  0.00  0.00    -0.074 A 
ATOM      3  C2  UNL d   1       3.660  -6.000  -5.576  0.00  0.00    -0.005 A 
ATOM      4  C3  UNL d   1       4.813  -5.983  -4.793  0.00  0.00     0.006 A 
ATOM      5  C4  UNL d   1       4.717  -5.959  -3.401  0.00  0.00    -0.005 A 
ATOM      6  C5  UNL d   1       3.464  -5.950  -2.780  0.00  0.00    -0.074 A 
ATOM      7  C6  UNL d   1       3.342  -5.914  -1.286  0.00  0.00     0.077 C 
ATOM      8  C7  UNL d   1       2.309  -5.960  -3.575  0.00  0.00    -0.001 A 
ENDROOT
TORSDOF 0
ENDMDL
