MODEL 1
REMARK minimizedAffinity 4.73374701
REMARK minimizedRMSD -1
REMARK  0 active torsions:
REMARK  status: ('A' for Active; 'I' for Inactive)
ROOT
ATOM      1  C   UNL d   1       4.426  -3.152   5.999  0.00  0.00     0.077 C 
ATOM      2  C1  UNL d   1       3.526  -3.283   4.807  0.00  0.00    -0.074 A 
ATOM      3  C2  UNL d   1       3.324  -4.522   4.191  0.00  0.00    -0.005 A 
ATOM      4  C3  UNL d   1       2.476  -4.630   3.089  0.00  0.00     0.006 A 
ATOM      5  C4  UNL d   1       1.824  -3.502   2.591  0.00  0.00    -0.005 A 
ATOM      6  C5  UNL d   1       2.013  -2.254   3.194  0.00  0.00    -0.074 A 
ATOM      7  C6  UNL d   1       1.312  -1.033   2.677  0.00  0.00     0.077 C 
ATOM      8  C7  UNL d   1       2.860  -2.155   4.306  0.00  0.00    -0.001 A 
ENDROOT
TORSDOF 0
ENDMDL
