MODEL 1
REMARK minimizedAffinity 0.638543725
REMARK minimizedRMSD -1
REMARK  0 active torsions:
REMARK  status: ('A' for Active; 'I' for Inactive)
ROOT
ATOM      1  C   UNL d   1       5.994  -2.670   3.653  0.00  0.00     0.077 C 
ATOM      2  C1  UNL d   1       4.509  -2.783   3.479  0.00  0.00    -0.074 A 
ATOM      3  C2  UNL d   1       3.826  -3.940   3.868  0.00  0.00    -0.005 A 
ATOM      4  C3  UNL d   1       2.443  -4.027   3.708  0.00  0.00     0.006 A 
ATOM      5  C4  UNL d   1       1.730  -2.961   3.159  0.00  0.00    -0.005 A 
ATOM      6  C5  UNL d   1       2.396  -1.796   2.765  0.00  0.00    -0.074 A 
ATOM      7  C6  UNL d   1       1.645  -0.636   2.182  0.00  0.00     0.077 C 
ATOM      8  C7  UNL d   1       3.785  -1.713   2.935  0.00  0.00    -0.001 A 
ENDROOT
TORSDOF 0
ENDMDL
