MODEL 1
REMARK minimizedAffinity 10.4719086
REMARK minimizedRMSD -1
REMARK  0 active torsions:
REMARK  status: ('A' for Active; 'I' for Inactive)
ROOT
ATOM      1  C   UNL d   1       2.960  -5.560   1.193  0.00  0.00     0.077 C 
ATOM      2  C1  UNL d   1       3.392  -5.139  -0.180  0.00  0.00    -0.074 A 
ATOM      3  C2  UNL d   1       4.136  -5.999  -0.995  0.00  0.00    -0.005 A 
ATOM      4  C3  UNL d   1       4.523  -5.597  -2.273  0.00  0.00     0.006 A 
ATOM      5  C4  UNL d   1       4.170  -4.333  -2.749  0.00  0.00    -0.005 A 
ATOM      6  C5  UNL d   1       3.426  -3.460  -1.949  0.00  0.00    -0.074 A 
ATOM      7  C6  UNL d   1       3.030  -2.103  -2.449  0.00  0.00     0.077 C 
ATOM      8  C7  UNL d   1       3.035  -3.874  -0.668  0.00  0.00    -0.001 A 
ENDROOT
TORSDOF 0
ENDMDL
