MODEL 1
REMARK minimizedAffinity 2.31342387
REMARK minimizedRMSD -1
REMARK  0 active torsions:
REMARK  status: ('A' for Active; 'I' for Inactive)
ROOT
ATOM      1  C   UNL d   1       1.208  -0.479   2.594  0.00  0.00     0.077 C 
ATOM      2  C1  UNL d   1       2.010  -1.699   2.935  0.00  0.00    -0.074 A 
ATOM      3  C2  UNL d   1       1.390  -2.941   3.110  0.00  0.00    -0.005 A 
ATOM      4  C3  UNL d   1       2.150  -4.069   3.418  0.00  0.00     0.006 A 
ATOM      5  C4  UNL d   1       3.535  -3.968   3.553  0.00  0.00    -0.005 A 
ATOM      6  C5  UNL d   1       4.172  -2.735   3.380  0.00  0.00    -0.074 A 
ATOM      7  C6  UNL d   1       5.661  -2.611   3.512  0.00  0.00     0.077 C 
ATOM      8  C7  UNL d   1       3.402  -1.607   3.064  0.00  0.00    -0.001 A 
ENDROOT
TORSDOF 0
ENDMDL
