MODEL 1
REMARK minimizedAffinity 9.33088779
REMARK minimizedRMSD -1
REMARK  0 active torsions:
REMARK  status: ('A' for Active; 'I' for Inactive)
ROOT
ATOM      1  C   UNL d   1       2.199   0.069   2.601  0.00  0.00     0.077 C 
ATOM      2  C1  UNL d   1       1.918  -1.375   2.891  0.00  0.00    -0.074 A 
ATOM      3  C2  UNL d   1       0.863  -2.043   2.261  0.00  0.00    -0.005 A 
ATOM      4  C3  UNL d   1       0.620  -3.389   2.534  0.00  0.00     0.006 A 
ATOM      5  C4  UNL d   1       1.427  -4.079   3.438  0.00  0.00    -0.005 A 
ATOM      6  C5  UNL d   1       2.487  -3.428   4.077  0.00  0.00    -0.074 A 
ATOM      7  C6  UNL d   1       3.371  -4.159   5.045  0.00  0.00     0.077 C 
ATOM      8  C7  UNL d   1       2.730  -2.078   3.792  0.00  0.00    -0.001 A 
ENDROOT
TORSDOF 0
ENDMDL
