MODEL 1
REMARK minimizedAffinity 4.95468044
REMARK minimizedRMSD -1
REMARK  0 active torsions:
REMARK  status: ('A' for Active; 'I' for Inactive)
ROOT
ATOM      1  C   UNL d   1       4.410  -6.000   0.123  0.00  0.00    -0.002 A 
ATOM      2  C1  UNL d   1       4.604  -5.794  -1.236  0.00  0.00     0.010 A 
ATOM      3  C2  UNL d   1       3.565  -5.318  -2.037  0.00  0.00     0.041 A 
ATOM      4  C3  UNL d   1       2.316  -5.047  -1.445  0.00  0.00    -0.075 A 
ATOM      5  S   UNL d   1       0.899  -4.456  -2.230  0.00  0.00     0.015 SA
ATOM      6  C4  UNL d   1       0.003  -4.462  -0.780  0.00  0.00     0.022 A 
ATOM      7  C5  UNL d   1       0.751  -4.902   0.286  0.00  0.00     0.026 A 
ATOM      8  C6  UNL d   1       2.096  -5.246  -0.079  0.00  0.00    -0.082 A 
ATOM      9  C7  UNL d   1       3.169  -5.730   0.707  0.00  0.00     0.045 A 
ENDROOT
TORSDOF 0
ENDMDL
