MODEL 1
REMARK minimizedAffinity 2.99369669
REMARK minimizedRMSD -1
REMARK  0 active torsions:
REMARK  status: ('A' for Active; 'I' for Inactive)
ROOT
ATOM      1  C   UNL d   1       2.768  -0.063   1.397  0.00  0.00    -0.002 A 
ATOM      2  C1  UNL d   1       2.373  -0.294   2.707  0.00  0.00     0.010 A 
ATOM      3  C2  UNL d   1       1.119  -0.840   2.985  0.00  0.00     0.041 A 
ATOM      4  C3  UNL d   1       0.260  -1.156   1.913  0.00  0.00    -0.075 A 
ATOM      5  S   UNL d   1      -1.322  -1.834   2.014  0.00  0.00     0.015 SA
ATOM      6  C4  UNL d   1      -1.510  -1.834   0.320  0.00  0.00     0.022 A 
ATOM      7  C5  UNL d   1      -0.403  -1.332  -0.322  0.00  0.00     0.026 A 
ATOM      8  C6  UNL d   1       0.636  -0.933   0.586  0.00  0.00    -0.082 A 
ATOM      9  C7  UNL d   1       1.914  -0.377   0.337  0.00  0.00     0.045 A 
ENDROOT
TORSDOF 0
ENDMDL
