MODEL 1
REMARK minimizedAffinity 16.9507351
REMARK minimizedRMSD -1
REMARK  0 active torsions:
REMARK  status: ('A' for Active; 'I' for Inactive)
ROOT
ATOM      1  C   UNL d   1       0.655  -0.131   1.386  0.00  0.00    -0.002 A 
ATOM      2  C1  UNL d   1      -0.480   0.495   0.889  0.00  0.00     0.010 A 
ATOM      3  C2  UNL d   1      -0.783   1.809   1.253  0.00  0.00     0.041 A 
ATOM      4  C3  UNL d   1       0.082   2.490   2.131  0.00  0.00    -0.075 A 
ATOM      5  S   UNL d   1      -0.087   4.103   2.714  0.00  0.00     0.015 SA
ATOM      6  C4  UNL d   1       1.343   4.001   3.635  0.00  0.00     0.022 A 
ATOM      7  C5  UNL d   1       1.948   2.772   3.513  0.00  0.00     0.026 A 
ATOM      8  C6  UNL d   1       1.232   1.881   2.644  0.00  0.00    -0.082 A 
ATOM      9  C7  UNL d   1       1.511   0.548   2.257  0.00  0.00     0.045 A 
ENDROOT
TORSDOF 0
ENDMDL
