MODEL 1
REMARK minimizedAffinity -0.492738485
REMARK minimizedRMSD -1
REMARK  0 active torsions:
REMARK  status: ('A' for Active; 'I' for Inactive)
ROOT
ATOM      1  C   UNL d   1      -4.840   3.255  -1.525  0.00  0.00    -0.002 A 
ATOM      2  C1  UNL d   1      -5.580   2.341  -2.262  0.00  0.00     0.010 A 
ATOM      3  C2  UNL d   1      -5.981   2.638  -3.566  0.00  0.00     0.041 A 
ATOM      4  C3  UNL d   1      -5.620   3.880  -4.124  0.00  0.00    -0.075 A 
ATOM      5  S   UNL d   1      -5.999   4.460  -5.702  0.00  0.00     0.015 SA
ATOM      6  C4  UNL d   1      -5.187   5.935  -5.437  0.00  0.00     0.022 A 
ATOM      7  C5  UNL d   1      -4.634   6.000  -4.179  0.00  0.00     0.026 A 
ATOM      8  C6  UNL d   1      -4.875   4.817  -3.402  0.00  0.00    -0.082 A 
ATOM      9  C7  UNL d   1      -4.484   4.486  -2.082  0.00  0.00     0.045 A 
ENDROOT
TORSDOF 0
ENDMDL
