MODEL 1
REMARK minimizedAffinity 6.21528721
REMARK minimizedRMSD -1
REMARK  0 active torsions:
REMARK  status: ('A' for Active; 'I' for Inactive)
ROOT
ATOM      1  C   UNL d   1      -1.606  -3.391  -2.478  0.00  0.00    -0.002 A 
ATOM      2  C1  UNL d   1      -0.842  -3.951  -1.464  0.00  0.00     0.010 A 
ATOM      3  C2  UNL d   1      -0.212  -3.140  -0.519  0.00  0.00     0.041 A 
ATOM      4  C3  UNL d   1      -0.365  -1.742  -0.610  0.00  0.00    -0.075 A 
ATOM      5  S   UNL d   1       0.314  -0.552   0.437  0.00  0.00     0.015 SA
ATOM      6  C4  UNL d   1      -0.395   0.728  -0.437  0.00  0.00     0.022 A 
ATOM      7  C5  UNL d   1      -1.134   0.277  -1.504  0.00  0.00     0.026 A 
ATOM      8  C6  UNL d   1      -1.129  -1.154  -1.621  0.00  0.00    -0.082 A 
ATOM      9  C7  UNL d   1      -1.755  -2.004  -2.565  0.00  0.00     0.045 A 
ENDROOT
TORSDOF 0
ENDMDL
