MODEL 1
REMARK minimizedAffinity 9.22204685
REMARK minimizedRMSD -1
REMARK  0 active torsions:
REMARK  status: ('A' for Active; 'I' for Inactive)
ROOT
ATOM      1  C   UNL d   1      -3.676   5.832  -1.485  0.00  0.00    -0.002 A 
ATOM      2  C1  UNL d   1      -2.473   5.796  -2.175  0.00  0.00     0.010 A 
ATOM      3  C2  UNL d   1      -2.454   5.822  -3.571  0.00  0.00     0.041 A 
ATOM      4  C3  UNL d   1      -3.677   5.887  -4.268  0.00  0.00    -0.075 A 
ATOM      5  S   UNL d   1      -3.898   5.930  -5.977  0.00  0.00     0.015 SA
ATOM      6  C4  UNL d   1      -5.594   5.999  -5.831  0.00  0.00     0.022 A 
ATOM      7  C5  UNL d   1      -6.000   5.990  -4.517  0.00  0.00     0.026 A 
ATOM      8  C6  UNL d   1      -4.901   5.926  -3.595  0.00  0.00    -0.082 A 
ATOM      9  C7  UNL d   1      -4.887   5.897  -2.179  0.00  0.00     0.045 A 
ENDROOT
TORSDOF 0
ENDMDL
