MODEL 1
REMARK minimizedAffinity 18.6880093
REMARK minimizedRMSD -1
REMARK  0 active torsions:
REMARK  status: ('A' for Active; 'I' for Inactive)
ROOT
ATOM      1  C   UNL d   1       2.723  -1.117   1.967  0.00  0.00    -0.002 A 
ATOM      2  C1  UNL d   1       2.670  -1.122   3.353  0.00  0.00     0.010 A 
ATOM      3  C2  UNL d   1       1.513  -1.533   4.018  0.00  0.00     0.041 A 
ATOM      4  C3  UNL d   1       0.400  -1.945   3.259  0.00  0.00    -0.075 A 
ATOM      5  S   UNL d   1      -1.122  -2.491   3.857  0.00  0.00     0.015 SA
ATOM      6  C4  UNL d   1      -1.737  -2.732   2.286  0.00  0.00     0.022 A 
ATOM      7  C5  UNL d   1      -0.818  -2.409   1.317  0.00  0.00     0.026 A 
ATOM      8  C6  UNL d   1       0.430  -1.951   1.862  0.00  0.00    -0.082 A 
ATOM      9  C7  UNL d   1       1.617  -1.527   1.217  0.00  0.00     0.045 A 
ENDROOT
TORSDOF 0
ENDMDL
