MODEL 1
REMARK minimizedAffinity 9.05750751
REMARK minimizedRMSD -1
REMARK  1 active torsions:
REMARK  status: ('A' for Active; 'I' for Inactive)
REMARK    1  A    between atoms: C1_2  and  C2_3 
ROOT
ATOM      1  C2  UNL d   1      -0.363   0.363   3.451  0.00  0.00    -0.076 A 
ATOM      2  C3  UNL d   1       0.414  -0.699   2.956  0.00  0.00     0.004 A 
ATOM      3  C4  UNL d   1       1.758  -0.827   3.301  0.00  0.00    -0.003 A 
ATOM      4  C5  UNL d   1       2.347   0.105   4.148  0.00  0.00     0.000 A 
ATOM      5  C6  UNL d   1       1.588   1.155   4.662  0.00  0.00     0.000 A 
ATOM      6  C7  UNL d   1       0.227   1.290   4.337  0.00  0.00    -0.073 A 
ATOM      7  C8  UNL d   1      -0.543   2.445   4.915  0.00  0.00     0.078 C 
ENDROOT
BRANCH   1   8
ATOM      8  C1  UNL d   1      -1.808   0.466   3.020  0.00  0.00     0.053 C 
ATOM      9  C   UNL d   1      -2.472  -0.895   2.876  0.00  0.00     0.018 C 
ENDBRANCH   1   8
TORSDOF 1
ENDMDL
