MODEL 1
REMARK minimizedAffinity 9.13577938
REMARK minimizedRMSD -1
REMARK  1 active torsions:
REMARK  status: ('A' for Active; 'I' for Inactive)
REMARK    1  A    between atoms: C1_2  and  C2_3 
ROOT
ATOM      1  C2  UNL d   1      -1.272  -0.702   2.986  0.00  0.00    -0.076 A 
ATOM      2  C3  UNL d   1      -0.827  -1.947   3.462  0.00  0.00     0.004 A 
ATOM      3  C4  UNL d   1       0.517  -2.162   3.763  0.00  0.00    -0.003 A 
ATOM      4  C5  UNL d   1       1.438  -1.134   3.593  0.00  0.00     0.000 A 
ATOM      5  C6  UNL d   1       1.011   0.113   3.138  0.00  0.00     0.000 A 
ATOM      6  C7  UNL d   1      -0.343   0.351   2.846  0.00  0.00    -0.073 A 
ATOM      7  C8  UNL d   1      -0.746   1.714   2.352  0.00  0.00     0.078 C 
ENDROOT
BRANCH   1   8
ATOM      8  C1  UNL d   1      -2.737  -0.536   2.650  0.00  0.00     0.053 C 
ATOM      9  C   UNL d   1      -3.573  -1.731   3.083  0.00  0.00     0.018 C 
ENDBRANCH   1   8
TORSDOF 1
ENDMDL
