MODEL 1
REMARK minimizedAffinity 16.9194813
REMARK minimizedRMSD -1
REMARK  1 active torsions:
REMARK  status: ('A' for Active; 'I' for Inactive)
REMARK    1  A    between atoms: C1_2  and  C2_3 
ROOT
ATOM      1  C2  UNL d   1       0.267   0.642   4.175  0.00  0.00    -0.076 A 
ATOM      2  C3  UNL d   1      -0.740   1.386   3.537  0.00  0.00     0.004 A 
ATOM      3  C4  UNL d   1      -1.179   1.049   2.257  0.00  0.00    -0.003 A 
ATOM      4  C5  UNL d   1      -0.618  -0.038   1.596  0.00  0.00     0.000 A 
ATOM      5  C6  UNL d   1       0.370  -0.798   2.221  0.00  0.00     0.000 A 
ATOM      6  C7  UNL d   1       0.812  -0.481   3.517  0.00  0.00    -0.073 A 
ATOM      7  C8  UNL d   1       1.885  -1.331   4.142  0.00  0.00     0.078 C 
ENDROOT
BRANCH   1   8
ATOM      8  C1  UNL d   1       0.722   1.071   5.552  0.00  0.00     0.053 C 
ATOM      9  C   UNL d   1       0.080   2.376   5.997  0.00  0.00     0.018 C 
ENDBRANCH   1   8
TORSDOF 1
ENDMDL
