MODEL 1
REMARK minimizedAffinity 18.485363
REMARK minimizedRMSD -1
REMARK  1 active torsions:
REMARK  status: ('A' for Active; 'I' for Inactive)
REMARK    1  A    between atoms: C1_2  and  C2_3 
ROOT
ATOM      1  C2  UNL d   1      -0.641  -0.374   2.731  0.00  0.00    -0.076 A 
ATOM      2  C3  UNL d   1      -0.524  -1.183   3.875  0.00  0.00     0.004 A 
ATOM      3  C4  UNL d   1       0.727  -1.526   4.385  0.00  0.00    -0.003 A 
ATOM      4  C5  UNL d   1       1.881  -1.064   3.761  0.00  0.00     0.000 A 
ATOM      5  C6  UNL d   1       1.783  -0.246   2.636  0.00  0.00     0.000 A 
ATOM      6  C7  UNL d   1       0.529   0.122   2.118  0.00  0.00    -0.073 A 
ATOM      7  C8  UNL d   1       0.482   1.002   0.899  0.00  0.00     0.078 C 
ENDROOT
BRANCH   1   8
ATOM      8  C1  UNL d   1      -2.024  -0.058   2.207  0.00  0.00     0.053 C 
ATOM      9  C   UNL d   1      -3.042  -1.129   2.565  0.00  0.00     0.018 C 
ENDBRANCH   1   8
TORSDOF 1
ENDMDL
