MODEL 1
REMARK minimizedAffinity 17.7730198
REMARK minimizedRMSD -1
REMARK  1 active torsions:
REMARK  status: ('A' for Active; 'I' for Inactive)
REMARK    1  A    between atoms: C1_2  and  C2_3 
ROOT
ATOM      1  C2  UNL d   1       0.910  -2.120  -5.005  0.00  0.00    -0.076 A 
ATOM      2  C3  UNL d   1      -0.323  -2.571  -5.506  0.00  0.00     0.004 A 
ATOM      3  C4  UNL d   1      -0.466  -3.867  -6.000  0.00  0.00    -0.003 A 
ATOM      4  C5  UNL d   1       0.622  -4.732  -6.000  0.00  0.00     0.000 A 
ATOM      5  C6  UNL d   1       1.849  -4.307  -5.490  0.00  0.00     0.000 A 
ATOM      6  C7  UNL d   1       2.005  -3.010  -4.973  0.00  0.00    -0.073 A 
ATOM      7  C8  UNL d   1       3.352  -2.602  -4.442  0.00  0.00     0.078 C 
ENDROOT
BRANCH   1   8
ATOM      8  C1  UNL d   1       1.013  -0.696  -4.507  0.00  0.00     0.053 C 
ATOM      9  C   UNL d   1      -0.018  -0.377  -3.435  0.00  0.00     0.018 C 
ENDBRANCH   1   8
TORSDOF 1
ENDMDL
