MODEL 1
REMARK minimizedAffinity 4.58733463
REMARK minimizedRMSD -1
REMARK  1 active torsions:
REMARK  status: ('A' for Active; 'I' for Inactive)
REMARK    1  A    between atoms: C1_2  and  C2_3 
ROOT
ATOM      1  C2  UNL d   1       4.231  -4.554  -1.895  0.00  0.00    -0.076 A 
ATOM      2  C3  UNL d   1       3.927  -3.307  -1.322  0.00  0.00     0.004 A 
ATOM      3  C4  UNL d   1       3.622  -2.205  -2.120  0.00  0.00    -0.003 A 
ATOM      4  C5  UNL d   1       3.616  -2.333  -3.504  0.00  0.00     0.000 A 
ATOM      5  C6  UNL d   1       3.898  -3.567  -4.090  0.00  0.00     0.000 A 
ATOM      6  C7  UNL d   1       4.192  -4.691  -3.299  0.00  0.00    -0.073 A 
ATOM      7  C8  UNL d   1       4.494  -5.996  -3.984  0.00  0.00     0.078 C 
ENDROOT
BRANCH   1   8
ATOM      8  C1  UNL d   1       4.581  -5.705  -0.980  0.00  0.00     0.053 C 
ATOM      9  C   UNL d   1       5.997  -5.607  -0.434  0.00  0.00     0.018 C 
ENDBRANCH   1   8
TORSDOF 1
ENDMDL
