MODEL 1
REMARK minimizedAffinity 2.22518754
REMARK minimizedRMSD -1
REMARK  1 active torsions:
REMARK  status: ('A' for Active; 'I' for Inactive)
REMARK    1  A    between atoms: C1_2  and  C2_3 
ROOT
ATOM      1  C2  UNL d   1       4.519  -3.448  -1.798  0.00  0.00    -0.076 A 
ATOM      2  C3  UNL d   1       4.913  -4.580  -1.063  0.00  0.00     0.004 A 
ATOM      3  C4  UNL d   1       4.926  -5.845  -1.647  0.00  0.00    -0.003 A 
ATOM      4  C5  UNL d   1       4.546  -6.000  -2.975  0.00  0.00     0.000 A 
ATOM      5  C6  UNL d   1       4.169  -4.885  -3.724  0.00  0.00     0.000 A 
ATOM      6  C7  UNL d   1       4.166  -3.600  -3.156  0.00  0.00    -0.073 A 
ATOM      7  C8  UNL d   1       3.744  -2.435  -4.008  0.00  0.00     0.078 C 
ENDROOT
BRANCH   1   8
ATOM      8  C1  UNL d   1       4.499  -2.105  -1.104  0.00  0.00     0.053 C 
ATOM      9  C   UNL d   1       3.227  -1.884  -0.299  0.00  0.00     0.018 C 
ENDBRANCH   1   8
TORSDOF 1
ENDMDL
