MODEL 1
REMARK minimizedAffinity 2.45590019
REMARK minimizedRMSD -1
REMARK  1 active torsions:
REMARK  status: ('A' for Active; 'I' for Inactive)
REMARK    1  A    between atoms: C1_2  and  C2_3 
ROOT
ATOM      1  C2  UNL d   1       4.063  -4.393  -1.532  0.00  0.00    -0.076 A 
ATOM      2  C3  UNL d   1       5.151  -3.507  -1.439  0.00  0.00     0.004 A 
ATOM      3  C4  UNL d   1       5.034  -2.296  -0.760  0.00  0.00    -0.003 A 
ATOM      4  C5  UNL d   1       3.827  -1.950  -0.161  0.00  0.00     0.000 A 
ATOM      5  C6  UNL d   1       2.743  -2.825  -0.228  0.00  0.00     0.000 A 
ATOM      6  C7  UNL d   1       2.849  -4.057  -0.896  0.00  0.00    -0.073 A 
ATOM      7  C8  UNL d   1       1.646  -4.959  -0.942  0.00  0.00     0.078 C 
ENDROOT
BRANCH   1   8
ATOM      8  C1  UNL d   1       4.241  -5.680  -2.305  0.00  0.00     0.053 C 
ATOM      9  C   UNL d   1       4.298  -5.454  -3.808  0.00  0.00     0.018 C 
ENDBRANCH   1   8
TORSDOF 1
ENDMDL
