MODEL 1
REMARK minimizedAffinity 0.385644704
REMARK minimizedRMSD -1
REMARK  1 active torsions:
REMARK  status: ('A' for Active; 'I' for Inactive)
REMARK    1  A    between atoms: C1_2  and  C2_3 
ROOT
ATOM      1  C2  UNL d   1       4.374  -3.210  -1.841  0.00  0.00    -0.076 A 
ATOM      2  C3  UNL d   1       3.544  -2.927  -2.939  0.00  0.00     0.004 A 
ATOM      3  C4  UNL d   1       3.279  -3.895  -3.907  0.00  0.00    -0.003 A 
ATOM      4  C5  UNL d   1       3.840  -5.162  -3.790  0.00  0.00     0.000 A 
ATOM      5  C6  UNL d   1       4.652  -5.466  -2.698  0.00  0.00     0.000 A 
ATOM      6  C7  UNL d   1       4.915  -4.506  -1.705  0.00  0.00    -0.073 A 
ATOM      7  C8  UNL d   1       5.802  -4.886  -0.551  0.00  0.00     0.078 C 
ENDROOT
BRANCH   1   8
ATOM      8  C1  UNL d   1       4.647  -2.112  -0.838  0.00  0.00     0.053 C 
ATOM      9  C   UNL d   1       3.421  -1.762  -0.009  0.00  0.00     0.018 C 
ENDBRANCH   1   8
TORSDOF 1
ENDMDL
