MODEL 1
REMARK minimizedAffinity -0.523645163
REMARK minimizedRMSD -1
REMARK  1 active torsions:
REMARK  status: ('A' for Active; 'I' for Inactive)
REMARK    1  A    between atoms: C1_2  and  C2_3 
ROOT
ATOM      1  C2  UNL d   1       3.585  -3.814  -0.714  0.00  0.00    -0.076 A 
ATOM      2  C3  UNL d   1       3.729  -2.415  -0.694  0.00  0.00     0.004 A 
ATOM      3  C4  UNL d   1       4.082  -1.714  -1.846  0.00  0.00    -0.003 A 
ATOM      4  C5  UNL d   1       4.296  -2.400  -3.037  0.00  0.00     0.000 A 
ATOM      5  C6  UNL d   1       4.140  -3.785  -3.079  0.00  0.00     0.000 A 
ATOM      6  C7  UNL d   1       3.769  -4.505  -1.930  0.00  0.00    -0.073 A 
ATOM      7  C8  UNL d   1       3.621  -5.999  -2.031  0.00  0.00     0.078 C 
ENDROOT
BRANCH   1   8
ATOM      8  C1  UNL d   1       3.228  -4.523   0.573  0.00  0.00     0.053 C 
ATOM      9  C   UNL d   1       1.830  -4.175   1.061  0.00  0.00     0.018 C 
ENDBRANCH   1   8
TORSDOF 1
ENDMDL
