MODEL 1
REMARK minimizedAffinity -0.362344593
REMARK minimizedRMSD -1
REMARK  0 active torsions:
REMARK  status: ('A' for Active; 'I' for Inactive)
ROOT
ATOM      1  C2' OXE d   1       0.472   0.309  -1.493  0.00  0.00     0.078 C 
ATOM      2  C1' OXE d   1      -1.863  -0.026   0.027  0.00  0.00     0.078 C 
ATOM      3  C1  OXE d   1      -1.994  -0.042  -1.475  0.00  0.00    -0.078 A 
ATOM      4  C2  OXE d   1      -0.853   0.170  -2.211  0.00  0.00    -0.078 A 
ATOM      5  C3  OXE d   1      -0.908   0.111  -3.601  0.00  0.00     0.003 A 
ATOM      6  C4  OXE d   1      -2.139  -0.008  -4.257  0.00  0.00    -0.002 A 
ATOM      7  C5  OXE d   1      -3.319  -0.185  -3.526  0.00  0.00    -0.002 A 
ATOM      8  C6  OXE d   1      -3.258  -0.247  -2.138  0.00  0.00     0.003 A 
ENDROOT
TORSDOF 0
ENDMDL
