MODEL 1
REMARK minimizedAffinity -4.56343174
REMARK minimizedRMSD -1
REMARK  0 active torsions:
REMARK  status: ('A' for Active; 'I' for Inactive)
ROOT
ATOM      1  C2' OXE d   1       0.334   1.227   0.273  0.00  0.00     0.078 C 
ATOM      2  C1' OXE d   1      -1.187  -1.039   0.931  0.00  0.00     0.078 C 
ATOM      3  C1  OXE d   1       0.255  -1.007   1.373  0.00  0.00    -0.078 A 
ATOM      4  C2  OXE d   1       1.004   0.085   1.006  0.00  0.00    -0.078 A 
ATOM      5  C3  OXE d   1       2.324   0.190   1.435  0.00  0.00     0.003 A 
ATOM      6  C4  OXE d   1       2.939  -0.875   2.104  0.00  0.00    -0.002 A 
ATOM      7  C5  OXE d   1       2.205  -2.013   2.453  0.00  0.00    -0.002 A 
ATOM      8  C6  OXE d   1       0.853  -2.077   2.133  0.00  0.00     0.003 A 
ENDROOT
TORSDOF 0
ENDMDL
