MODEL 1
REMARK minimizedAffinity -2.83852315
REMARK minimizedRMSD -1
REMARK  0 active torsions:
REMARK  status: ('A' for Active; 'I' for Inactive)
ROOT
ATOM      1  C2' OXE d   1      -2.042  -0.919   0.844  0.00  0.00     0.078 C 
ATOM      2  C1' OXE d   1      -2.271  -0.268  -1.877  0.00  0.00     0.078 C 
ATOM      3  C1  OXE d   1      -1.036   0.195  -1.144  0.00  0.00    -0.078 A 
ATOM      4  C2  OXE d   1      -0.955  -0.088   0.198  0.00  0.00    -0.078 A 
ATOM      5  C3  OXE d   1       0.188   0.267   0.910  0.00  0.00     0.003 A 
ATOM      6  C4  OXE d   1       1.185   1.044   0.307  0.00  0.00    -0.002 A 
ATOM      7  C5  OXE d   1       1.102   1.378  -1.049  0.00  0.00    -0.002 A 
ATOM      8  C6  OXE d   1       0.021   0.925  -1.798  0.00  0.00     0.003 A 
ENDROOT
TORSDOF 0
ENDMDL
