MODEL 1
REMARK minimizedAffinity -5.01129913
REMARK minimizedRMSD -1
REMARK  0 active torsions:
REMARK  status: ('A' for Active; 'I' for Inactive)
ROOT
ATOM      1  C2' OXE d   1      -1.064   0.001   0.012  0.00  0.00     0.078 C 
ATOM      2  C1' OXE d   1       0.078  -2.348   1.041  0.00  0.00     0.078 C 
ATOM      3  C1  OXE d   1       0.939  -1.111   0.991  0.00  0.00    -0.078 A 
ATOM      4  C2  OXE d   1       0.387   0.022   0.443  0.00  0.00    -0.078 A 
ATOM      5  C3  OXE d   1       1.120   1.205   0.422  0.00  0.00     0.003 A 
ATOM      6  C4  OXE d   1       2.464   1.214   0.813  0.00  0.00    -0.002 A 
ATOM      7  C5  OXE d   1       3.058   0.061   1.338  0.00  0.00    -0.002 A 
ATOM      8  C6  OXE d   1       2.298  -1.096   1.473  0.00  0.00     0.003 A 
ENDROOT
TORSDOF 0
ENDMDL
