MODEL 1
REMARK minimizedAffinity -3.53451109
REMARK minimizedRMSD -1
REMARK  0 active torsions:
REMARK  status: ('A' for Active; 'I' for Inactive)
ROOT
ATOM      1  C2' OXE d   1      -1.170   0.270  -0.450  0.00  0.00     0.078 C 
ATOM      2  C1' OXE d   1      -0.828  -1.861   1.345  0.00  0.00     0.078 C 
ATOM      3  C1  OXE d   1       0.315  -0.892   1.177  0.00  0.00    -0.078 A 
ATOM      4  C2  OXE d   1       0.157   0.121   0.262  0.00  0.00    -0.078 A 
ATOM      5  C3  OXE d   1       1.159   1.074   0.108  0.00  0.00     0.003 A 
ATOM      6  C4  OXE d   1       2.388   0.924   0.763  0.00  0.00    -0.002 A 
ATOM      7  C5  OXE d   1       2.585  -0.123   1.670  0.00  0.00    -0.002 A 
ATOM      8  C6  OXE d   1       1.546  -1.013   1.920  0.00  0.00     0.003 A 
ENDROOT
TORSDOF 0
ENDMDL
