MODEL 1
REMARK minimizedAffinity -0.634716272
REMARK minimizedRMSD -1
REMARK  0 active torsions:
REMARK  status: ('A' for Active; 'I' for Inactive)
ROOT
ATOM      1  C2' OXE d   1      -1.274   0.652  -0.710  0.00  0.00     0.078 C 
ATOM      2  C1' OXE d   1       0.863   2.372  -1.305  0.00  0.00     0.078 C 
ATOM      3  C1  OXE d   1       1.071   1.339  -0.226  0.00  0.00    -0.078 A 
ATOM      4  C2  OXE d   1       0.005   0.532   0.091  0.00  0.00    -0.078 A 
ATOM      5  C3  OXE d   1       0.159  -0.474   1.040  0.00  0.00     0.003 A 
ATOM      6  C4  OXE d   1       1.342  -0.572   1.783  0.00  0.00    -0.002 A 
ATOM      7  C5  OXE d   1       2.427   0.266   1.504  0.00  0.00    -0.002 A 
ATOM      8  C6  OXE d   1       2.323   1.196   0.476  0.00  0.00     0.003 A 
ENDROOT
TORSDOF 0
ENDMDL
