MODEL 1
REMARK minimizedAffinity -1.4331212
REMARK minimizedRMSD -1
REMARK  1 active torsions:
REMARK  status: ('A' for Active; 'I' for Inactive)
REMARK    1  A    between atoms: C1_2  and  C2_3 
ROOT
ATOM      1  C2  UNL d   1      -1.051   4.237  -5.958  0.00  0.00    -0.081 A 
ATOM      2  C3  UNL d   1      -0.419   2.987  -5.974  0.00  0.00     0.006 A 
ATOM      3  C4  UNL d   1       0.975   2.899  -5.998  0.00  0.00     0.002 A 
ATOM      4  C5  UNL d   1       1.760   4.057  -5.998  0.00  0.00    -0.080 A 
ATOM      5  C6  UNL d   1       3.258   3.976  -5.992  0.00  0.00     0.076 C 
ATOM      6  C7  UNL d   1       1.128   5.305  -5.999  0.00  0.00     0.002 A 
ATOM      7  C8  UNL d   1      -0.265   5.394  -5.976  0.00  0.00     0.006 A 
ENDROOT
BRANCH   1   8
ATOM      8  C1  UNL d   1      -2.552   4.335  -5.867  0.00  0.00     0.054 C 
ATOM      9  C   UNL d   1      -3.019   5.780  -5.964  0.00  0.00     0.018 C 
ENDBRANCH   1   8
TORSDOF 1
ENDMDL
