MODEL 1
REMARK minimizedAffinity -0.505920649
REMARK minimizedRMSD -1
REMARK  1 active torsions:
REMARK  status: ('A' for Active; 'I' for Inactive)
REMARK    1  A    between atoms: C1_2  and  C2_3 
ROOT
ATOM      1  C2  UNL d   1       1.687   3.922  -5.932  0.00  0.00    -0.081 A 
ATOM      2  C3  UNL d   1       1.166   2.624  -5.869  0.00  0.00     0.006 A 
ATOM      3  C4  UNL d   1      -0.215   2.414  -5.874  0.00  0.00     0.002 A 
ATOM      4  C5  UNL d   1      -1.097   3.498  -5.950  0.00  0.00    -0.080 A 
ATOM      5  C6  UNL d   1      -2.581   3.285  -5.986  0.00  0.00     0.076 C 
ATOM      6  C7  UNL d   1      -0.577   4.795  -5.995  0.00  0.00     0.002 A 
ATOM      7  C8  UNL d   1       0.804   5.005  -5.989  0.00  0.00     0.006 A 
ENDROOT
BRANCH   1   8
ATOM      8  C1  UNL d   1       3.176   4.148  -5.992  0.00  0.00     0.054 C 
ATOM      9  C   UNL d   1       3.512   5.632  -5.969  0.00  0.00     0.018 C 
ENDBRANCH   1   8
TORSDOF 1
ENDMDL
