MODEL 1
REMARK minimizedAffinity 5.30452347
REMARK minimizedRMSD -1
REMARK  1 active torsions:
REMARK  status: ('A' for Active; 'I' for Inactive)
REMARK    1  A    between atoms: C1_2  and  C2_3 
ROOT
ATOM      1  C2  UNL d   1       0.253  -0.245  -0.441  0.00  0.00    -0.081 A 
ATOM      2  C3  UNL d   1       0.759   0.567  -1.463  0.00  0.00     0.006 A 
ATOM      3  C4  UNL d   1       0.895   1.944  -1.273  0.00  0.00     0.002 A 
ATOM      4  C5  UNL d   1       0.534   2.531  -0.055  0.00  0.00    -0.080 A 
ATOM      5  C6  UNL d   1       0.703   4.004   0.173  0.00  0.00     0.076 C 
ATOM      6  C7  UNL d   1       0.012   1.723   0.960  0.00  0.00     0.002 A 
ATOM      7  C8  UNL d   1      -0.124   0.346   0.770  0.00  0.00     0.006 A 
ENDROOT
BRANCH   1   8
ATOM      8  C1  UNL d   1       0.167  -1.739  -0.620  0.00  0.00     0.054 C 
ATOM      9  C   UNL d   1       1.511  -2.327  -1.024  0.00  0.00     0.018 C 
ENDBRANCH   1   8
TORSDOF 1
ENDMDL
