MODEL 1
REMARK minimizedAffinity -0.946886718
REMARK minimizedRMSD -1
REMARK  1 active torsions:
REMARK  status: ('A' for Active; 'I' for Inactive)
REMARK    1  A    between atoms: C1_2  and  C2_3 
ROOT
ATOM      1  C2  UNL d   1       1.443   4.413  -5.997  0.00  0.00    -0.081 A 
ATOM      2  C3  UNL d   1       2.359   3.354  -6.000  0.00  0.00     0.006 A 
ATOM      3  C4  UNL d   1       3.733   3.607  -5.996  0.00  0.00     0.002 A 
ATOM      4  C5  UNL d   1       4.213   4.921  -5.981  0.00  0.00    -0.080 A 
ATOM      5  C6  UNL d   1       5.685   5.205  -5.946  0.00  0.00     0.076 C 
ATOM      6  C7  UNL d   1       3.298   5.979  -5.996  0.00  0.00     0.002 A 
ATOM      7  C8  UNL d   1       1.924   5.727  -6.000  0.00  0.00     0.006 A 
ENDROOT
BRANCH   1   8
ATOM      8  C1  UNL d   1      -0.039   4.144  -5.935  0.00  0.00     0.054 C 
ATOM      9  C   UNL d   1      -0.836   5.440  -5.893  0.00  0.00     0.018 C 
ENDBRANCH   1   8
TORSDOF 1
ENDMDL
