MODEL 1
REMARK minimizedAffinity 0.0319919623
REMARK minimizedRMSD -1
REMARK  1 active torsions:
REMARK  status: ('A' for Active; 'I' for Inactive)
REMARK    1  A    between atoms: C1_2  and  C2_3 
ROOT
ATOM      1  C2  UNL d   1      -0.548   4.729  -5.988  0.00  0.00    -0.081 A 
ATOM      2  C3  UNL d   1      -1.565   5.691  -5.996  0.00  0.00     0.006 A 
ATOM      3  C4  UNL d   1      -2.907   5.302  -5.999  0.00  0.00     0.002 A 
ATOM      4  C5  UNL d   1      -3.254   3.947  -5.985  0.00  0.00    -0.080 A 
ATOM      5  C6  UNL d   1      -4.690   3.517  -5.957  0.00  0.00     0.076 C 
ATOM      6  C7  UNL d   1      -2.237   2.986  -5.994  0.00  0.00     0.002 A 
ATOM      7  C8  UNL d   1      -0.895   3.373  -5.992  0.00  0.00     0.006 A 
ENDROOT
BRANCH   1   8
ATOM      8  C1  UNL d   1       0.900   5.145  -5.920  0.00  0.00     0.054 C 
ATOM      9  C   UNL d   1       1.826   3.940  -5.999  0.00  0.00     0.018 C 
ENDBRANCH   1   8
TORSDOF 1
ENDMDL
