MODEL 1
REMARK minimizedAffinity -2.88370872
REMARK minimizedRMSD -1
REMARK  1 active torsions:
REMARK  status: ('A' for Active; 'I' for Inactive)
REMARK    1  A    between atoms: C1_2  and  C2_3 
ROOT
ATOM      1  C2  UNL d   1      -3.282   4.477  -5.947  0.00  0.00    -0.081 A 
ATOM      2  C3  UNL d   1      -2.629   3.238  -5.964  0.00  0.00     0.006 A 
ATOM      3  C4  UNL d   1      -1.233   3.174  -5.990  0.00  0.00     0.002 A 
ATOM      4  C5  UNL d   1      -0.469   4.345  -5.992  0.00  0.00    -0.080 A 
ATOM      5  C6  UNL d   1       1.030   4.290  -5.989  0.00  0.00     0.076 C 
ATOM      6  C7  UNL d   1      -1.121   5.583  -5.993  0.00  0.00     0.002 A 
ATOM      7  C8  UNL d   1      -2.516   5.648  -5.967  0.00  0.00     0.006 A 
ENDROOT
BRANCH   1   8
ATOM      8  C1  UNL d   1      -4.785   4.549  -5.854  0.00  0.00     0.054 C 
ATOM      9  C   UNL d   1      -5.271   5.991  -5.875  0.00  0.00     0.018 C 
ENDBRANCH   1   8
TORSDOF 1
ENDMDL
