MODEL 1
REMARK minimizedAffinity -4.15692425
REMARK minimizedRMSD -1
REMARK  1 active torsions:
REMARK  status: ('A' for Active; 'I' for Inactive)
REMARK    1  A    between atoms: C1_2  and  C2_3 
ROOT
ATOM      1  C2  UNL d   1       0.204   3.653  -5.985  0.00  0.00    -0.081 A 
ATOM      2  C3  UNL d   1       1.183   2.652  -5.971  0.00  0.00     0.006 A 
ATOM      3  C4  UNL d   1       2.539   2.988  -5.961  0.00  0.00     0.002 A 
ATOM      4  C5  UNL d   1       2.938   4.329  -5.957  0.00  0.00    -0.080 A 
ATOM      5  C6  UNL d   1       4.390   4.703  -5.916  0.00  0.00     0.076 C 
ATOM      6  C7  UNL d   1       1.960   5.329  -5.988  0.00  0.00     0.002 A 
ATOM      7  C8  UNL d   1       0.604   4.994  -5.999  0.00  0.00     0.006 A 
ENDROOT
BRANCH   1   8
ATOM      8  C1  UNL d   1      -1.259   3.295  -5.930  0.00  0.00     0.054 C 
ATOM      9  C   UNL d   1      -2.135   4.540  -5.933  0.00  0.00     0.018 C 
ENDBRANCH   1   8
TORSDOF 1
ENDMDL
