MODEL 1
REMARK minimizedAffinity -0.992708147
REMARK minimizedRMSD -1
REMARK  1 active torsions:
REMARK  status: ('A' for Active; 'I' for Inactive)
REMARK    1  A    between atoms: C1_2  and  C2_3 
ROOT
ATOM      1  C2  UNL d   1       1.540   3.715  -5.939  0.00  0.00    -0.081 A 
ATOM      2  C3  UNL d   1       0.902   2.469  -5.975  0.00  0.00     0.006 A 
ATOM      3  C4  UNL d   1      -0.492   2.387  -5.981  0.00  0.00     0.002 A 
ATOM      4  C5  UNL d   1      -1.272   3.548  -5.961  0.00  0.00    -0.080 A 
ATOM      5  C6  UNL d   1      -2.769   3.475  -5.999  0.00  0.00     0.076 C 
ATOM      6  C7  UNL d   1      -0.635   4.793  -5.908  0.00  0.00     0.002 A 
ATOM      7  C8  UNL d   1       0.760   4.875  -5.900  0.00  0.00     0.006 A 
ENDROOT
BRANCH   1   8
ATOM      8  C1  UNL d   1       3.043   3.808  -5.997  0.00  0.00     0.054 C 
ATOM      9  C   UNL d   1       3.509   5.257  -5.978  0.00  0.00     0.018 C 
ENDBRANCH   1   8
TORSDOF 1
ENDMDL
