MODEL 1
REMARK minimizedAffinity 6.50335932
REMARK minimizedRMSD -1
REMARK  0 active torsions:
REMARK  status: ('A' for Active; 'I' for Inactive)
ROOT
ATOM      1  C4' PXY d   1       6.000  -6.000   0.758  0.00  0.00     0.077 C 
ATOM      2  C1' PXY d   1       1.404  -2.805   2.204  0.00  0.00     0.077 C 
ATOM      3  C1  PXY d   1       2.617  -3.632   1.826  0.00  0.00    -0.082 A 
ATOM      4  C2  PXY d   1       2.459  -4.740   1.120  0.00  0.00     0.003 A 
ATOM      5  C3  PXY d   1       3.542  -5.517   0.797  0.00  0.00     0.003 A 
ATOM      6  C4  PXY d   1       4.805  -5.128   1.154  0.00  0.00    -0.082 A 
ATOM      7  C5  PXY d   1       4.976  -3.994   1.865  0.00  0.00     0.003 A 
ATOM      8  C6  PXY d   1       3.860  -3.241   2.219  0.00  0.00     0.003 A 
ENDROOT
TORSDOF 0
ENDMDL
