MODEL 1
REMARK minimizedAffinity 8.25386429
REMARK minimizedRMSD -1
REMARK  0 active torsions:
REMARK  status: ('A' for Active; 'I' for Inactive)
ROOT
ATOM      1  C4' PXY d   1       3.398  -2.628   5.605  0.00  0.00     0.077 C 
ATOM      2  C1' PXY d   1       1.301  -2.058   0.248  0.00  0.00     0.077 C 
ATOM      3  C1  PXY d   1       1.847  -2.196   1.656  0.00  0.00    -0.082 A 
ATOM      4  C2  PXY d   1       2.831  -3.047   1.896  0.00  0.00     0.003 A 
ATOM      5  C3  PXY d   1       3.314  -3.208   3.169  0.00  0.00     0.003 A 
ATOM      6  C4  PXY d   1       2.822  -2.450   4.197  0.00  0.00    -0.082 A 
ATOM      7  C5  PXY d   1       1.826  -1.571   3.959  0.00  0.00     0.003 A 
ATOM      8  C6  PXY d   1       1.321  -1.453   2.667  0.00  0.00     0.003 A 
ENDROOT
TORSDOF 0
ENDMDL
