MODEL 1
REMARK minimizedAffinity 4.6486392
REMARK minimizedRMSD -1
REMARK  0 active torsions:
REMARK  status: ('A' for Active; 'I' for Inactive)
ROOT
ATOM      1  C4' PXY d   1      -4.179   1.229   2.503  0.00  0.00     0.077 C 
ATOM      2  C1' PXY d   1       0.316  -2.397   2.233  0.00  0.00     0.077 C 
ATOM      3  C1  PXY d   1      -0.864  -1.446   2.291  0.00  0.00    -0.082 A 
ATOM      4  C2  PXY d   1      -0.994  -0.627   3.321  0.00  0.00     0.003 A 
ATOM      5  C3  PXY d   1      -2.072   0.217   3.405  0.00  0.00     0.003 A 
ATOM      6  C4  PXY d   1      -2.998   0.259   2.398  0.00  0.00    -0.082 A 
ATOM      7  C5  PXY d   1      -2.867  -0.567   1.338  0.00  0.00     0.003 A 
ATOM      8  C6  PXY d   1      -1.788  -1.444   1.292  0.00  0.00     0.003 A 
ENDROOT
TORSDOF 0
ENDMDL
