MODEL 1
REMARK minimizedAffinity 3.38179183
REMARK minimizedRMSD -1
REMARK  0 active torsions:
REMARK  status: ('A' for Active; 'I' for Inactive)
ROOT
ATOM      1  C4' PXY d   1       0.383  -2.226   2.688  0.00  0.00     0.077 C 
ATOM      2  C1' PXY d   1      -3.730   1.711   3.689  0.00  0.00     0.077 C 
ATOM      3  C1  PXY d   1      -2.660   0.672   3.419  0.00  0.00    -0.082 A 
ATOM      4  C2  PXY d   1      -1.668   0.515   4.281  0.00  0.00     0.003 A 
ATOM      5  C3  PXY d   1      -0.674  -0.398   4.036  0.00  0.00     0.003 A 
ATOM      6  C4  PXY d   1      -0.725  -1.195   2.924  0.00  0.00    -0.082 A 
ATOM      7  C5  PXY d   1      -1.739  -1.049   2.046  0.00  0.00     0.003 A 
ATOM      8  C6  PXY d   1      -2.716  -0.088   2.292  0.00  0.00     0.003 A 
ENDROOT
TORSDOF 0
ENDMDL
