MODEL 1
REMARK minimizedAffinity 1.8987335
REMARK minimizedRMSD -1
REMARK  0 active torsions:
REMARK  status: ('A' for Active; 'I' for Inactive)
ROOT
ATOM      1  C4' PXY d   1       0.627  -2.445   1.919  0.00  0.00     0.077 C 
ATOM      2  C1' PXY d   1      -3.720   0.967   3.616  0.00  0.00     0.077 C 
ATOM      3  C1  PXY d   1      -2.572   0.080   3.177  0.00  0.00    -0.082 A 
ATOM      4  C2  PXY d   1      -2.718  -0.705   2.122  0.00  0.00     0.003 A 
ATOM      5  C3  PXY d   1      -1.701  -1.537   1.730  0.00  0.00     0.003 A 
ATOM      6  C4  PXY d   1      -0.503  -1.526   2.393  0.00  0.00    -0.082 A 
ATOM      7  C5  PXY d   1      -0.342  -0.721   3.464  0.00  0.00     0.003 A 
ATOM      8  C6  PXY d   1      -1.401   0.086   3.871  0.00  0.00     0.003 A 
ENDROOT
TORSDOF 0
ENDMDL
