MODEL 1
REMARK minimizedAffinity 5.91634178
REMARK minimizedRMSD -1
REMARK  0 active torsions:
REMARK  status: ('A' for Active; 'I' for Inactive)
ROOT
ATOM      1  C4' PXY d   1      -3.240   0.747   3.870  0.00  0.00     0.077 C 
ATOM      2  C1' PXY d   1      -2.376  -0.862  -1.615  0.00  0.00     0.077 C 
ATOM      3  C1  PXY d   1      -2.600  -0.452  -0.173  0.00  0.00    -0.082 A 
ATOM      4  C2  PXY d   1      -3.360   0.596   0.099  0.00  0.00     0.003 A 
ATOM      5  C3  PXY d   1      -3.547   1.000   1.396  0.00  0.00     0.003 A 
ATOM      6  C4  PXY d   1      -2.994   0.291   2.429  0.00  0.00    -0.082 A 
ATOM      7  C5  PXY d   1      -2.225  -0.786   2.160  0.00  0.00     0.003 A 
ATOM      8  C6  PXY d   1      -2.014  -1.154   0.835  0.00  0.00     0.003 A 
ENDROOT
TORSDOF 0
ENDMDL
