MODEL 1
REMARK minimizedAffinity -2.0226233
REMARK minimizedRMSD -1
REMARK  0 active torsions:
REMARK  status: ('A' for Active; 'I' for Inactive)
ROOT
ATOM      1  C4' PXY d   1       5.641  -5.999   1.154  0.00  0.00     0.077 C 
ATOM      2  C1' PXY d   1       1.808  -1.717   0.540  0.00  0.00     0.077 C 
ATOM      3  C1  PXY d   1       2.822  -2.832   0.695  0.00  0.00    -0.082 A 
ATOM      4  C2  PXY d   1       2.406  -4.082   0.820  0.00  0.00     0.003 A 
ATOM      5  C3  PXY d   1       3.309  -5.100   0.994  0.00  0.00     0.003 A 
ATOM      6  C4  PXY d   1       4.653  -4.842   0.986  0.00  0.00    -0.082 A 
ATOM      7  C5  PXY d   1       5.086  -3.571   0.848  0.00  0.00     0.003 A 
ATOM      8  C6  PXY d   1       4.152  -2.547   0.714  0.00  0.00     0.003 A 
ENDROOT
TORSDOF 0
ENDMDL
