MODEL 1
REMARK minimizedAffinity 9.663764
REMARK minimizedRMSD -1
REMARK  0 active torsions:
REMARK  status: ('A' for Active; 'I' for Inactive)
ROOT
ATOM      1  C4' PXY d   1       5.114  -2.912   1.098  0.00  0.00     0.077 C 
ATOM      2  C1' PXY d   1      -0.595  -2.326   1.790  0.00  0.00     0.077 C 
ATOM      3  C1  PXY d   1       0.902  -2.471   1.599  0.00  0.00    -0.082 A 
ATOM      4  C2  PXY d   1       1.503  -3.591   1.967  0.00  0.00     0.003 A 
ATOM      5  C3  PXY d   1       2.860  -3.726   1.831  0.00  0.00     0.003 A 
ATOM      6  C4  PXY d   1       3.603  -2.726   1.263  0.00  0.00    -0.082 A 
ATOM      7  C5  PXY d   1       2.996  -1.584   0.876  0.00  0.00     0.003 A 
ATOM      8  C6  PXY d   1       1.622  -1.450   1.060  0.00  0.00     0.003 A 
ENDROOT
TORSDOF 0
ENDMDL
