MODEL 1
REMARK minimizedAffinity 8.27606773
REMARK minimizedRMSD -1
REMARK  0 active torsions:
REMARK  status: ('A' for Active; 'I' for Inactive)
ROOT
ATOM      1  C4' PXY d   1      -0.975  -0.134  -0.621  0.00  0.00     0.077 C 
ATOM      2  C1' PXY d   1       2.641  -3.614   2.247  0.00  0.00     0.077 C 
ATOM      3  C1  PXY d   1       1.683  -2.704   1.504  0.00  0.00    -0.082 A 
ATOM      4  C2  PXY d   1       1.902  -2.426   0.229  0.00  0.00     0.003 A 
ATOM      5  C3  PXY d   1       1.064  -1.580  -0.450  0.00  0.00     0.003 A 
ATOM      6  C4  PXY d   1      -0.040  -1.055   0.167  0.00  0.00    -0.082 A 
ATOM      7  C5  PXY d   1      -0.276  -1.343   1.465  0.00  0.00     0.003 A 
ATOM      8  C6  PXY d   1       0.610  -2.171   2.148  0.00  0.00     0.003 A 
ENDROOT
TORSDOF 0
ENDMDL
