MODEL 1
REMARK minimizedAffinity 0.45311743
REMARK minimizedRMSD -1
REMARK  0 active torsions:
REMARK  status: ('A' for Active; 'I' for Inactive)
ROOT
ATOM      1  C4' PXY d   1       2.290  -1.422   4.028  0.00  0.00     0.077 C 
ATOM      2  C1' PXY d   1      -2.984   0.529   2.689  0.00  0.00     0.077 C 
ATOM      3  C1  PXY d   1      -1.606   0.005   3.043  0.00  0.00    -0.082 A 
ATOM      4  C2  PXY d   1      -0.662   0.852   3.423  0.00  0.00     0.003 A 
ATOM      5  C3  PXY d   1       0.599   0.399   3.716  0.00  0.00     0.003 A 
ATOM      6  C4  PXY d   1       0.882  -0.940   3.671  0.00  0.00    -0.082 A 
ATOM      7  C5  PXY d   1      -0.078  -1.811   3.294  0.00  0.00     0.003 A 
ATOM      8  C6  PXY d   1      -1.340  -1.327   2.961  0.00  0.00     0.003 A 
ENDROOT
TORSDOF 0
ENDMDL
