MODEL 1
REMARK minimizedAffinity -3.3842504
REMARK minimizedRMSD -1
REMARK  3 active torsions:
REMARK  status: ('A' for Active; 'I' for Inactive)
REMARK    1  A    between atoms: C3'_2  and  C2'_3 
REMARK    2  A    between atoms: C2'_3  and  C1'_4 
REMARK    3  A    between atoms: C1'_4  and  C1_5 
ROOT
ATOM      1  C1  N4B d   1       0.637   0.012   0.602  0.00  0.00    -0.075 A 
ATOM      2  C2  N4B d   1      -0.706   0.443   0.683  0.00  0.00     0.002 A 
ATOM      3  C3  N4B d   1      -1.616  -0.281   1.413  0.00  0.00     0.002 A 
ATOM      4  C4  N4B d   1      -1.213  -1.445   2.052  0.00  0.00    -0.004 A 
ATOM      5  C5  N4B d   1       0.091  -1.840   1.989  0.00  0.00     0.002 A 
ATOM      6  C6  N4B d   1       1.018  -1.120   1.262  0.00  0.00     0.002 A 
ENDROOT
BRANCH   1   7
ATOM      7  C1' N4B d   1       1.648   0.724  -0.255  0.00  0.00     0.057 C 
BRANCH   7   8
ATOM      8  C2' N4B d   1       1.679   2.200   0.129  0.00  0.00     0.009 C 
BRANCH   8   9
ATOM      9  C3' N4B d   1       3.099   2.717   0.286  0.00  0.00     0.004 C 
ATOM     10  C4' N4B d   1       3.193   3.883   1.224  0.00  0.00     0.003 C 
ENDBRANCH   8   9
ENDBRANCH   7   8
ENDBRANCH   1   7
TORSDOF 3
ENDMDL
