MODEL 1
REMARK minimizedAffinity -2.42061186
REMARK minimizedRMSD -1
REMARK  3 active torsions:
REMARK  status: ('A' for Active; 'I' for Inactive)
REMARK    1  A    between atoms: C3'_2  and  C2'_3 
REMARK    2  A    between atoms: C2'_3  and  C1'_4 
REMARK    3  A    between atoms: C1'_4  and  C1_5 
ROOT
ATOM      1  C1  N4B d   1       1.826   1.064   0.456  0.00  0.00    -0.075 A 
ATOM      2  C2  N4B d   1       2.164   2.234  -0.258  0.00  0.00     0.002 A 
ATOM      3  C3  N4B d   1       2.797   3.271   0.383  0.00  0.00     0.002 A 
ATOM      4  C4  N4B d   1       3.084   3.167   1.735  0.00  0.00    -0.004 A 
ATOM      5  C5  N4B d   1       2.777   2.023   2.412  0.00  0.00     0.002 A 
ATOM      6  C6  N4B d   1       2.144   0.972   1.780  0.00  0.00     0.002 A 
ENDROOT
BRANCH   1   7
ATOM      7  C1' N4B d   1       1.057  -0.061  -0.182  0.00  0.00     0.057 C 
BRANCH   7   8
ATOM      8  C2' N4B d   1      -0.424   0.306  -0.224  0.00  0.00     0.009 C 
BRANCH   8   9
ATOM      9  C3' N4B d   1      -1.028   0.071  -1.597  0.00  0.00     0.004 C 
ATOM     10  C4' N4B d   1      -2.345  -0.645  -1.538  0.00  0.00     0.003 C 
ENDBRANCH   8   9
ENDBRANCH   7   8
ENDBRANCH   1   7
TORSDOF 3
ENDMDL
