MODEL 1
REMARK minimizedAffinity -4.46551561
REMARK minimizedRMSD -1
REMARK  3 active torsions:
REMARK  status: ('A' for Active; 'I' for Inactive)
REMARK    1  A    between atoms: C3'_2  and  C2'_3 
REMARK    2  A    between atoms: C2'_3  and  C1'_4 
REMARK    3  A    between atoms: C1'_4  and  C1_5 
ROOT
ATOM      1  C1  N4B d   1       1.442   1.275   0.208  0.00  0.00    -0.075 A 
ATOM      2  C2  N4B d   1       1.783   1.995  -0.958  0.00  0.00     0.002 A 
ATOM      3  C3  N4B d   1       2.482   3.173  -0.857  0.00  0.00     0.002 A 
ATOM      4  C4  N4B d   1       2.832   3.658   0.394  0.00  0.00    -0.004 A 
ATOM      5  C5  N4B d   1       2.521   2.944   1.514  0.00  0.00     0.002 A 
ATOM      6  C6  N4B d   1       1.823   1.756   1.427  0.00  0.00     0.002 A 
ENDROOT
BRANCH   1   7
ATOM      7  C1' N4B d   1       0.605   0.026   0.154  0.00  0.00     0.057 C 
BRANCH   7   8
ATOM      8  C2' N4B d   1      -0.046  -0.080  -1.222  0.00  0.00     0.009 C 
BRANCH   8   9
ATOM      9  C3' N4B d   1      -1.540   0.192  -1.166  0.00  0.00     0.004 C 
ATOM     10  C4' N4B d   1      -2.362  -0.989  -1.587  0.00  0.00     0.003 C 
ENDBRANCH   8   9
ENDBRANCH   7   8
ENDBRANCH   1   7
TORSDOF 3
ENDMDL
