MODEL 1
REMARK minimizedAffinity -4.1686101
REMARK minimizedRMSD -1
REMARK  3 active torsions:
REMARK  status: ('A' for Active; 'I' for Inactive)
REMARK    1  A    between atoms: C3'_2  and  C2'_3 
REMARK    2  A    between atoms: C2'_3  and  C1'_4 
REMARK    3  A    between atoms: C1'_4  and  C1_5 
ROOT
ATOM      1  C1  N4B d   1       0.447  -0.067  -0.027  0.00  0.00    -0.075 A 
ATOM      2  C2  N4B d   1       0.650   0.226  -1.393  0.00  0.00     0.002 A 
ATOM      3  C3  N4B d   1      -0.348  -0.020  -2.304  0.00  0.00     0.002 A 
ATOM      4  C4  N4B d   1      -1.544  -0.575  -1.877  0.00  0.00    -0.004 A 
ATOM      5  C5  N4B d   1      -1.742  -0.832  -0.552  0.00  0.00     0.002 A 
ATOM      6  C6  N4B d   1      -0.750  -0.586   0.376  0.00  0.00     0.002 A 
ENDROOT
BRANCH   1   7
ATOM      7  C1' N4B d   1       1.539   0.105   0.994  0.00  0.00     0.057 C 
BRANCH   7   8
ATOM      8  C2' N4B d   1       2.457   1.243   0.558  0.00  0.00     0.009 C 
BRANCH   8   9
ATOM      9  C3' N4B d   1       2.564   2.325   1.619  0.00  0.00     0.004 C 
ATOM     10  C4' N4B d   1       2.215   3.687   1.098  0.00  0.00     0.003 C 
ENDBRANCH   8   9
ENDBRANCH   7   8
ENDBRANCH   1   7
TORSDOF 3
ENDMDL
