MODEL 1
REMARK minimizedAffinity 0.234733209
REMARK minimizedRMSD -1
REMARK  3 active torsions:
REMARK  status: ('A' for Active; 'I' for Inactive)
REMARK    1  A    between atoms: C3'_2  and  C2'_3 
REMARK    2  A    between atoms: C2'_3  and  C1'_4 
REMARK    3  A    between atoms: C1'_4  and  C1_5 
ROOT
ATOM      1  C1  N4B d   1       1.475   0.926   0.313  0.00  0.00    -0.075 A 
ATOM      2  C2  N4B d   1       2.361   1.417  -0.670  0.00  0.00     0.002 A 
ATOM      3  C3  N4B d   1       3.266   2.400  -0.350  0.00  0.00     0.002 A 
ATOM      4  C4  N4B d   1       3.290   2.917   0.936  0.00  0.00    -0.004 A 
ATOM      5  C5  N4B d   1       2.448   2.419   1.887  0.00  0.00     0.002 A 
ATOM      6  C6  N4B d   1       1.536   1.429   1.581  0.00  0.00     0.002 A 
ENDROOT
BRANCH   1   7
ATOM      7  C1' N4B d   1       0.411  -0.086  -0.011  0.00  0.00     0.057 C 
BRANCH   7   8
ATOM      8  C2' N4B d   1      -0.608  -0.123   1.124  0.00  0.00     0.009 C 
BRANCH   8   9
ATOM      9  C3' N4B d   1      -1.401  -1.419   1.135  0.00  0.00     0.004 C 
ATOM     10  C4' N4B d   1      -1.082  -2.285   2.317  0.00  0.00     0.003 C 
ENDBRANCH   8   9
ENDBRANCH   7   8
ENDBRANCH   1   7
TORSDOF 3
ENDMDL
