MODEL 1
REMARK minimizedAffinity -3.92829132
REMARK minimizedRMSD -1
REMARK  3 active torsions:
REMARK  status: ('A' for Active; 'I' for Inactive)
REMARK    1  A    between atoms: C3'_2  and  C2'_3 
REMARK    2  A    between atoms: C2'_3  and  C1'_4 
REMARK    3  A    between atoms: C1'_4  and  C1_5 
ROOT
ATOM      1  C1  N4B d   1       0.080  -0.421  -0.210  0.00  0.00    -0.075 A 
ATOM      2  C2  N4B d   1      -0.717  -1.183   0.673  0.00  0.00     0.002 A 
ATOM      3  C3  N4B d   1      -1.971  -1.589   0.290  0.00  0.00     0.002 A 
ATOM      4  C4  N4B d   1      -2.456  -1.231  -0.959  0.00  0.00    -0.004 A 
ATOM      5  C5  N4B d   1      -1.671  -0.518  -1.816  0.00  0.00     0.002 A 
ATOM      6  C6  N4B d   1      -0.407  -0.106  -1.446  0.00  0.00     0.002 A 
ENDROOT
BRANCH   1   7
ATOM      7  C1' N4B d   1       1.424   0.118   0.196  0.00  0.00     0.057 C 
BRANCH   7   8
ATOM      8  C2' N4B d   1       1.244   1.512   0.791  0.00  0.00     0.009 C 
BRANCH   8   9
ATOM      9  C3' N4B d   1       2.275   2.493   0.260  0.00  0.00     0.004 C 
ATOM     10  C4' N4B d   1       2.330   3.764   1.054  0.00  0.00     0.003 C 
ENDBRANCH   8   9
ENDBRANCH   7   8
ENDBRANCH   1   7
TORSDOF 3
ENDMDL
