MODEL 1
REMARK minimizedAffinity -4.03121662
REMARK minimizedRMSD -1
REMARK  3 active torsions:
REMARK  status: ('A' for Active; 'I' for Inactive)
REMARK    1  A    between atoms: C3'_2  and  C2'_3 
REMARK    2  A    between atoms: C2'_3  and  C1'_4 
REMARK    3  A    between atoms: C1'_4  and  C1_5 
ROOT
ATOM      1  C1  N4B d   1       2.064   1.310   0.476  0.00  0.00    -0.075 A 
ATOM      2  C2  N4B d   1       3.032   2.066  -0.221  0.00  0.00     0.002 A 
ATOM      3  C3  N4B d   1       3.349   3.333   0.204  0.00  0.00     0.002 A 
ATOM      4  C4  N4B d   1       2.701   3.870   1.306  0.00  0.00    -0.004 A 
ATOM      5  C5  N4B d   1       1.786   3.123   1.989  0.00  0.00     0.002 A 
ATOM      6  C6  N4B d   1       1.460   1.847   1.576  0.00  0.00     0.002 A 
ENDROOT
BRANCH   1   7
ATOM      7  C1' N4B d   1       1.622  -0.046  -0.001  0.00  0.00     0.057 C 
BRANCH   7   8
ATOM      8  C2' N4B d   1       0.114  -0.029  -0.232  0.00  0.00     0.009 C 
BRANCH   8   9
ATOM      9  C3' N4B d   1      -0.604  -1.059   0.624  0.00  0.00     0.004 C 
ATOM     10  C4' N4B d   1      -1.828  -0.507   1.292  0.00  0.00     0.003 C 
ENDBRANCH   8   9
ENDBRANCH   7   8
ENDBRANCH   1   7
TORSDOF 3
ENDMDL
