MODEL 1
REMARK minimizedAffinity -3.75402141
REMARK minimizedRMSD -1
REMARK  3 active torsions:
REMARK  status: ('A' for Active; 'I' for Inactive)
REMARK    1  A    between atoms: C3'_2  and  C2'_3 
REMARK    2  A    between atoms: C2'_3  and  C1'_4 
REMARK    3  A    between atoms: C1'_4  and  C1_5 
ROOT
ATOM      1  C1  N4B d   1      -0.542   0.108   0.205  0.00  0.00    -0.075 A 
ATOM      2  C2  N4B d   1      -0.564  -1.009   1.069  0.00  0.00     0.002 A 
ATOM      3  C3  N4B d   1       0.613  -1.599   1.457  0.00  0.00     0.002 A 
ATOM      4  C4  N4B d   1       1.819  -1.105   0.982  0.00  0.00    -0.004 A 
ATOM      5  C5  N4B d   1       1.833  -0.010   0.168  0.00  0.00     0.002 A 
ATOM      6  C6  N4B d   1       0.657   0.597  -0.227  0.00  0.00     0.002 A 
ENDROOT
BRANCH   1   7
ATOM      7  C1' N4B d   1      -1.807   0.735  -0.316  0.00  0.00     0.057 C 
BRANCH   7   8
ATOM      8  C2' N4B d   1      -2.760  -0.366  -0.770  0.00  0.00     0.009 C 
BRANCH   8   9
ATOM      9  C3' N4B d   1      -2.330  -0.982  -2.090  0.00  0.00     0.004 C 
ATOM     10  C4' N4B d   1      -1.750   0.025  -3.039  0.00  0.00     0.003 C 
ENDBRANCH   8   9
ENDBRANCH   7   8
ENDBRANCH   1   7
TORSDOF 3
ENDMDL
