MODEL 1
REMARK minimizedAffinity -2.63970852
REMARK minimizedRMSD -1
REMARK  3 active torsions:
REMARK  status: ('A' for Active; 'I' for Inactive)
REMARK    1  A    between atoms: C3'_2  and  C2'_3 
REMARK    2  A    between atoms: C2'_3  and  C1'_4 
REMARK    3  A    between atoms: C1'_4  and  C1_5 
ROOT
ATOM      1  C1  N4B d   1      -0.265  -0.124  -0.361  0.00  0.00    -0.075 A 
ATOM      2  C2  N4B d   1      -0.619   0.776  -1.391  0.00  0.00     0.002 A 
ATOM      3  C3  N4B d   1      -1.842   0.668  -2.006  0.00  0.00     0.002 A 
ATOM      4  C4  N4B d   1      -2.717  -0.338  -1.622  0.00  0.00    -0.004 A 
ATOM      5  C5  N4B d   1      -2.378  -1.186  -0.609  0.00  0.00     0.002 A 
ATOM      6  C6  N4B d   1      -1.153  -1.087   0.020  0.00  0.00     0.002 A 
ENDROOT
BRANCH   1   7
ATOM      7  C1' N4B d   1       1.094  -0.099   0.282  0.00  0.00     0.057 C 
BRANCH   7   8
ATOM      8  C2' N4B d   1       1.488   1.347   0.567  0.00  0.00     0.009 C 
BRANCH   8   9
ATOM      9  C3' N4B d   1       2.950   1.471   0.961  0.00  0.00     0.004 C 
ATOM     10  C4' N4B d   1       3.822   1.915  -0.175  0.00  0.00     0.003 C 
ENDBRANCH   8   9
ENDBRANCH   7   8
ENDBRANCH   1   7
TORSDOF 3
ENDMDL
