MODEL 1
REMARK minimizedAffinity -3.66989136
REMARK minimizedRMSD -1
REMARK  3 active torsions:
REMARK  status: ('A' for Active; 'I' for Inactive)
REMARK    1  A    between atoms: C3'_2  and  C2'_3 
REMARK    2  A    between atoms: C2'_3  and  C1'_4 
REMARK    3  A    between atoms: C1'_4  and  C1_5 
ROOT
ATOM      1  C1  N4B d   1       0.433  -0.218  -0.288  0.00  0.00    -0.075 A 
ATOM      2  C2  N4B d   1      -0.420  -1.142   0.355  0.00  0.00     0.002 A 
ATOM      3  C3  N4B d   1      -1.762  -1.155   0.063  0.00  0.00     0.002 A 
ATOM      4  C4  N4B d   1      -2.274  -0.246  -0.851  0.00  0.00    -0.004 A 
ATOM      5  C5  N4B d   1      -1.439   0.626  -1.486  0.00  0.00     0.002 A 
ATOM      6  C6  N4B d   1      -0.088   0.648  -1.206  0.00  0.00     0.002 A 
ENDROOT
BRANCH   1   7
ATOM      7  C1' N4B d   1       1.892  -0.108   0.062  0.00  0.00     0.057 C 
BRANCH   7   8
ATOM      8  C2' N4B d   1       2.275   1.366   0.154  0.00  0.00     0.009 C 
BRANCH   8   9
ATOM      9  C3' N4B d   1       2.572   1.787   1.583  0.00  0.00     0.004 C 
ATOM     10  C4' N4B d   1       2.263   3.232   1.838  0.00  0.00     0.003 C 
ENDBRANCH   8   9
ENDBRANCH   7   8
ENDBRANCH   1   7
TORSDOF 3
ENDMDL
