MODEL 1
REMARK minimizedAffinity -5.59210253
REMARK minimizedRMSD -1
REMARK  3 active torsions:
REMARK  status: ('A' for Active; 'I' for Inactive)
REMARK    1  A    between atoms: C3'_2  and  C2'_3 
REMARK    2  A    between atoms: C2'_3  and  C1'_4 
REMARK    3  A    between atoms: C1'_4  and  C1_5 
ROOT
ATOM      1  C1  N4B d   1      -0.509  -0.851  -0.191  0.00  0.00    -0.075 A 
ATOM      2  C2  N4B d   1      -1.590  -0.790  -1.098  0.00  0.00     0.002 A 
ATOM      3  C3  N4B d   1      -2.631  -1.679  -0.987  0.00  0.00     0.002 A 
ATOM      4  C4  N4B d   1      -2.604  -2.645   0.008  0.00  0.00    -0.004 A 
ATOM      5  C5  N4B d   1      -1.569  -2.681   0.896  0.00  0.00     0.002 A 
ATOM      6  C6  N4B d   1      -0.518  -1.791   0.798  0.00  0.00     0.002 A 
ENDROOT
BRANCH   1   7
ATOM      7  C1' N4B d   1       0.692   0.044  -0.326  0.00  0.00     0.057 C 
BRANCH   7   8
ATOM      8  C2' N4B d   1       0.630   1.131   0.744  0.00  0.00     0.009 C 
BRANCH   8   9
ATOM      9  C3' N4B d   1       1.962   1.841   0.910  0.00  0.00     0.004 C 
ATOM     10  C4' N4B d   1       1.976   2.784   2.077  0.00  0.00     0.003 C 
ENDBRANCH   8   9
ENDBRANCH   7   8
ENDBRANCH   1   7
TORSDOF 3
ENDMDL
