MODEL 1
REMARK minimizedAffinity -2.67785168
REMARK minimizedRMSD -1
REMARK  3 active torsions:
REMARK  status: ('A' for Active; 'I' for Inactive)
REMARK    1  A    between atoms: C3'_2  and  C2'_3 
REMARK    2  A    between atoms: C2'_3  and  C1'_4 
REMARK    3  A    between atoms: C1'_4  and  C1_5 
ROOT
ATOM      1  C1  N4B d   1      -0.315  -0.278  -0.145  0.00  0.00    -0.075 A 
ATOM      2  C2  N4B d   1      -0.736   0.438  -1.288  0.00  0.00     0.002 A 
ATOM      3  C3  N4B d   1      -1.852   0.033  -1.978  0.00  0.00     0.002 A 
ATOM      4  C4  N4B d   1      -2.549  -1.090  -1.558  0.00  0.00    -0.004 A 
ATOM      5  C5  N4B d   1      -2.150  -1.761  -0.439  0.00  0.00     0.002 A 
ATOM      6  C6  N4B d   1      -1.033  -1.363   0.267  0.00  0.00     0.002 A 
ENDROOT
BRANCH   1   7
ATOM      7  C1' N4B d   1       0.948   0.076   0.592  0.00  0.00     0.057 C 
BRANCH   7   8
ATOM      8  C2' N4B d   1       1.460   1.423   0.091  0.00  0.00     0.009 C 
BRANCH   8   9
ATOM      9  C3' N4B d   1       2.731   1.849   0.805  0.00  0.00     0.004 C 
ATOM     10  C4' N4B d   1       3.491   2.904   0.058  0.00  0.00     0.003 C 
ENDBRANCH   8   9
ENDBRANCH   7   8
ENDBRANCH   1   7
TORSDOF 3
ENDMDL
