MODEL 1
REMARK minimizedAffinity -2.61784983
REMARK minimizedRMSD -1
REMARK  0 active torsions:
REMARK  status: ('A' for Active; 'I' for Inactive)
ROOT
ATOM      1  C1  BNZ d   1      -0.678   0.469  -0.088  0.00  0.00     0.000 A 
ATOM      2  C2  BNZ d   1      -1.339   0.504   1.110  0.00  0.00     0.000 A 
ATOM      3  C3  BNZ d   1      -0.691   0.203   2.276  0.00  0.00     0.000 A 
ATOM      4  C4  BNZ d   1       0.604  -0.170   2.237  0.00  0.00     0.000 A 
ATOM      5  C5  BNZ d   1       1.282  -0.219   1.035  0.00  0.00     0.000 A 
ATOM      6  C6  BNZ d   1       0.637   0.122  -0.132  0.00  0.00     0.000 A 
ENDROOT
TORSDOF 0
ENDMDL
