MODEL 1
REMARK minimizedAffinity -3.19166112
REMARK minimizedRMSD -1
REMARK  0 active torsions:
REMARK  status: ('A' for Active; 'I' for Inactive)
ROOT
ATOM      1  C1  BNZ d   1       0.414   0.021   2.306  0.00  0.00     0.000 A 
ATOM      2  C2  BNZ d   1       1.056   0.082   1.098  0.00  0.00     0.000 A 
ATOM      3  C3  BNZ d   1       0.362   0.336  -0.052  0.00  0.00     0.000 A 
ATOM      4  C4  BNZ d   1      -0.977   0.490   0.002  0.00  0.00     0.000 A 
ATOM      5  C5  BNZ d   1      -1.640   0.422   1.211  0.00  0.00     0.000 A 
ATOM      6  C6  BNZ d   1      -0.933   0.205   2.371  0.00  0.00     0.000 A 
ENDROOT
TORSDOF 0
ENDMDL
