MODEL 1
REMARK minimizedAffinity -4.80250978
REMARK minimizedRMSD -1
REMARK  0 active torsions:
REMARK  status: ('A' for Active; 'I' for Inactive)
ROOT
ATOM      1  C1  BNZ d   1      -2.622   0.086   2.645  0.00  0.00     0.000 A 
ATOM      2  C2  BNZ d   1      -2.517   0.272   1.292  0.00  0.00     0.000 A 
ATOM      3  C3  BNZ d   1      -1.342   0.021   0.641  0.00  0.00     0.000 A 
ATOM      4  C4  BNZ d   1      -0.263  -0.376   1.348  0.00  0.00     0.000 A 
ATOM      5  C5  BNZ d   1      -0.351  -0.558   2.713  0.00  0.00     0.000 A 
ATOM      6  C6  BNZ d   1      -1.547  -0.343   3.360  0.00  0.00     0.000 A 
ENDROOT
TORSDOF 0
ENDMDL
