MODEL 1
REMARK minimizedAffinity -3.83775282
REMARK minimizedRMSD -1
REMARK  0 active torsions:
REMARK  status: ('A' for Active; 'I' for Inactive)
ROOT
ATOM      1  C1  BNZ d   1      -2.278  -0.569   2.049  0.00  0.00     0.000 A 
ATOM      2  C2  BNZ d   1      -1.346  -0.425   3.042  0.00  0.00     0.000 A 
ATOM      3  C3  BNZ d   1      -0.059  -0.072   2.747  0.00  0.00     0.000 A 
ATOM      4  C4  BNZ d   1       0.305   0.098   1.460  0.00  0.00     0.000 A 
ATOM      5  C5  BNZ d   1      -0.621  -0.053   0.446  0.00  0.00     0.000 A 
ATOM      6  C6  BNZ d   1      -1.925  -0.371   0.749  0.00  0.00     0.000 A 
ENDROOT
TORSDOF 0
ENDMDL
