MODEL 1
REMARK minimizedAffinity -3.94383049
REMARK minimizedRMSD -1
REMARK  0 active torsions:
REMARK  status: ('A' for Active; 'I' for Inactive)
ROOT
ATOM      1  C1  BNZ d   1      -1.672   0.045  -0.091  0.00  0.00     0.000 A 
ATOM      2  C2  BNZ d   1      -0.703   0.555  -0.913  0.00  0.00     0.000 A 
ATOM      3  C3  BNZ d   1       0.617   0.494  -0.561  0.00  0.00     0.000 A 
ATOM      4  C4  BNZ d   1       0.962  -0.040   0.628  0.00  0.00     0.000 A 
ATOM      5  C5  BNZ d   1      -0.004  -0.550   1.472  0.00  0.00     0.000 A 
ATOM      6  C6  BNZ d   1      -1.328  -0.522   1.098  0.00  0.00     0.000 A 
ENDROOT
TORSDOF 0
ENDMDL
