MODEL 1
REMARK minimizedAffinity -4.75065231
REMARK minimizedRMSD -1
REMARK  0 active torsions:
REMARK  status: ('A' for Active; 'I' for Inactive)
ROOT
ATOM      1  C1  BNZ d   1      -0.653  -0.085  -0.063  0.00  0.00     0.000 A 
ATOM      2  C2  BNZ d   1      -1.355  -0.651   0.968  0.00  0.00     0.000 A 
ATOM      3  C3  BNZ d   1      -0.822  -0.713   2.225  0.00  0.00     0.000 A 
ATOM      4  C4  BNZ d   1       0.424  -0.247   2.441  0.00  0.00     0.000 A 
ATOM      5  C5  BNZ d   1       1.148   0.318   1.410  0.00  0.00     0.000 A 
ATOM      6  C6  BNZ d   1       0.594   0.414   0.154  0.00  0.00     0.000 A 
ENDROOT
TORSDOF 0
ENDMDL
