MODEL 1
REMARK minimizedAffinity -4.97662354
REMARK minimizedRMSD -1
REMARK  0 active torsions:
REMARK  status: ('A' for Active; 'I' for Inactive)
ROOT
ATOM      1  C1  BNZ d   1      -1.507  -0.752   1.693  0.00  0.00     0.000 A 
ATOM      2  C2  BNZ d   1      -0.866  -0.742   0.483  0.00  0.00     0.000 A 
ATOM      3  C3  BNZ d   1       0.468  -0.456   0.401  0.00  0.00     0.000 A 
ATOM      4  C4  BNZ d   1       1.149  -0.142   1.521  0.00  0.00     0.000 A 
ATOM      5  C5  BNZ d   1       0.515  -0.138   2.747  0.00  0.00     0.000 A 
ATOM      6  C6  BNZ d   1      -0.819  -0.465   2.832  0.00  0.00     0.000 A 
ENDROOT
TORSDOF 0
ENDMDL
