MODEL 1
REMARK minimizedAffinity -4.56429195
REMARK minimizedRMSD -1
REMARK  0 active torsions:
REMARK  status: ('A' for Active; 'I' for Inactive)
ROOT
ATOM      1  C1  BNZ d   1       1.309  -0.150   0.946  0.00  0.00     0.000 A 
ATOM      2  C2  BNZ d   1       0.407  -0.433   1.937  0.00  0.00     0.000 A 
ATOM      3  C3  BNZ d   1      -0.937  -0.356   1.702  0.00  0.00     0.000 A 
ATOM      4  C4  BNZ d   1      -1.377   0.042   0.491  0.00  0.00     0.000 A 
ATOM      5  C5  BNZ d   1      -0.480   0.340  -0.516  0.00  0.00     0.000 A 
ATOM      6  C6  BNZ d   1       0.872   0.223  -0.287  0.00  0.00     0.000 A 
ENDROOT
TORSDOF 0
ENDMDL
