MODEL 1
REMARK minimizedAffinity -4.99427032
REMARK minimizedRMSD -1
REMARK  0 active torsions:
REMARK  status: ('A' for Active; 'I' for Inactive)
ROOT
ATOM      1  C1  BNZ d   1      -0.853   0.211   0.666  0.00  0.00     0.000 A 
ATOM      2  C2  BNZ d   1      -2.141   0.433   1.075  0.00  0.00     0.000 A 
ATOM      3  C3  BNZ d   1      -2.481   0.344   2.396  0.00  0.00     0.000 A 
ATOM      4  C4  BNZ d   1      -1.543  -0.005   3.300  0.00  0.00     0.000 A 
ATOM      5  C5  BNZ d   1      -0.242  -0.241   2.902  0.00  0.00     0.000 A 
ATOM      6  C6  BNZ d   1       0.105  -0.113   1.576  0.00  0.00     0.000 A 
ENDROOT
TORSDOF 0
ENDMDL
