MODEL 1
REMARK minimizedAffinity -2.38951302
REMARK minimizedRMSD -1
REMARK  0 active torsions:
REMARK  status: ('A' for Active; 'I' for Inactive)
ROOT
ATOM      1  C1  BNZ d   1       1.101   0.314  -0.295  0.00  0.00     0.000 A 
ATOM      2  C2  BNZ d   1       0.698  -0.142   0.932  0.00  0.00     0.000 A 
ATOM      3  C3  BNZ d   1      -0.613  -0.450   1.168  0.00  0.00     0.000 A 
ATOM      4  C4  BNZ d   1      -1.524  -0.264   0.192  0.00  0.00     0.000 A 
ATOM      5  C5  BNZ d   1      -1.135   0.204  -1.047  0.00  0.00     0.000 A 
ATOM      6  C6  BNZ d   1       0.191   0.476  -1.294  0.00  0.00     0.000 A 
ENDROOT
TORSDOF 0
ENDMDL
