MODEL 1
REMARK minimizedAffinity -3.02026486
REMARK minimizedRMSD -1
REMARK  0 active torsions:
REMARK  status: ('A' for Active; 'I' for Inactive)
ROOT
ATOM      1  C1  BNZ d   1      -1.045   0.433  -0.046  0.00  0.00     0.000 A 
ATOM      2  C2  BNZ d   1       0.310   0.239   0.000  0.00  0.00     0.000 A 
ATOM      3  C3  BNZ d   1       0.971   0.200   1.196  0.00  0.00     0.000 A 
ATOM      4  C4  BNZ d   1       0.284   0.395   2.340  0.00  0.00     0.000 A 
ATOM      5  C5  BNZ d   1      -1.080   0.602   2.310  0.00  0.00     0.000 A 
ATOM      6  C6  BNZ d   1      -1.749   0.602   1.107  0.00  0.00     0.000 A 
ENDROOT
TORSDOF 0
ENDMDL
