MODEL 1
REMARK minimizedAffinity -4.35185289
REMARK minimizedRMSD -1
REMARK  0 active torsions:
REMARK  status: ('A' for Active; 'I' for Inactive)
ROOT
ATOM      1  C1  BNZ d   1      -1.197  -0.140   0.585  0.00  0.00     0.000 A 
ATOM      2  C2  BNZ d   1      -1.202  -0.560   1.889  0.00  0.00     0.000 A 
ATOM      3  C3  BNZ d   1      -0.082  -0.450   2.664  0.00  0.00     0.000 A 
ATOM      4  C4  BNZ d   1       1.052   0.042   2.124  0.00  0.00     0.000 A 
ATOM      5  C5  BNZ d   1       1.076   0.460   0.809  0.00  0.00     0.000 A 
ATOM      6  C6  BNZ d   1      -0.064   0.384   0.043  0.00  0.00     0.000 A 
ENDROOT
TORSDOF 0
ENDMDL
