MODEL 1
REMARK minimizedAffinity -4.56013775
REMARK minimizedRMSD -1
REMARK  0 active torsions:
REMARK  status: ('A' for Active; 'I' for Inactive)
ROOT
ATOM      1  C1  BNZ d   1      -1.036  -0.589   1.452  0.00  0.00     0.000 A 
ATOM      2  C2  BNZ d   1      -0.450  -0.500   0.217  0.00  0.00     0.000 A 
ATOM      3  C3  BNZ d   1       0.897  -0.302   0.095  0.00  0.00     0.000 A 
ATOM      4  C4  BNZ d   1       1.649  -0.153   1.204  0.00  0.00     0.000 A 
ATOM      5  C5  BNZ d   1       1.071  -0.230   2.456  0.00  0.00     0.000 A 
ATOM      6  C6  BNZ d   1      -0.279  -0.469   2.576  0.00  0.00     0.000 A 
ENDROOT
TORSDOF 0
ENDMDL
