MODEL 1
REMARK minimizedAffinity -0.486536711
REMARK minimizedRMSD -1
REMARK  0 active torsions:
REMARK  status: ('A' for Active; 'I' for Inactive)
ROOT
ATOM      1  C1  BNZ d   1       1.132  -0.511   1.104  0.00  0.00     0.000 A 
ATOM      2  C2  BNZ d   1       1.686   0.742   1.104  0.00  0.00     0.000 A 
ATOM      3  C3  BNZ d   1       1.308   1.674   2.030  0.00  0.00     0.000 A 
ATOM      4  C4  BNZ d   1       0.350   1.366   2.927  0.00  0.00     0.000 A 
ATOM      5  C5  BNZ d   1      -0.225   0.111   2.934  0.00  0.00     0.000 A 
ATOM      6  C6  BNZ d   1       0.186  -0.837   2.025  0.00  0.00     0.000 A 
ENDROOT
TORSDOF 0
ENDMDL
