MODEL 1
REMARK minimizedAffinity -3.97215271
REMARK minimizedRMSD -1
REMARK  0 active torsions:
REMARK  status: ('A' for Active; 'I' for Inactive)
ROOT
ATOM      1  C1  BNZ d   1       0.354   0.158   2.350  0.00  0.00     0.000 A 
ATOM      2  C2  BNZ d   1       0.946   0.877   1.346  0.00  0.00     0.000 A 
ATOM      3  C3  BNZ d   1       0.627   0.646   0.037  0.00  0.00     0.000 A 
ATOM      4  C4  BNZ d   1      -0.253  -0.330  -0.268  0.00  0.00     0.000 A 
ATOM      5  C5  BNZ d   1      -0.852  -1.070   0.733  0.00  0.00     0.000 A 
ATOM      6  C6  BNZ d   1      -0.557  -0.808   2.051  0.00  0.00     0.000 A 
ENDROOT
TORSDOF 0
ENDMDL
