MODEL 1
REMARK minimizedAffinity 6.2715292
REMARK minimizedRMSD -1
REMARK  1 active torsions:
REMARK  status: ('A' for Active; 'I' for Inactive)
REMARK    1  A    between atoms: C1_2  and  C2_3 
ROOT
ATOM      1  C2  UNL d   1       1.123  -1.800   4.082  0.00  0.00    -0.073 A 
ATOM      2  C3  UNL d   1       2.121  -2.298   3.237  0.00  0.00    -0.002 A 
ATOM      3  C4  UNL d   1       2.314  -1.744   1.971  0.00  0.00     0.004 A 
ATOM      4  C5  UNL d   1       1.518  -0.684   1.540  0.00  0.00    -0.004 A 
ATOM      5  C6  UNL d   1       0.523  -0.164   2.374  0.00  0.00    -0.075 A 
ATOM      6  C7  UNL d   1      -0.344   0.975   1.925  0.00  0.00     0.076 C 
ATOM      7  C8  UNL d   1       0.333  -0.728   3.643  0.00  0.00     0.001 A 
ENDROOT
BRANCH   1   8
ATOM      8  C1  UNL d   1       0.915  -2.391   5.453  0.00  0.00     0.053 C 
ATOM      9  C   UNL d   1       2.185  -3.024   5.999  0.00  0.00     0.018 C 
ENDBRANCH   1   8
TORSDOF 1
ENDMDL
