MODEL 1
REMARK minimizedAffinity 11.4166718
REMARK minimizedRMSD -1
REMARK  1 active torsions:
REMARK  status: ('A' for Active; 'I' for Inactive)
REMARK    1  A    between atoms: C1_2  and  C2_3 
ROOT
ATOM      1  C2  UNL d   1       3.703   5.113  -2.391  0.00  0.00    -0.073 A 
ATOM      2  C3  UNL d   1       4.823   5.595  -1.705  0.00  0.00    -0.002 A 
ATOM      3  C4  UNL d   1       5.967   5.981  -2.405  0.00  0.00     0.004 A 
ATOM      4  C5  UNL d   1       6.000   5.895  -3.797  0.00  0.00    -0.004 A 
ATOM      5  C6  UNL d   1       4.886   5.426  -4.501  0.00  0.00    -0.075 A 
ATOM      6  C7  UNL d   1       4.906   5.326  -5.998  0.00  0.00     0.076 C 
ATOM      7  C8  UNL d   1       3.742   5.039  -3.791  0.00  0.00     0.001 A 
ENDROOT
BRANCH   1   8
ATOM      8  C1  UNL d   1       2.463   4.702  -1.639  0.00  0.00     0.053 C 
ATOM      9  C   UNL d   1       1.339   5.714  -1.796  0.00  0.00     0.018 C 
ENDBRANCH   1   8
TORSDOF 1
ENDMDL
