MODEL 1
REMARK minimizedAffinity 10.9050283
REMARK minimizedRMSD -1
REMARK  1 active torsions:
REMARK  status: ('A' for Active; 'I' for Inactive)
REMARK    1  A    between atoms: C1_2  and  C2_3 
ROOT
ATOM      1  C2  UNL d   1      -4.359   0.071  -2.497  0.00  0.00    -0.073 A 
ATOM      2  C3  UNL d   1      -3.553   0.717  -1.553  0.00  0.00    -0.002 A 
ATOM      3  C4  UNL d   1      -3.341   2.094  -1.630  0.00  0.00     0.004 A 
ATOM      4  C5  UNL d   1      -3.937   2.840  -2.647  0.00  0.00    -0.004 A 
ATOM      5  C6  UNL d   1      -4.756   2.215  -3.593  0.00  0.00    -0.075 A 
ATOM      6  C7  UNL d   1      -5.403   3.003  -4.694  0.00  0.00     0.076 C 
ATOM      7  C8  UNL d   1      -4.962   0.831  -3.510  0.00  0.00     0.001 A 
ENDROOT
BRANCH   1   8
ATOM      8  C1  UNL d   1      -4.596  -1.414  -2.413  0.00  0.00     0.053 C 
ATOM      9  C   UNL d   1      -4.210  -2.126  -3.700  0.00  0.00     0.018 C 
ENDBRANCH   1   8
TORSDOF 1
ENDMDL
