MODEL 1
REMARK minimizedAffinity 2.11994171
REMARK minimizedRMSD -1
REMARK  0 active torsions:
REMARK  status: ('A' for Active; 'I' for Inactive)
ROOT
ATOM      1  C1  BNZ d   1       2.216   5.999  -6.000  0.00  0.00     0.000 A 
ATOM      2  C2  BNZ d   1       3.585   6.000  -5.987  0.00  0.00     0.000 A 
ATOM      3  C3  BNZ d   1       4.285   4.837  -5.825  0.00  0.00     0.000 A 
ATOM      4  C4  BNZ d   1       3.615   3.681  -5.636  0.00  0.00     0.000 A 
ATOM      5  C5  BNZ d   1       2.235   3.665  -5.637  0.00  0.00     0.000 A 
ATOM      6  C6  BNZ d   1       1.534   4.832  -5.839  0.00  0.00     0.000 A 
ENDROOT
TORSDOF 0
ENDMDL
