MODEL 1
REMARK minimizedAffinity 7.86731291
REMARK minimizedRMSD -1
REMARK  0 active torsions:
REMARK  status: ('A' for Active; 'I' for Inactive)
ROOT
ATOM      1  C1  BNZ d   1       0.699  -3.587   1.568  0.00  0.00     0.000 A 
ATOM      2  C2  BNZ d   1      -0.066  -2.669   2.237  0.00  0.00     0.000 A 
ATOM      3  C3  BNZ d   1       0.498  -1.544   2.771  0.00  0.00     0.000 A 
ATOM      4  C4  BNZ d   1       1.830  -1.359   2.671  0.00  0.00     0.000 A 
ATOM      5  C5  BNZ d   1       2.616  -2.281   2.008  0.00  0.00     0.000 A 
ATOM      6  C6  BNZ d   1       2.039  -3.392   1.437  0.00  0.00     0.000 A 
ENDROOT
TORSDOF 0
ENDMDL
