MODEL 1
REMARK minimizedAffinity 0.449492663
REMARK minimizedRMSD -1
REMARK  0 active torsions:
REMARK  status: ('A' for Active; 'I' for Inactive)
ROOT
ATOM      1  C1  BNZ d   1       2.156  -3.706   0.652  0.00  0.00     0.000 A 
ATOM      2  C2  BNZ d   1       2.326  -2.354   0.788  0.00  0.00     0.000 A 
ATOM      3  C3  BNZ d   1       1.546  -1.634   1.650  0.00  0.00     0.000 A 
ATOM      4  C4  BNZ d   1       0.573  -2.259   2.343  0.00  0.00     0.000 A 
ATOM      5  C5  BNZ d   1       0.383  -3.620   2.210  0.00  0.00     0.000 A 
ATOM      6  C6  BNZ d   1       1.195  -4.348   1.371  0.00  0.00     0.000 A 
ENDROOT
TORSDOF 0
ENDMDL
