MODEL 1
REMARK minimizedAffinity 3.74888229
REMARK minimizedRMSD -1
REMARK  0 active torsions:
REMARK  status: ('A' for Active; 'I' for Inactive)
ROOT
ATOM      1  C1  BNZ d   1       1.682  -1.134   2.909  0.00  0.00     0.000 A 
ATOM      2  C2  BNZ d   1       2.661  -1.508   2.028  0.00  0.00     0.000 A 
ATOM      3  C3  BNZ d   1       2.342  -2.087   0.832  0.00  0.00     0.000 A 
ATOM      4  C4  BNZ d   1       1.049  -2.328   0.536  0.00  0.00     0.000 A 
ATOM      5  C5  BNZ d   1       0.051  -1.965   1.418  0.00  0.00     0.000 A 
ATOM      6  C6  BNZ d   1       0.373  -1.347   2.604  0.00  0.00     0.000 A 
ENDROOT
TORSDOF 0
ENDMDL
