MODEL 1
REMARK minimizedAffinity 1.93241763
REMARK minimizedRMSD -1
REMARK  0 active torsions:
REMARK  status: ('A' for Active; 'I' for Inactive)
ROOT
ATOM      1  C1  BNZ d   1      -3.811   2.216   4.027  0.00  0.00     0.000 A 
ATOM      2  C2  BNZ d   1      -3.834   2.038   5.385  0.00  0.00     0.000 A 
ATOM      3  C3  BNZ d   1      -4.922   1.483   6.000  0.00  0.00     0.000 A 
ATOM      4  C4  BNZ d   1      -6.000   1.146   5.263  0.00  0.00     0.000 A 
ATOM      5  C5  BNZ d   1      -5.996   1.328   3.894  0.00  0.00     0.000 A 
ATOM      6  C6  BNZ d   1      -4.884   1.850   3.274  0.00  0.00     0.000 A 
ENDROOT
TORSDOF 0
ENDMDL
