MODEL 1
REMARK minimizedAffinity 1.73317623
REMARK minimizedRMSD -1
REMARK  0 active torsions:
REMARK  status: ('A' for Active; 'I' for Inactive)
ROOT
ATOM      1  C1  BNZ d   1       3.187  -4.822   5.992  0.00  0.00     0.000 A 
ATOM      2  C2  BNZ d   1       3.887  -5.999   5.977  0.00  0.00     0.000 A 
ATOM      3  C3  BNZ d   1       5.254  -6.000   5.976  0.00  0.00     0.000 A 
ATOM      4  C4  BNZ d   1       5.918  -4.826   5.949  0.00  0.00     0.000 A 
ATOM      5  C5  BNZ d   1       5.226  -3.632   5.955  0.00  0.00     0.000 A 
ATOM      6  C6  BNZ d   1       3.851  -3.634   5.996  0.00  0.00     0.000 A 
ENDROOT
TORSDOF 0
ENDMDL
