MODEL 1
REMARK minimizedAffinity 9.89049244
REMARK minimizedRMSD -1
REMARK  1 active torsions:
REMARK  status: ('A' for Active; 'I' for Inactive)
REMARK    1  A    between atoms: C1_2  and  C2_3 
ROOT
ATOM      1  C2  UNL d   1       3.228  -3.458   0.493  0.00  0.00    -0.081 A 
ATOM      2  C3  UNL d   1       3.417  -2.093   0.241  0.00  0.00     0.006 A 
ATOM      3  C4  UNL d   1       2.320  -1.236   0.127  0.00  0.00     0.002 A 
ATOM      4  C5  UNL d   1       1.018  -1.726   0.272  0.00  0.00    -0.080 A 
ATOM      5  C6  UNL d   1      -0.167  -0.810   0.182  0.00  0.00     0.076 C 
ATOM      6  C7  UNL d   1       0.828  -3.092   0.507  0.00  0.00     0.002 A 
ATOM      7  C8  UNL d   1       1.924  -3.950   0.620  0.00  0.00     0.006 A 
ENDROOT
BRANCH   1   8
ATOM      8  C1  UNL d   1       4.410  -4.373   0.681  0.00  0.00     0.054 C 
ATOM      9  C   UNL d   1       4.538  -4.823   2.129  0.00  0.00     0.018 C 
ENDBRANCH   1   8
TORSDOF 1
ENDMDL
