MODEL 1
REMARK minimizedAffinity 14.8959522
REMARK minimizedRMSD -1
REMARK  1 active torsions:
REMARK  status: ('A' for Active; 'I' for Inactive)
REMARK    1  A    between atoms: C1_2  and  C2_3 
ROOT
ATOM      1  C2  UNL d   1       3.473  -2.396  -0.323  0.00  0.00    -0.081 A 
ATOM      2  C3  UNL d   1       2.867  -1.148  -0.511  0.00  0.00     0.006 A 
ATOM      3  C4  UNL d   1       1.689  -0.824   0.167  0.00  0.00     0.002 A 
ATOM      4  C5  UNL d   1       1.103  -1.738   1.049  0.00  0.00    -0.080 A 
ATOM      5  C6  UNL d   1      -0.145  -1.391   1.806  0.00  0.00     0.076 C 
ATOM      6  C7  UNL d   1       1.699  -2.992   1.222  0.00  0.00     0.002 A 
ATOM      7  C8  UNL d   1       2.876  -3.317   0.545  0.00  0.00     0.006 A 
ENDROOT
BRANCH   1   8
ATOM      8  C1  UNL d   1       4.778  -2.724  -1.003  0.00  0.00     0.054 C 
ATOM      9  C   UNL d   1       5.963  -2.188  -0.213  0.00  0.00     0.018 C 
ENDBRANCH   1   8
TORSDOF 1
ENDMDL
