MODEL 1
REMARK minimizedAffinity 5.22810841
REMARK minimizedRMSD -1
REMARK  1 active torsions:
REMARK  status: ('A' for Active; 'I' for Inactive)
REMARK    1  A    between atoms: C1_2  and  C2_3 
ROOT
ATOM      1  C2  UNL d   1      -1.730  -0.846  -0.842  0.00  0.00    -0.076 A 
ATOM      2  C3  UNL d   1      -2.587  -0.169  -1.727  0.00  0.00     0.004 A 
ATOM      3  C4  UNL d   1      -2.791   1.206  -1.617  0.00  0.00    -0.003 A 
ATOM      4  C5  UNL d   1      -2.142   1.925  -0.620  0.00  0.00     0.000 A 
ATOM      5  C6  UNL d   1      -1.275   1.272   0.256  0.00  0.00     0.000 A 
ATOM      6  C7  UNL d   1      -1.045  -0.110   0.148  0.00  0.00    -0.073 A 
ATOM      7  C8  UNL d   1      -0.105  -0.764   1.124  0.00  0.00     0.078 C 
ENDROOT
BRANCH   1   8
ATOM      8  C1  UNL d   1      -1.569  -2.342  -0.993  0.00  0.00     0.053 C 
ATOM      9  C   UNL d   1      -1.641  -2.792  -2.444  0.00  0.00     0.018 C 
ENDBRANCH   1   8
TORSDOF 1
ENDMDL
