MODEL 1
REMARK minimizedAffinity 0.0394158363
REMARK minimizedRMSD -1
REMARK  1 active torsions:
REMARK  status: ('A' for Active; 'I' for Inactive)
REMARK    1  A    between atoms: C1_2  and  C2_3 
ROOT
ATOM      1  C2  UNL d   1      -0.026  -0.757   0.165  0.00  0.00    -0.076 A 
ATOM      2  C3  UNL d   1       1.375  -0.664   0.217  0.00  0.00     0.004 A 
ATOM      3  C4  UNL d   1       2.005   0.554   0.470  0.00  0.00    -0.003 A 
ATOM      4  C5  UNL d   1       1.242   1.699   0.674  0.00  0.00     0.000 A 
ATOM      5  C6  UNL d   1      -0.150   1.621   0.643  0.00  0.00     0.000 A 
ATOM      6  C7  UNL d   1      -0.800   0.398   0.406  0.00  0.00    -0.073 A 
ATOM      7  C8  UNL d   1      -2.304   0.374   0.377  0.00  0.00     0.078 C 
ENDROOT
BRANCH   1   8
ATOM      8  C1  UNL d   1      -0.652  -2.099  -0.140  0.00  0.00     0.053 C 
ATOM      9  C   UNL d   1      -0.329  -2.588  -1.544  0.00  0.00     0.018 C 
ENDBRANCH   1   8
TORSDOF 1
ENDMDL
