MODEL 1
REMARK minimizedAffinity -5.83310032
REMARK minimizedRMSD -1
REMARK  1 active torsions:
REMARK  status: ('A' for Active; 'I' for Inactive)
REMARK    1  A    between atoms: C1_2  and  C2_3 
ROOT
ATOM      1  C2  UNL d   1       0.227   0.582   0.381  0.00  0.00    -0.076 A 
ATOM      2  C3  UNL d   1       1.627   0.669   0.481  0.00  0.00     0.004 A 
ATOM      3  C4  UNL d   1       2.282   1.890   0.335  0.00  0.00    -0.003 A 
ATOM      4  C5  UNL d   1       1.549   3.045   0.087  0.00  0.00     0.000 A 
ATOM      5  C6  UNL d   1       0.159   2.981   0.002  0.00  0.00     0.000 A 
ATOM      6  C7  UNL d   1      -0.519   1.760   0.163  0.00  0.00    -0.073 A 
ATOM      7  C8  UNL d   1      -2.019   1.748   0.056  0.00  0.00     0.078 C 
ENDROOT
BRANCH   1   8
ATOM      8  C1  UNL d   1      -0.427  -0.774   0.521  0.00  0.00     0.053 C 
ATOM      9  C   UNL d   1      -0.332  -1.601  -0.752  0.00  0.00     0.018 C 
ENDBRANCH   1   8
TORSDOF 1
ENDMDL
