MODEL 1
REMARK minimizedAffinity -0.234340981
REMARK minimizedRMSD -1
REMARK  1 active torsions:
REMARK  status: ('A' for Active; 'I' for Inactive)
REMARK    1  A    between atoms: C1_2  and  C2_3 
ROOT
ATOM      1  C2  UNL d   1      -0.556  -0.560  -1.081  0.00  0.00    -0.076 A 
ATOM      2  C3  UNL d   1      -1.817   0.013  -1.326  0.00  0.00     0.004 A 
ATOM      3  C4  UNL d   1      -2.228   1.158  -0.646  0.00  0.00    -0.003 A 
ATOM      4  C5  UNL d   1      -1.387   1.749   0.290  0.00  0.00     0.000 A 
ATOM      5  C6  UNL d   1      -0.126   1.205   0.532  0.00  0.00     0.000 A 
ATOM      6  C7  UNL d   1       0.311   0.060  -0.156  0.00  0.00    -0.073 A 
ATOM      7  C8  UNL d   1       1.678  -0.488   0.149  0.00  0.00     0.078 C 
ENDROOT
BRANCH   1   8
ATOM      8  C1  UNL d   1      -0.175  -1.817  -1.829  0.00  0.00     0.053 C 
ATOM      9  C   UNL d   1      -1.273  -2.869  -1.799  0.00  0.00     0.018 C 
ENDBRANCH   1   8
TORSDOF 1
ENDMDL
