MODEL 1
REMARK minimizedAffinity -5.71325541
REMARK minimizedRMSD -1
REMARK  1 active torsions:
REMARK  status: ('A' for Active; 'I' for Inactive)
REMARK    1  A    between atoms: C1_2  and  C2_3 
ROOT
ATOM      1  C2  UNL d   1       0.552   0.753   0.631  0.00  0.00    -0.076 A 
ATOM      2  C3  UNL d   1       1.889   0.621   0.218  0.00  0.00     0.004 A 
ATOM      3  C4  UNL d   1       2.647   1.739  -0.126  0.00  0.00    -0.003 A 
ATOM      4  C5  UNL d   1       2.080   3.007  -0.062  0.00  0.00     0.000 A 
ATOM      5  C6  UNL d   1       0.760   3.158   0.362  0.00  0.00     0.000 A 
ATOM      6  C7  UNL d   1      -0.013   2.042   0.728  0.00  0.00    -0.073 A 
ATOM      7  C8  UNL d   1      -1.433   2.262   1.173  0.00  0.00     0.078 C 
ENDROOT
BRANCH   1   8
ATOM      8  C1  UNL d   1      -0.229  -0.498   0.965  0.00  0.00     0.053 C 
ATOM      9  C   UNL d   1      -0.308  -1.466  -0.205  0.00  0.00     0.018 C 
ENDBRANCH   1   8
TORSDOF 1
ENDMDL
