MODEL 1
REMARK minimizedAffinity -5.57255363
REMARK minimizedRMSD -1
REMARK  1 active torsions:
REMARK  status: ('A' for Active; 'I' for Inactive)
REMARK    1  A    between atoms: C1_2  and  C2_3 
ROOT
ATOM      1  C2  UNL d   1      -0.156  -0.026   0.399  0.00  0.00    -0.076 A 
ATOM      2  C3  UNL d   1       1.243   0.102   0.424  0.00  0.00     0.004 A 
ATOM      3  C4  UNL d   1       1.849   1.357   0.401  0.00  0.00    -0.003 A 
ATOM      4  C5  UNL d   1       1.065   2.505   0.354  0.00  0.00     0.000 A 
ATOM      5  C6  UNL d   1      -0.325   2.396   0.347  0.00  0.00     0.000 A 
ATOM      6  C7  UNL d   1      -0.952   1.139   0.386  0.00  0.00    -0.073 A 
ATOM      7  C8  UNL d   1      -2.455   1.081   0.371  0.00  0.00     0.078 C 
ENDROOT
BRANCH   1   8
ATOM      8  C1  UNL d   1      -0.756  -1.414   0.399  0.00  0.00     0.053 C 
ATOM      9  C   UNL d   1      -0.474  -2.170  -0.890  0.00  0.00     0.018 C 
ENDBRANCH   1   8
TORSDOF 1
ENDMDL
