MODEL 1
REMARK minimizedAffinity -6.40689898
REMARK minimizedRMSD -1
REMARK  1 active torsions:
REMARK  status: ('A' for Active; 'I' for Inactive)
REMARK    1  A    between atoms: C1_2  and  C2_3 
ROOT
ATOM      1  C2  UNL d   1       0.404   0.132   0.161  0.00  0.00    -0.076 A 
ATOM      2  C3  UNL d   1       1.789   0.312   0.323  0.00  0.00     0.004 A 
ATOM      3  C4  UNL d   1       2.344   1.589   0.389  0.00  0.00    -0.003 A 
ATOM      4  C5  UNL d   1       1.523   2.707   0.295  0.00  0.00     0.000 A 
ATOM      5  C6  UNL d   1       0.145   2.548   0.151  0.00  0.00     0.000 A 
ATOM      6  C7  UNL d   1      -0.433   1.267   0.099  0.00  0.00    -0.073 A 
ATOM      7  C8  UNL d   1      -1.924   1.154  -0.063  0.00  0.00     0.078 C 
ENDROOT
BRANCH   1   8
ATOM      8  C1  UNL d   1      -0.138  -1.276   0.068  0.00  0.00     0.053 C 
ATOM      9  C   UNL d   1       0.064  -1.889  -1.309  0.00  0.00     0.018 C 
ENDBRANCH   1   8
TORSDOF 1
ENDMDL
