MODEL 1
REMARK minimizedAffinity -3.77633309
REMARK minimizedRMSD -1
REMARK  1 active torsions:
REMARK  status: ('A' for Active; 'I' for Inactive)
REMARK    1  A    between atoms: C1_2  and  C2_3 
ROOT
ATOM      1  C2  UNL d   1       1.307   1.372   0.877  0.00  0.00    -0.076 A 
ATOM      2  C3  UNL d   1       0.519   2.518   0.673  0.00  0.00     0.004 A 
ATOM      3  C4  UNL d   1      -0.831   2.412   0.344  0.00  0.00    -0.003 A 
ATOM      4  C5  UNL d   1      -1.415   1.157   0.213  0.00  0.00     0.000 A 
ATOM      5  C6  UNL d   1      -0.653   0.009   0.429  0.00  0.00     0.000 A 
ATOM      6  C7  UNL d   1       0.705   0.099   0.778  0.00  0.00    -0.073 A 
ATOM      7  C8  UNL d   1       1.481  -1.171   0.993  0.00  0.00     0.078 C 
ENDROOT
BRANCH   1   8
ATOM      8  C1  UNL d   1       2.772   1.549   1.206  0.00  0.00     0.053 C 
ATOM      9  C   UNL d   1       3.070   2.903   1.830  0.00  0.00     0.018 C 
ENDBRANCH   1   8
TORSDOF 1
ENDMDL
