MODEL 1
REMARK minimizedAffinity -4.04643965
REMARK minimizedRMSD -1
REMARK  1 active torsions:
REMARK  status: ('A' for Active; 'I' for Inactive)
REMARK    1  A    between atoms: C1_2  and  C2_3 
ROOT
ATOM      1  C2  UNL d   1       1.020   1.020   0.866  0.00  0.00    -0.076 A 
ATOM      2  C3  UNL d   1       1.408  -0.305   0.600  0.00  0.00     0.004 A 
ATOM      3  C4  UNL d   1       0.465  -1.274   0.262  0.00  0.00    -0.003 A 
ATOM      4  C5  UNL d   1      -0.881  -0.935   0.183  0.00  0.00     0.000 A 
ATOM      5  C6  UNL d   1      -1.281   0.379   0.427  0.00  0.00     0.000 A 
ATOM      6  C7  UNL d   1      -0.342   1.372   0.753  0.00  0.00    -0.073 A 
ATOM      7  C8  UNL d   1      -0.831   2.771   1.012  0.00  0.00     0.078 C 
ENDROOT
BRANCH   1   8
ATOM      8  C1  UNL d   1       2.084   2.022   1.255  0.00  0.00     0.053 C 
ATOM      9  C   UNL d   1       3.490   1.521   0.964  0.00  0.00     0.018 C 
ENDBRANCH   1   8
TORSDOF 1
ENDMDL
