MODEL 1
REMARK minimizedAffinity -4.56362009
REMARK minimizedRMSD -1
REMARK  1 active torsions:
REMARK  status: ('A' for Active; 'I' for Inactive)
REMARK    1  A    between atoms: C1_2  and  C2_3 
ROOT
ATOM      1  C2  UNL d   1       0.941   0.895   0.562  0.00  0.00    -0.076 A 
ATOM      2  C3  UNL d   1       1.177  -0.483   0.418  0.00  0.00     0.004 A 
ATOM      3  C4  UNL d   1       0.134  -1.403   0.508  0.00  0.00    -0.003 A 
ATOM      4  C5  UNL d   1      -1.163  -0.960   0.744  0.00  0.00     0.000 A 
ATOM      5  C6  UNL d   1      -1.418   0.405   0.872  0.00  0.00     0.000 A 
ATOM      6  C7  UNL d   1      -0.380   1.347   0.767  0.00  0.00    -0.073 A 
ATOM      7  C8  UNL d   1      -0.712   2.807   0.919  0.00  0.00     0.078 C 
ENDROOT
BRANCH   1   8
ATOM      8  C1  UNL d   1       2.115   1.844   0.481  0.00  0.00     0.053 C 
ATOM      9  C   UNL d   1       3.428   1.181   0.870  0.00  0.00     0.018 C 
ENDBRANCH   1   8
TORSDOF 1
ENDMDL
