MODEL 1
REMARK minimizedAffinity -2.09213924
REMARK minimizedRMSD -1
REMARK  1 active torsions:
REMARK  status: ('A' for Active; 'I' for Inactive)
REMARK    1  A    between atoms: C1_2  and  C2_3 
ROOT
ATOM      1  C2  UNL d   1      -0.769  -0.921  -0.068  0.00  0.00    -0.076 A 
ATOM      2  C3  UNL d   1      -2.035  -0.320   0.041  0.00  0.00     0.004 A 
ATOM      3  C4  UNL d   1      -2.164   1.026   0.380  0.00  0.00    -0.003 A 
ATOM      4  C5  UNL d   1      -1.028   1.792   0.616  0.00  0.00     0.000 A 
ATOM      5  C6  UNL d   1       0.237   1.217   0.496  0.00  0.00     0.000 A 
ATOM      6  C7  UNL d   1       0.384  -0.135   0.138  0.00  0.00    -0.073 A 
ATOM      7  C8  UNL d   1       1.771  -0.705   0.029  0.00  0.00     0.078 C 
ENDROOT
BRANCH   1   8
ATOM      8  C1  UNL d   1      -0.693  -2.392  -0.412  0.00  0.00     0.053 C 
ATOM      9  C   UNL d   1      -0.770  -2.644  -1.910  0.00  0.00     0.018 C 
ENDBRANCH   1   8
TORSDOF 1
ENDMDL
