MODEL 1
REMARK minimizedAffinity -5.940341
REMARK minimizedRMSD -1
REMARK  1 active torsions:
REMARK  status: ('A' for Active; 'I' for Inactive)
REMARK    1  A    between atoms: C1_2  and  C2_3 
ROOT
ATOM      1  C2  UNL d   1       0.387   0.691  -0.119  0.00  0.00    -0.076 A 
ATOM      2  C3  UNL d   1       1.725   1.111  -0.221  0.00  0.00     0.004 A 
ATOM      3  C4  UNL d   1       2.051   2.466  -0.235  0.00  0.00    -0.003 A 
ATOM      4  C5  UNL d   1       1.046   3.423  -0.148  0.00  0.00     0.000 A 
ATOM      5  C6  UNL d   1      -0.285   3.023  -0.028  0.00  0.00     0.000 A 
ATOM      6  C7  UNL d   1      -0.630   1.661   0.005  0.00  0.00    -0.073 A 
ATOM      7  C8  UNL d   1      -2.082   1.287   0.129  0.00  0.00     0.078 C 
ENDROOT
BRANCH   1   8
ATOM      8  C1  UNL d   1       0.091  -0.792  -0.135  0.00  0.00     0.053 C 
ATOM      9  C   UNL d   1       0.204  -1.393  -1.528  0.00  0.00     0.018 C 
ENDBRANCH   1   8
TORSDOF 1
ENDMDL
