MODEL 1
REMARK minimizedAffinity -2.84991097
REMARK minimizedRMSD -1
REMARK  1 active torsions:
REMARK  status: ('A' for Active; 'I' for Inactive)
REMARK    1  A    between atoms: C1_2  and  C2_3 
ROOT
ATOM      1  C2  UNL d   1       0.544   1.049   0.437  0.00  0.00    -0.076 A 
ATOM      2  C3  UNL d   1       1.884   0.890   0.829  0.00  0.00     0.004 A 
ATOM      3  C4  UNL d   1       2.531   1.866   1.585  0.00  0.00    -0.003 A 
ATOM      4  C5  UNL d   1       1.848   3.017   1.963  0.00  0.00     0.000 A 
ATOM      5  C6  UNL d   1       0.512   3.182   1.598  0.00  0.00     0.000 A 
ATOM      6  C7  UNL d   1      -0.160   2.201   0.850  0.00  0.00    -0.073 A 
ATOM      7  C8  UNL d   1      -1.599   2.434   0.480  0.00  0.00     0.078 C 
ENDROOT
BRANCH   1   8
ATOM      8  C1  UNL d   1      -0.097  -0.030  -0.406  0.00  0.00     0.053 C 
ATOM      9  C   UNL d   1      -0.159  -1.370   0.312  0.00  0.00     0.018 C 
ENDBRANCH   1   8
TORSDOF 1
ENDMDL
