MODEL 1
REMARK minimizedAffinity -5.36522532
REMARK minimizedRMSD -1
REMARK  1 active torsions:
REMARK  status: ('A' for Active; 'I' for Inactive)
REMARK    1  A    between atoms: C1_2  and  C2_3 
ROOT
ATOM      1  C2  UNL d   1       0.193  -0.290   0.218  0.00  0.00    -0.076 A 
ATOM      2  C3  UNL d   1       1.498   0.163  -0.042  0.00  0.00     0.004 A 
ATOM      3  C4  UNL d   1       1.772   1.523  -0.173  0.00  0.00    -0.003 A 
ATOM      4  C5  UNL d   1       0.746   2.453  -0.045  0.00  0.00     0.000 A 
ATOM      5  C6  UNL d   1      -0.551   2.023   0.232  0.00  0.00     0.000 A 
ATOM      6  C7  UNL d   1      -0.842   0.656   0.383  0.00  0.00    -0.073 A 
ATOM      7  C8  UNL d   1      -2.260   0.248   0.674  0.00  0.00     0.078 C 
ENDROOT
BRANCH   1   8
ATOM      8  C1  UNL d   1      -0.050  -1.778   0.323  0.00  0.00     0.053 C 
ATOM      9  C   UNL d   1      -0.067  -2.463  -1.035  0.00  0.00     0.018 C 
ENDBRANCH   1   8
TORSDOF 1
ENDMDL
