MODEL 1
REMARK minimizedAffinity -4.39831972
REMARK minimizedRMSD -1
REMARK  1 active torsions:
REMARK  status: ('A' for Active; 'I' for Inactive)
REMARK    1  A    between atoms: C1_2  and  C2_3 
ROOT
ATOM      1  C2  UNL d   1       0.764   2.195   0.863  0.00  0.00    -0.076 A 
ATOM      2  C3  UNL d   1      -0.150   1.425   0.122  0.00  0.00     0.004 A 
ATOM      3  C4  UNL d   1       0.148   0.114  -0.246  0.00  0.00    -0.003 A 
ATOM      4  C5  UNL d   1       1.365  -0.449   0.123  0.00  0.00     0.000 A 
ATOM      5  C6  UNL d   1       2.276   0.294   0.874  0.00  0.00     0.000 A 
ATOM      6  C7  UNL d   1       1.984   1.611   1.266  0.00  0.00    -0.073 A 
ATOM      7  C8  UNL d   1       3.005   2.368   2.070  0.00  0.00     0.078 C 
ENDROOT
BRANCH   1   8
ATOM      8  C1  UNL d   1       0.397   3.620   1.210  0.00  0.00     0.053 C 
ATOM      9  C   UNL d   1       1.116   4.636   0.336  0.00  0.00     0.018 C 
ENDBRANCH   1   8
TORSDOF 1
ENDMDL
