MODEL 1
REMARK minimizedAffinity -7.18438959
REMARK minimizedRMSD -1
REMARK  1 active torsions:
REMARK  status: ('A' for Active; 'I' for Inactive)
REMARK    1  A    between atoms: C1_2  and  C2_3 
ROOT
ATOM      1  C2  UNL d   1       0.652   1.391   0.050  0.00  0.00    -0.076 A 
ATOM      2  C3  UNL d   1      -0.027   2.611  -0.113  0.00  0.00     0.004 A 
ATOM      3  C4  UNL d   1       0.658   3.825  -0.074  0.00  0.00    -0.003 A 
ATOM      4  C5  UNL d   1       2.034   3.838   0.128  0.00  0.00     0.000 A 
ATOM      5  C6  UNL d   1       2.726   2.636   0.274  0.00  0.00     0.000 A 
ATOM      6  C7  UNL d   1       2.053   1.403   0.221  0.00  0.00    -0.073 A 
ATOM      7  C8  UNL d   1       2.849   0.138   0.390  0.00  0.00     0.078 C 
ENDROOT
BRANCH   1   8
ATOM      8  C1  UNL d   1      -0.148   0.108   0.025  0.00  0.00     0.053 C 
ATOM      9  C   UNL d   1      -1.392   0.181   0.896  0.00  0.00     0.018 C 
ENDBRANCH   1   8
TORSDOF 1
ENDMDL
