MODEL 1
REMARK minimizedAffinity -4.2367177
REMARK minimizedRMSD -1
REMARK  0 active torsions:
REMARK  status: ('A' for Active; 'I' for Inactive)
ROOT
ATOM      1  C2' OXE d   1      -2.104   0.047   0.522  0.00  0.00     0.078 C 
ATOM      2  C1' OXE d   1      -0.154   0.063   2.542  0.00  0.00     0.078 C 
ATOM      3  C1  OXE d   1       0.279   0.423   1.143  0.00  0.00    -0.078 A 
ATOM      4  C2  OXE d   1      -0.671   0.366   0.153  0.00  0.00    -0.078 A 
ATOM      5  C3  OXE d   1      -0.337   0.741  -1.146  0.00  0.00     0.003 A 
ATOM      6  C4  OXE d   1       0.992   1.025  -1.481  0.00  0.00    -0.002 A 
ATOM      7  C5  OXE d   1       1.984   1.050  -0.495  0.00  0.00    -0.002 A 
ATOM      8  C6  OXE d   1       1.637   0.793   0.827  0.00  0.00     0.003 A 
ENDROOT
TORSDOF 0
ENDMDL
