MODEL 1
REMARK minimizedAffinity -2.08542228
REMARK minimizedRMSD -1
REMARK  0 active torsions:
REMARK  status: ('A' for Active; 'I' for Inactive)
ROOT
ATOM      1  C2' OXE d   1      -1.497   0.753  -1.871  0.00  0.00     0.078 C 
ATOM      2  C1' OXE d   1       0.771  -0.773  -2.512  0.00  0.00     0.078 C 
ATOM      3  C1  OXE d   1       0.352  -0.710  -1.065  0.00  0.00    -0.078 A 
ATOM      4  C2  OXE d   1      -0.731   0.077  -0.754  0.00  0.00    -0.078 A 
ATOM      5  C3  OXE d   1      -1.193   0.127   0.558  0.00  0.00     0.003 A 
ATOM      6  C4  OXE d   1      -0.473  -0.493   1.587  0.00  0.00    -0.002 A 
ATOM      7  C5  OXE d   1       0.655  -1.267   1.297  0.00  0.00    -0.002 A 
ATOM      8  C6  OXE d   1       1.055  -1.420  -0.026  0.00  0.00     0.003 A 
ENDROOT
TORSDOF 0
ENDMDL
