MODEL 1
REMARK minimizedAffinity -3.95669341
REMARK minimizedRMSD -1
REMARK  0 active torsions:
REMARK  status: ('A' for Active; 'I' for Inactive)
ROOT
ATOM      1  C2' OXE d   1      -1.939   0.732  -1.048  0.00  0.00     0.078 C 
ATOM      2  C1' OXE d   1       0.785   1.284  -0.653  0.00  0.00     0.078 C 
ATOM      3  C1  OXE d   1       0.081   0.439   0.380  0.00  0.00    -0.078 A 
ATOM      4  C2  OXE d   1      -1.263   0.213   0.203  0.00  0.00    -0.078 A 
ATOM      5  C3  OXE d   1      -1.948  -0.605   1.096  0.00  0.00     0.003 A 
ATOM      6  C4  OXE d   1      -1.317  -1.072   2.256  0.00  0.00    -0.002 A 
ATOM      7  C5  OXE d   1       0.041  -0.820   2.476  0.00  0.00    -0.002 A 
ATOM      8  C6  OXE d   1       0.763  -0.103   1.528  0.00  0.00     0.003 A 
ENDROOT
TORSDOF 0
ENDMDL
