MODEL 1
REMARK minimizedAffinity -4.04224539
REMARK minimizedRMSD -1
REMARK  0 active torsions:
REMARK  status: ('A' for Active; 'I' for Inactive)
ROOT
ATOM      1  C2' OXE d   1       0.245  -3.519  -1.000  0.00  0.00     0.078 C 
ATOM      2  C1' OXE d   1       1.058  -2.609  -3.528  0.00  0.00     0.078 C 
ATOM      3  C1  OXE d   1       1.196  -1.662  -2.362  0.00  0.00    -0.078 A 
ATOM      4  C2  OXE d   1       0.752  -2.099  -1.137  0.00  0.00    -0.078 A 
ATOM      5  C3  OXE d   1       0.906  -1.286  -0.018  0.00  0.00     0.003 A 
ATOM      6  C4  OXE d   1       1.366   0.029  -0.155  0.00  0.00    -0.002 A 
ATOM      7  C5  OXE d   1       1.786   0.508  -1.400  0.00  0.00    -0.002 A 
ATOM      8  C6  OXE d   1       1.747  -0.337  -2.504  0.00  0.00     0.003 A 
ENDROOT
TORSDOF 0
ENDMDL
