MODEL 1
REMARK minimizedAffinity -3.52578139
REMARK minimizedRMSD -1
REMARK  0 active torsions:
REMARK  status: ('A' for Active; 'I' for Inactive)
ROOT
ATOM      1  C2' OXE d   1      -0.709  -0.418   2.457  0.00  0.00     0.078 C 
ATOM      2  C1' OXE d   1       1.647   0.349   1.139  0.00  0.00     0.078 C 
ATOM      3  C1  OXE d   1       0.346   0.479   0.387  0.00  0.00    -0.078 A 
ATOM      4  C2  OXE d   1      -0.796   0.058   1.023  0.00  0.00    -0.078 A 
ATOM      5  C3  OXE d   1      -2.030   0.207   0.395  0.00  0.00     0.003 A 
ATOM      6  C4  OXE d   1      -2.100   0.639  -0.935  0.00  0.00    -0.002 A 
ATOM      7  C5  OXE d   1      -0.944   1.036  -1.615  0.00  0.00    -0.002 A 
ATOM      8  C6  OXE d   1       0.280   1.002  -0.955  0.00  0.00     0.003 A 
ENDROOT
TORSDOF 0
ENDMDL
