MODEL 1
REMARK minimizedAffinity -3.78674412
REMARK minimizedRMSD -1
REMARK  0 active torsions:
REMARK  status: ('A' for Active; 'I' for Inactive)
ROOT
ATOM      1  C2' OXE d   1      -1.964  -0.543   0.563  0.00  0.00     0.078 C 
ATOM      2  C1' OXE d   1      -0.075   0.587   2.305  0.00  0.00     0.078 C 
ATOM      3  C1  OXE d   1       0.166   0.722   0.822  0.00  0.00    -0.078 A 
ATOM      4  C2  OXE d   1      -0.739   0.125  -0.023  0.00  0.00    -0.078 A 
ATOM      5  C3  OXE d   1      -0.594   0.266  -1.400  0.00  0.00     0.003 A 
ATOM      6  C4  OXE d   1       0.548   0.877  -1.933  0.00  0.00    -0.002 A 
ATOM      7  C5  OXE d   1       1.502   1.456  -1.091  0.00  0.00    -0.002 A 
ATOM      8  C6  OXE d   1       1.305   1.425   0.285  0.00  0.00     0.003 A 
ENDROOT
TORSDOF 0
ENDMDL
