MODEL 1
REMARK minimizedAffinity -2.60692143
REMARK minimizedRMSD -1
REMARK  0 active torsions:
REMARK  status: ('A' for Active; 'I' for Inactive)
ROOT
ATOM      1  C2' OXE d   1      -0.441  -0.595   3.235  0.00  0.00     0.078 C 
ATOM      2  C1' OXE d   1      -1.952  -0.469   0.872  0.00  0.00     0.078 C 
ATOM      3  C1  OXE d   1      -0.562   0.117   0.851  0.00  0.00    -0.078 A 
ATOM      4  C2  OXE d   1       0.152   0.093   2.024  0.00  0.00    -0.078 A 
ATOM      5  C3  OXE d   1       1.460   0.571   2.046  0.00  0.00     0.003 A 
ATOM      6  C4  OXE d   1       1.997   1.215   0.925  0.00  0.00    -0.002 A 
ATOM      7  C5  OXE d   1       1.272   1.286  -0.269  0.00  0.00    -0.002 A 
ATOM      8  C6  OXE d   1       0.010   0.706  -0.335  0.00  0.00     0.003 A 
ENDROOT
TORSDOF 0
ENDMDL
