MODEL 1
REMARK minimizedAffinity -3.79591966
REMARK minimizedRMSD -1
REMARK  0 active torsions:
REMARK  status: ('A' for Active; 'I' for Inactive)
ROOT
ATOM      1  C2' OXE d   1       0.268  -0.399  -2.732  0.00  0.00     0.078 C 
ATOM      2  C1' OXE d   1       1.570  -2.639  -3.814  0.00  0.00     0.078 C 
ATOM      3  C1  OXE d   1       2.310  -1.325  -3.819  0.00  0.00    -0.078 A 
ATOM      4  C2  OXE d   1       1.647  -0.224  -3.331  0.00  0.00    -0.078 A 
ATOM      5  C3  OXE d   1       2.304   1.001  -3.262  0.00  0.00     0.003 A 
ATOM      6  C4  OXE d   1       3.576   1.157  -3.826  0.00  0.00    -0.002 A 
ATOM      7  C5  OXE d   1       4.252   0.057  -4.365  0.00  0.00    -0.002 A 
ATOM      8  C6  OXE d   1       3.652  -1.196  -4.331  0.00  0.00     0.003 A 
ENDROOT
TORSDOF 0
ENDMDL
