MODEL 1
REMARK minimizedAffinity 5.67744207
REMARK minimizedRMSD -1
REMARK  0 active torsions:
REMARK  status: ('A' for Active; 'I' for Inactive)
ROOT
ATOM      1  C2' OXE d   1      -1.113  -1.124   3.812  0.00  0.00     0.078 C 
ATOM      2  C1' OXE d   1      -1.745   0.765   1.834  0.00  0.00     0.078 C 
ATOM      3  C1  OXE d   1      -0.288   0.533   2.145  0.00  0.00    -0.078 A 
ATOM      4  C2  OXE d   1       0.011  -0.359   3.147  0.00  0.00    -0.078 A 
ATOM      5  C3  OXE d   1       1.341  -0.650   3.436  0.00  0.00     0.003 A 
ATOM      6  C4  OXE d   1       2.374   0.069   2.823  0.00  0.00    -0.002 A 
ATOM      7  C5  OXE d   1       2.090   1.011   1.828  0.00  0.00    -0.002 A 
ATOM      8  C6  OXE d   1       0.770   1.223   1.448  0.00  0.00     0.003 A 
ENDROOT
TORSDOF 0
ENDMDL
