MODEL 1
REMARK minimizedAffinity 5.02096081
REMARK minimizedRMSD -1
REMARK  0 active torsions:
REMARK  status: ('A' for Active; 'I' for Inactive)
ROOT
ATOM      1  C2' OXE d   1      -4.310  -1.253   0.548  0.00  0.00     0.078 C 
ATOM      2  C1' OXE d   1      -2.954   0.783  -0.830  0.00  0.00     0.078 C 
ATOM      3  C1  OXE d   1      -3.238   0.994   0.636  0.00  0.00    -0.078 A 
ATOM      4  C2  OXE d   1      -3.943   0.013   1.291  0.00  0.00    -0.078 A 
ATOM      5  C3  OXE d   1      -4.184   0.133   2.657  0.00  0.00     0.003 A 
ATOM      6  C4  OXE d   1      -3.850   1.312   3.335  0.00  0.00    -0.002 A 
ATOM      7  C5  OXE d   1      -3.167   2.340   2.677  0.00  0.00    -0.002 A 
ATOM      8  C6  OXE d   1      -2.817   2.180   1.341  0.00  0.00     0.003 A 
ENDROOT
TORSDOF 0
ENDMDL
