MODEL 1
REMARK minimizedAffinity -2.91209102
REMARK minimizedRMSD -1
REMARK  0 active torsions:
REMARK  status: ('A' for Active; 'I' for Inactive)
ROOT
ATOM      1  C2' OXE d   1      -2.738  -0.041   0.553  0.00  0.00     0.078 C 
ATOM      2  C1' OXE d   1      -0.690   0.641  -1.242  0.00  0.00     0.078 C 
ATOM      3  C1  OXE d   1      -0.303   0.331   0.183  0.00  0.00    -0.078 A 
ATOM      4  C2  OXE d   1      -1.316   0.043   1.065  0.00  0.00    -0.078 A 
ATOM      5  C3  OXE d   1      -1.009  -0.304   2.378  0.00  0.00     0.003 A 
ATOM      6  C4  OXE d   1       0.307  -0.213   2.846  0.00  0.00    -0.002 A 
ATOM      7  C5  OXE d   1       1.350   0.117   1.973  0.00  0.00    -0.002 A 
ATOM      8  C6  OXE d   1       1.067   0.350   0.631  0.00  0.00     0.003 A 
ENDROOT
TORSDOF 0
ENDMDL
