MODEL 1
REMARK minimizedAffinity -5.56642342
REMARK minimizedRMSD -1
REMARK  0 active torsions:
REMARK  status: ('A' for Active; 'I' for Inactive)
ROOT
ATOM      1  C2' OXE d   1       0.390  -0.735  -1.172  0.00  0.00     0.078 C 
ATOM      2  C1' OXE d   1      -1.747   0.913  -0.398  0.00  0.00     0.078 C 
ATOM      3  C1  OXE d   1      -0.924   0.270   0.690  0.00  0.00    -0.078 A 
ATOM      4  C2  OXE d   1       0.091  -0.572   0.303  0.00  0.00    -0.078 A 
ATOM      5  C3  OXE d   1       0.914  -1.148   1.265  0.00  0.00     0.003 A 
ATOM      6  C4  OXE d   1       0.624  -1.000   2.627  0.00  0.00    -0.002 A 
ATOM      7  C5  OXE d   1      -0.429  -0.179   3.043  0.00  0.00    -0.002 A 
ATOM      8  C6  OXE d   1      -1.185   0.496   2.091  0.00  0.00     0.003 A 
ENDROOT
TORSDOF 0
ENDMDL
