MODEL 1
REMARK minimizedAffinity -4.02683306
REMARK minimizedRMSD -1
REMARK  0 active torsions:
REMARK  status: ('A' for Active; 'I' for Inactive)
ROOT
ATOM      1  C2' OXE d   1       0.561   0.301  -1.446  0.00  0.00     0.078 C 
ATOM      2  C1' OXE d   1      -1.739  -0.111   0.109  0.00  0.00     0.078 C 
ATOM      3  C1  OXE d   1      -0.402  -0.154   0.806  0.00  0.00    -0.078 A 
ATOM      4  C2  OXE d   1       0.721   0.002   0.029  0.00  0.00    -0.078 A 
ATOM      5  C3  OXE d   1       1.977   0.025   0.629  0.00  0.00     0.003 A 
ATOM      6  C4  OXE d   1       2.116  -0.262   1.992  0.00  0.00    -0.002 A 
ATOM      7  C5  OXE d   1       0.988  -0.464   2.794  0.00  0.00    -0.002 A 
ATOM      8  C6  OXE d   1      -0.278  -0.371   2.226  0.00  0.00     0.003 A 
ENDROOT
TORSDOF 0
ENDMDL
