MODEL 1
REMARK minimizedAffinity -3.8539772
REMARK minimizedRMSD -1
REMARK  0 active torsions:
REMARK  status: ('A' for Active; 'I' for Inactive)
ROOT
ATOM      1  C2' OXE d   1      -1.617   0.746  -0.241  0.00  0.00     0.078 C 
ATOM      2  C1' OXE d   1       0.723  -0.172  -1.490  0.00  0.00     0.078 C 
ATOM      3  C1  OXE d   1       0.757   0.034   0.004  0.00  0.00    -0.078 A 
ATOM      4  C2  OXE d   1      -0.378   0.528   0.600  0.00  0.00    -0.078 A 
ATOM      5  C3  OXE d   1      -0.419   0.684   1.982  0.00  0.00     0.003 A 
ATOM      6  C4  OXE d   1       0.734   0.489   2.752  0.00  0.00    -0.002 A 
ATOM      7  C5  OXE d   1       1.913   0.024   2.159  0.00  0.00    -0.002 A 
ATOM      8  C6  OXE d   1       1.929  -0.249   0.796  0.00  0.00     0.003 A 
ENDROOT
TORSDOF 0
ENDMDL
