MODEL 1
REMARK minimizedAffinity -2.55459476
REMARK minimizedRMSD -1
REMARK  0 active torsions:
REMARK  status: ('A' for Active; 'I' for Inactive)
ROOT
ATOM      1  C2' OXE d   1       0.454  -0.542  -1.559  0.00  0.00     0.078 C 
ATOM      2  C1' OXE d   1      -1.818   0.728  -0.507  0.00  0.00     0.078 C 
ATOM      3  C1  OXE d   1      -0.644   0.508   0.415  0.00  0.00    -0.078 A 
ATOM      4  C2  OXE d   1       0.445  -0.156  -0.095  0.00  0.00    -0.078 A 
ATOM      5  C3  OXE d   1       1.576  -0.336   0.696  0.00  0.00     0.003 A 
ATOM      6  C4  OXE d   1       1.556   0.016   2.052  0.00  0.00    -0.002 A 
ATOM      7  C5  OXE d   1       0.441   0.657   2.602  0.00  0.00    -0.002 A 
ATOM      8  C6  OXE d   1      -0.648   0.948   1.788  0.00  0.00     0.003 A 
ENDROOT
TORSDOF 0
ENDMDL
