MODEL 1
REMARK minimizedAffinity -2.19654012
REMARK minimizedRMSD -1
REMARK  0 active torsions:
REMARK  status: ('A' for Active; 'I' for Inactive)
ROOT
ATOM      1  C2' OXE d   1       1.465  -0.130   0.963  0.00  0.00     0.078 C 
ATOM      2  C1' OXE d   1      -0.670  -0.702   2.693  0.00  0.00     0.078 C 
ATOM      3  C1  OXE d   1      -0.998  -0.134   1.334  0.00  0.00    -0.078 A 
ATOM      4  C2  OXE d   1       0.055   0.186   0.512  0.00  0.00    -0.078 A 
ATOM      5  C3  OXE d   1      -0.193   0.662  -0.772  0.00  0.00     0.003 A 
ATOM      6  C4  OXE d   1      -1.499   0.962  -1.177  0.00  0.00    -0.002 A 
ATOM      7  C5  OXE d   1      -2.584   0.680  -0.340  0.00  0.00    -0.002 A 
ATOM      8  C6  OXE d   1      -2.354   0.093   0.899  0.00  0.00     0.003 A 
ENDROOT
TORSDOF 0
ENDMDL
