MODEL 1
REMARK minimizedAffinity 11.0064793
REMARK minimizedRMSD -1
REMARK  1 active torsions:
REMARK  status: ('A' for Active; 'I' for Inactive)
REMARK    1  A    between atoms: N_2  and  C1_3 
ROOT
ATOM      1  C1  UNL d   1      -1.580   1.067  -1.618  0.00  0.00     0.143 A 
ATOM      2  C2  UNL d   1      -2.646   0.634  -2.415  0.00  0.00    -0.057 A 
ATOM      3  C3  UNL d   1      -2.874   1.184  -3.682  0.00  0.00     0.033 A 
ATOM      4  C4  UNL d   1      -2.056   2.200  -4.165  0.00  0.00    -0.042 A 
ATOM      5  C5  UNL d   1      -1.005   2.663  -3.379  0.00  0.00     0.033 A 
ATOM      6  C6  UNL d   1      -0.778   2.105  -2.118  0.00  0.00    -0.057 A 
ENDROOT
BRANCH   1   7
ATOM      7  N   UNL d   1      -1.360   0.629  -0.310  0.00  0.00    -0.732 N 
ATOM      8  C   UNL d   1      -2.089   1.212   0.795  0.00  0.00     0.284 C 
ATOM      9  H3  UNL d   1      -1.254  -0.381  -0.251  0.00  0.00     0.395 HD
ENDBRANCH   1   7
TORSDOF 1
ENDMDL
