MODEL 1
REMARK minimizedAffinity 3.43171883
REMARK minimizedRMSD -1
REMARK  1 active torsions:
REMARK  status: ('A' for Active; 'I' for Inactive)
REMARK    1  A    between atoms: N_2  and  C1_3 
ROOT
ATOM      1  C1  UNL d   1       1.949   3.734  -5.154  0.00  0.00     0.143 A 
ATOM      2  C2  UNL d   1       1.987   4.849  -5.998  0.00  0.00    -0.057 A 
ATOM      3  C3  UNL d   1       1.198   5.978  -5.745  0.00  0.00     0.033 A 
ATOM      4  C4  UNL d   1       0.332   6.000  -4.657  0.00  0.00    -0.042 A 
ATOM      5  C5  UNL d   1       0.260   4.892  -3.819  0.00  0.00     0.033 A 
ATOM      6  C6  UNL d   1       1.055   3.771  -4.072  0.00  0.00    -0.057 A 
ENDROOT
BRANCH   1   7
ATOM      7  N   UNL d   1       2.636   2.544  -5.407  0.00  0.00    -0.732 N 
ATOM      8  C   UNL d   1       3.327   1.851  -4.341  0.00  0.00     0.284 C 
ATOM      9  H3  UNL d   1       2.129   1.930  -6.041  0.00  0.00     0.395 HD
ENDBRANCH   1   7
TORSDOF 1
ENDMDL
