MODEL 1
REMARK minimizedAffinity 7.838871
REMARK minimizedRMSD -1
REMARK  1 active torsions:
REMARK  status: ('A' for Active; 'I' for Inactive)
REMARK    1  A    between atoms: N_2  and  C1_3 
ROOT
ATOM      1  C1  UNL d   1       2.670   0.305  -1.656  0.00  0.00     0.143 A 
ATOM      2  C2  UNL d   1       1.785  -0.690  -2.085  0.00  0.00    -0.057 A 
ATOM      3  C3  UNL d   1       2.010  -1.400  -3.271  0.00  0.00     0.033 A 
ATOM      4  C4  UNL d   1       3.112  -1.105  -4.066  0.00  0.00    -0.042 A 
ATOM      5  C5  UNL d   1       3.992  -0.103  -3.672  0.00  0.00     0.033 A 
ATOM      6  C6  UNL d   1       3.765   0.597  -2.484  0.00  0.00    -0.057 A 
ENDROOT
BRANCH   1   7
ATOM      7  N   UNL d   1       2.449   1.113  -0.538  0.00  0.00    -0.732 N 
ATOM      8  C   UNL d   1       3.400   1.138   0.553  0.00  0.00     0.284 C 
ATOM      9  H3  UNL d   1       2.077   2.027  -0.786  0.00  0.00     0.395 HD
ENDBRANCH   1   7
TORSDOF 1
ENDMDL
