MODEL 1
REMARK minimizedAffinity 3.37834787
REMARK minimizedRMSD -1
REMARK  1 active torsions:
REMARK  status: ('A' for Active; 'I' for Inactive)
REMARK    1  A    between atoms: N_2  and  C1_3 
ROOT
ATOM      1  C1  UNL d   1       1.864   1.434   1.174  0.00  0.00     0.143 A 
ATOM      2  C2  UNL d   1       2.784   1.493   0.121  0.00  0.00    -0.057 A 
ATOM      3  C3  UNL d   1       4.068   0.947   0.248  0.00  0.00     0.033 A 
ATOM      4  C4  UNL d   1       4.464   0.357   1.443  0.00  0.00    -0.042 A 
ATOM      5  C5  UNL d   1       3.575   0.309   2.510  0.00  0.00     0.033 A 
ATOM      6  C6  UNL d   1       2.293   0.850   2.376  0.00  0.00    -0.057 A 
ENDROOT
BRANCH   1   7
ATOM      7  N   UNL d   1       0.608   2.045   1.144  0.00  0.00    -0.732 N 
ATOM      8  C   UNL d   1      -0.563   1.302   0.732  0.00  0.00     0.284 C 
ATOM      9  H3  UNL d   1       0.454   2.655   1.943  0.00  0.00     0.395 HD
ENDBRANCH   1   7
TORSDOF 1
ENDMDL
