MODEL 1
REMARK minimizedAffinity 1.97850466
REMARK minimizedRMSD -1
REMARK  1 active torsions:
REMARK  status: ('A' for Active; 'I' for Inactive)
REMARK    1  A    between atoms: N_2  and  C1_3 
ROOT
ATOM      1  C1  UNL d   1      -1.827   0.733  -1.810  0.00  0.00     0.143 A 
ATOM      2  C2  UNL d   1      -0.504   1.049  -1.484  0.00  0.00    -0.057 A 
ATOM      3  C3  UNL d   1      -0.142   1.401  -0.179  0.00  0.00     0.033 A 
ATOM      4  C4  UNL d   1      -1.106   1.473   0.821  0.00  0.00    -0.042 A 
ATOM      5  C5  UNL d   1      -2.432   1.188   0.515  0.00  0.00     0.033 A 
ATOM      6  C6  UNL d   1      -2.786   0.830  -0.789  0.00  0.00    -0.057 A 
ENDROOT
BRANCH   1   7
ATOM      7  N   UNL d   1      -2.267   0.472  -3.110  0.00  0.00    -0.732 N 
ATOM      8  C   UNL d   1      -2.886   1.512  -3.903  0.00  0.00     0.284 C 
ATOM      9  H3  UNL d   1      -1.618  -0.116  -3.629  0.00  0.00     0.395 HD
ENDBRANCH   1   7
TORSDOF 1
ENDMDL
