MODEL 1
REMARK minimizedAffinity 6.1773057
REMARK minimizedRMSD -1
REMARK  1 active torsions:
REMARK  status: ('A' for Active; 'I' for Inactive)
REMARK    1  A    between atoms: N_2  and  C1_3 
ROOT
ATOM      1  C1  UNL d   1       1.316  -5.964   1.679  0.00  0.00     0.143 A 
ATOM      2  C2  UNL d   1       0.362  -6.000   2.702  0.00  0.00    -0.057 A 
ATOM      3  C3  UNL d   1      -1.003  -5.859   2.426  0.00  0.00     0.033 A 
ATOM      4  C4  UNL d   1      -1.438  -5.649   1.122  0.00  0.00    -0.042 A 
ATOM      5  C5  UNL d   1      -0.506  -5.585   0.092  0.00  0.00     0.033 A 
ATOM      6  C6  UNL d   1       0.856  -5.733   0.373  0.00  0.00    -0.057 A 
ENDROOT
BRANCH   1   7
ATOM      7  N   UNL d   1       2.695  -5.999   1.899  0.00  0.00    -0.732 N 
ATOM      8  C   UNL d   1       3.535  -4.891   1.498  0.00  0.00     0.284 C 
ATOM      9  H3  UNL d   1       2.933  -6.394   2.807  0.00  0.00     0.395 HD
ENDBRANCH   1   7
TORSDOF 1
ENDMDL
