MODEL 1
REMARK minimizedAffinity 7.45058727
REMARK minimizedRMSD -1
REMARK  1 active torsions:
REMARK  status: ('A' for Active; 'I' for Inactive)
REMARK    1  A    between atoms: N_2  and  C1_3 
ROOT
ATOM      1  C1  UNL d   1      -5.032   3.403   5.986  0.00  0.00     0.143 A 
ATOM      2  C2  UNL d   1      -3.642   3.562   5.945  0.00  0.00    -0.057 A 
ATOM      3  C3  UNL d   1      -3.057   4.833   5.945  0.00  0.00     0.033 A 
ATOM      4  C4  UNL d   1      -3.854   5.973   5.956  0.00  0.00    -0.042 A 
ATOM      5  C5  UNL d   1      -5.238   5.839   5.972  0.00  0.00     0.033 A 
ATOM      6  C6  UNL d   1      -5.817   4.566   5.979  0.00  0.00    -0.057 A 
ENDROOT
BRANCH   1   7
ATOM      7  N   UNL d   1      -5.676   2.167   5.889  0.00  0.00    -0.732 N 
ATOM      8  C   UNL d   1      -4.986   1.016   5.350  0.00  0.00     0.284 C 
ATOM      9  H3  UNL d   1      -6.250   1.964   6.705  0.00  0.00     0.395 HD
ENDBRANCH   1   7
TORSDOF 1
ENDMDL
