MODEL 1
REMARK minimizedAffinity 13.1997471
REMARK minimizedRMSD -1
REMARK  1 active torsions:
REMARK  status: ('A' for Active; 'I' for Inactive)
REMARK    1  A    between atoms: C1_2  and  C2_3 
ROOT
ATOM      1  C2  UNL d   1       1.983  -2.316   3.811  0.00  0.00    -0.076 A 
ATOM      2  C3  UNL d   1       2.081  -1.041   3.229  0.00  0.00     0.004 A 
ATOM      3  C4  UNL d   1       2.142   0.106   4.019  0.00  0.00    -0.003 A 
ATOM      4  C5  UNL d   1       2.108  -0.004   5.405  0.00  0.00     0.000 A 
ATOM      5  C6  UNL d   1       2.029  -1.263   6.000  0.00  0.00     0.000 A 
ATOM      6  C7  UNL d   1       1.982  -2.430   5.218  0.00  0.00    -0.073 A 
ATOM      7  C8  UNL d   1       1.891  -3.761   5.913  0.00  0.00     0.078 C 
ENDROOT
BRANCH   1   8
ATOM      8  C1  UNL d   1       1.892  -3.522   2.904  0.00  0.00     0.053 C 
ATOM      9  C   UNL d   1       2.658  -3.331   1.603  0.00  0.00     0.018 C 
ENDBRANCH   1   8
TORSDOF 1
ENDMDL
