MODEL 1
REMARK minimizedAffinity 6.54287386
REMARK minimizedRMSD -1
REMARK  1 active torsions:
REMARK  status: ('A' for Active; 'I' for Inactive)
REMARK    1  A    between atoms: C1_2  and  C2_3 
ROOT
ATOM      1  C2  UNL d   1      -2.900   1.553  -3.371  0.00  0.00    -0.076 A 
ATOM      2  C3  UNL d   1      -2.620   1.612  -1.995  0.00  0.00     0.004 A 
ATOM      3  C4  UNL d   1      -2.246   0.469  -1.289  0.00  0.00    -0.003 A 
ATOM      4  C5  UNL d   1      -2.146  -0.751  -1.949  0.00  0.00     0.000 A 
ATOM      5  C6  UNL d   1      -2.403  -0.824  -3.318  0.00  0.00     0.000 A 
ATOM      6  C7  UNL d   1      -2.765   0.321  -4.047  0.00  0.00    -0.073 A 
ATOM      7  C8  UNL d   1      -3.037   0.183  -5.520  0.00  0.00     0.078 C 
ENDROOT
BRANCH   1   8
ATOM      8  C1  UNL d   1      -3.327   2.820  -4.078  0.00  0.00     0.053 C 
ATOM      9  C   UNL d   1      -4.029   3.797  -3.149  0.00  0.00     0.018 C 
ENDBRANCH   1   8
TORSDOF 1
ENDMDL
