MODEL 1
REMARK minimizedAffinity 15.8409376
REMARK minimizedRMSD -1
REMARK  1 active torsions:
REMARK  status: ('A' for Active; 'I' for Inactive)
REMARK    1  A    between atoms: C1_2  and  C2_3 
ROOT
ATOM      1  C2  UNL d   1       3.541  -3.630  -5.288  0.00  0.00    -0.076 A 
ATOM      2  C3  UNL d   1       4.218  -2.624  -5.999  0.00  0.00     0.004 A 
ATOM      3  C4  UNL d   1       4.529  -1.406  -5.399  0.00  0.00    -0.003 A 
ATOM      4  C5  UNL d   1       4.168  -1.173  -4.076  0.00  0.00     0.000 A 
ATOM      5  C6  UNL d   1       3.512  -2.166  -3.350  0.00  0.00     0.000 A 
ATOM      6  C7  UNL d   1       3.206  -3.406  -3.935  0.00  0.00    -0.073 A 
ATOM      7  C8  UNL d   1       2.491  -4.439  -3.107  0.00  0.00     0.078 C 
ENDROOT
BRANCH   1   8
ATOM      8  C1  UNL d   1       3.207  -4.921  -6.000  0.00  0.00     0.053 C 
ATOM      9  C   UNL d   1       4.365  -5.908  -5.991  0.00  0.00     0.018 C 
ENDBRANCH   1   8
TORSDOF 1
ENDMDL
