MODEL 1
REMARK minimizedAffinity 23.5640182
REMARK minimizedRMSD -1
REMARK  1 active torsions:
REMARK  status: ('A' for Active; 'I' for Inactive)
REMARK    1  A    between atoms: C1_2  and  C2_3 
ROOT
ATOM      1  C2  UNL d   1      -2.052   0.939  -1.702  0.00  0.00    -0.076 A 
ATOM      2  C3  UNL d   1      -1.615  -0.391  -1.574  0.00  0.00     0.004 A 
ATOM      3  C4  UNL d   1      -1.829  -1.318  -2.592  0.00  0.00    -0.003 A 
ATOM      4  C5  UNL d   1      -2.483  -0.930  -3.756  0.00  0.00     0.000 A 
ATOM      5  C6  UNL d   1      -2.908   0.389  -3.908  0.00  0.00     0.000 A 
ATOM      6  C7  UNL d   1      -2.686   1.341  -2.898  0.00  0.00    -0.073 A 
ATOM      7  C8  UNL d   1      -3.171   2.748  -3.112  0.00  0.00     0.078 C 
ENDROOT
BRANCH   1   8
ATOM      8  C1  UNL d   1      -1.817   1.893  -0.553  0.00  0.00     0.053 C 
ATOM      9  C   UNL d   1      -1.198   1.208   0.656  0.00  0.00     0.018 C 
ENDBRANCH   1   8
TORSDOF 1
ENDMDL
