MODEL 1
REMARK minimizedAffinity 16.8017159
REMARK minimizedRMSD -1
REMARK  1 active torsions:
REMARK  status: ('A' for Active; 'I' for Inactive)
REMARK    1  A    between atoms: C1_2  and  C2_3 
ROOT
ATOM      1  C2  UNL d   1      -0.223   3.850   0.932  0.00  0.00    -0.076 A 
ATOM      2  C3  UNL d   1       0.913   3.225   0.389  0.00  0.00     0.004 A 
ATOM      3  C4  UNL d   1       1.936   3.974  -0.191  0.00  0.00    -0.003 A 
ATOM      4  C5  UNL d   1       1.841   5.360  -0.236  0.00  0.00     0.000 A 
ATOM      5  C6  UNL d   1       0.729   5.998   0.314  0.00  0.00     0.000 A 
ATOM      6  C7  UNL d   1      -0.304   5.259   0.916  0.00  0.00    -0.073 A 
ATOM      7  C8  UNL d   1      -1.482   5.999   1.488  0.00  0.00     0.078 C 
ENDROOT
BRANCH   1   8
ATOM      8  C1  UNL d   1      -1.313   2.985   1.522  0.00  0.00     0.053 C 
ATOM      9  C   UNL d   1      -1.472   1.664   0.786  0.00  0.00     0.018 C 
ENDBRANCH   1   8
TORSDOF 1
ENDMDL
