MODEL 1
REMARK minimizedAffinity 7.81770468
REMARK minimizedRMSD -1
REMARK  1 active torsions:
REMARK  status: ('A' for Active; 'I' for Inactive)
REMARK    1  A    between atoms: C1_2  and  C2_3 
ROOT
ATOM      1  C2  UNL d   1      -2.532   1.486  -2.634  0.00  0.00    -0.076 A 
ATOM      2  C3  UNL d   1      -2.929   1.093  -3.924  0.00  0.00     0.004 A 
ATOM      3  C4  UNL d   1      -2.522  -0.127  -4.461  0.00  0.00    -0.003 A 
ATOM      4  C5  UNL d   1      -1.711  -0.976  -3.715  0.00  0.00     0.000 A 
ATOM      5  C6  UNL d   1      -1.322  -0.611  -2.426  0.00  0.00     0.000 A 
ATOM      6  C7  UNL d   1      -1.737   0.609  -1.865  0.00  0.00    -0.073 A 
ATOM      7  C8  UNL d   1      -1.283   0.955  -0.474  0.00  0.00     0.078 C 
ENDROOT
BRANCH   1   8
ATOM      8  C1  UNL d   1      -2.982   2.833  -2.116  0.00  0.00     0.053 C 
ATOM      9  C   UNL d   1      -3.393   3.779  -3.234  0.00  0.00     0.018 C 
ENDBRANCH   1   8
TORSDOF 1
ENDMDL
