MODEL 1
REMARK minimizedAffinity 6.69921398
REMARK minimizedRMSD -1
REMARK  1 active torsions:
REMARK  status: ('A' for Active; 'I' for Inactive)
REMARK    1  A    between atoms: C1_2  and  C2_3 
ROOT
ATOM      1  C2  UNL d   1      -2.391   0.845  -2.796  0.00  0.00    -0.076 A 
ATOM      2  C3  UNL d   1      -2.400   0.530  -4.165  0.00  0.00     0.004 A 
ATOM      3  C4  UNL d   1      -1.692  -0.568  -4.653  0.00  0.00    -0.003 A 
ATOM      4  C5  UNL d   1      -0.965  -1.368  -3.779  0.00  0.00     0.000 A 
ATOM      5  C6  UNL d   1      -0.960  -1.081  -2.415  0.00  0.00     0.000 A 
ATOM      6  C7  UNL d   1      -1.681   0.012  -1.904  0.00  0.00    -0.073 A 
ATOM      7  C8  UNL d   1      -1.636   0.280  -0.425  0.00  0.00     0.078 C 
ENDROOT
BRANCH   1   8
ATOM      8  C1  UNL d   1      -3.155   2.063  -2.328  0.00  0.00     0.053 C 
ATOM      9  C   UNL d   1      -3.168   3.176  -3.365  0.00  0.00     0.018 C 
ENDBRANCH   1   8
TORSDOF 1
ENDMDL
