MODEL 1
REMARK minimizedAffinity 4.78827286
REMARK minimizedRMSD -1
REMARK  1 active torsions:
REMARK  status: ('A' for Active; 'I' for Inactive)
REMARK    1  A    between atoms: C1_2  and  C2_3 
ROOT
ATOM      1  C2  UNL d   1      -1.999  -0.616  -3.369  0.00  0.00    -0.076 A 
ATOM      2  C3  UNL d   1      -1.376  -1.484  -4.282  0.00  0.00     0.004 A 
ATOM      3  C4  UNL d   1      -2.110  -2.449  -4.969  0.00  0.00    -0.003 A 
ATOM      4  C5  UNL d   1      -3.479  -2.561  -4.756  0.00  0.00     0.000 A 
ATOM      5  C6  UNL d   1      -4.116  -1.697  -3.866  0.00  0.00     0.000 A 
ATOM      6  C7  UNL d   1      -3.394  -0.708  -3.177  0.00  0.00    -0.073 A 
ATOM      7  C8  UNL d   1      -4.131   0.194  -2.226  0.00  0.00     0.078 C 
ENDROOT
BRANCH   1   8
ATOM      8  C1  UNL d   1      -1.147   0.393  -2.632  0.00  0.00     0.053 C 
ATOM      9  C   UNL d   1       0.210  -0.169  -2.235  0.00  0.00     0.018 C 
ENDBRANCH   1   8
TORSDOF 1
ENDMDL
