MODEL 1
REMARK minimizedAffinity -3.20273709
REMARK minimizedRMSD -1
REMARK  1 active torsions:
REMARK  status: ('A' for Active; 'I' for Inactive)
REMARK    1  A    between atoms: C1_2  and  C2_3 
ROOT
ATOM      1  C2  UNL d   1      -0.920   1.987   1.373  0.00  0.00    -0.073 A 
ATOM      2  C3  UNL d   1      -0.088   2.746   0.542  0.00  0.00    -0.002 A 
ATOM      3  C4  UNL d   1       0.546   2.155  -0.551  0.00  0.00     0.004 A 
ATOM      4  C5  UNL d   1       0.350   0.803  -0.830  0.00  0.00    -0.004 A 
ATOM      5  C6  UNL d   1      -0.487   0.030  -0.019  0.00  0.00    -0.075 A 
ATOM      6  C7  UNL d   1      -0.707  -1.427  -0.303  0.00  0.00     0.076 C 
ATOM      7  C8  UNL d   1      -1.118   0.630   1.079  0.00  0.00     0.001 A 
ENDROOT
BRANCH   1   8
ATOM      8  C1  UNL d   1      -1.612   2.622   2.551  0.00  0.00     0.053 C 
ATOM      9  C   UNL d   1      -0.630   3.028   3.638  0.00  0.00     0.018 C 
ENDBRANCH   1   8
TORSDOF 1
ENDMDL
