MODEL 1
REMARK minimizedAffinity -5.5856595
REMARK minimizedRMSD -1
REMARK  1 active torsions:
REMARK  status: ('A' for Active; 'I' for Inactive)
REMARK    1  A    between atoms: C1_2  and  C2_3 
ROOT
ATOM      1  C2  UNL d   1       0.266  -0.163   0.195  0.00  0.00    -0.073 A 
ATOM      2  C3  UNL d   1       1.232   0.759  -0.223  0.00  0.00    -0.002 A 
ATOM      3  C4  UNL d   1       0.960   2.127  -0.193  0.00  0.00     0.004 A 
ATOM      4  C5  UNL d   1      -0.276   2.587   0.261  0.00  0.00    -0.004 A 
ATOM      5  C6  UNL d   1      -1.250   1.682   0.695  0.00  0.00    -0.075 A 
ATOM      6  C7  UNL d   1      -2.585   2.161   1.184  0.00  0.00     0.076 C 
ATOM      7  C8  UNL d   1      -0.971   0.309   0.659  0.00  0.00     0.001 A 
ENDROOT
BRANCH   1   8
ATOM      8  C1  UNL d   1       0.557  -1.642   0.170  0.00  0.00     0.053 C 
ATOM      9  C   UNL d   1      -0.562  -2.432  -0.489  0.00  0.00     0.018 C 
ENDBRANCH   1   8
TORSDOF 1
ENDMDL
