MODEL 1
REMARK minimizedAffinity -1.54846394
REMARK minimizedRMSD -1
REMARK  1 active torsions:
REMARK  status: ('A' for Active; 'I' for Inactive)
REMARK    1  A    between atoms: C1_2  and  C2_3 
ROOT
ATOM      1  C2  UNL d   1      -0.489   2.136   1.116  0.00  0.00    -0.073 A 
ATOM      2  C3  UNL d   1      -0.012   3.010   0.132  0.00  0.00    -0.002 A 
ATOM      3  C4  UNL d   1       0.661   2.515  -0.985  0.00  0.00     0.004 A 
ATOM      4  C5  UNL d   1       0.859   1.142  -1.134  0.00  0.00    -0.004 A 
ATOM      5  C6  UNL d   1       0.379   0.251  -0.168  0.00  0.00    -0.075 A 
ATOM      6  C7  UNL d   1       0.586  -1.228  -0.313  0.00  0.00     0.076 C 
ATOM      7  C8  UNL d   1      -0.294   0.757   0.952  0.00  0.00     0.001 A 
ENDROOT
BRANCH   1   8
ATOM      8  C1  UNL d   1      -1.222   2.665   2.321  0.00  0.00     0.053 C 
ATOM      9  C   UNL d   1      -0.284   3.340   3.308  0.00  0.00     0.018 C 
ENDBRANCH   1   8
TORSDOF 1
ENDMDL
