MODEL 1
REMARK minimizedAffinity -5.40864182
REMARK minimizedRMSD -1
REMARK  1 active torsions:
REMARK  status: ('A' for Active; 'I' for Inactive)
REMARK    1  A    between atoms: C1_2  and  C2_3 
ROOT
ATOM      1  C2  UNL d   1      -0.536   0.295  -0.105  0.00  0.00    -0.073 A 
ATOM      2  C3  UNL d   1      -1.782   0.507   0.497  0.00  0.00    -0.002 A 
ATOM      3  C4  UNL d   1      -2.027   1.678   1.215  0.00  0.00     0.004 A 
ATOM      4  C5  UNL d   1      -1.035   2.651   1.331  0.00  0.00    -0.004 A 
ATOM      5  C6  UNL d   1       0.212   2.463   0.726  0.00  0.00    -0.075 A 
ATOM      6  C7  UNL d   1       1.291   3.499   0.844  0.00  0.00     0.076 C 
ATOM      7  C8  UNL d   1       0.452   1.283   0.010  0.00  0.00     0.001 A 
ENDROOT
BRANCH   1   8
ATOM      8  C1  UNL d   1      -0.269  -0.966  -0.886  0.00  0.00     0.053 C 
ATOM      9  C   UNL d   1       0.488  -1.996  -0.063  0.00  0.00     0.018 C 
ENDBRANCH   1   8
TORSDOF 1
ENDMDL
