MODEL 1
REMARK minimizedAffinity -3.46977568
REMARK minimizedRMSD -1
REMARK  1 active torsions:
REMARK  status: ('A' for Active; 'I' for Inactive)
REMARK    1  A    between atoms: C1_2  and  C2_3 
ROOT
ATOM      1  C2  UNL d   1       0.016  -0.862   0.026  0.00  0.00    -0.073 A 
ATOM      2  C3  UNL d   1       1.373  -1.043   0.319  0.00  0.00    -0.002 A 
ATOM      3  C4  UNL d   1       2.164   0.043   0.697  0.00  0.00     0.004 A 
ATOM      4  C5  UNL d   1       1.606   1.317   0.793  0.00  0.00    -0.004 A 
ATOM      5  C6  UNL d   1       0.249   1.516   0.516  0.00  0.00    -0.075 A 
ATOM      6  C7  UNL d   1      -0.366   2.882   0.613  0.00  0.00     0.076 C 
ATOM      7  C8  UNL d   1      -0.538   0.421   0.135  0.00  0.00     0.001 A 
ENDROOT
BRANCH   1   8
ATOM      8  C1  UNL d   1      -0.843  -2.033  -0.376  0.00  0.00     0.053 C 
ATOM      9  C   UNL d   1      -0.825  -2.264  -1.879  0.00  0.00     0.018 C 
ENDBRANCH   1   8
TORSDOF 1
ENDMDL
