MODEL 1
REMARK minimizedAffinity -3.97198892
REMARK minimizedRMSD -1
REMARK  1 active torsions:
REMARK  status: ('A' for Active; 'I' for Inactive)
REMARK    1  A    between atoms: C1_2  and  C2_3 
ROOT
ATOM      1  C2  UNL d   1      -0.565  -1.559   0.026  0.00  0.00    -0.073 A 
ATOM      2  C3  UNL d   1      -1.541  -0.697   0.538  0.00  0.00    -0.002 A 
ATOM      3  C4  UNL d   1      -1.172   0.502   1.149  0.00  0.00     0.004 A 
ATOM      4  C5  UNL d   1       0.173   0.855   1.247  0.00  0.00    -0.004 A 
ATOM      5  C6  UNL d   1       1.163   0.013   0.730  0.00  0.00    -0.075 A 
ATOM      6  C7  UNL d   1       2.615   0.377   0.830  0.00  0.00     0.076 C 
ATOM      7  C8  UNL d   1       0.785  -1.191   0.121  0.00  0.00     0.001 A 
ENDROOT
BRANCH   1   8
ATOM      8  C1  UNL d   1      -0.959  -2.852  -0.640  0.00  0.00     0.053 C 
ATOM      9  C   UNL d   1      -0.633  -2.851  -2.125  0.00  0.00     0.018 C 
ENDBRANCH   1   8
TORSDOF 1
ENDMDL
