MODEL 1
REMARK minimizedAffinity -1.45184445
REMARK minimizedRMSD -1
REMARK  1 active torsions:
REMARK  status: ('A' for Active; 'I' for Inactive)
REMARK    1  A    between atoms: C1_2  and  C2_3 
ROOT
ATOM      1  C2  UNL d   1       0.376   0.529   0.688  0.00  0.00    -0.073 A 
ATOM      2  C3  UNL d   1       0.789   1.865   0.749  0.00  0.00    -0.002 A 
ATOM      3  C4  UNL d   1      -0.146   2.884   0.937  0.00  0.00     0.004 A 
ATOM      4  C5  UNL d   1      -1.500   2.578   1.074  0.00  0.00    -0.004 A 
ATOM      5  C6  UNL d   1      -1.931   1.248   1.027  0.00  0.00    -0.075 A 
ATOM      6  C7  UNL d   1      -3.384   0.903   1.170  0.00  0.00     0.076 C 
ATOM      7  C8  UNL d   1      -0.987   0.231   0.835  0.00  0.00     0.001 A 
ENDROOT
BRANCH   1   8
ATOM      8  C1  UNL d   1       1.382  -0.575   0.490  0.00  0.00     0.053 C 
ATOM      9  C   UNL d   1       2.806  -0.045   0.436  0.00  0.00     0.018 C 
ENDBRANCH   1   8
TORSDOF 1
ENDMDL
