MODEL 1
REMARK minimizedAffinity 12.429203
REMARK minimizedRMSD -1
REMARK  0 active torsions:
REMARK  status: ('A' for Active; 'I' for Inactive)
ROOT
ATOM      1  C1  DEN d   1       2.253   1.425   2.547  0.00  0.00     0.130 A 
ATOM      2  C2  DEN d   1       3.137   2.279   1.759  0.00  0.00    -0.031 A 
ATOM      3  C3  DEN d   1       4.358   2.527   2.551  0.00  0.00     0.027 A 
ATOM      4  C4  DEN d   1       4.966   1.672   4.908  0.00  0.00     0.027 A 
ATOM      5  C5  DEN d   1       4.527   0.924   5.978  0.00  0.00    -0.003 A 
ATOM      6  C6  DEN d   1       3.295   0.324   5.994  0.00  0.00     0.001 A 
ATOM      7  C7  DEN d   1       2.478   0.424   4.899  0.00  0.00     0.017 A 
ATOM      8  C8  DEN d   1       2.910   1.182   3.819  0.00  0.00    -0.094 A 
ATOM      9  C9  DEN d   1       4.163   1.771   3.817  0.00  0.00    -0.072 A 
ENDROOT
TORSDOF 0
ENDMDL
