MODEL 1
REMARK minimizedAffinity 10.9246559
REMARK minimizedRMSD -1
REMARK  0 active torsions:
REMARK  status: ('A' for Active; 'I' for Inactive)
ROOT
ATOM      1  C1  DEN d   1      -2.954   2.468  -1.579  0.00  0.00     0.130 A 
ATOM      2  C2  DEN d   1      -2.752   3.263  -0.371  0.00  0.00    -0.031 A 
ATOM      3  C3  DEN d   1      -2.130   2.395   0.649  0.00  0.00     0.027 A 
ATOM      4  C4  DEN d   1      -1.460  -0.090   0.474  0.00  0.00     0.027 A 
ATOM      5  C5  DEN d   1      -1.446  -1.193  -0.351  0.00  0.00    -0.003 A 
ATOM      6  C6  DEN d   1      -1.960  -1.164  -1.620  0.00  0.00     0.001 A 
ATOM      7  C7  DEN d   1      -2.470   0.006  -2.118  0.00  0.00     0.017 A 
ATOM      8  C8  DEN d   1      -2.494   1.121  -1.290  0.00  0.00    -0.094 A 
ATOM      9  C9  DEN d   1      -1.958   1.074  -0.015  0.00  0.00    -0.072 A 
ENDROOT
TORSDOF 0
ENDMDL
