MODEL 1
REMARK minimizedAffinity 11.5678558
REMARK minimizedRMSD -1
REMARK  0 active torsions:
REMARK  status: ('A' for Active; 'I' for Inactive)
ROOT
ATOM      1  C1  DEN d   1       3.229  -1.471   2.638  0.00  0.00     0.130 A 
ATOM      2  C2  DEN d   1       2.569  -0.262   3.121  0.00  0.00    -0.031 A 
ATOM      3  C3  DEN d   1       1.516  -0.665   4.075  0.00  0.00     0.027 A 
ATOM      4  C4  DEN d   1       0.850  -3.034   4.849  0.00  0.00     0.027 A 
ATOM      5  C5  DEN d   1       1.116  -4.378   4.706  0.00  0.00    -0.003 A 
ATOM      6  C6  DEN d   1       2.074  -4.845   3.846  0.00  0.00     0.001 A 
ATOM      7  C7  DEN d   1       2.832  -3.959   3.128  0.00  0.00     0.017 A 
ATOM      8  C8  DEN d   1       2.565  -2.602   3.261  0.00  0.00    -0.094 A 
ATOM      9  C9  DEN d   1       1.601  -2.149   4.145  0.00  0.00    -0.072 A 
ENDROOT
TORSDOF 0
ENDMDL
