MODEL 1
REMARK minimizedAffinity 15.8174105
REMARK minimizedRMSD -1
REMARK  0 active torsions:
REMARK  status: ('A' for Active; 'I' for Inactive)
ROOT
ATOM      1  C1  DEN d   1       1.529  -0.720   4.761  0.00  0.00     0.130 A 
ATOM      2  C2  DEN d   1       1.597  -2.126   4.371  0.00  0.00    -0.031 A 
ATOM      3  C3  DEN d   1       2.134  -2.193   2.997  0.00  0.00     0.027 A 
ATOM      4  C4  DEN d   1       2.866  -0.268   1.445  0.00  0.00     0.027 A 
ATOM      5  C5  DEN d   1       2.981   1.100   1.331  0.00  0.00    -0.003 A 
ATOM      6  C6  DEN d   1       2.593   1.952   2.331  0.00  0.00     0.001 A 
ATOM      7  C7  DEN d   1       2.111   1.442   3.507  0.00  0.00     0.017 A 
ATOM      8  C8  DEN d   1       1.985   0.064   3.627  0.00  0.00    -0.094 A 
ATOM      9  C9  DEN d   1       2.395  -0.781   2.609  0.00  0.00    -0.072 A 
ENDROOT
TORSDOF 0
ENDMDL
