MODEL 1
REMARK minimizedAffinity -0.0520263202
REMARK minimizedRMSD -1
REMARK  0 active torsions:
REMARK  status: ('A' for Active; 'I' for Inactive)
ROOT
ATOM      1  C1  DEN d   1       6.000  -1.754   4.923  0.00  0.00     0.130 A 
ATOM      2  C2  DEN d   1       6.000  -2.830   5.911  0.00  0.00    -0.031 A 
ATOM      3  C3  DEN d   1       4.630  -3.374   5.994  0.00  0.00     0.027 A 
ATOM      4  C4  DEN d   1       2.520  -2.663   4.691  0.00  0.00     0.027 A 
ATOM      5  C5  DEN d   1       2.024  -1.787   3.751  0.00  0.00    -0.003 A 
ATOM      6  C6  DEN d   1       2.803  -0.825   3.165  0.00  0.00     0.001 A 
ATOM      7  C7  DEN d   1       4.134  -0.745   3.481  0.00  0.00     0.017 A 
ATOM      8  C8  DEN d   1       4.640  -1.619   4.433  0.00  0.00    -0.094 A 
ATOM      9  C9  DEN d   1       3.839  -2.593   5.005  0.00  0.00    -0.072 A 
ENDROOT
TORSDOF 0
ENDMDL
