MODEL 1
REMARK minimizedAffinity 5.0278635
REMARK minimizedRMSD -1
REMARK  2 active torsions:
REMARK  status: ('A' for Active; 'I' for Inactive)
REMARK    1  A    between atoms: C2'_3  and  C1'_4 
REMARK    2  A    between atoms: C1'_4  and  C1_5 
ROOT
ATOM      1  C1  I4B d   1      -4.158   3.669  -4.670  0.00  0.00    -0.075 A 
ATOM      2  C2  I4B d   1      -5.248   3.681  -5.506  0.00  0.00     0.003 A 
ATOM      3  C3  I4B d   1      -5.998   4.869  -5.681  0.00  0.00     0.002 A 
ATOM      4  C4  I4B d   1      -5.656   6.000  -4.968  0.00  0.00    -0.004 A 
ATOM      5  C5  I4B d   1      -4.538   5.992  -4.139  0.00  0.00     0.002 A 
ATOM      6  C6  I4B d   1      -3.777   4.823  -3.998  0.00  0.00     0.003 A 
ENDROOT
BRANCH   1   7
ATOM      7  C1' I4B d   1      -3.408   2.388  -4.483  0.00  0.00     0.060 C 
BRANCH   7   8
ATOM      8  C2' I4B d   1      -4.114   1.587  -3.408  0.00  0.00    -0.013 C 
ATOM      9  C4' I4B d   1      -4.174   0.126  -3.768  0.00  0.00     0.013 C 
ATOM     10  C3' I4B d   1      -3.379   1.796  -2.118  0.00  0.00     0.013 C 
ENDBRANCH   7   8
ENDBRANCH   1   7
TORSDOF 2
ENDMDL
