MODEL 1
REMARK minimizedAffinity 6.25763845
REMARK minimizedRMSD -1
REMARK  2 active torsions:
REMARK  status: ('A' for Active; 'I' for Inactive)
REMARK    1  A    between atoms: C2'_3  and  C1'_4 
REMARK    2  A    between atoms: C1'_4  and  C1_5 
ROOT
ATOM      1  C1  I4B d   1       1.455  -1.346   1.370  0.00  0.00    -0.075 A 
ATOM      2  C2  I4B d   1       2.236  -0.810   2.362  0.00  0.00     0.003 A 
ATOM      3  C3  I4B d   1       1.657  -0.424   3.596  0.00  0.00     0.002 A 
ATOM      4  C4  I4B d   1       0.294  -0.545   3.774  0.00  0.00    -0.004 A 
ATOM      5  C5  I4B d   1      -0.493  -1.111   2.775  0.00  0.00     0.002 A 
ATOM      6  C6  I4B d   1       0.092  -1.526   1.570  0.00  0.00     0.003 A 
ENDROOT
BRANCH   1   7
ATOM      7  C1' I4B d   1       2.094  -1.712   0.068  0.00  0.00     0.060 C 
BRANCH   7   8
ATOM      8  C2' I4B d   1       1.427  -0.901  -1.024  0.00  0.00    -0.013 C 
ATOM      9  C4' I4B d   1      -0.068  -1.087  -1.005  0.00  0.00     0.013 C 
ATOM     10  C3' I4B d   1       1.795   0.539  -0.822  0.00  0.00     0.013 C 
ENDBRANCH   7   8
ENDBRANCH   1   7
TORSDOF 2
ENDMDL
