MODEL 1
REMARK minimizedAffinity 3.1173439
REMARK minimizedRMSD -1
REMARK  2 active torsions:
REMARK  status: ('A' for Active; 'I' for Inactive)
REMARK    1  A    between atoms: C2'_3  and  C1'_4 
REMARK    2  A    between atoms: C1'_4  and  C1_5 
ROOT
ATOM      1  C1  I4B d   1      -4.083   2.204  -5.361  0.00  0.00    -0.075 A 
ATOM      2  C2  I4B d   1      -3.299   1.275  -5.999  0.00  0.00     0.003 A 
ATOM      3  C3  I4B d   1      -3.430  -0.101  -5.689  0.00  0.00     0.002 A 
ATOM      4  C4  I4B d   1      -4.315  -0.495  -4.707  0.00  0.00    -0.004 A 
ATOM      5  C5  I4B d   1      -5.125   0.445  -4.078  0.00  0.00     0.002 A 
ATOM      6  C6  I4B d   1      -5.018   1.802  -4.416  0.00  0.00     0.003 A 
ENDROOT
BRANCH   1   7
ATOM      7  C1' I4B d   1      -3.895   3.651  -5.689  0.00  0.00     0.060 C 
BRANCH   7   8
ATOM      8  C2' I4B d   1      -4.979   4.435  -4.976  0.00  0.00    -0.013 C 
ATOM      9  C4' I4B d   1      -4.407   5.632  -4.264  0.00  0.00     0.013 C 
ATOM     10  C3' I4B d   1      -5.998   4.848  -5.995  0.00  0.00     0.013 C 
ENDBRANCH   7   8
ENDBRANCH   1   7
TORSDOF 2
ENDMDL
