MODEL 1
REMARK minimizedAffinity 6.84129381
REMARK minimizedRMSD -1
REMARK  2 active torsions:
REMARK  status: ('A' for Active; 'I' for Inactive)
REMARK    1  A    between atoms: C2'_3  and  C1'_4 
REMARK    2  A    between atoms: C1'_4  and  C1_5 
ROOT
ATOM      1  C1  I4B d   1       0.490  -1.092   1.988  0.00  0.00    -0.075 A 
ATOM      2  C2  I4B d   1       0.796  -0.157   2.946  0.00  0.00     0.003 A 
ATOM      3  C3  I4B d   1      -0.234   0.582   3.575  0.00  0.00     0.002 A 
ATOM      4  C4  I4B d   1      -1.543   0.393   3.183  0.00  0.00    -0.004 A 
ATOM      5  C5  I4B d   1      -1.854  -0.572   2.229  0.00  0.00     0.002 A 
ATOM      6  C6  I4B d   1      -0.832  -1.328   1.636  0.00  0.00     0.003 A 
ENDROOT
BRANCH   1   7
ATOM      7  C1' I4B d   1       1.606  -1.832   1.321  0.00  0.00     0.060 C 
BRANCH   7   8
ATOM      8  C2' I4B d   1       2.199  -0.925   0.261  0.00  0.00    -0.013 C 
ATOM      9  C4' I4B d   1       3.682  -1.148   0.121  0.00  0.00     0.013 C 
ATOM     10  C3' I4B d   1       1.486  -1.195  -1.030  0.00  0.00     0.013 C 
ENDBRANCH   7   8
ENDBRANCH   1   7
TORSDOF 2
ENDMDL
