MODEL 1
REMARK minimizedAffinity 15.2270918
REMARK minimizedRMSD -1
REMARK  2 active torsions:
REMARK  status: ('A' for Active; 'I' for Inactive)
REMARK    1  A    between atoms: C2'_3  and  C1'_4 
REMARK    2  A    between atoms: C1'_4  and  C1_5 
ROOT
ATOM      1  C1  I4B d   1      -1.642   0.250   2.523  0.00  0.00    -0.075 A 
ATOM      2  C2  I4B d   1      -1.194  -0.111   1.277  0.00  0.00     0.003 A 
ATOM      3  C3  I4B d   1      -0.069  -0.960   1.141  0.00  0.00     0.002 A 
ATOM      4  C4  I4B d   1       0.604  -1.381   2.270  0.00  0.00    -0.004 A 
ATOM      5  C5  I4B d   1       0.135  -1.034   3.533  0.00  0.00     0.002 A 
ATOM      6  C6  I4B d   1      -1.002  -0.223   3.662  0.00  0.00     0.003 A 
ENDROOT
BRANCH   1   7
ATOM      7  C1' I4B d   1      -2.813   1.174   2.629  0.00  0.00     0.060 C 
BRANCH   7   8
ATOM      8  C2' I4B d   1      -3.298   1.150   4.064  0.00  0.00    -0.013 C 
ATOM      9  C4' I4B d   1      -3.370   2.540   4.639  0.00  0.00     0.013 C 
ATOM     10  C3' I4B d   1      -4.642   0.485   4.087  0.00  0.00     0.013 C 
ENDBRANCH   7   8
ENDBRANCH   1   7
TORSDOF 2
ENDMDL
