MODEL 1
REMARK minimizedAffinity 6.55994749
REMARK minimizedRMSD -1
REMARK  2 active torsions:
REMARK  status: ('A' for Active; 'I' for Inactive)
REMARK    1  A    between atoms: C2'_3  and  C1'_4 
REMARK    2  A    between atoms: C1'_4  and  C1_5 
ROOT
ATOM      1  C1  I4B d   1       0.283  -0.953   1.639  0.00  0.00    -0.075 A 
ATOM      2  C2  I4B d   1       1.375  -1.606   2.154  0.00  0.00     0.003 A 
ATOM      3  C3  I4B d   1       1.735  -1.431   3.512  0.00  0.00     0.002 A 
ATOM      4  C4  I4B d   1       1.010  -0.561   4.301  0.00  0.00    -0.004 A 
ATOM      5  C5  I4B d   1      -0.111   0.082   3.783  0.00  0.00     0.002 A 
ATOM      6  C6  I4B d   1      -0.484  -0.124   2.447  0.00  0.00     0.003 A 
ENDROOT
BRANCH   1   7
ATOM      7  C1' I4B d   1      -0.050  -1.134   0.192  0.00  0.00     0.060 C 
BRANCH   7   8
ATOM      8  C2' I4B d   1       1.191  -0.814  -0.616  0.00  0.00    -0.013 C 
ATOM      9  C4' I4B d   1       0.841  -0.467  -2.039  0.00  0.00     0.013 C 
ATOM     10  C3' I4B d   1       1.904   0.320   0.059  0.00  0.00     0.013 C 
ENDBRANCH   7   8
ENDBRANCH   1   7
TORSDOF 2
ENDMDL
