MODEL 1
REMARK minimizedAffinity 5.59482098
REMARK minimizedRMSD -1
REMARK  0 active torsions:
REMARK  status: ('A' for Active; 'I' for Inactive)
ROOT
ATOM      1  C2' OXE d   1       1.218   2.602  -0.008  0.00  0.00     0.078 C 
ATOM      2  C1' OXE d   1       1.914  -0.117   0.032  0.00  0.00     0.078 C 
ATOM      3  C1  OXE d   1       2.174   0.694   1.277  0.00  0.00    -0.078 A 
ATOM      4  C2  OXE d   1       1.873   2.034   1.232  0.00  0.00    -0.078 A 
ATOM      5  C3  OXE d   1       2.042   2.817   2.371  0.00  0.00     0.003 A 
ATOM      6  C4  OXE d   1       2.658   2.285   3.511  0.00  0.00    -0.002 A 
ATOM      7  C5  OXE d   1       3.008   0.932   3.563  0.00  0.00    -0.002 A 
ATOM      8  C6  OXE d   1       2.734   0.115   2.472  0.00  0.00     0.003 A 
ENDROOT
TORSDOF 0
ENDMDL
