MODEL 1
REMARK minimizedAffinity 0.681096733
REMARK minimizedRMSD -1
REMARK  0 active torsions:
REMARK  status: ('A' for Active; 'I' for Inactive)
ROOT
ATOM      1  C2' OXE d   1       1.538  -2.017   3.314  0.00  0.00     0.078 C 
ATOM      2  C1' OXE d   1       0.290  -1.524   0.848  0.00  0.00     0.078 C 
ATOM      3  C1  OXE d   1       1.195  -0.453   1.406  0.00  0.00    -0.078 A 
ATOM      4  C2  OXE d   1       1.764  -0.684   2.635  0.00  0.00    -0.078 A 
ATOM      5  C3  OXE d   1       2.650   0.247   3.170  0.00  0.00     0.003 A 
ATOM      6  C4  OXE d   1       2.846   1.482   2.540  0.00  0.00    -0.002 A 
ATOM      7  C5  OXE d   1       2.244   1.754   1.307  0.00  0.00    -0.002 A 
ATOM      8  C6  OXE d   1       1.451   0.782   0.707  0.00  0.00     0.003 A 
ENDROOT
TORSDOF 0
ENDMDL
