MODEL 1
REMARK minimizedAffinity 6.11507463
REMARK minimizedRMSD -1
REMARK  0 active torsions:
REMARK  status: ('A' for Active; 'I' for Inactive)
ROOT
ATOM      1  C2' OXE d   1       0.246   1.695  -0.704  0.00  0.00     0.078 C 
ATOM      2  C1' OXE d   1      -0.491  -0.655   0.644  0.00  0.00     0.078 C 
ATOM      3  C1  OXE d   1       0.718   0.095   1.146  0.00  0.00    -0.078 A 
ATOM      4  C2  OXE d   1       1.099   1.218   0.452  0.00  0.00    -0.078 A 
ATOM      5  C3  OXE d   1       2.174   1.977   0.905  0.00  0.00     0.003 A 
ATOM      6  C4  OXE d   1       2.964   1.523   1.968  0.00  0.00    -0.002 A 
ATOM      7  C5  OXE d   1       2.617   0.360   2.664  0.00  0.00    -0.002 A 
ATOM      8  C6  OXE d   1       1.475  -0.341   2.293  0.00  0.00     0.003 A 
ENDROOT
TORSDOF 0
ENDMDL
