MODEL 1
REMARK minimizedAffinity 10.4641094
REMARK minimizedRMSD -1
REMARK  0 active torsions:
REMARK  status: ('A' for Active; 'I' for Inactive)
ROOT
ATOM      1  C2' OXE d   1      -3.331   3.311  -1.834  0.00  0.00     0.078 C 
ATOM      2  C1' OXE d   1      -5.998   4.168  -1.666  0.00  0.00     0.078 C 
ATOM      3  C1  OXE d   1      -5.319   3.728  -0.393  0.00  0.00    -0.078 A 
ATOM      4  C2  OXE d   1      -4.029   3.266  -0.492  0.00  0.00    -0.078 A 
ATOM      5  C3  OXE d   1      -3.338   2.899   0.659  0.00  0.00     0.003 A 
ATOM      6  C4  OXE d   1      -3.995   2.850   1.895  0.00  0.00    -0.002 A 
ATOM      7  C5  OXE d   1      -5.321   3.279   2.011  0.00  0.00    -0.002 A 
ATOM      8  C6  OXE d   1      -5.983   3.760   0.887  0.00  0.00     0.003 A 
ENDROOT
TORSDOF 0
ENDMDL
