MODEL 1
REMARK minimizedAffinity 11.8821936
REMARK minimizedRMSD -1
REMARK  0 active torsions:
REMARK  status: ('A' for Active; 'I' for Inactive)
ROOT
ATOM      1  C2' OXE d   1      -1.526  -0.952   0.438  0.00  0.00     0.078 C 
ATOM      2  C1' OXE d   1       0.808  -1.960   1.627  0.00  0.00     0.078 C 
ATOM      3  C1  OXE d   1       0.471  -2.426   0.233  0.00  0.00    -0.078 A 
ATOM      4  C2  OXE d   1      -0.697  -1.964  -0.323  0.00  0.00    -0.078 A 
ATOM      5  C3  OXE d   1      -1.028  -2.319  -1.627  0.00  0.00     0.003 A 
ATOM      6  C4  OXE d   1      -0.261  -3.263  -2.321  0.00  0.00    -0.002 A 
ATOM      7  C5  OXE d   1       0.912  -3.777  -1.757  0.00  0.00    -0.002 A 
ATOM      8  C6  OXE d   1       1.314  -3.338  -0.501  0.00  0.00     0.003 A 
ENDROOT
TORSDOF 0
ENDMDL
