MODEL 1
REMARK minimizedAffinity 4.45408583
REMARK minimizedRMSD -1
REMARK  0 active torsions:
REMARK  status: ('A' for Active; 'I' for Inactive)
ROOT
ATOM      1  C2' OXE d   1       0.898  -3.411  -0.549  0.00  0.00     0.078 C 
ATOM      2  C1' OXE d   1      -0.602  -1.145   0.153  0.00  0.00     0.078 C 
ATOM      3  C1  OXE d   1      -1.152  -2.046  -0.924  0.00  0.00    -0.078 A 
ATOM      4  C2  OXE d   1      -0.389  -3.127  -1.294  0.00  0.00    -0.078 A 
ATOM      5  C3  OXE d   1      -0.874  -4.022  -2.244  0.00  0.00     0.003 A 
ATOM      6  C4  OXE d   1      -2.061  -3.747  -2.935  0.00  0.00    -0.002 A 
ATOM      7  C5  OXE d   1      -2.834  -2.629  -2.601  0.00  0.00    -0.002 A 
ATOM      8  C6  OXE d   1      -2.416  -1.794  -1.571  0.00  0.00     0.003 A 
ENDROOT
TORSDOF 0
ENDMDL
