MODEL 1
REMARK minimizedAffinity 4.18843079
REMARK minimizedRMSD -1
REMARK  0 active torsions:
REMARK  status: ('A' for Active; 'I' for Inactive)
ROOT
ATOM      1  C2' OXE d   1       0.368  -1.009   0.720  0.00  0.00     0.078 C 
ATOM      2  C1' OXE d   1       2.514   0.551   1.636  0.00  0.00     0.078 C 
ATOM      3  C1  OXE d   1       1.366   1.261   0.963  0.00  0.00    -0.078 A 
ATOM      4  C2  OXE d   1       0.342   0.485   0.476  0.00  0.00    -0.078 A 
ATOM      5  C3  OXE d   1      -0.768   1.092  -0.105  0.00  0.00     0.003 A 
ATOM      6  C4  OXE d   1      -0.780   2.473  -0.336  0.00  0.00    -0.002 A 
ATOM      7  C5  OXE d   1       0.272   3.278   0.116  0.00  0.00    -0.002 A 
ATOM      8  C6  OXE d   1       1.330   2.693   0.804  0.00  0.00     0.003 A 
ENDROOT
TORSDOF 0
ENDMDL
