MODEL 1
REMARK minimizedAffinity 6.04447222
REMARK minimizedRMSD -1
REMARK  0 active torsions:
REMARK  status: ('A' for Active; 'I' for Inactive)
ROOT
ATOM      1  C2' OXE d   1       0.314  -1.459   0.615  0.00  0.00     0.078 C 
ATOM      2  C1' OXE d   1      -1.801   0.386   0.543  0.00  0.00     0.078 C 
ATOM      3  C1  OXE d   1      -0.397   0.918   0.393  0.00  0.00    -0.078 A 
ATOM      4  C2  OXE d   1       0.634   0.014   0.477  0.00  0.00    -0.078 A 
ATOM      5  C3  OXE d   1       1.945   0.444   0.291  0.00  0.00     0.003 A 
ATOM      6  C4  OXE d   1       2.233   1.809   0.173  0.00  0.00    -0.002 A 
ATOM      7  C5  OXE d   1       1.200   2.751   0.125  0.00  0.00    -0.002 A 
ATOM      8  C6  OXE d   1      -0.120   2.319   0.191  0.00  0.00     0.003 A 
ENDROOT
TORSDOF 0
ENDMDL
