MODEL 1
REMARK minimizedAffinity 1.81736946
REMARK minimizedRMSD -1
REMARK  0 active torsions:
REMARK  status: ('A' for Active; 'I' for Inactive)
ROOT
ATOM      1  C2' OXE d   1      -0.611  -1.030   0.492  0.00  0.00     0.078 C 
ATOM      2  C1' OXE d   1       0.825   1.330  -0.005  0.00  0.00     0.078 C 
ATOM      3  C1  OXE d   1       1.276   0.461   1.142  0.00  0.00    -0.078 A 
ATOM      4  C2  OXE d   1       0.539  -0.668   1.408  0.00  0.00    -0.078 A 
ATOM      5  C3  OXE d   1       0.944  -1.533   2.420  0.00  0.00     0.003 A 
ATOM      6  C4  OXE d   1       2.002  -1.185   3.268  0.00  0.00    -0.002 A 
ATOM      7  C5  OXE d   1       2.741  -0.020   3.040  0.00  0.00    -0.002 A 
ATOM      8  C6  OXE d   1       2.418   0.791   1.958  0.00  0.00     0.003 A 
ENDROOT
TORSDOF 0
ENDMDL
