MODEL 1
REMARK minimizedAffinity -2.33196115
REMARK minimizedRMSD -1
REMARK  0 active torsions:
REMARK  status: ('A' for Active; 'I' for Inactive)
ROOT
ATOM      1  C   UNL d   1      -0.573  -2.277  -0.613  0.00  0.00     0.020 A 
ATOM      2  C1  UNL d   1      -0.420  -0.991  -1.127  0.00  0.00     0.020 A 
ATOM      3  C2  UNL d   1      -0.232  -0.805  -2.499  0.00  0.00     0.034 A 
ATOM      4  C3  UNL d   1      -0.197  -1.907  -3.360  0.00  0.00     0.017 A 
ATOM      5  C4  UNL d   1      -0.350  -3.199  -2.842  0.00  0.00     0.017 A 
ATOM      6  C5  UNL d   1      -0.538  -3.379  -1.468  0.00  0.00     0.034 A 
ATOM      7 Cl   UNL d   1      -0.317  -4.608  -3.842  0.00  0.00    -0.070 Cl
ATOM      8 Cl1  UNL d   1       0.039  -1.604  -5.044  0.00  0.00    -0.070 Cl
ENDROOT
TORSDOF 0
ENDMDL
