MODEL 1
REMARK minimizedAffinity -3.26034904
REMARK minimizedRMSD -1
REMARK  0 active torsions:
REMARK  status: ('A' for Active; 'I' for Inactive)
ROOT
ATOM      1  C   UNL d   1       0.103   2.786   0.376  0.00  0.00     0.020 A 
ATOM      2  C1  UNL d   1       0.779   2.304  -0.744  0.00  0.00     0.020 A 
ATOM      3  C2  UNL d   1       0.617   0.974  -1.138  0.00  0.00     0.034 A 
ATOM      4  C3  UNL d   1      -0.224   0.122  -0.412  0.00  0.00     0.017 A 
ATOM      5  C4  UNL d   1      -0.902   0.608   0.712  0.00  0.00     0.017 A 
ATOM      6  C5  UNL d   1      -0.735   1.940   1.102  0.00  0.00     0.034 A 
ATOM      7 Cl   UNL d   1      -1.956  -0.383   1.658  0.00  0.00    -0.070 Cl
ATOM      8 Cl1  UNL d   1      -0.378  -1.510  -0.956  0.00  0.00    -0.070 Cl
ENDROOT
TORSDOF 0
ENDMDL
