MODEL 1
REMARK minimizedAffinity -3.04657769
REMARK minimizedRMSD -1
REMARK  0 active torsions:
REMARK  status: ('A' for Active; 'I' for Inactive)
ROOT
ATOM      1  C   UNL d   1      -0.668  -1.016   0.396  0.00  0.00     0.020 A 
ATOM      2  C1  UNL d   1      -1.661  -0.079   0.680  0.00  0.00     0.020 A 
ATOM      3  C2  UNL d   1      -1.378   1.285   0.591  0.00  0.00     0.034 A 
ATOM      4  C3  UNL d   1      -0.100   1.717   0.219  0.00  0.00     0.017 A 
ATOM      5  C4  UNL d   1       0.896   0.776  -0.066  0.00  0.00     0.017 A 
ATOM      6  C5  UNL d   1       0.607  -0.590   0.024  0.00  0.00     0.034 A 
ATOM      7 Cl   UNL d   1       2.496   1.232  -0.532  0.00  0.00    -0.070 Cl
ATOM      8 Cl1  UNL d   1       0.178   3.420   0.130  0.00  0.00    -0.070 Cl
ENDROOT
TORSDOF 0
ENDMDL
