MODEL 1
REMARK minimizedAffinity -5.17977333
REMARK minimizedRMSD -1
REMARK  0 active torsions:
REMARK  status: ('A' for Active; 'I' for Inactive)
ROOT
ATOM      1  C   UNL d   1       0.840   3.618  -0.049  0.00  0.00     0.020 A 
ATOM      2  C1  UNL d   1      -0.404   3.012  -0.220  0.00  0.00     0.020 A 
ATOM      3  C2  UNL d   1      -0.528   1.626  -0.106  0.00  0.00     0.034 A 
ATOM      4  C3  UNL d   1       0.595   0.840   0.180  0.00  0.00     0.017 A 
ATOM      5  C4  UNL d   1       1.843   1.449   0.351  0.00  0.00     0.017 A 
ATOM      6  C5  UNL d   1       1.961   2.838   0.236  0.00  0.00     0.034 A 
ATOM      7 Cl   UNL d   1       3.274   0.547   0.706  0.00  0.00    -0.070 Cl
ATOM      8 Cl1  UNL d   1       0.369  -0.868   0.307  0.00  0.00    -0.070 Cl
ENDROOT
TORSDOF 0
ENDMDL
