MODEL 1
REMARK minimizedAffinity -0.947435379
REMARK minimizedRMSD -1
REMARK  0 active torsions:
REMARK  status: ('A' for Active; 'I' for Inactive)
ROOT
ATOM      1  C   UNL d   1      -0.529   2.269   1.090  0.00  0.00     0.020 A 
ATOM      2  C1  UNL d   1      -1.586   1.831   0.293  0.00  0.00     0.020 A 
ATOM      3  C2  UNL d   1      -1.534   0.570  -0.304  0.00  0.00     0.034 A 
ATOM      4  C3  UNL d   1      -0.422  -0.257  -0.107  0.00  0.00     0.017 A 
ATOM      5  C4  UNL d   1       0.639   0.184   0.692  0.00  0.00     0.017 A 
ATOM      6  C5  UNL d   1       0.581   1.447   1.289  0.00  0.00     0.034 A 
ATOM      7 Cl   UNL d   1       2.044  -0.780   0.982  0.00  0.00    -0.070 Cl
ATOM      8 Cl1  UNL d   1      -0.424  -1.804  -0.877  0.00  0.00    -0.070 Cl
ENDROOT
TORSDOF 0
ENDMDL
