MODEL 1
REMARK minimizedAffinity -2.40252185
REMARK minimizedRMSD -1
REMARK  0 active torsions:
REMARK  status: ('A' for Active; 'I' for Inactive)
ROOT
ATOM      1  C   UNL d   1       0.887  -1.222   0.227  0.00  0.00     0.020 A 
ATOM      2  C1  UNL d   1       1.829  -0.225  -0.027  0.00  0.00     0.020 A 
ATOM      3  C2  UNL d   1       1.442   1.116  -0.033  0.00  0.00     0.034 A 
ATOM      4  C3  UNL d   1       0.109   1.466   0.215  0.00  0.00     0.017 A 
ATOM      5  C4  UNL d   1      -0.835   0.465   0.470  0.00  0.00     0.017 A 
ATOM      6  C5  UNL d   1      -0.442  -0.877   0.475  0.00  0.00     0.034 A 
ATOM      7 Cl   UNL d   1      -2.498   0.818   0.785  0.00  0.00    -0.070 Cl
ATOM      8 Cl1  UNL d   1      -0.299   3.144   0.192  0.00  0.00    -0.070 Cl
ENDROOT
TORSDOF 0
ENDMDL
