MODEL 1
REMARK minimizedAffinity -4.33535767
REMARK minimizedRMSD -1
REMARK  0 active torsions:
REMARK  status: ('A' for Active; 'I' for Inactive)
ROOT
ATOM      1  C   UNL d   1       1.538   2.519   0.123  0.00  0.00     0.020 A 
ATOM      2  C1  UNL d   1       0.478   3.362   0.453  0.00  0.00     0.020 A 
ATOM      3  C2  UNL d   1      -0.793   2.830   0.680  0.00  0.00     0.034 A 
ATOM      4  C3  UNL d   1      -1.007   1.451   0.576  0.00  0.00     0.017 A 
ATOM      5  C4  UNL d   1       0.057   0.605   0.244  0.00  0.00     0.017 A 
ATOM      6  C5  UNL d   1       1.328   1.143   0.018  0.00  0.00     0.034 A 
ATOM      7 Cl   UNL d   1      -0.130  -1.107   0.097  0.00  0.00    -0.070 Cl
ATOM      8 Cl1  UNL d   1      -2.605   0.861   0.869  0.00  0.00    -0.070 Cl
ENDROOT
TORSDOF 0
ENDMDL
