MODEL 1
REMARK minimizedAffinity -0.684867561
REMARK minimizedRMSD -1
REMARK  0 active torsions:
REMARK  status: ('A' for Active; 'I' for Inactive)
ROOT
ATOM      1  C   UNL d   1      -1.919  -3.644  -1.518  0.00  0.00     0.020 A 
ATOM      2  C1  UNL d   1      -0.730  -4.350  -1.341  0.00  0.00     0.020 A 
ATOM      3  C2  UNL d   1       0.321  -3.777  -0.622  0.00  0.00     0.034 A 
ATOM      4  C3  UNL d   1       0.185  -2.495  -0.078  0.00  0.00     0.017 A 
ATOM      5  C4  UNL d   1      -1.009  -1.787  -0.257  0.00  0.00     0.017 A 
ATOM      6  C5  UNL d   1      -2.058  -2.365  -0.977  0.00  0.00     0.034 A 
ATOM      7 Cl   UNL d   1      -1.251  -0.200   0.385  0.00  0.00    -0.070 Cl
ATOM      8 Cl1  UNL d   1       1.526  -1.848   0.799  0.00  0.00    -0.070 Cl
ENDROOT
TORSDOF 0
ENDMDL
