MODEL 1
REMARK minimizedAffinity 4.03396034
REMARK minimizedRMSD -1
REMARK  0 active torsions:
REMARK  status: ('A' for Active; 'I' for Inactive)
ROOT
ATOM      1  C   UNL d   1      -2.256   1.468   0.961  0.00  0.00     0.020 A 
ATOM      2  C1  UNL d   1      -1.716   0.199   0.756  0.00  0.00     0.020 A 
ATOM      3  C2  UNL d   1      -0.384   0.062   0.359  0.00  0.00     0.034 A 
ATOM      4  C3  UNL d   1       0.412   1.196   0.164  0.00  0.00     0.017 A 
ATOM      5  C4  UNL d   1      -0.131   2.470   0.369  0.00  0.00     0.017 A 
ATOM      6  C5  UNL d   1      -1.465   2.601   0.768  0.00  0.00     0.034 A 
ATOM      7 Cl   UNL d   1       0.790   3.916   0.149  0.00  0.00    -0.070 Cl
ATOM      8 Cl1  UNL d   1       2.051   0.953  -0.328  0.00  0.00    -0.070 Cl
ENDROOT
TORSDOF 0
ENDMDL
