MODEL 1
REMARK minimizedAffinity -2.36283302
REMARK minimizedRMSD -1
REMARK  0 active torsions:
REMARK  status: ('A' for Active; 'I' for Inactive)
ROOT
ATOM      1  C   UNL d   1      -0.124  -3.026  -2.015  0.00  0.00     0.020 A 
ATOM      2  C1  UNL d   1      -1.244  -3.389  -1.268  0.00  0.00     0.020 A 
ATOM      3  C2  UNL d   1      -1.663  -2.587  -0.204  0.00  0.00     0.034 A 
ATOM      4  C3  UNL d   1      -0.963  -1.419   0.116  0.00  0.00     0.017 A 
ATOM      5  C4  UNL d   1       0.162  -1.055  -0.635  0.00  0.00     0.017 A 
ATOM      6  C5  UNL d   1       0.577  -1.861  -1.699  0.00  0.00     0.034 A 
ATOM      7 Cl   UNL d   1       1.077   0.372  -0.300  0.00  0.00    -0.070 Cl
ATOM      8 Cl1  UNL d   1      -1.538  -0.475   1.444  0.00  0.00    -0.070 Cl
ENDROOT
TORSDOF 0
ENDMDL
