MODEL 1
REMARK minimizedAffinity -3.28153825
REMARK minimizedRMSD -1
REMARK  0 active torsions:
REMARK  status: ('A' for Active; 'I' for Inactive)
ROOT
ATOM      1  C   UNL d   1      -0.375   3.012   0.156  0.00  0.00     0.020 A 
ATOM      2  C1  UNL d   1       0.712   2.420  -0.486  0.00  0.00     0.020 A 
ATOM      3  C2  UNL d   1       0.825   1.029  -0.527  0.00  0.00     0.034 A 
ATOM      4  C3  UNL d   1      -0.149   0.225   0.076  0.00  0.00     0.017 A 
ATOM      5  C4  UNL d   1      -1.239   0.820   0.721  0.00  0.00     0.017 A 
ATOM      6  C5  UNL d   1      -1.348   2.214   0.758  0.00  0.00     0.034 A 
ATOM      7 Cl   UNL d   1      -2.482  -0.105   1.487  0.00  0.00    -0.070 Cl
ATOM      8 Cl1  UNL d   1       0.055  -1.488  -0.014  0.00  0.00    -0.070 Cl
ENDROOT
TORSDOF 0
ENDMDL
