MODEL 1
REMARK minimizedAffinity -5.02597332
REMARK minimizedRMSD -1
REMARK  0 active torsions:
REMARK  status: ('A' for Active; 'I' for Inactive)
ROOT
ATOM      1  C   UNL d   1       0.644   3.433   0.414  0.00  0.00     0.020 A 
ATOM      2  C1  UNL d   1      -0.530   2.696   0.264  0.00  0.00     0.020 A 
ATOM      3  C2  UNL d   1      -0.476   1.302   0.195  0.00  0.00     0.034 A 
ATOM      4  C3  UNL d   1       0.754   0.641   0.275  0.00  0.00     0.017 A 
ATOM      5  C4  UNL d   1       1.933   1.381   0.426  0.00  0.00     0.017 A 
ATOM      6  C5  UNL d   1       1.873   2.776   0.494  0.00  0.00     0.034 A 
ATOM      7 Cl   UNL d   1       3.488   0.635   0.532  0.00  0.00    -0.070 Cl
ATOM      8 Cl1  UNL d   1       0.746  -1.085   0.183  0.00  0.00    -0.070 Cl
ENDROOT
TORSDOF 0
ENDMDL
