MODEL 1
REMARK minimizedAffinity -2.38125539
REMARK minimizedRMSD -1
REMARK  0 active torsions:
REMARK  status: ('A' for Active; 'I' for Inactive)
ROOT
ATOM      1  C   UNL d   1       1.904   3.466   3.174  0.00  0.00     0.020 A 
ATOM      2  C1  UNL d   1       0.876   4.194   2.577  0.00  0.00     0.020 A 
ATOM      3  C2  UNL d   1       0.504   3.924   1.258  0.00  0.00     0.034 A 
ATOM      4  C3  UNL d   1       1.161   2.924   0.532  0.00  0.00     0.017 A 
ATOM      5  C4  UNL d   1       2.193   2.194   1.133  0.00  0.00     0.017 A 
ATOM      6  C5  UNL d   1       2.561   2.468   2.454  0.00  0.00     0.034 A 
ATOM      7 Cl   UNL d   1       3.050   0.944   0.302  0.00  0.00    -0.070 Cl
ATOM      8 Cl1  UNL d   1       0.649   2.643  -1.094  0.00  0.00    -0.070 Cl
ENDROOT
TORSDOF 0
ENDMDL
