MODEL 1
REMARK minimizedAffinity -4.93161058
REMARK minimizedRMSD -1
REMARK  0 active torsions:
REMARK  status: ('A' for Active; 'I' for Inactive)
ROOT
ATOM      1  C   UNL d   1      -0.013   3.141   0.435  0.00  0.00     0.020 A 
ATOM      2  C1  UNL d   1      -1.195   2.401   0.444  0.00  0.00     0.020 A 
ATOM      3  C2  UNL d   1      -1.148   1.009   0.351  0.00  0.00     0.034 A 
ATOM      4  C3  UNL d   1       0.084   0.351   0.250  0.00  0.00     0.017 A 
ATOM      5  C4  UNL d   1       1.270   1.094   0.241  0.00  0.00     0.017 A 
ATOM      6  C5  UNL d   1       1.217   2.489   0.334  0.00  0.00     0.034 A 
ATOM      7 Cl   UNL d   1       2.827   0.354   0.119  0.00  0.00    -0.070 Cl
ATOM      8 Cl1  UNL d   1       0.067  -1.373   0.140  0.00  0.00    -0.070 Cl
ENDROOT
TORSDOF 0
ENDMDL
