MODEL 1
REMARK minimizedAffinity -2.07602239
REMARK minimizedRMSD -1
REMARK  0 active torsions:
REMARK  status: ('A' for Active; 'I' for Inactive)
ROOT
ATOM      1  C   UNL d   1      -1.306   1.513   0.364  0.00  0.00     0.020 A 
ATOM      2  C1  UNL d   1      -0.213   2.337   0.632  0.00  0.00     0.020 A 
ATOM      3  C2  UNL d   1       1.073   1.795   0.687  0.00  0.00     0.034 A 
ATOM      4  C3  UNL d   1       1.269   0.426   0.475  0.00  0.00     0.017 A 
ATOM      5  C4  UNL d   1       0.172  -0.400   0.207  0.00  0.00     0.017 A 
ATOM      6  C5  UNL d   1      -1.113   0.147   0.152  0.00  0.00     0.034 A 
ATOM      7 Cl   UNL d   1       0.336  -2.099  -0.066  0.00  0.00    -0.070 Cl
ATOM      8 Cl1  UNL d   1       2.887  -0.176   0.558  0.00  0.00    -0.070 Cl
ENDROOT
TORSDOF 0
ENDMDL
