MODEL 1
REMARK minimizedAffinity -4.1469903
REMARK minimizedRMSD -1
REMARK  0 active torsions:
REMARK  status: ('A' for Active; 'I' for Inactive)
ROOT
ATOM      1  C   UNL d   1      -1.525   1.636   0.106  0.00  0.00     0.020 A 
ATOM      2  C1  UNL d   1      -0.533   2.603   0.266  0.00  0.00     0.020 A 
ATOM      3  C2  UNL d   1       0.798   2.216   0.435  0.00  0.00     0.034 A 
ATOM      4  C3  UNL d   1       1.140   0.859   0.446  0.00  0.00     0.017 A 
ATOM      5  C4  UNL d   1       0.144  -0.111   0.285  0.00  0.00     0.017 A 
ATOM      6  C5  UNL d   1      -1.187   0.282   0.116  0.00  0.00     0.034 A 
ATOM      7 Cl   UNL d   1       0.489  -1.804   0.287  0.00  0.00    -0.070 Cl
ATOM      8 Cl1  UNL d   1       2.806   0.452   0.660  0.00  0.00    -0.070 Cl
ENDROOT
TORSDOF 0
ENDMDL
