MODEL 1
REMARK minimizedAffinity -3.58759236
REMARK minimizedRMSD -1
REMARK  0 active torsions:
REMARK  status: ('A' for Active; 'I' for Inactive)
ROOT
ATOM      1  C   UNL d   1       0.005   3.314   0.093  0.00  0.00     0.020 A 
ATOM      2  C1  UNL d   1      -1.179   2.617   0.328  0.00  0.00     0.020 A 
ATOM      3  C2  UNL d   1      -1.176   1.220   0.341  0.00  0.00     0.034 A 
ATOM      4  C3  UNL d   1       0.014   0.517   0.119  0.00  0.00     0.017 A 
ATOM      5  C4  UNL d   1       1.202   1.218  -0.117  0.00  0.00     0.017 A 
ATOM      6  C5  UNL d   1       1.192   2.617  -0.130  0.00  0.00     0.034 A 
ATOM      7 Cl   UNL d   1       2.708   0.420  -0.400  0.00  0.00    -0.070 Cl
ATOM      8 Cl1  UNL d   1      -0.056  -1.209   0.150  0.00  0.00    -0.070 Cl
ENDROOT
TORSDOF 0
ENDMDL
