MODEL 1
REMARK minimizedAffinity -3.72849727
REMARK minimizedRMSD -1
REMARK  0 active torsions:
REMARK  status: ('A' for Active; 'I' for Inactive)
ROOT
ATOM      1  C   UNL d   1      -1.229  -0.269   0.785  0.00  0.00     0.020 A 
ATOM      2  C1  UNL d   1      -0.144  -1.138   0.889  0.00  0.00     0.020 A 
ATOM      3  C2  UNL d   1       1.099  -0.770   0.370  0.00  0.00     0.034 A 
ATOM      4  C3  UNL d   1       1.260   0.472  -0.256  0.00  0.00     0.017 A 
ATOM      5  C4  UNL d   1       0.170   1.344  -0.360  0.00  0.00     0.017 A 
ATOM      6  C5  UNL d   1      -1.072   0.970   0.162  0.00  0.00     0.034 A 
ATOM      7 Cl   UNL d   1       0.292   2.892  -1.119  0.00  0.00    -0.070 Cl
ATOM      8 Cl1  UNL d   1       2.825   0.862  -0.876  0.00  0.00    -0.070 Cl
ENDROOT
TORSDOF 0
ENDMDL
