MODEL 1
REMARK minimizedAffinity -4.57696533
REMARK minimizedRMSD -1
REMARK  1 active torsions:
REMARK  status: ('A' for Active; 'I' for Inactive)
REMARK    1  A    between atoms: N_2  and  C1_3 
ROOT
ATOM      1  C1  UNL d   1      -0.110  -0.096   0.321  0.00  0.00     0.143 A 
ATOM      2  C2  UNL d   1      -0.964  -1.096   0.799  0.00  0.00    -0.057 A 
ATOM      3  C3  UNL d   1      -1.143  -1.303   2.172  0.00  0.00     0.033 A 
ATOM      4  C4  UNL d   1      -0.447  -0.530   3.095  0.00  0.00    -0.042 A 
ATOM      5  C5  UNL d   1       0.427   0.453   2.643  0.00  0.00     0.033 A 
ATOM      6  C6  UNL d   1       0.597   0.660   1.271  0.00  0.00    -0.057 A 
ENDROOT
BRANCH   1   7
ATOM      7  N   UNL d   1       0.186   0.094  -1.031  0.00  0.00    -0.732 N 
ATOM      8  C   UNL d   1       0.266  -1.034  -1.933  0.00  0.00     0.284 C 
ATOM      9  H3  UNL d   1      -0.286   0.907  -1.421  0.00  0.00     0.395 HD
ENDBRANCH   1   7
TORSDOF 1
ENDMDL
