MODEL 1
REMARK minimizedAffinity -3.9021914
REMARK minimizedRMSD -1
REMARK  1 active torsions:
REMARK  status: ('A' for Active; 'I' for Inactive)
REMARK    1  A    between atoms: N_2  and  C1_3 
ROOT
ATOM      1  C1  UNL d   1      -0.082   0.245  -0.367  0.00  0.00     0.143 A 
ATOM      2  C2  UNL d   1       1.035   0.626   0.384  0.00  0.00    -0.057 A 
ATOM      3  C3  UNL d   1       1.048   0.506   1.779  0.00  0.00     0.033 A 
ATOM      4  C4  UNL d   1      -0.072   0.028   2.452  0.00  0.00    -0.042 A 
ATOM      5  C5  UNL d   1      -1.202  -0.333   1.728  0.00  0.00     0.033 A 
ATOM      6  C6  UNL d   1      -1.206  -0.217   0.334  0.00  0.00    -0.057 A 
ENDROOT
BRANCH   1   7
ATOM      7  N   UNL d   1      -0.192   0.433  -1.747  0.00  0.00    -0.732 N 
ATOM      8  C   UNL d   1       0.705  -0.247  -2.658  0.00  0.00     0.284 C 
ATOM      9  H3  UNL d   1      -1.160   0.459  -2.060  0.00  0.00     0.395 HD
ENDBRANCH   1   7
TORSDOF 1
ENDMDL
