MODEL 1
REMARK minimizedAffinity -4.96930504
REMARK minimizedRMSD -1
REMARK  1 active torsions:
REMARK  status: ('A' for Active; 'I' for Inactive)
REMARK    1  A    between atoms: N_2  and  C1_3 
ROOT
ATOM      1  C1  UNL d   1       0.343  -0.009   0.736  0.00  0.00     0.143 A 
ATOM      2  C2  UNL d   1       1.293   0.520   1.616  0.00  0.00    -0.057 A 
ATOM      3  C3  UNL d   1       1.073   0.538   2.998  0.00  0.00     0.033 A 
ATOM      4  C4  UNL d   1      -0.119   0.051   3.525  0.00  0.00    -0.042 A 
ATOM      5  C5  UNL d   1      -1.089  -0.457   2.667  0.00  0.00     0.033 A 
ATOM      6  C6  UNL d   1      -0.860  -0.478   1.288  0.00  0.00    -0.057 A 
ENDROOT
BRANCH   1   7
ATOM      7  N   UNL d   1       0.461   0.035  -0.655  0.00  0.00    -0.732 N 
ATOM      8  C   UNL d   1      -0.290   1.001  -1.429  0.00  0.00     0.284 C 
ATOM      9  H3  UNL d   1       1.421  -0.092  -0.968  0.00  0.00     0.395 HD
ENDBRANCH   1   7
TORSDOF 1
ENDMDL
