MODEL 1
REMARK minimizedAffinity -4.17054558
REMARK minimizedRMSD -1
REMARK  1 active torsions:
REMARK  status: ('A' for Active; 'I' for Inactive)
REMARK    1  A    between atoms: N_2  and  C1_3 
ROOT
ATOM      1  C1  UNL d   1       0.232   0.147  -0.029  0.00  0.00     0.143 A 
ATOM      2  C2  UNL d   1       1.462   0.359   0.604  0.00  0.00    -0.057 A 
ATOM      3  C3  UNL d   1       1.596   0.233   1.992  0.00  0.00     0.033 A 
ATOM      4  C4  UNL d   1       0.491  -0.079   2.778  0.00  0.00    -0.042 A 
ATOM      5  C5  UNL d   1      -0.746  -0.270   2.173  0.00  0.00     0.033 A 
ATOM      6  C6  UNL d   1      -0.872  -0.149   0.786  0.00  0.00    -0.057 A 
ENDROOT
BRANCH   1   7
ATOM      7  N   UNL d   1       0.014   0.354  -1.393  0.00  0.00    -0.732 N 
ATOM      8  C   UNL d   1       0.770  -0.386  -2.381  0.00  0.00     0.284 C 
ATOM      9  H3  UNL d   1      -0.973   0.457  -1.617  0.00  0.00     0.395 HD
ENDBRANCH   1   7
TORSDOF 1
ENDMDL
