MODEL 1
REMARK minimizedAffinity -4.71377087
REMARK minimizedRMSD -1
REMARK  1 active torsions:
REMARK  status: ('A' for Active; 'I' for Inactive)
REMARK    1  A    between atoms: N_2  and  C1_3 
ROOT
ATOM      1  C1  UNL d   1       0.269   0.095  -0.403  0.00  0.00     0.143 A 
ATOM      2  C2  UNL d   1       1.226   0.092   0.618  0.00  0.00    -0.057 A 
ATOM      3  C3  UNL d   1       0.876  -0.212   1.939  0.00  0.00     0.033 A 
ATOM      4  C4  UNL d   1      -0.446  -0.491   2.269  0.00  0.00    -0.042 A 
ATOM      5  C5  UNL d   1      -1.418  -0.469   1.275  0.00  0.00     0.033 A 
ATOM      6  C6  UNL d   1      -1.061  -0.172  -0.044  0.00  0.00    -0.057 A 
ENDROOT
BRANCH   1   7
ATOM      7  N   UNL d   1       0.536   0.485  -1.718  0.00  0.00    -0.732 N 
ATOM      8  C   UNL d   1       0.823  -0.502  -2.736  0.00  0.00     0.284 C 
ATOM      9  H3  UNL d   1      -0.071   1.240  -2.030  0.00  0.00     0.395 HD
ENDBRANCH   1   7
TORSDOF 1
ENDMDL
