MODEL 1
REMARK minimizedAffinity -1.46134698
REMARK minimizedRMSD -1
REMARK  1 active torsions:
REMARK  status: ('A' for Active; 'I' for Inactive)
REMARK    1  A    between atoms: N_2  and  C1_3 
ROOT
ATOM      1  C1  UNL d   1      -0.201   0.097   2.088  0.00  0.00     0.143 A 
ATOM      2  C2  UNL d   1      -1.234  -0.053   1.156  0.00  0.00    -0.057 A 
ATOM      3  C3  UNL d   1      -0.975  -0.049  -0.221  0.00  0.00     0.033 A 
ATOM      4  C4  UNL d   1       0.321   0.135  -0.691  0.00  0.00    -0.042 A 
ATOM      5  C5  UNL d   1       1.359   0.311   0.217  0.00  0.00     0.033 A 
ATOM      6  C6  UNL d   1       1.096   0.300   1.590  0.00  0.00    -0.057 A 
ENDROOT
BRANCH   1   7
ATOM      7  N   UNL d   1      -0.407   0.201   3.466  0.00  0.00    -0.732 N 
ATOM      8  C   UNL d   1      -1.656  -0.224   4.059  0.00  0.00     0.284 C 
ATOM      9  H3  UNL d   1       0.418  -0.060   4.002  0.00  0.00     0.395 HD
ENDBRANCH   1   7
TORSDOF 1
ENDMDL
