MODEL 1
REMARK minimizedAffinity -4.43947792
REMARK minimizedRMSD -1
REMARK  1 active torsions:
REMARK  status: ('A' for Active; 'I' for Inactive)
REMARK    1  A    between atoms: N_2  and  C1_3 
ROOT
ATOM      1  C1  UNL d   1       0.449  -0.131   0.195  0.00  0.00     0.143 A 
ATOM      2  C2  UNL d   1       1.253   0.257   1.272  0.00  0.00    -0.057 A 
ATOM      3  C3  UNL d   1       0.921  -0.088   2.588  0.00  0.00     0.033 A 
ATOM      4  C4  UNL d   1      -0.240  -0.807   2.853  0.00  0.00    -0.042 A 
ATOM      5  C5  UNL d   1      -1.067  -1.182   1.800  0.00  0.00     0.033 A 
ATOM      6  C6  UNL d   1      -0.727  -0.839   0.488  0.00  0.00    -0.057 A 
ENDROOT
BRANCH   1   7
ATOM      7  N   UNL d   1       0.673   0.266  -1.125  0.00  0.00    -0.732 N 
ATOM      8  C   UNL d   1       1.097  -0.694  -2.122  0.00  0.00     0.284 C 
ATOM      9  H3  UNL d   1      -0.027   0.927  -1.456  0.00  0.00     0.395 HD
ENDBRANCH   1   7
TORSDOF 1
ENDMDL
