MODEL 1
REMARK minimizedAffinity -4.08451557
REMARK minimizedRMSD -1
REMARK  1 active torsions:
REMARK  status: ('A' for Active; 'I' for Inactive)
REMARK    1  A    between atoms: N_2  and  C1_3 
ROOT
ATOM      1  C1  UNL d   1       0.116   0.083   0.403  0.00  0.00     0.143 A 
ATOM      2  C2  UNL d   1       1.129   0.129   1.366  0.00  0.00    -0.057 A 
ATOM      3  C3  UNL d   1       0.855  -0.098   2.720  0.00  0.00     0.033 A 
ATOM      4  C4  UNL d   1      -0.447  -0.348   3.140  0.00  0.00    -0.042 A 
ATOM      5  C5  UNL d   1      -1.474  -0.374   2.204  0.00  0.00     0.033 A 
ATOM      6  C6  UNL d   1      -1.193  -0.153   0.852  0.00  0.00    -0.057 A 
ENDROOT
BRANCH   1   7
ATOM      7  N   UNL d   1       0.308   0.397  -0.944  0.00  0.00    -0.732 N 
ATOM      8  C   UNL d   1       0.623  -0.639  -1.905  0.00  0.00     0.284 C 
ATOM      9  H3  UNL d   1      -0.359   1.088  -1.281  0.00  0.00     0.395 HD
ENDBRANCH   1   7
TORSDOF 1
ENDMDL
