MODEL 1
REMARK minimizedAffinity -4.90930796
REMARK minimizedRMSD -1
REMARK  1 active torsions:
REMARK  status: ('A' for Active; 'I' for Inactive)
REMARK    1  A    between atoms: C1_2  and  C2_3 
ROOT
ATOM      1  C2  UNL d   1       0.234   0.169   0.034  0.00  0.00    -0.077 A 
ATOM      2  C3  UNL d   1      -1.113  -0.017   0.378  0.00  0.00     0.002 A 
ATOM      3  C4  UNL d   1      -1.548  -1.240   0.891  0.00  0.00     0.002 A 
ATOM      4  C5  UNL d   1      -0.644  -2.284   1.069  0.00  0.00    -0.004 A 
ATOM      5  C6  UNL d   1       0.697  -2.110   0.729  0.00  0.00     0.002 A 
ATOM      6  C7  UNL d   1       1.134  -0.889   0.214  0.00  0.00     0.002 A 
ENDROOT
BRANCH   1   7
ATOM      7  C1  UNL d   1       0.715   1.503  -0.474  0.00  0.00     0.055 C 
ATOM      8  C   UNL d   1       0.738   1.541  -1.995  0.00  0.00     0.019 C 
ENDBRANCH   1   7
TORSDOF 1
ENDMDL
