MODEL 1
REMARK minimizedAffinity -2.80473089
REMARK minimizedRMSD -1
REMARK  1 active torsions:
REMARK  status: ('A' for Active; 'I' for Inactive)
REMARK    1  A    between atoms: C1_2  and  C2_3 
ROOT
ATOM      1  C2  UNL d   1      -0.558   0.134  -0.041  0.00  0.00    -0.077 A 
ATOM      2  C3  UNL d   1      -1.335   1.039   0.696  0.00  0.00     0.002 A 
ATOM      3  C4  UNL d   1      -2.545   0.633   1.261  0.00  0.00     0.002 A 
ATOM      4  C5  UNL d   1      -2.987  -0.679   1.099  0.00  0.00    -0.004 A 
ATOM      5  C6  UNL d   1      -2.223  -1.585   0.365  0.00  0.00     0.002 A 
ATOM      6  C7  UNL d   1      -1.013  -1.181  -0.202  0.00  0.00     0.002 A 
ENDROOT
BRANCH   1   7
ATOM      7  C1  UNL d   1       0.771   0.557  -0.610  0.00  0.00     0.055 C 
ATOM      8  C   UNL d   1       1.926  -0.022   0.194  0.00  0.00     0.019 C 
ENDBRANCH   1   7
TORSDOF 1
ENDMDL
