MODEL 1
REMARK minimizedAffinity -3.05372858
REMARK minimizedRMSD -1
REMARK  1 active torsions:
REMARK  status: ('A' for Active; 'I' for Inactive)
REMARK    1  A    between atoms: C1_2  and  C2_3 
ROOT
ATOM      1  C2  UNL d   1      -0.514  -0.976   0.668  0.00  0.00    -0.077 A 
ATOM      2  C3  UNL d   1       0.690  -0.715  -0.001  0.00  0.00     0.002 A 
ATOM      3  C4  UNL d   1       1.000   0.581  -0.418  0.00  0.00     0.002 A 
ATOM      4  C5  UNL d   1       0.114   1.626  -0.166  0.00  0.00    -0.004 A 
ATOM      5  C6  UNL d   1      -1.087   1.377   0.497  0.00  0.00     0.002 A 
ATOM      6  C7  UNL d   1      -1.399   0.082   0.913  0.00  0.00     0.002 A 
ENDROOT
BRANCH   1   7
ATOM      7  C1  UNL d   1      -0.828  -2.364   1.162  0.00  0.00     0.055 C 
ATOM      8  C   UNL d   1       0.061  -2.748   2.336  0.00  0.00     0.019 C 
ENDBRANCH   1   7
TORSDOF 1
ENDMDL
