MODEL 1
REMARK minimizedAffinity -2.20405269
REMARK minimizedRMSD -1
REMARK  1 active torsions:
REMARK  status: ('A' for Active; 'I' for Inactive)
REMARK    1  A    between atoms: C1_2  and  C2_3 
ROOT
ATOM      1  C2  UNL d   1      -0.097  -0.291   0.577  0.00  0.00    -0.077 A 
ATOM      2  C3  UNL d   1      -0.028  -1.392   1.443  0.00  0.00     0.002 A 
ATOM      3  C4  UNL d   1      -1.107  -2.270   1.556  0.00  0.00     0.002 A 
ATOM      4  C5  UNL d   1      -2.261  -2.060   0.803  0.00  0.00    -0.004 A 
ATOM      5  C6  UNL d   1      -2.340  -0.967  -0.059  0.00  0.00     0.002 A 
ATOM      6  C7  UNL d   1      -1.262  -0.087  -0.173  0.00  0.00     0.002 A 
ENDROOT
BRANCH   1   7
ATOM      7  C1  UNL d   1       1.085   0.629   0.417  0.00  0.00     0.055 C 
ATOM      8  C   UNL d   1       1.394   0.883  -1.051  0.00  0.00     0.019 C 
ENDBRANCH   1   7
TORSDOF 1
ENDMDL
