MODEL 1
REMARK minimizedAffinity -4.34927654
REMARK minimizedRMSD -1
REMARK  1 active torsions:
REMARK  status: ('A' for Active; 'I' for Inactive)
REMARK    1  A    between atoms: C1_2  and  C2_3 
ROOT
ATOM      1  C2  UNL d   1      -0.160   0.846  -0.435  0.00  0.00    -0.077 A 
ATOM      2  C3  UNL d   1      -0.111  -0.555  -0.429  0.00  0.00     0.002 A 
ATOM      3  C4  UNL d   1      -1.124  -1.295   0.183  0.00  0.00     0.002 A 
ATOM      4  C5  UNL d   1      -2.195  -0.643   0.791  0.00  0.00    -0.004 A 
ATOM      5  C6  UNL d   1      -2.252   0.750   0.792  0.00  0.00     0.002 A 
ATOM      6  C7  UNL d   1      -1.240   1.491   0.181  0.00  0.00     0.002 A 
ENDROOT
BRANCH   1   7
ATOM      7  C1  UNL d   1       0.906   1.644  -1.138  0.00  0.00     0.055 C 
ATOM      8  C   UNL d   1       0.446   2.087  -2.519  0.00  0.00     0.019 C 
ENDBRANCH   1   7
TORSDOF 1
ENDMDL
