MODEL 1
REMARK minimizedAffinity -4.53810692
REMARK minimizedRMSD -1
REMARK  1 active torsions:
REMARK  status: ('A' for Active; 'I' for Inactive)
REMARK    1  A    between atoms: C1_2  and  C2_3 
ROOT
ATOM      1  C2  UNL d   1       0.381   1.585  -0.391  0.00  0.00    -0.077 A 
ATOM      2  C3  UNL d   1       0.385   0.183  -0.411  0.00  0.00     0.002 A 
ATOM      3  C4  UNL d   1      -0.666  -0.535   0.161  0.00  0.00     0.002 A 
ATOM      4  C5  UNL d   1      -1.732   0.140   0.754  0.00  0.00    -0.004 A 
ATOM      5  C6  UNL d   1      -1.745   1.534   0.781  0.00  0.00     0.002 A 
ATOM      6  C7  UNL d   1      -0.694   2.253   0.211  0.00  0.00     0.002 A 
ENDROOT
BRANCH   1   7
ATOM      7  C1  UNL d   1       1.490   2.362  -1.051  0.00  0.00     0.055 C 
ATOM      8  C   UNL d   1       1.225   2.550  -2.538  0.00  0.00     0.019 C 
ENDBRANCH   1   7
TORSDOF 1
ENDMDL
