MODEL 1
REMARK minimizedAffinity -4.70252514
REMARK minimizedRMSD -1
REMARK  1 active torsions:
REMARK  status: ('A' for Active; 'I' for Inactive)
REMARK    1  A    between atoms: C1_2  and  C2_3 
ROOT
ATOM      1  C2  UNL d   1       0.231   0.462   0.014  0.00  0.00    -0.077 A 
ATOM      2  C3  UNL d   1       1.284  -0.463  -0.022  0.00  0.00     0.002 A 
ATOM      3  C4  UNL d   1       1.056  -1.806   0.284  0.00  0.00     0.002 A 
ATOM      4  C5  UNL d   1      -0.225  -2.236   0.626  0.00  0.00    -0.004 A 
ATOM      5  C6  UNL d   1      -1.278  -1.323   0.667  0.00  0.00     0.002 A 
ATOM      6  C7  UNL d   1      -1.051   0.019   0.361  0.00  0.00     0.002 A 
ENDROOT
BRANCH   1   7
ATOM      7  C1  UNL d   1       0.466   1.901  -0.364  0.00  0.00     0.055 C 
ATOM      8  C   UNL d   1       0.961   2.023  -1.798  0.00  0.00     0.019 C 
ENDBRANCH   1   7
TORSDOF 1
ENDMDL
