MODEL 1
REMARK minimizedAffinity -4.30357122
REMARK minimizedRMSD -1
REMARK  1 active torsions:
REMARK  status: ('A' for Active; 'I' for Inactive)
REMARK    1  A    between atoms: C1_2  and  C2_3 
ROOT
ATOM      1  C2  UNL d   1      -0.940  -1.055   0.754  0.00  0.00    -0.077 A 
ATOM      2  C3  UNL d   1       0.206  -0.826  -0.021  0.00  0.00     0.002 A 
ATOM      3  C4  UNL d   1       0.459   0.441  -0.550  0.00  0.00     0.002 A 
ATOM      4  C5  UNL d   1      -0.426   1.489  -0.306  0.00  0.00    -0.004 A 
ATOM      5  C6  UNL d   1      -1.569   1.271   0.462  0.00  0.00     0.002 A 
ATOM      6  C7  UNL d   1      -1.825   0.005   0.990  0.00  0.00     0.002 A 
ENDROOT
BRANCH   1   7
ATOM      7  C1  UNL d   1      -1.189  -2.409   1.367  0.00  0.00     0.055 C 
ATOM      8  C   UNL d   1      -0.427  -2.574   2.674  0.00  0.00     0.019 C 
ENDBRANCH   1   7
TORSDOF 1
ENDMDL
