MODEL 1
REMARK minimizedAffinity -3.93379021
REMARK minimizedRMSD -1
REMARK  1 active torsions:
REMARK  status: ('A' for Active; 'I' for Inactive)
REMARK    1  A    between atoms: C1_2  and  C2_3 
ROOT
ATOM      1  C2  UNL d   1       0.197  -0.975   0.404  0.00  0.00    -0.077 A 
ATOM      2  C3  UNL d   1      -1.116  -0.601   0.722  0.00  0.00     0.002 A 
ATOM      3  C4  UNL d   1      -1.875  -1.370   1.606  0.00  0.00     0.002 A 
ATOM      4  C5  UNL d   1      -1.329  -2.515   2.181  0.00  0.00    -0.004 A 
ATOM      5  C6  UNL d   1      -0.025  -2.897   1.870  0.00  0.00     0.002 A 
ATOM      6  C7  UNL d   1       0.735  -2.131   0.985  0.00  0.00     0.002 A 
ENDROOT
BRANCH   1   7
ATOM      7  C1  UNL d   1       1.035  -0.120  -0.511  0.00  0.00     0.055 C 
ATOM      8  C   UNL d   1       0.345   1.201  -0.819  0.00  0.00     0.019 C 
ENDBRANCH   1   7
TORSDOF 1
ENDMDL
