MODEL 1
REMARK minimizedAffinity -1.92585802
REMARK minimizedRMSD -1
REMARK  1 active torsions:
REMARK  status: ('A' for Active; 'I' for Inactive)
REMARK    1  A    between atoms: C1_2  and  C2_3 
ROOT
ATOM      1  C2  UNL d   1       0.570   0.055   0.008  0.00  0.00    -0.077 A 
ATOM      2  C3  UNL d   1      -0.554  -0.460   0.667  0.00  0.00     0.002 A 
ATOM      3  C4  UNL d   1      -0.567  -1.783   1.114  0.00  0.00     0.002 A 
ATOM      4  C5  UNL d   1       0.544  -2.599   0.910  0.00  0.00    -0.004 A 
ATOM      5  C6  UNL d   1       1.667  -2.096   0.254  0.00  0.00     0.002 A 
ATOM      6  C7  UNL d   1       1.681  -0.775  -0.194  0.00  0.00     0.002 A 
ENDROOT
BRANCH   1   7
ATOM      7  C1  UNL d   1       0.604   1.496  -0.431  0.00  0.00     0.055 C 
ATOM      8  C   UNL d   1       0.987   1.618  -1.899  0.00  0.00     0.019 C 
ENDBRANCH   1   7
TORSDOF 1
ENDMDL
