MODEL 1
REMARK minimizedAffinity -3.3498919
REMARK minimizedRMSD -1
REMARK  1 active torsions:
REMARK  status: ('A' for Active; 'I' for Inactive)
REMARK    1  A    between atoms: C1_2  and  C2_3 
ROOT
ATOM      1  C2  UNL d   1       0.384   1.007  -1.079  0.00  0.00    -0.077 A 
ATOM      2  C3  UNL d   1       0.896  -0.283  -0.882  0.00  0.00     0.002 A 
ATOM      3  C4  UNL d   1       0.251  -1.175  -0.023  0.00  0.00     0.002 A 
ATOM      4  C5  UNL d   1      -0.911  -0.788   0.642  0.00  0.00    -0.004 A 
ATOM      5  C6  UNL d   1      -1.426   0.494   0.454  0.00  0.00     0.002 A 
ATOM      6  C7  UNL d   1      -0.783   1.387  -0.404  0.00  0.00     0.002 A 
ENDROOT
BRANCH   1   7
ATOM      7  C1  UNL d   1       1.051   1.954  -2.043  0.00  0.00     0.055 C 
ATOM      8  C   UNL d   1       0.656   1.649  -3.481  0.00  0.00     0.019 C 
ENDBRANCH   1   7
TORSDOF 1
ENDMDL
