MODEL 1
REMARK minimizedAffinity 16.1801338
REMARK minimizedRMSD -1
REMARK  0 active torsions:
REMARK  status: ('A' for Active; 'I' for Inactive)
ROOT
ATOM      1  C1  DEN d   1      -4.976  -1.022   1.801  0.00  0.00     0.130 A 
ATOM      2  C2  DEN d   1      -4.454   0.324   1.580  0.00  0.00    -0.031 A 
ATOM      3  C3  DEN d   1      -4.375   1.003   2.889  0.00  0.00     0.027 A 
ATOM      4  C4  DEN d   1      -5.000   0.104   5.224  0.00  0.00     0.027 A 
ATOM      5  C5  DEN d   1      -5.498  -0.979   5.913  0.00  0.00    -0.003 A 
ATOM      6  C6  DEN d   1      -5.885  -2.132   5.282  0.00  0.00     0.001 A 
ATOM      7  C7  DEN d   1      -5.739  -2.244   3.925  0.00  0.00     0.017 A 
ATOM      8  C8  DEN d   1      -5.245  -1.153   3.222  0.00  0.00    -0.094 A 
ATOM      9  C9  DEN d   1      -4.847  -0.001   3.880  0.00  0.00    -0.072 A 
ENDROOT
TORSDOF 0
ENDMDL
