MODEL 1
REMARK minimizedAffinity 8.73746681
REMARK minimizedRMSD -1
REMARK  0 active torsions:
REMARK  status: ('A' for Active; 'I' for Inactive)
ROOT
ATOM      1  C1  DEN d   1      -3.710   0.449   5.577  0.00  0.00     0.130 A 
ATOM      2  C2  DEN d   1      -2.756   1.319   4.893  0.00  0.00    -0.031 A 
ATOM      3  C3  DEN d   1      -2.692   0.903   3.477  0.00  0.00     0.027 A 
ATOM      4  C4  DEN d   1      -3.974  -0.991   2.284  0.00  0.00     0.027 A 
ATOM      5  C5  DEN d   1      -4.886  -2.009   2.452  0.00  0.00    -0.003 A 
ATOM      6  C6  DEN d   1      -5.440  -2.298   3.671  0.00  0.00     0.001 A 
ATOM      7  C7  DEN d   1      -5.121  -1.532   4.761  0.00  0.00     0.017 A 
ATOM      8  C8  DEN d   1      -4.196  -0.509   4.600  0.00  0.00    -0.094 A 
ATOM      9  C9  DEN d   1      -3.656  -0.224   3.357  0.00  0.00    -0.072 A 
ENDROOT
TORSDOF 0
ENDMDL
