MODEL 1
REMARK minimizedAffinity 14.9680481
REMARK minimizedRMSD -1
REMARK  0 active torsions:
REMARK  status: ('A' for Active; 'I' for Inactive)
ROOT
ATOM      1  C1  DEN d   1       0.939  -1.866   3.745  0.00  0.00     0.130 A 
ATOM      2  C2  DEN d   1       0.164  -0.716   4.203  0.00  0.00    -0.031 A 
ATOM      3  C3  DEN d   1      -1.033  -0.602   3.346  0.00  0.00     0.027 A 
ATOM      4  C4  DEN d   1      -1.760  -2.089   1.368  0.00  0.00     0.027 A 
ATOM      5  C5  DEN d   1      -1.419  -3.179   0.598  0.00  0.00    -0.003 A 
ATOM      6  C6  DEN d   1      -0.261  -3.882   0.801  0.00  0.00     0.001 A 
ATOM      7  C7  DEN d   1       0.576  -3.530   1.826  0.00  0.00     0.017 A 
ATOM      8  C8  DEN d   1       0.243  -2.427   2.601  0.00  0.00    -0.094 A 
ATOM      9  C9  DEN d   1      -0.938  -1.737   2.388  0.00  0.00    -0.072 A 
ENDROOT
TORSDOF 0
ENDMDL
