MODEL 1
REMARK minimizedAffinity -3.25915766
REMARK minimizedRMSD -1
REMARK  0 active torsions:
REMARK  status: ('A' for Active; 'I' for Inactive)
ROOT
ATOM      1  C1  DEN d   1       4.824  -5.639   0.735  0.00  0.00     0.130 A 
ATOM      2  C2  DEN d   1       5.989  -5.999  -0.069  0.00  0.00    -0.031 A 
ATOM      3  C3  DEN d   1       6.000  -5.139  -1.268  0.00  0.00     0.027 A 
ATOM      4  C4  DEN d   1       4.337  -3.290  -1.954  0.00  0.00     0.027 A 
ATOM      5  C5  DEN d   1       3.181  -2.631  -1.597  0.00  0.00    -0.003 A 
ATOM      6  C6  DEN d   1       2.480  -2.949  -0.465  0.00  0.00     0.001 A 
ATOM      7  C7  DEN d   1       2.952  -3.922   0.375  0.00  0.00     0.017 A 
ATOM      8  C8  DEN d   1       4.112  -4.597   0.018  0.00  0.00    -0.094 A 
ATOM      9  C9  DEN d   1       4.814  -4.252  -1.124  0.00  0.00    -0.072 A 
ENDROOT
TORSDOF 0
ENDMDL
