MODEL 1
REMARK minimizedAffinity -2.88138318
REMARK minimizedRMSD -1
REMARK  0 active torsions:
REMARK  status: ('A' for Active; 'I' for Inactive)
ROOT
ATOM      1  C1  DEN d   1       5.999  -5.137  -1.057  0.00  0.00     0.130 A 
ATOM      2  C2  DEN d   1       5.400  -5.999  -0.042  0.00  0.00    -0.031 A 
ATOM      3  C3  DEN d   1       4.058  -5.469   0.274  0.00  0.00     0.027 A 
ATOM      4  C4  DEN d   1       2.854  -3.410  -0.709  0.00  0.00     0.027 A 
ATOM      5  C5  DEN d   1       2.968  -2.359  -1.592  0.00  0.00    -0.003 A 
ATOM      6  C6  DEN d   1       4.103  -2.142  -2.327  0.00  0.00     0.001 A 
ATOM      7  C7  DEN d   1       5.154  -3.015  -2.226  0.00  0.00     0.017 A 
ATOM      8  C8  DEN d   1       5.050  -4.073  -1.333  0.00  0.00    -0.094 A 
ATOM      9  C9  DEN d   1       3.889  -4.282  -0.607  0.00  0.00    -0.072 A 
ENDROOT
TORSDOF 0
ENDMDL
