MODEL 1
REMARK minimizedAffinity -2.67256165
REMARK minimizedRMSD -1
REMARK  0 active torsions:
REMARK  status: ('A' for Active; 'I' for Inactive)
ROOT
ATOM      1  C1  DEN d   1       4.560  -3.682  -1.460  0.00  0.00     0.130 A 
ATOM      2  C2  DEN d   1       4.874  -5.027  -0.985  0.00  0.00    -0.031 A 
ATOM      3  C3  DEN d   1       3.792  -5.455  -0.076  0.00  0.00     0.027 A 
ATOM      4  C4  DEN d   1       1.669  -4.175   0.635  0.00  0.00     0.027 A 
ATOM      5  C5  DEN d   1       0.973  -2.994   0.502  0.00  0.00    -0.003 A 
ATOM      6  C6  DEN d   1       1.436  -1.955  -0.261  0.00  0.00     0.001 A 
ATOM      7  C7  DEN d   1       2.608  -2.094  -0.957  0.00  0.00     0.017 A 
ATOM      8  C8  DEN d   1       3.319  -3.279  -0.822  0.00  0.00    -0.094 A 
ATOM      9  C9  DEN d   1       2.828  -4.322  -0.055  0.00  0.00    -0.072 A 
ENDROOT
TORSDOF 0
ENDMDL
