MODEL 1
REMARK minimizedAffinity -1.96050751
REMARK minimizedRMSD -1
REMARK  0 active torsions:
REMARK  status: ('A' for Active; 'I' for Inactive)
ROOT
ATOM      1  C1  DEN d   1       3.221  -2.186  -1.040  0.00  0.00     0.130 A 
ATOM      2  C2  DEN d   1       3.707  -3.432  -1.627  0.00  0.00    -0.031 A 
ATOM      3  C3  DEN d   1       2.928  -4.544  -1.047  0.00  0.00     0.027 A 
ATOM      4  C4  DEN d   1       1.023  -4.458   0.689  0.00  0.00     0.027 A 
ATOM      5  C5  DEN d   1       0.268  -3.627   1.488  0.00  0.00    -0.003 A 
ATOM      6  C6  DEN d   1       0.466  -2.273   1.525  0.00  0.00     0.001 A 
ATOM      7  C7  DEN d   1       1.412  -1.703   0.714  0.00  0.00     0.017 A 
ATOM      8  C8  DEN d   1       2.182  -2.535  -0.088  0.00  0.00    -0.094 A 
ATOM      9  C9  DEN d   1       1.959  -3.901  -0.120  0.00  0.00    -0.072 A 
ENDROOT
TORSDOF 0
ENDMDL
