MODEL 1
REMARK minimizedAffinity 9.79153824
REMARK minimizedRMSD -1
REMARK  0 active torsions:
REMARK  status: ('A' for Active; 'I' for Inactive)
ROOT
ATOM      1  C1  DEN d   1      -2.971  -1.206   1.317  0.00  0.00     0.130 A 
ATOM      2  C2  DEN d   1      -2.568   0.021   1.998  0.00  0.00    -0.031 A 
ATOM      3  C3  DEN d   1      -1.122  -0.068   2.282  0.00  0.00     0.027 A 
ATOM      4  C4  DEN d   1       0.525  -1.975   1.732  0.00  0.00     0.027 A 
ATOM      5  C5  DEN d   1       0.646  -3.227   1.170  0.00  0.00    -0.003 A 
ATOM      6  C6  DEN d   1      -0.428  -3.902   0.652  0.00  0.00     0.001 A 
ATOM      7  C7  DEN d   1      -1.663  -3.309   0.645  0.00  0.00     0.017 A 
ATOM      8  C8  DEN d   1      -1.794  -2.050   1.217  0.00  0.00    -0.094 A 
ATOM      9  C9  DEN d   1      -0.694  -1.379   1.724  0.00  0.00    -0.072 A 
ENDROOT
TORSDOF 0
ENDMDL
