MODEL 1
REMARK minimizedAffinity -2.17528462
REMARK minimizedRMSD -1
REMARK  0 active torsions:
REMARK  status: ('A' for Active; 'I' for Inactive)
ROOT
ATOM      1  C1  DEN d   1       1.325  -1.602   0.466  0.00  0.00     0.130 A 
ATOM      2  C2  DEN d   1       0.948  -2.731   1.313  0.00  0.00    -0.031 A 
ATOM      3  C3  DEN d   1       1.718  -3.910   0.870  0.00  0.00     0.027 A 
ATOM      4  C4  DEN d   1       3.451  -4.097  -1.031  0.00  0.00     0.027 A 
ATOM      5  C5  DEN d   1       4.093  -3.408  -2.036  0.00  0.00    -0.003 A 
ATOM      6  C6  DEN d   1       3.836  -2.089  -2.297  0.00  0.00     0.001 A 
ATOM      7  C7  DEN d   1       2.944  -1.404  -1.515  0.00  0.00     0.017 A 
ATOM      8  C8  DEN d   1       2.286  -2.093  -0.504  0.00  0.00    -0.094 A 
ATOM      9  C9  DEN d   1       2.570  -3.424  -0.248  0.00  0.00    -0.072 A 
ENDROOT
TORSDOF 0
ENDMDL
