MODEL 1
REMARK minimizedAffinity -5.3133688
REMARK minimizedRMSD -1
REMARK  0 active torsions:
REMARK  status: ('A' for Active; 'I' for Inactive)
ROOT
ATOM      1  C1  DEN d   1       1.864  -4.202   0.651  0.00  0.00     0.130 A 
ATOM      2  C2  DEN d   1       1.517  -2.936   0.012  0.00  0.00    -0.031 A 
ATOM      3  C3  DEN d   1       2.615  -2.572  -0.906  0.00  0.00     0.027 A 
ATOM      4  C4  DEN d   1       4.805  -3.841  -1.401  0.00  0.00     0.027 A 
ATOM      5  C5  DEN d   1       5.550  -4.957  -1.092  0.00  0.00    -0.003 A 
ATOM      6  C6  DEN d   1       5.138  -5.875  -0.162  0.00  0.00     0.001 A 
ATOM      7  C7  DEN d   1       3.927  -5.717   0.458  0.00  0.00     0.017 A 
ATOM      8  C8  DEN d   1       3.173  -4.590   0.157  0.00  0.00    -0.094 A 
ATOM      9  C9  DEN d   1       3.601  -3.679  -0.795  0.00  0.00    -0.072 A 
ENDROOT
TORSDOF 0
ENDMDL
