MODEL 1
REMARK minimizedAffinity -4.11889172
REMARK minimizedRMSD -1
REMARK  0 active torsions:
REMARK  status: ('A' for Active; 'I' for Inactive)
ROOT
ATOM      1  C1  DEN d   1       5.243  -3.821  -2.113  0.00  0.00     0.130 A 
ATOM      2  C2  DEN d   1       5.881  -4.768  -1.203  0.00  0.00    -0.031 A 
ATOM      3  C3  DEN d   1       5.017  -4.912  -0.014  0.00  0.00     0.027 A 
ATOM      4  C4  DEN d   1       2.761  -3.771   0.499  0.00  0.00     0.027 A 
ATOM      5  C5  DEN d   1       1.823  -2.878   0.031  0.00  0.00    -0.003 A 
ATOM      6  C6  DEN d   1       1.974  -2.216  -1.159  0.00  0.00     0.001 A 
ATOM      7  C7  DEN d   1       3.067  -2.472  -1.944  0.00  0.00     0.017 A 
ATOM      8  C8  DEN d   1       4.021  -3.366  -1.475  0.00  0.00    -0.094 A 
ATOM      9  C9  DEN d   1       3.844  -4.034  -0.275  0.00  0.00    -0.072 A 
ENDROOT
TORSDOF 0
ENDMDL
