MODEL 1
REMARK minimizedAffinity 6.18699646
REMARK minimizedRMSD -1
REMARK  0 active torsions:
REMARK  status: ('A' for Active; 'I' for Inactive)
ROOT
ATOM      1  C1  DEN d   1      -2.809   0.647  -0.735  0.00  0.00     0.130 A 
ATOM      2  C2  DEN d   1      -3.369   1.765   0.018  0.00  0.00    -0.031 A 
ATOM      3  C3  DEN d   1      -3.110   1.526   1.452  0.00  0.00     0.027 A 
ATOM      4  C4  DEN d   1      -1.898  -0.456   2.573  0.00  0.00     0.027 A 
ATOM      5  C5  DEN d   1      -1.260  -1.655   2.346  0.00  0.00    -0.003 A 
ATOM      6  C6  DEN d   1      -1.124  -2.183   1.089  0.00  0.00     0.001 A 
ATOM      7  C7  DEN d   1      -1.594  -1.488   0.006  0.00  0.00     0.017 A 
ATOM      8  C8  DEN d   1      -2.246  -0.282   0.228  0.00  0.00    -0.094 A 
ATOM      9  C9  DEN d   1      -2.362   0.241   1.505  0.00  0.00    -0.072 A 
ENDROOT
TORSDOF 0
ENDMDL
