MODEL 1
REMARK minimizedAffinity 7.19679785
REMARK minimizedRMSD -1
REMARK  0 active torsions:
REMARK  status: ('A' for Active; 'I' for Inactive)
ROOT
ATOM      1  C1  DEN d   1       2.212  -5.996   0.620  0.00  0.00     0.130 A 
ATOM      2  C2  DEN d   1       1.312  -5.983  -0.530  0.00  0.00    -0.031 A 
ATOM      3  C3  DEN d   1       2.136  -5.969  -1.755  0.00  0.00     0.027 A 
ATOM      4  C4  DEN d   1       4.705  -5.970  -1.982  0.00  0.00     0.027 A 
ATOM      5  C5  DEN d   1       5.894  -5.966  -1.286  0.00  0.00    -0.003 A 
ATOM      6  C6  DEN d   1       5.938  -5.938   0.083  0.00  0.00     0.001 A 
ATOM      7  C7  DEN d   1       4.771  -5.958   0.800  0.00  0.00     0.017 A 
ATOM      8  C8  DEN d   1       3.569  -5.954   0.105  0.00  0.00    -0.094 A 
ATOM      9  C9  DEN d   1       3.545  -5.995  -1.279  0.00  0.00    -0.072 A 
ENDROOT
TORSDOF 0
ENDMDL
