MODEL 1
REMARK minimizedAffinity 12.4474001
REMARK minimizedRMSD -1
REMARK  0 active torsions:
REMARK  status: ('A' for Active; 'I' for Inactive)
ROOT
ATOM      1  C1  DEN d   1      -4.537   1.462   0.134  0.00  0.00     0.130 A 
ATOM      2  C2  DEN d   1      -3.831   0.675   1.142  0.00  0.00    -0.031 A 
ATOM      3  C3  DEN d   1      -2.666   1.459   1.599  0.00  0.00     0.027 A 
ATOM      4  C4  DEN d   1      -1.892   3.803   0.850  0.00  0.00     0.027 A 
ATOM      5  C5  DEN d   1      -2.164   4.859   0.010  0.00  0.00    -0.003 A 
ATOM      6  C6  DEN d   1      -3.217   4.844  -0.866  0.00  0.00     0.001 A 
ATOM      7  C7  DEN d   1      -4.065   3.768  -0.888  0.00  0.00     0.017 A 
ATOM      8  C8  DEN d   1      -3.793   2.695  -0.049  0.00  0.00    -0.094 A 
ATOM      9  C9  DEN d   1      -2.730   2.736   0.838  0.00  0.00    -0.072 A 
ENDROOT
TORSDOF 0
ENDMDL
