MODEL 1
REMARK minimizedAffinity 11.4933414
REMARK minimizedRMSD -1
REMARK  0 active torsions:
REMARK  status: ('A' for Active; 'I' for Inactive)
ROOT
ATOM      1  C1  DEN d   1      -0.587   4.925  -0.713  0.00  0.00     0.130 A 
ATOM      2  C2  DEN d   1      -0.097   4.383   0.551  0.00  0.00    -0.031 A 
ATOM      3  C3  DEN d   1       0.996   3.437   0.250  0.00  0.00     0.027 A 
ATOM      4  C4  DEN d   1       1.975   2.765  -2.040  0.00  0.00     0.027 A 
ATOM      5  C5  DEN d   1       1.876   2.952  -3.402  0.00  0.00    -0.003 A 
ATOM      6  C6  DEN d   1       0.935   3.776  -3.959  0.00  0.00     0.001 A 
ATOM      7  C7  DEN d   1       0.084   4.480  -3.149  0.00  0.00     0.017 A 
ATOM      8  C8  DEN d   1       0.172   4.292  -1.776  0.00  0.00    -0.094 A 
ATOM      9  C9  DEN d   1       1.138   3.463  -1.231  0.00  0.00    -0.072 A 
ENDROOT
TORSDOF 0
ENDMDL
