MODEL 1
REMARK minimizedAffinity -0.859008312
REMARK minimizedRMSD -1
REMARK  0 active torsions:
REMARK  status: ('A' for Active; 'I' for Inactive)
ROOT
ATOM      1  C1  DEN d   1       3.483  -5.286  -0.255  0.00  0.00     0.130 A 
ATOM      2  C2  DEN d   1       4.852  -4.793  -0.387  0.00  0.00    -0.031 A 
ATOM      3  C3  DEN d   1       4.842  -3.341  -0.119  0.00  0.00     0.027 A 
ATOM      4  C4  DEN d   1       2.853  -1.817   0.489  0.00  0.00     0.027 A 
ATOM      5  C5  DEN d   1       1.493  -1.779   0.707  0.00  0.00    -0.003 A 
ATOM      6  C6  DEN d   1       0.703  -2.891   0.586  0.00  0.00     0.001 A 
ATOM      7  C7  DEN d   1       1.273  -4.099   0.284  0.00  0.00     0.017 A 
ATOM      8  C8  DEN d   1       2.642  -4.144   0.056  0.00  0.00    -0.094 A 
ATOM      9  C9  DEN d   1       3.426  -3.011   0.194  0.00  0.00    -0.072 A 
ENDROOT
TORSDOF 0
ENDMDL
