MODEL 1
REMARK minimizedAffinity -5.10681915
REMARK minimizedRMSD -1
REMARK  1 active torsions:
REMARK  status: ('A' for Active; 'I' for Inactive)
REMARK    1  A    between atoms: N_2  and  C1_3 
ROOT
ATOM      1  C1  UNL d   1       0.223   0.283  -0.217  0.00  0.00     0.143 A 
ATOM      2  C2  UNL d   1      -0.679   1.353  -0.237  0.00  0.00    -0.057 A 
ATOM      3  C3  UNL d   1      -1.047   2.014   0.941  0.00  0.00     0.033 A 
ATOM      4  C4  UNL d   1      -0.541   1.597   2.168  0.00  0.00    -0.042 A 
ATOM      5  C5  UNL d   1       0.337   0.520   2.214  0.00  0.00     0.033 A 
ATOM      6  C6  UNL d   1       0.706  -0.132   1.034  0.00  0.00    -0.057 A 
ENDROOT
BRANCH   1   7
ATOM      7  N   UNL d   1       0.552  -0.478  -1.341  0.00  0.00    -0.732 N 
ATOM      8  C   UNL d   1       0.285  -1.900  -1.373  0.00  0.00     0.284 C 
ATOM      9  H3  UNL d   1       0.342   0.005  -2.212  0.00  0.00     0.395 HD
ENDBRANCH   1   7
TORSDOF 1
ENDMDL
