MODEL 1
REMARK minimizedAffinity 2.82618999
REMARK minimizedRMSD -1
REMARK  1 active torsions:
REMARK  status: ('A' for Active; 'I' for Inactive)
REMARK    1  A    between atoms: N_2  and  C1_3 
ROOT
ATOM      1  C1  UNL d   1       0.074   1.052   1.364  0.00  0.00     0.143 A 
ATOM      2  C2  UNL d   1      -0.596   0.809   0.159  0.00  0.00    -0.057 A 
ATOM      3  C3  UNL d   1      -0.392  -0.375  -0.559  0.00  0.00     0.033 A 
ATOM      4  C4  UNL d   1       0.511  -1.328  -0.100  0.00  0.00    -0.042 A 
ATOM      5  C5  UNL d   1       1.206  -1.097   1.082  0.00  0.00     0.033 A 
ATOM      6  C6  UNL d   1       0.993   0.084   1.799  0.00  0.00    -0.057 A 
ENDROOT
BRANCH   1   7
ATOM      7  N   UNL d   1      -0.012   2.252   2.074  0.00  0.00    -0.732 N 
ATOM      8  C   UNL d   1       1.144   3.111   2.211  0.00  0.00     0.284 C 
ATOM      9  H3  UNL d   1      -0.881   2.749   1.892  0.00  0.00     0.395 HD
ENDBRANCH   1   7
TORSDOF 1
ENDMDL
