MODEL 1
REMARK minimizedAffinity -3.15941668
REMARK minimizedRMSD -1
REMARK  1 active torsions:
REMARK  status: ('A' for Active; 'I' for Inactive)
REMARK    1  A    between atoms: N_2  and  C1_3 
ROOT
ATOM      1  C1  UNL d   1      -0.256  -1.713  -1.066  0.00  0.00     0.143 A 
ATOM      2  C2  UNL d   1       0.235  -2.807  -0.344  0.00  0.00    -0.057 A 
ATOM      3  C3  UNL d   1      -0.162  -4.114  -0.647  0.00  0.00     0.033 A 
ATOM      4  C4  UNL d   1      -1.083  -4.350  -1.663  0.00  0.00    -0.042 A 
ATOM      5  C5  UNL d   1      -1.603  -3.277  -2.377  0.00  0.00     0.033 A 
ATOM      6  C6  UNL d   1      -1.197  -1.973  -2.074  0.00  0.00    -0.057 A 
ENDROOT
BRANCH   1   7
ATOM      7  N   UNL d   1       0.025  -0.382  -0.749  0.00  0.00    -0.732 N 
ATOM      8  C   UNL d   1       0.310   0.006   0.616  0.00  0.00     0.284 C 
ATOM      9  H3  UNL d   1       0.623   0.065  -1.441  0.00  0.00     0.395 HD
ENDBRANCH   1   7
TORSDOF 1
ENDMDL
