MODEL 1
REMARK minimizedAffinity 2.32692218
REMARK minimizedRMSD -1
REMARK  1 active torsions:
REMARK  status: ('A' for Active; 'I' for Inactive)
REMARK    1  A    between atoms: N_2  and  C1_3 
ROOT
ATOM      1  C1  UNL d   1      -1.655  -2.372  -2.413  0.00  0.00     0.143 A 
ATOM      2  C2  UNL d   1      -2.862  -1.843  -1.945  0.00  0.00    -0.057 A 
ATOM      3  C3  UNL d   1      -2.986  -0.485  -1.627  0.00  0.00     0.033 A 
ATOM      4  C4  UNL d   1      -1.891   0.366  -1.746  0.00  0.00    -0.042 A 
ATOM      5  C5  UNL d   1      -0.674  -0.143  -2.186  0.00  0.00     0.033 A 
ATOM      6  C6  UNL d   1      -0.560  -1.499  -2.508  0.00  0.00    -0.057 A 
ENDROOT
BRANCH   1   7
ATOM      7  N   UNL d   1      -1.442  -3.732  -2.651  0.00  0.00    -0.732 N 
ATOM      8  C   UNL d   1      -0.461  -4.470  -1.885  0.00  0.00     0.284 C 
ATOM      9  H3  UNL d   1      -2.309  -4.238  -2.814  0.00  0.00     0.395 HD
ENDBRANCH   1   7
TORSDOF 1
ENDMDL
