MODEL 1
REMARK minimizedAffinity -0.243960395
REMARK minimizedRMSD -1
REMARK  1 active torsions:
REMARK  status: ('A' for Active; 'I' for Inactive)
REMARK    1  A    between atoms: N_2  and  C1_3 
ROOT
ATOM      1  C1  UNL d   1       0.260  -0.184   2.777  0.00  0.00     0.143 A 
ATOM      2  C2  UNL d   1      -0.016   1.123   3.194  0.00  0.00    -0.057 A 
ATOM      3  C3  UNL d   1      -0.086   2.178   2.276  0.00  0.00     0.033 A 
ATOM      4  C4  UNL d   1       0.148   1.948   0.924  0.00  0.00    -0.042 A 
ATOM      5  C5  UNL d   1       0.449   0.661   0.491  0.00  0.00     0.033 A 
ATOM      6  C6  UNL d   1       0.511  -0.389   1.412  0.00  0.00    -0.057 A 
ENDROOT
BRANCH   1   7
ATOM      7  N   UNL d   1       0.440  -1.258   3.653  0.00  0.00    -0.732 N 
ATOM      8  C   UNL d   1       1.115  -1.070   4.920  0.00  0.00     0.284 C 
ATOM      9  H3  UNL d   1      -0.378  -1.860   3.703  0.00  0.00     0.395 HD
ENDBRANCH   1   7
TORSDOF 1
ENDMDL
