MODEL 1
REMARK minimizedAffinity 2.05199838
REMARK minimizedRMSD -1
REMARK  0 active torsions:
REMARK  status: ('A' for Active; 'I' for Inactive)
ROOT
ATOM      1  C   UNL d   1      -1.896   3.751  -2.708  0.00  0.00     0.077 C 
ATOM      2  C1  UNL d   1      -0.776   3.592  -1.723  0.00  0.00    -0.074 A 
ATOM      3  C2  UNL d   1       0.518   4.027  -2.029  0.00  0.00    -0.005 A 
ATOM      4  C3  UNL d   1       1.547   3.881  -1.100  0.00  0.00     0.006 A 
ATOM      5  C4  UNL d   1       1.294   3.300   0.144  0.00  0.00    -0.005 A 
ATOM      6  C5  UNL d   1       0.007   2.860   0.468  0.00  0.00    -0.074 A 
ATOM      7  C6  UNL d   1      -0.284   2.242   1.803  0.00  0.00     0.077 C 
ATOM      8  C7  UNL d   1      -1.024   3.016  -0.469  0.00  0.00    -0.001 A 
ENDROOT
TORSDOF 0
ENDMDL
