MODEL 1
REMARK minimizedAffinity 3.05502462
REMARK minimizedRMSD -1
REMARK  0 active torsions:
REMARK  status: ('A' for Active; 'I' for Inactive)
ROOT
ATOM      1  C   UNL d   1      -1.362  -5.997  -4.019  0.00  0.00     0.077 C 
ATOM      2  C1  UNL d   1      -2.518  -5.241  -4.602  0.00  0.00    -0.074 A 
ATOM      3  C2  UNL d   1      -2.454  -3.856  -4.783  0.00  0.00    -0.005 A 
ATOM      4  C3  UNL d   1      -3.533  -3.167  -5.336  0.00  0.00     0.006 A 
ATOM      5  C4  UNL d   1      -4.687  -3.856  -5.713  0.00  0.00    -0.005 A 
ATOM      6  C5  UNL d   1      -4.770  -5.241  -5.541  0.00  0.00    -0.074 A 
ATOM      7  C6  UNL d   1      -5.998  -5.998  -5.950  0.00  0.00     0.077 C 
ATOM      8  C7  UNL d   1      -3.678  -5.927  -4.991  0.00  0.00    -0.001 A 
ENDROOT
TORSDOF 0
ENDMDL
