MODEL 1
REMARK minimizedAffinity 11.7761374
REMARK minimizedRMSD -1
REMARK  0 active torsions:
REMARK  status: ('A' for Active; 'I' for Inactive)
ROOT
ATOM      1  C   UNL d   1       3.918   5.999  -0.254  0.00  0.00     0.077 C 
ATOM      2  C1  UNL d   1       3.116   5.323  -1.326  0.00  0.00    -0.074 A 
ATOM      3  C2  UNL d   1       2.298   4.229  -1.029  0.00  0.00    -0.005 A 
ATOM      4  C3  UNL d   1       1.551   3.616  -2.035  0.00  0.00     0.006 A 
ATOM      5  C4  UNL d   1       1.614   4.091  -3.346  0.00  0.00    -0.005 A 
ATOM      6  C5  UNL d   1       2.426   5.185  -3.661  0.00  0.00    -0.074 A 
ATOM      7  C6  UNL d   1       2.497   5.715  -5.062  0.00  0.00     0.077 C 
ATOM      8  C7  UNL d   1       3.168   5.800  -2.643  0.00  0.00    -0.001 A 
ENDROOT
TORSDOF 0
ENDMDL
