MODEL 1
REMARK minimizedAffinity 13.7973652
REMARK minimizedRMSD -1
REMARK  0 active torsions:
REMARK  status: ('A' for Active; 'I' for Inactive)
ROOT
ATOM      1  C   UNL d   1       3.141  -1.209   0.459  0.00  0.00     0.077 C 
ATOM      2  C1  UNL d   1       2.383  -2.281  -0.265  0.00  0.00    -0.074 A 
ATOM      3  C2  UNL d   1       1.810  -3.351   0.431  0.00  0.00    -0.005 A 
ATOM      4  C3  UNL d   1       1.099  -4.336  -0.255  0.00  0.00     0.006 A 
ATOM      5  C4  UNL d   1       0.955  -4.261  -1.641  0.00  0.00    -0.005 A 
ATOM      6  C5  UNL d   1       1.520  -3.199  -2.353  0.00  0.00    -0.074 A 
ATOM      7  C6  UNL d   1       1.366  -3.099  -3.842  0.00  0.00     0.077 C 
ATOM      8  C7  UNL d   1       2.227  -2.209  -1.656  0.00  0.00    -0.001 A 
ENDROOT
TORSDOF 0
ENDMDL
