MODEL 1
REMARK minimizedAffinity 13.0535078
REMARK minimizedRMSD -1
REMARK  0 active torsions:
REMARK  status: ('A' for Active; 'I' for Inactive)
ROOT
ATOM      1  C   UNL d   1      -4.362   0.648  -5.930  0.00  0.00     0.077 C 
ATOM      2  C1  UNL d   1      -4.419   1.858  -5.045  0.00  0.00    -0.074 A 
ATOM      3  C2  UNL d   1      -5.613   2.237  -4.422  0.00  0.00    -0.005 A 
ATOM      4  C3  UNL d   1      -5.649   3.359  -3.594  0.00  0.00     0.006 A 
ATOM      5  C4  UNL d   1      -4.493   4.112  -3.381  0.00  0.00    -0.005 A 
ATOM      6  C5  UNL d   1      -3.291   3.748  -3.994  0.00  0.00    -0.074 A 
ATOM      7  C6  UNL d   1      -2.038   4.540  -3.767  0.00  0.00     0.077 C 
ATOM      8  C7  UNL d   1      -3.261   2.615  -4.819  0.00  0.00    -0.001 A 
ENDROOT
TORSDOF 0
ENDMDL
