MODEL 1
REMARK minimizedAffinity 11.3460665
REMARK minimizedRMSD -1
REMARK  0 active torsions:
REMARK  status: ('A' for Active; 'I' for Inactive)
ROOT
ATOM      1  C   UNL d   1       2.332  -3.043   2.873  0.00  0.00     0.077 C 
ATOM      2  C1  UNL d   1       2.249  -2.704   1.414  0.00  0.00    -0.074 A 
ATOM      3  C2  UNL d   1       2.951  -1.614   0.888  0.00  0.00    -0.005 A 
ATOM      4  C3  UNL d   1       2.872  -1.317  -0.472  0.00  0.00     0.006 A 
ATOM      5  C4  UNL d   1       2.092  -2.106  -1.319  0.00  0.00    -0.005 A 
ATOM      6  C5  UNL d   1       1.384  -3.200  -0.812  0.00  0.00    -0.074 A 
ATOM      7  C6  UNL d   1       0.549  -4.063  -1.710  0.00  0.00     0.077 C 
ATOM      8  C7  UNL d   1       1.474  -3.496   0.555  0.00  0.00    -0.001 A 
ENDROOT
TORSDOF 0
ENDMDL
