MODEL 1
REMARK minimizedAffinity -3.74442005
REMARK minimizedRMSD -1
REMARK  2 active torsions:
REMARK  status: ('A' for Active; 'I' for Inactive)
REMARK    1  A    between atoms: C2'_3  and  C1'_4 
REMARK    2  A    between atoms: C1'_4  and  C1_5 
ROOT
ATOM      1  C1  I4B d   1       0.246   0.712  -0.428  0.00  0.00    -0.075 A 
ATOM      2  C2  I4B d   1       0.904  -0.272  -1.122  0.00  0.00     0.003 A 
ATOM      3  C3  I4B d   1       0.815  -1.622  -0.703  0.00  0.00     0.002 A 
ATOM      4  C4  I4B d   1       0.102  -1.934   0.437  0.00  0.00    -0.004 A 
ATOM      5  C5  I4B d   1      -0.583  -0.938   1.126  0.00  0.00     0.002 A 
ATOM      6  C6  I4B d   1      -0.522   0.392   0.684  0.00  0.00     0.003 A 
ENDROOT
BRANCH   1   7
ATOM      7  C1' I4B d   1       0.389   2.131  -0.879  0.00  0.00     0.060 C 
BRANCH   7   8
ATOM      8  C2' I4B d   1       0.983   2.926   0.265  0.00  0.00    -0.013 C 
ATOM      9  C4' I4B d   1       2.442   3.217   0.027  0.00  0.00     0.013 C 
ATOM     10  C3' I4B d   1       0.195   4.194   0.407  0.00  0.00     0.013 C 
ENDBRANCH   7   8
ENDBRANCH   1   7
TORSDOF 2
ENDMDL
