MODEL 1
REMARK minimizedAffinity -5.96443558
REMARK minimizedRMSD -1
REMARK  2 active torsions:
REMARK  status: ('A' for Active; 'I' for Inactive)
REMARK    1  A    between atoms: C2'_3  and  C1'_4 
REMARK    2  A    between atoms: C1'_4  and  C1_5 
ROOT
ATOM      1  C1  I4B d   1      -0.253  -1.122   0.118  0.00  0.00    -0.075 A 
ATOM      2  C2  I4B d   1      -0.519  -2.137   1.003  0.00  0.00     0.003 A 
ATOM      3  C3  I4B d   1      -0.331  -3.487   0.617  0.00  0.00     0.002 A 
ATOM      4  C4  I4B d   1       0.074  -3.775  -0.670  0.00  0.00    -0.004 A 
ATOM      5  C5  I4B d   1       0.365  -2.744  -1.558  0.00  0.00     0.002 A 
ATOM      6  C6  I4B d   1       0.213  -1.409  -1.158  0.00  0.00     0.003 A 
ENDROOT
BRANCH   1   7
ATOM      7  C1' I4B d   1      -0.495   0.290   0.548  0.00  0.00     0.060 C 
BRANCH   7   8
ATOM      8  C2' I4B d   1       0.275   1.201  -0.387  0.00  0.00    -0.013 C 
ATOM      9  C4' I4B d   1      -0.524   1.510  -1.626  0.00  0.00     0.013 C 
ATOM     10  C3' I4B d   1       0.617   2.453   0.364  0.00  0.00     0.013 C 
ENDBRANCH   7   8
ENDBRANCH   1   7
TORSDOF 2
ENDMDL
