MODEL 1
REMARK minimizedAffinity -3.77002263
REMARK minimizedRMSD -1
REMARK  2 active torsions:
REMARK  status: ('A' for Active; 'I' for Inactive)
REMARK    1  A    between atoms: C2'_3  and  C1'_4 
REMARK    2  A    between atoms: C1'_4  and  C1_5 
ROOT
ATOM      1  C1  I4B d   1       0.072   0.317  -0.245  0.00  0.00    -0.075 A 
ATOM      2  C2  I4B d   1      -0.798   0.072   0.789  0.00  0.00     0.003 A 
ATOM      3  C3  I4B d   1      -0.948  -1.241   1.298  0.00  0.00     0.002 A 
ATOM      4  C4  I4B d   1      -0.252  -2.280   0.714  0.00  0.00    -0.004 A 
ATOM      5  C5  I4B d   1       0.646  -2.026  -0.318  0.00  0.00     0.002 A 
ATOM      6  C6  I4B d   1       0.819  -0.718  -0.793  0.00  0.00     0.003 A 
ENDROOT
BRANCH   1   7
ATOM      7  C1' I4B d   1       0.181   1.710  -0.780  0.00  0.00     0.060 C 
BRANCH   7   8
ATOM      8  C2' I4B d   1       1.019   2.518   0.190  0.00  0.00    -0.013 C 
ATOM      9  C4' I4B d   1       2.268   3.037  -0.471  0.00  0.00     0.013 C 
ATOM     10  C3' I4B d   1       0.173   3.642   0.708  0.00  0.00     0.013 C 
ENDBRANCH   7   8
ENDBRANCH   1   7
TORSDOF 2
ENDMDL
