MODEL 1
REMARK minimizedAffinity -4.11740017
REMARK minimizedRMSD -1
REMARK  2 active torsions:
REMARK  status: ('A' for Active; 'I' for Inactive)
REMARK    1  A    between atoms: C2'_3  and  C1'_4 
REMARK    2  A    between atoms: C1'_4  and  C1_5 
ROOT
ATOM      1  C1  I4B d   1       0.417  -0.031  -0.679  0.00  0.00    -0.075 A 
ATOM      2  C2  I4B d   1       1.115  -0.970  -1.396  0.00  0.00     0.003 A 
ATOM      3  C3  I4B d   1       1.192  -2.306  -0.935  0.00  0.00     0.002 A 
ATOM      4  C4  I4B d   1       0.602  -2.646   0.265  0.00  0.00    -0.004 A 
ATOM      5  C5  I4B d   1      -0.124  -1.698   0.979  0.00  0.00     0.002 A 
ATOM      6  C6  I4B d   1      -0.229  -0.385   0.499  0.00  0.00     0.003 A 
ENDROOT
BRANCH   1   7
ATOM      7  C1' I4B d   1       0.384   1.379  -1.178  0.00  0.00     0.060 C 
BRANCH   7   8
ATOM      8  C2' I4B d   1       1.448   2.162  -0.436  0.00  0.00    -0.013 C 
ATOM      9  C4' I4B d   1       2.544   2.610  -1.366  0.00  0.00     0.013 C 
ATOM     10  C3' I4B d   1       0.784   3.334   0.224  0.00  0.00     0.013 C 
ENDBRANCH   7   8
ENDBRANCH   1   7
TORSDOF 2
ENDMDL
