MODEL 1
REMARK minimizedAffinity -5.85148382
REMARK minimizedRMSD -1
REMARK  2 active torsions:
REMARK  status: ('A' for Active; 'I' for Inactive)
REMARK    1  A    between atoms: C2'_3  and  C1'_4 
REMARK    2  A    between atoms: C1'_4  and  C1_5 
ROOT
ATOM      1  C1  I4B d   1       0.265   0.142  -0.180  0.00  0.00    -0.075 A 
ATOM      2  C2  I4B d   1       0.451  -0.962  -0.974  0.00  0.00     0.003 A 
ATOM      3  C3  I4B d   1       0.108  -2.250  -0.495  0.00  0.00     0.002 A 
ATOM      4  C4  I4B d   1      -0.368  -2.392   0.792  0.00  0.00    -0.004 A 
ATOM      5  C5  I4B d   1      -0.578  -1.269   1.587  0.00  0.00     0.002 A 
ATOM      6  C6  I4B d   1      -0.271   0.008   1.094  0.00  0.00     0.003 A 
ENDROOT
BRANCH   1   7
ATOM      7  C1' I4B d   1       0.669   1.484  -0.704  0.00  0.00     0.060 C 
BRANCH   7   8
ATOM      8  C2' I4B d   1       1.491   2.175   0.364  0.00  0.00    -0.013 C 
ATOM      9  C4' I4B d   1       2.949   2.215  -0.011  0.00  0.00     0.013 C 
ATOM     10  C3' I4B d   1       0.941   3.557   0.550  0.00  0.00     0.013 C 
ENDBRANCH   7   8
ENDBRANCH   1   7
TORSDOF 2
ENDMDL
