MODEL 1
REMARK minimizedAffinity -0.385247916
REMARK minimizedRMSD -1
REMARK  2 active torsions:
REMARK  status: ('A' for Active; 'I' for Inactive)
REMARK    1  A    between atoms: C2'_3  and  C1'_4 
REMARK    2  A    between atoms: C1'_4  and  C1_5 
ROOT
ATOM      1  C1  I4B d   1       0.992   1.523   0.307  0.00  0.00    -0.075 A 
ATOM      2  C2  I4B d   1       0.501   2.569   1.048  0.00  0.00     0.003 A 
ATOM      3  C3  I4B d   1       1.332   3.672   1.363  0.00  0.00     0.002 A 
ATOM      4  C4  I4B d   1       2.652   3.664   0.962  0.00  0.00    -0.004 A 
ATOM      5  C5  I4B d   1       3.142   2.613   0.192  0.00  0.00     0.002 A 
ATOM      6  C6  I4B d   1       2.304   1.542  -0.149  0.00  0.00     0.003 A 
ENDROOT
BRANCH   1   7
ATOM      7  C1' I4B d   1       0.097   0.359   0.021  0.00  0.00     0.060 C 
BRANCH   7   8
ATOM      8  C2' I4B d   1       0.906  -0.679  -0.728  0.00  0.00    -0.013 C 
ATOM      9  C4' I4B d   1       0.758  -2.041  -0.103  0.00  0.00     0.013 C 
ATOM     10  C3' I4B d   1       0.444  -0.685  -2.155  0.00  0.00     0.013 C 
ENDBRANCH   7   8
ENDBRANCH   1   7
TORSDOF 2
ENDMDL
