MODEL 1
REMARK minimizedAffinity -3.24817681
REMARK minimizedRMSD -1
REMARK  2 active torsions:
REMARK  status: ('A' for Active; 'I' for Inactive)
REMARK    1  A    between atoms: C2'_3  and  C1'_4 
REMARK    2  A    between atoms: C1'_4  and  C1_5 
ROOT
ATOM      1  C1  I4B d   1      -0.124   0.205  -0.281  0.00  0.00    -0.075 A 
ATOM      2  C2  I4B d   1       0.130  -0.818  -1.161  0.00  0.00     0.003 A 
ATOM      3  C3  I4B d   1       0.023  -2.165  -0.737  0.00  0.00     0.002 A 
ATOM      4  C4  I4B d   1      -0.288  -2.441   0.578  0.00  0.00    -0.004 A 
ATOM      5  C5  I4B d   1      -0.567  -1.403   1.463  0.00  0.00     0.002 A 
ATOM      6  C6  I4B d   1      -0.497  -0.072   1.028  0.00  0.00     0.003 A 
ENDROOT
BRANCH   1   7
ATOM      7  C1' I4B d   1       0.030   1.616  -0.753  0.00  0.00     0.060 C 
BRANCH   7   8
ATOM      8  C2' I4B d   1       0.786   2.385   0.312  0.00  0.00    -0.013 C 
ATOM      9  C4' I4B d   1       2.179   2.727  -0.147  0.00  0.00     0.013 C 
ATOM     10  C3' I4B d   1       0.003   3.622   0.634  0.00  0.00     0.013 C 
ENDBRANCH   7   8
ENDBRANCH   1   7
TORSDOF 2
ENDMDL
