MODEL 1
REMARK minimizedAffinity -5.65653658
REMARK minimizedRMSD -1
REMARK  2 active torsions:
REMARK  status: ('A' for Active; 'I' for Inactive)
REMARK    1  A    between atoms: C2'_3  and  C1'_4 
REMARK    2  A    between atoms: C1'_4  and  C1_5 
ROOT
ATOM      1  C1  I4B d   1       0.079  -1.242  -1.154  0.00  0.00    -0.075 A 
ATOM      2  C2  I4B d   1       0.278  -1.800   0.085  0.00  0.00     0.003 A 
ATOM      3  C3  I4B d   1       0.280  -3.207   0.240  0.00  0.00     0.002 A 
ATOM      4  C4  I4B d   1       0.031  -4.012  -0.853  0.00  0.00    -0.004 A 
ATOM      5  C5  I4B d   1      -0.148  -3.446  -2.111  0.00  0.00     0.002 A 
ATOM      6  C6  I4B d   1      -0.112  -2.052  -2.265  0.00  0.00     0.003 A 
ENDROOT
BRANCH   1   7
ATOM      7  C1' I4B d   1       0.050   0.249  -1.276  0.00  0.00     0.060 C 
BRANCH   7   8
ATOM      8  C2' I4B d   1       0.170   0.834   0.116  0.00  0.00    -0.013 C 
ATOM      9  C4' I4B d   1       0.594   2.278   0.066  0.00  0.00     0.013 C 
ATOM     10  C3' I4B d   1      -1.156   0.682   0.799  0.00  0.00     0.013 C 
ENDBRANCH   7   8
ENDBRANCH   1   7
TORSDOF 2
ENDMDL
