MODEL 1
REMARK minimizedAffinity -5.64380264
REMARK minimizedRMSD -1
REMARK  2 active torsions:
REMARK  status: ('A' for Active; 'I' for Inactive)
REMARK    1  A    between atoms: C2'_3  and  C1'_4 
REMARK    2  A    between atoms: C1'_4  and  C1_5 
ROOT
ATOM      1  C1  I4B d   1      -0.099   0.094  -0.356  0.00  0.00    -0.075 A 
ATOM      2  C2  I4B d   1       0.481  -0.921  -1.075  0.00  0.00     0.003 A 
ATOM      3  C3  I4B d   1       0.401  -2.257  -0.614  0.00  0.00     0.002 A 
ATOM      4  C4  I4B d   1      -0.219  -2.525   0.590  0.00  0.00    -0.004 A 
ATOM      5  C5  I4B d   1      -0.825  -1.497   1.306  0.00  0.00     0.002 A 
ATOM      6  C6  I4B d   1      -0.776  -0.181   0.825  0.00  0.00     0.003 A 
ENDROOT
BRANCH   1   7
ATOM      7  C1' I4B d   1       0.033   1.498  -0.855  0.00  0.00     0.060 C 
BRANCH   7   8
ATOM      8  C2' I4B d   1       0.880   2.269   0.136  0.00  0.00    -0.013 C 
ATOM      9  C4' I4B d   1       2.241   2.574  -0.431  0.00  0.00     0.013 C 
ATOM     10  C3' I4B d   1       0.146   3.529   0.491  0.00  0.00     0.013 C 
ENDBRANCH   7   8
ENDBRANCH   1   7
TORSDOF 2
ENDMDL
