MODEL 1
REMARK minimizedAffinity -4.45216894
REMARK minimizedRMSD -1
REMARK  2 active torsions:
REMARK  status: ('A' for Active; 'I' for Inactive)
REMARK    1  A    between atoms: C2'_3  and  C1'_4 
REMARK    2  A    between atoms: C1'_4  and  C1_5 
ROOT
ATOM      1  C1  I4B d   1       0.132   0.314  -0.069  0.00  0.00    -0.075 A 
ATOM      2  C2  I4B d   1       0.757  -0.597  -0.883  0.00  0.00     0.003 A 
ATOM      3  C3  I4B d   1       0.710  -1.978  -0.574  0.00  0.00     0.002 A 
ATOM      4  C4  I4B d   1       0.073  -2.396   0.577  0.00  0.00    -0.004 A 
ATOM      5  C5  I4B d   1      -0.579  -1.473   1.388  0.00  0.00     0.002 A 
ATOM      6  C6  I4B d   1      -0.561  -0.110   1.057  0.00  0.00     0.003 A 
ENDROOT
BRANCH   1   7
ATOM      7  C1' I4B d   1       0.230   1.768  -0.407  0.00  0.00     0.060 C 
BRANCH   7   8
ATOM      8  C2' I4B d   1       1.155   2.420   0.601  0.00  0.00    -0.013 C 
ATOM      9  C4' I4B d   1       2.563   2.506   0.074  0.00  0.00     0.013 C 
ATOM     10  C3' I4B d   1       0.611   3.782   0.915  0.00  0.00     0.013 C 
ENDBRANCH   7   8
ENDBRANCH   1   7
TORSDOF 2
ENDMDL
