MODEL 1
REMARK minimizedAffinity -3.89793682
REMARK minimizedRMSD -1
REMARK  2 active torsions:
REMARK  status: ('A' for Active; 'I' for Inactive)
REMARK    1  A    between atoms: C2'_3  and  C1'_4 
REMARK    2  A    between atoms: C1'_4  and  C1_5 
ROOT
ATOM      1  C1  I4B d   1       0.081   0.100   0.284  0.00  0.00    -0.075 A 
ATOM      2  C2  I4B d   1      -1.178  -0.385   0.533  0.00  0.00     0.003 A 
ATOM      3  C3  I4B d   1      -1.393  -1.779   0.658  0.00  0.00     0.002 A 
ATOM      4  C4  I4B d   1      -0.337  -2.648   0.478  0.00  0.00    -0.004 A 
ATOM      5  C5  I4B d   1       0.944  -2.153   0.248  0.00  0.00     0.002 A 
ATOM      6  C6  I4B d   1       1.157  -0.770   0.163  0.00  0.00     0.003 A 
ENDROOT
BRANCH   1   7
ATOM      7  C1' I4B d   1       0.267   1.576   0.126  0.00  0.00     0.060 C 
BRANCH   7   8
ATOM      8  C2' I4B d   1       1.597   1.949   0.749  0.00  0.00    -0.013 C 
ATOM      9  C4' I4B d   1       1.934   3.394   0.490  0.00  0.00     0.013 C 
ATOM     10  C3' I4B d   1       1.514   1.668   2.220  0.00  0.00     0.013 C 
ENDBRANCH   7   8
ENDBRANCH   1   7
TORSDOF 2
ENDMDL
