MODEL 1
REMARK minimizedAffinity -4.51614428
REMARK minimizedRMSD -1
REMARK  2 active torsions:
REMARK  status: ('A' for Active; 'I' for Inactive)
REMARK    1  A    between atoms: C2'_3  and  C1'_4 
REMARK    2  A    between atoms: C1'_4  and  C1_5 
ROOT
ATOM      1  C1  I4B d   1      -0.149   0.632  -0.133  0.00  0.00    -0.075 A 
ATOM      2  C2  I4B d   1       0.218  -0.417  -0.939  0.00  0.00     0.003 A 
ATOM      3  C3  I4B d   1      -0.013  -1.751  -0.522  0.00  0.00     0.002 A 
ATOM      4  C4  I4B d   1      -0.562  -1.989   0.721  0.00  0.00    -0.004 A 
ATOM      5  C5  I4B d   1      -0.954  -0.924   1.527  0.00  0.00     0.002 A 
ATOM      6  C6  I4B d   1      -0.758   0.395   1.092  0.00  0.00     0.003 A 
ENDROOT
BRANCH   1   7
ATOM      7  C1' I4B d   1       0.140   2.027  -0.590  0.00  0.00     0.060 C 
BRANCH   7   8
ATOM      8  C2' I4B d   1       1.076   2.664   0.417  0.00  0.00    -0.013 C 
ATOM      9  C4' I4B d   1       2.461   2.823  -0.152  0.00  0.00     0.013 C 
ATOM     10  C3' I4B d   1       0.498   3.989   0.812  0.00  0.00     0.013 C 
ENDBRANCH   7   8
ENDBRANCH   1   7
TORSDOF 2
ENDMDL
