MODEL 1
REMARK minimizedAffinity -3.05371642
REMARK minimizedRMSD -1
REMARK  2 active torsions:
REMARK  status: ('A' for Active; 'I' for Inactive)
REMARK    1  A    between atoms: C2'_3  and  C1'_4 
REMARK    2  A    between atoms: C1'_4  and  C1_5 
ROOT
ATOM      1  C1  I4B d   1      -0.204   0.434  -0.184  0.00  0.00    -0.075 A 
ATOM      2  C2  I4B d   1      -1.363   0.204   0.513  0.00  0.00     0.003 A 
ATOM      3  C3  I4B d   1      -1.642  -1.086   1.028  0.00  0.00     0.002 A 
ATOM      4  C4  I4B d   1      -0.763  -2.120   0.781  0.00  0.00    -0.004 A 
ATOM      5  C5  I4B d   1       0.423  -1.880   0.094  0.00  0.00     0.002 A 
ATOM      6  C6  I4B d   1       0.711  -0.593  -0.381  0.00  0.00     0.003 A 
ENDROOT
BRANCH   1   7
ATOM      7  C1' I4B d   1       0.043   1.799  -0.742  0.00  0.00     0.060 C 
BRANCH   7   8
ATOM      8  C2' I4B d   1       0.968   2.532   0.208  0.00  0.00    -0.013 C 
ATOM      9  C4' I4B d   1       2.380   2.556  -0.316  0.00  0.00     0.013 C 
ATOM     10  C3' I4B d   1       0.436   3.922   0.393  0.00  0.00     0.013 C 
ENDBRANCH   7   8
ENDBRANCH   1   7
TORSDOF 2
ENDMDL
