MODEL 1
REMARK minimizedAffinity 16.0490379
REMARK minimizedRMSD -1
REMARK  2 active torsions:
REMARK  status: ('A' for Active; 'I' for Inactive)
REMARK    1  A    between atoms: C2'_3  and  C1'_4 
REMARK    2  A    between atoms: C1'_4  and  C1_5 
ROOT
ATOM      1  C1  I4B d   1       1.166  -0.727   1.498  0.00  0.00    -0.075 A 
ATOM      2  C2  I4B d   1       1.359  -1.645   0.496  0.00  0.00     0.003 A 
ATOM      3  C3  I4B d   1       0.289  -1.999  -0.361  0.00  0.00     0.002 A 
ATOM      4  C4  I4B d   1      -0.961  -1.453  -0.150  0.00  0.00    -0.004 A 
ATOM      5  C5  I4B d   1      -1.148  -0.506   0.853  0.00  0.00     0.002 A 
ATOM      6  C6  I4B d   1      -0.075  -0.131   1.674  0.00  0.00     0.003 A 
ENDROOT
BRANCH   1   7
ATOM      7  C1' I4B d   1       2.310  -0.401   2.405  0.00  0.00     0.060 C 
BRANCH   7   8
ATOM      8  C2' I4B d   1       2.687  -1.663   3.154  0.00  0.00    -0.013 C 
ATOM      9  C4' I4B d   1       4.180  -1.781   3.307  0.00  0.00     0.013 C 
ATOM     10  C3' I4B d   1       2.007  -1.629   4.491  0.00  0.00     0.013 C 
ENDBRANCH   7   8
ENDBRANCH   1   7
TORSDOF 2
ENDMDL
