MODEL 1
REMARK minimizedAffinity 9.23158836
REMARK minimizedRMSD -1
REMARK  2 active torsions:
REMARK  status: ('A' for Active; 'I' for Inactive)
REMARK    1  A    between atoms: C2'_3  and  C1'_4 
REMARK    2  A    between atoms: C1'_4  and  C1_5 
ROOT
ATOM      1  C1  I4B d   1       1.395  -3.349   4.480  0.00  0.00    -0.075 A 
ATOM      2  C2  I4B d   1       0.732  -3.670   5.638  0.00  0.00     0.003 A 
ATOM      3  C3  I4B d   1       0.398  -5.017   5.919  0.00  0.00     0.002 A 
ATOM      4  C4  I4B d   1       0.699  -5.998   4.996  0.00  0.00    -0.004 A 
ATOM      5  C5  I4B d   1       1.392  -5.674   3.833  0.00  0.00     0.002 A 
ATOM      6  C6  I4B d   1       1.753  -4.343   3.579  0.00  0.00     0.003 A 
ENDROOT
BRANCH   1   7
ATOM      7  C1' I4B d   1       1.703  -1.913   4.200  0.00  0.00     0.060 C 
BRANCH   7   8
ATOM      8  C2' I4B d   1       2.371  -1.834   2.842  0.00  0.00    -0.013 C 
ATOM      9  C4' I4B d   1       1.500  -1.112   1.847  0.00  0.00     0.013 C 
ATOM     10  C3' I4B d   1       3.688  -1.139   3.013  0.00  0.00     0.013 C 
ENDBRANCH   7   8
ENDBRANCH   1   7
TORSDOF 2
ENDMDL
