MODEL 1
REMARK minimizedAffinity 5.50990057
REMARK minimizedRMSD -1
REMARK  2 active torsions:
REMARK  status: ('A' for Active; 'I' for Inactive)
REMARK    1  A    between atoms: C2'_3  and  C1'_4 
REMARK    2  A    between atoms: C1'_4  and  C1_5 
ROOT
ATOM      1  C1  I4B d   1       3.438  -2.000   4.154  0.00  0.00    -0.075 A 
ATOM      2  C2  I4B d   1       3.596  -2.412   5.454  0.00  0.00     0.003 A 
ATOM      3  C3  I4B d   1       4.893  -2.570   5.999  0.00  0.00     0.002 A 
ATOM      4  C4  I4B d   1       5.997  -2.356   5.200  0.00  0.00    -0.004 A 
ATOM      5  C5  I4B d   1       5.835  -1.916   3.889  0.00  0.00     0.002 A 
ATOM      6  C6  I4B d   1       4.548  -1.726   3.366  0.00  0.00     0.003 A 
ENDROOT
BRANCH   1   7
ATOM      7  C1' I4B d   1       2.054  -1.876   3.600  0.00  0.00     0.060 C 
BRANCH   7   8
ATOM      8  C2' I4B d   1       2.135  -1.074   2.317  0.00  0.00    -0.013 C 
ATOM      9  C4' I4B d   1       0.807  -1.043   1.608  0.00  0.00     0.013 C 
ATOM     10  C3' I4B d   1       2.595   0.311   2.665  0.00  0.00     0.013 C 
ENDBRANCH   7   8
ENDBRANCH   1   7
TORSDOF 2
ENDMDL
