MODEL 1
REMARK minimizedAffinity 7.27095652
REMARK minimizedRMSD -1
REMARK  2 active torsions:
REMARK  status: ('A' for Active; 'I' for Inactive)
REMARK    1  A    between atoms: C2'_3  and  C1'_4 
REMARK    2  A    between atoms: C1'_4  and  C1_5 
ROOT
ATOM      1  C1  I4B d   1       2.305  -1.980   4.329  0.00  0.00    -0.075 A 
ATOM      2  C2  I4B d   1       1.301  -2.916   4.323  0.00  0.00     0.003 A 
ATOM      3  C3  I4B d   1       1.577  -4.260   4.672  0.00  0.00     0.002 A 
ATOM      4  C4  I4B d   1       2.872  -4.633   4.971  0.00  0.00    -0.004 A 
ATOM      5  C5  I4B d   1       3.884  -3.678   4.999  0.00  0.00     0.002 A 
ATOM      6  C6  I4B d   1       3.597  -2.341   4.688  0.00  0.00     0.003 A 
ENDROOT
BRANCH   1   7
ATOM      7  C1' I4B d   1       1.985  -0.577   3.922  0.00  0.00     0.060 C 
BRANCH   7   8
ATOM      8  C2' I4B d   1       2.121  -0.484   2.416  0.00  0.00    -0.013 C 
ATOM      9  C4' I4B d   1       0.849  -0.901   1.727  0.00  0.00     0.013 C 
ATOM     10  C3' I4B d   1       2.487   0.928   2.070  0.00  0.00     0.013 C 
ENDBRANCH   7   8
ENDBRANCH   1   7
TORSDOF 2
ENDMDL
