MODEL 1
REMARK minimizedAffinity 2.87742686
REMARK minimizedRMSD -1
REMARK  2 active torsions:
REMARK  status: ('A' for Active; 'I' for Inactive)
REMARK    1  A    between atoms: C2'_3  and  C1'_4 
REMARK    2  A    between atoms: C1'_4  and  C1_5 
ROOT
ATOM      1  C1  I4B d   1       2.317  -1.177   2.680  0.00  0.00    -0.075 A 
ATOM      2  C2  I4B d   1       3.587  -0.762   2.998  0.00  0.00     0.003 A 
ATOM      3  C3  I4B d   1       4.374  -1.509   3.907  0.00  0.00     0.002 A 
ATOM      4  C4  I4B d   1       3.838  -2.629   4.510  0.00  0.00    -0.004 A 
ATOM      5  C5  I4B d   1       2.559  -3.061   4.169  0.00  0.00     0.002 A 
ATOM      6  C6  I4B d   1       1.798  -2.338   3.239  0.00  0.00     0.003 A 
ENDROOT
BRANCH   1   7
ATOM      7  C1' I4B d   1       1.502  -0.347   1.740  0.00  0.00     0.060 C 
BRANCH   7   8
ATOM      8  C2' I4B d   1       0.549  -1.270   1.008  0.00  0.00    -0.013 C 
ATOM      9  C4' I4B d   1      -0.796  -0.622   0.812  0.00  0.00     0.013 C 
ATOM     10  C3' I4B d   1       1.173  -1.630  -0.307  0.00  0.00     0.013 C 
ENDBRANCH   7   8
ENDBRANCH   1   7
TORSDOF 2
ENDMDL
