MODEL 1
REMARK minimizedAffinity 6.90896797
REMARK minimizedRMSD -1
REMARK  2 active torsions:
REMARK  status: ('A' for Active; 'I' for Inactive)
REMARK    1  A    between atoms: C2'_3  and  C1'_4 
REMARK    2  A    between atoms: C1'_4  and  C1_5 
ROOT
ATOM      1  C1  I4B d   1       3.511  -1.948   4.116  0.00  0.00    -0.075 A 
ATOM      2  C2  I4B d   1       3.587  -2.448   5.392  0.00  0.00     0.003 A 
ATOM      3  C3  I4B d   1       4.848  -2.664   5.999  0.00  0.00     0.002 A 
ATOM      4  C4  I4B d   1       6.000  -2.415   5.282  0.00  0.00    -0.004 A 
ATOM      5  C5  I4B d   1       5.921  -1.886   3.996  0.00  0.00     0.002 A 
ATOM      6  C6  I4B d   1       4.669  -1.639   3.414  0.00  0.00     0.003 A 
ENDROOT
BRANCH   1   7
ATOM      7  C1' I4B d   1       2.164  -1.763   3.493  0.00  0.00     0.060 C 
BRANCH   7   8
ATOM      8  C2' I4B d   1       2.314  -0.797   2.335  0.00  0.00    -0.013 C 
ATOM      9  C4' I4B d   1       1.070  -0.766   1.487  0.00  0.00     0.013 C 
ATOM     10  C3' I4B d   1       2.619   0.558   2.899  0.00  0.00     0.013 C 
ENDBRANCH   7   8
ENDBRANCH   1   7
TORSDOF 2
ENDMDL
