MODEL 1
REMARK minimizedAffinity -0.352465719
REMARK minimizedRMSD -1
REMARK  2 active torsions:
REMARK  status: ('A' for Active; 'I' for Inactive)
REMARK    1  A    between atoms: C2'_3  and  C1'_4 
REMARK    2  A    between atoms: C1'_4  and  C1_5 
ROOT
ATOM      1  C1  I4B d   1       3.247  -1.331   3.561  0.00  0.00    -0.075 A 
ATOM      2  C2  I4B d   1       4.597  -1.531   3.709  0.00  0.00     0.003 A 
ATOM      3  C3  I4B d   1       5.100  -2.178   4.864  0.00  0.00     0.002 A 
ATOM      4  C4  I4B d   1       4.227  -2.561   5.862  0.00  0.00    -0.004 A 
ATOM      5  C5  I4B d   1       2.857  -2.378   5.700  0.00  0.00     0.002 A 
ATOM      6  C6  I4B d   1       2.362  -1.770   4.537  0.00  0.00     0.003 A 
ENDROOT
BRANCH   1   7
ATOM      7  C1' I4B d   1       2.754  -0.615   2.344  0.00  0.00     0.060 C 
BRANCH   7   8
ATOM      8  C2' I4B d   1       3.709   0.525   2.053  0.00  0.00    -0.013 C 
ATOM      9  C4' I4B d   1       4.320   0.389   0.683  0.00  0.00     0.013 C 
ATOM     10  C3' I4B d   1       2.948   1.811   2.182  0.00  0.00     0.013 C 
ENDBRANCH   7   8
ENDBRANCH   1   7
TORSDOF 2
ENDMDL
