MODEL 1
REMARK minimizedAffinity 2.8386476
REMARK minimizedRMSD -1
REMARK  2 active torsions:
REMARK  status: ('A' for Active; 'I' for Inactive)
REMARK    1  A    between atoms: C2'_3  and  C1'_4 
REMARK    2  A    between atoms: C1'_4  and  C1_5 
ROOT
ATOM      1  C1  I4B d   1       3.385  -1.719   4.285  0.00  0.00    -0.075 A 
ATOM      2  C2  I4B d   1       4.353  -1.868   3.323  0.00  0.00     0.003 A 
ATOM      3  C3  I4B d   1       5.678  -2.205   3.692  0.00  0.00     0.002 A 
ATOM      4  C4  I4B d   1       6.000  -2.334   5.028  0.00  0.00    -0.004 A 
ATOM      5  C5  I4B d   1       5.011  -2.206   6.000  0.00  0.00     0.002 A 
ATOM      6  C6  I4B d   1       3.693  -1.909   5.626  0.00  0.00     0.003 A 
ENDROOT
BRANCH   1   7
ATOM      7  C1' I4B d   1       2.003  -1.331   3.862  0.00  0.00     0.060 C 
BRANCH   7   8
ATOM      8  C2' I4B d   1       2.117  -0.501   2.599  0.00  0.00    -0.013 C 
ATOM      9  C4' I4B d   1       0.977  -0.783   1.657  0.00  0.00     0.013 C 
ATOM     10  C3' I4B d   1       2.147   0.944   2.996  0.00  0.00     0.013 C 
ENDBRANCH   7   8
ENDBRANCH   1   7
TORSDOF 2
ENDMDL
