MODEL 1
REMARK minimizedAffinity 10.9483643
REMARK minimizedRMSD -1
REMARK  2 active torsions:
REMARK  status: ('A' for Active; 'I' for Inactive)
REMARK    1  A    between atoms: C2'_3  and  C1'_4 
REMARK    2  A    between atoms: C1'_4  and  C1_5 
ROOT
ATOM      1  C1  I4B d   1       1.354   2.396   1.341  0.00  0.00    -0.075 A 
ATOM      2  C2  I4B d   1       0.389   3.151   1.959  0.00  0.00     0.003 A 
ATOM      3  C3  I4B d   1      -0.154   4.285   1.309  0.00  0.00     0.002 A 
ATOM      4  C4  I4B d   1       0.329   4.655   0.071  0.00  0.00    -0.004 A 
ATOM      5  C5  I4B d   1       1.291   3.875  -0.565  0.00  0.00     0.002 A 
ATOM      6  C6  I4B d   1       1.798   2.732   0.068  0.00  0.00     0.003 A 
ENDROOT
BRANCH   1   7
ATOM      7  C1' I4B d   1       1.929   1.223   2.070  0.00  0.00     0.060 C 
BRANCH   7   8
ATOM      8  C2' I4B d   1       2.295   1.677   3.468  0.00  0.00    -0.013 C 
ATOM      9  C4' I4B d   1       2.571   0.502   4.368  0.00  0.00     0.013 C 
ATOM     10  C3' I4B d   1       3.493   2.574   3.366  0.00  0.00     0.013 C 
ENDBRANCH   7   8
ENDBRANCH   1   7
TORSDOF 2
ENDMDL
