MODEL 1
REMARK minimizedAffinity -4.65748644
REMARK minimizedRMSD -1
REMARK  1 active torsions:
REMARK  status: ('A' for Active; 'I' for Inactive)
REMARK    1  A    between atoms: C1_2  and  C2_3 
ROOT
ATOM      1  C2  UNL d   1       0.973  -0.473   0.533  0.00  0.00    -0.077 A 
ATOM      2  C3  UNL d   1       0.289  -1.452  -0.202  0.00  0.00     0.002 A 
ATOM      3  C4  UNL d   1      -0.980  -1.188  -0.721  0.00  0.00     0.002 A 
ATOM      4  C5  UNL d   1      -1.574   0.056  -0.515  0.00  0.00    -0.004 A 
ATOM      5  C6  UNL d   1      -0.903   1.035   0.216  0.00  0.00     0.002 A 
ATOM      6  C7  UNL d   1       0.365   0.773   0.737  0.00  0.00     0.002 A 
ENDROOT
BRANCH   1   7
ATOM      7  C1  UNL d   1       2.362  -0.738   1.052  0.00  0.00     0.055 C 
ATOM      8  C   UNL d   1       3.089  -1.759   0.189  0.00  0.00     0.019 C 
ENDBRANCH   1   7
TORSDOF 1
ENDMDL
