MODEL 1
REMARK minimizedAffinity -2.29682875
REMARK minimizedRMSD -1
REMARK  1 active torsions:
REMARK  status: ('A' for Active; 'I' for Inactive)
REMARK    1  A    between atoms: C1_2  and  C2_3 
ROOT
ATOM      1  C2  UNL d   1       1.025  -0.285   0.403  0.00  0.00    -0.077 A 
ATOM      2  C3  UNL d   1      -0.264  -0.703   0.043  0.00  0.00     0.002 A 
ATOM      3  C4  UNL d   1      -1.285   0.233  -0.138  0.00  0.00     0.002 A 
ATOM      4  C5  UNL d   1      -1.026   1.591   0.034  0.00  0.00    -0.004 A 
ATOM      5  C6  UNL d   1       0.253   2.016   0.394  0.00  0.00     0.002 A 
ATOM      6  C7  UNL d   1       1.273   1.082   0.577  0.00  0.00     0.002 A 
ENDROOT
BRANCH   1   7
ATOM      7  C1  UNL d   1       2.139  -1.289   0.551  0.00  0.00     0.055 C 
ATOM      8  C   UNL d   1       2.438  -1.983  -0.770  0.00  0.00     0.019 C 
ENDBRANCH   1   7
TORSDOF 1
ENDMDL
