MODEL 1
REMARK minimizedAffinity -5.4153595
REMARK minimizedRMSD -1
REMARK  1 active torsions:
REMARK  status: ('A' for Active; 'I' for Inactive)
REMARK    1  A    between atoms: C1_2  and  C2_3 
ROOT
ATOM      1  C2  UNL d   1       0.864   0.669  -0.168  0.00  0.00    -0.077 A 
ATOM      2  C3  UNL d   1       1.959   1.507   0.085  0.00  0.00     0.002 A 
ATOM      3  C4  UNL d   1       3.167   0.973   0.536  0.00  0.00     0.002 A 
ATOM      4  C5  UNL d   1       3.293  -0.401   0.734  0.00  0.00    -0.004 A 
ATOM      5  C6  UNL d   1       2.209  -1.242   0.487  0.00  0.00     0.002 A 
ATOM      6  C7  UNL d   1       1.000  -0.710   0.037  0.00  0.00     0.002 A 
ENDROOT
BRANCH   1   7
ATOM      7  C1  UNL d   1      -0.425   1.237  -0.702  0.00  0.00     0.055 C 
ATOM      8  C   UNL d   1      -1.626   0.437  -0.218  0.00  0.00     0.019 C 
ENDBRANCH   1   7
TORSDOF 1
ENDMDL
