MODEL 1
REMARK minimizedAffinity -4.85781574
REMARK minimizedRMSD -1
REMARK  1 active torsions:
REMARK  status: ('A' for Active; 'I' for Inactive)
REMARK    1  A    between atoms: C1_2  and  C2_3 
ROOT
ATOM      1  C2  UNL d   1      -0.016  -0.054  -0.088  0.00  0.00    -0.077 A 
ATOM      2  C3  UNL d   1       0.832   0.423   0.920  0.00  0.00     0.002 A 
ATOM      3  C4  UNL d   1       2.041  -0.221   1.190  0.00  0.00     0.002 A 
ATOM      4  C5  UNL d   1       2.414  -1.343   0.454  0.00  0.00    -0.004 A 
ATOM      5  C6  UNL d   1       1.576  -1.827  -0.550  0.00  0.00     0.002 A 
ATOM      6  C7  UNL d   1       0.367  -1.185  -0.821  0.00  0.00     0.002 A 
ENDROOT
BRANCH   1   7
ATOM      7  C1  UNL d   1      -1.297   0.669  -0.414  0.00  0.00     0.055 C 
ATOM      8  C   UNL d   1      -2.195   0.783   0.809  0.00  0.00     0.019 C 
ENDBRANCH   1   7
TORSDOF 1
ENDMDL
