MODEL 1
REMARK minimizedAffinity -3.92512083
REMARK minimizedRMSD -1
REMARK  1 active torsions:
REMARK  status: ('A' for Active; 'I' for Inactive)
REMARK    1  A    between atoms: C1_2  and  C2_3 
ROOT
ATOM      1  C2  UNL d   1      -4.414   1.677  -1.607  0.00  0.00    -0.077 A 
ATOM      2  C3  UNL d   1      -5.734   1.680  -1.134  0.00  0.00     0.002 A 
ATOM      3  C4  UNL d   1      -6.000   1.917   0.216  0.00  0.00     0.002 A 
ATOM      4  C5  UNL d   1      -4.952   2.157   1.103  0.00  0.00    -0.004 A 
ATOM      5  C6  UNL d   1      -3.636   2.154   0.643  0.00  0.00     0.002 A 
ATOM      6  C7  UNL d   1      -3.368   1.916  -0.706  0.00  0.00     0.002 A 
ENDROOT
BRANCH   1   7
ATOM      7  C1  UNL d   1      -4.128   1.471  -3.071  0.00  0.00     0.055 C 
ATOM      8  C   UNL d   1      -5.154   2.183  -3.941  0.00  0.00     0.019 C 
ENDBRANCH   1   7
TORSDOF 1
ENDMDL
