MODEL 1
REMARK minimizedAffinity -1.02636051
REMARK minimizedRMSD -1
REMARK  1 active torsions:
REMARK  status: ('A' for Active; 'I' for Inactive)
REMARK    1  A    between atoms: C1_2  and  C2_3 
ROOT
ATOM      1  C2  UNL d   1      -2.995   1.751  -0.448  0.00  0.00    -0.077 A 
ATOM      2  C3  UNL d   1      -3.570   2.038  -1.694  0.00  0.00     0.002 A 
ATOM      3  C4  UNL d   1      -3.430   1.146  -2.759  0.00  0.00     0.002 A 
ATOM      4  C5  UNL d   1      -2.719  -0.040  -2.588  0.00  0.00    -0.004 A 
ATOM      5  C6  UNL d   1      -2.142  -0.334  -1.353  0.00  0.00     0.002 A 
ATOM      6  C7  UNL d   1      -2.280   0.557  -0.288  0.00  0.00     0.002 A 
ENDROOT
BRANCH   1   7
ATOM      7  C1  UNL d   1      -3.187   2.688   0.715  0.00  0.00     0.055 C 
ATOM      8  C   UNL d   1      -4.658   3.016   0.925  0.00  0.00     0.019 C 
ENDBRANCH   1   7
TORSDOF 1
ENDMDL
