MODEL 1
REMARK minimizedAffinity 5.76107836
REMARK minimizedRMSD -1
REMARK  1 active torsions:
REMARK  status: ('A' for Active; 'I' for Inactive)
REMARK    1  A    between atoms: C1_2  and  C2_3 
ROOT
ATOM      1  C2  UNL d   1       1.130  -4.599   5.024  0.00  0.00    -0.077 A 
ATOM      2  C3  UNL d   1       1.892  -4.892   3.885  0.00  0.00     0.002 A 
ATOM      3  C4  UNL d   1       2.268  -3.875   3.005  0.00  0.00     0.002 A 
ATOM      4  C5  UNL d   1       1.890  -2.558   3.258  0.00  0.00    -0.004 A 
ATOM      5  C6  UNL d   1       1.130  -2.257   4.388  0.00  0.00     0.002 A 
ATOM      6  C7  UNL d   1       0.753  -3.272   5.267  0.00  0.00     0.002 A 
ENDROOT
BRANCH   1   7
ATOM      7  C1  UNL d   1       0.766  -5.688   6.000  0.00  0.00     0.055 C 
ATOM      8  C   UNL d   1      -0.732  -5.953   5.999  0.00  0.00     0.019 C 
ENDBRANCH   1   7
TORSDOF 1
ENDMDL
