MODEL 1
REMARK minimizedAffinity -0.247255072
REMARK minimizedRMSD -1
REMARK  1 active torsions:
REMARK  status: ('A' for Active; 'I' for Inactive)
REMARK    1  A    between atoms: C1_2  and  C2_3 
ROOT
ATOM      1  C2  UNL d   1       3.424  -5.998  -2.972  0.00  0.00    -0.077 A 
ATOM      2  C3  UNL d   1       3.119  -5.998  -1.604  0.00  0.00     0.002 A 
ATOM      3  C4  UNL d   1       4.140  -5.999  -0.652  0.00  0.00     0.002 A 
ATOM      4  C5  UNL d   1       5.473  -5.996  -1.058  0.00  0.00    -0.004 A 
ATOM      5  C6  UNL d   1       5.787  -5.998  -2.416  0.00  0.00     0.002 A 
ATOM      6  C7  UNL d   1       4.768  -5.998  -3.369  0.00  0.00     0.002 A 
ENDROOT
BRANCH   1   7
ATOM      7  C1  UNL d   1       2.324  -5.946  -4.000  0.00  0.00     0.055 C 
ATOM      8  C   UNL d   1       2.885  -5.999  -5.414  0.00  0.00     0.019 C 
ENDBRANCH   1   7
TORSDOF 1
ENDMDL
