MODEL 1
REMARK minimizedAffinity 2.15989304
REMARK minimizedRMSD -1
REMARK  1 active torsions:
REMARK  status: ('A' for Active; 'I' for Inactive)
REMARK    1  A    between atoms: C1_2  and  C2_3 
ROOT
ATOM      1  C2  UNL d   1       3.523  -2.986   4.341  0.00  0.00    -0.077 A 
ATOM      2  C3  UNL d   1       2.752  -1.847   4.069  0.00  0.00     0.002 A 
ATOM      3  C4  UNL d   1       1.489  -1.972   3.487  0.00  0.00     0.002 A 
ATOM      4  C5  UNL d   1       0.984  -3.233   3.177  0.00  0.00    -0.004 A 
ATOM      5  C6  UNL d   1       1.743  -4.371   3.443  0.00  0.00     0.002 A 
ATOM      6  C7  UNL d   1       3.006  -4.249   4.023  0.00  0.00     0.002 A 
ENDROOT
BRANCH   1   7
ATOM      7  C1  UNL d   1       4.864  -2.857   5.014  0.00  0.00     0.055 C 
ATOM      8  C   UNL d   1       6.000  -2.942   4.004  0.00  0.00     0.019 C 
ENDBRANCH   1   7
TORSDOF 1
ENDMDL
