MODEL 1
REMARK minimizedAffinity 2.51016259
REMARK minimizedRMSD -1
REMARK  1 active torsions:
REMARK  status: ('A' for Active; 'I' for Inactive)
REMARK    1  A    between atoms: C1_2  and  C2_3 
ROOT
ATOM      1  C2  UNL d   1       3.512  -5.568  -2.420  0.00  0.00    -0.077 A 
ATOM      2  C3  UNL d   1       2.316  -5.559  -3.151  0.00  0.00     0.002 A 
ATOM      3  C4  UNL d   1       2.330  -5.767  -4.531  0.00  0.00     0.002 A 
ATOM      4  C5  UNL d   1       3.536  -5.989  -5.192  0.00  0.00    -0.004 A 
ATOM      5  C6  UNL d   1       4.732  -5.997  -4.474  0.00  0.00     0.002 A 
ATOM      6  C7  UNL d   1       4.720  -5.789  -3.094  0.00  0.00     0.002 A 
ENDROOT
BRANCH   1   7
ATOM      7  C1  UNL d   1       3.494  -5.393  -0.924  0.00  0.00     0.055 C 
ATOM      8  C   UNL d   1       2.109  -5.657  -0.352  0.00  0.00     0.019 C 
ENDBRANCH   1   7
TORSDOF 1
ENDMDL
