MODEL 1
REMARK minimizedAffinity 3.81327271
REMARK minimizedRMSD -1
REMARK  1 active torsions:
REMARK  status: ('A' for Active; 'I' for Inactive)
REMARK    1  A    between atoms: C1_2  and  C2_3 
ROOT
ATOM      1  C2  UNL d   1       2.094  -4.253   4.512  0.00  0.00    -0.077 A 
ATOM      2  C3  UNL d   1       1.093  -3.998   3.564  0.00  0.00     0.002 A 
ATOM      3  C4  UNL d   1       0.974  -2.732   2.986  0.00  0.00     0.002 A 
ATOM      4  C5  UNL d   1       1.855  -1.715   3.345  0.00  0.00    -0.004 A 
ATOM      5  C6  UNL d   1       2.853  -1.958   4.289  0.00  0.00     0.002 A 
ATOM      6  C7  UNL d   1       2.972  -3.222   4.869  0.00  0.00     0.002 A 
ENDROOT
BRANCH   1   7
ATOM      7  C1  UNL d   1       2.255  -5.631   5.100  0.00  0.00     0.055 C 
ATOM      8  C   UNL d   1       1.080  -5.989   6.000  0.00  0.00     0.019 C 
ENDBRANCH   1   7
TORSDOF 1
ENDMDL
