MODEL 1
REMARK minimizedAffinity -0.238555059
REMARK minimizedRMSD -1
REMARK  1 active torsions:
REMARK  status: ('A' for Active; 'I' for Inactive)
REMARK    1  A    between atoms: C1_2  and  C2_3 
ROOT
ATOM      1  C2  UNL d   1       2.138  -1.519   3.707  0.00  0.00    -0.077 A 
ATOM      2  C3  UNL d   1       1.353  -2.391   2.940  0.00  0.00     0.002 A 
ATOM      3  C4  UNL d   1       1.432  -3.771   3.137  0.00  0.00     0.002 A 
ATOM      4  C5  UNL d   1       2.292  -4.290   4.103  0.00  0.00    -0.004 A 
ATOM      5  C6  UNL d   1       3.079  -3.431   4.869  0.00  0.00     0.002 A 
ATOM      6  C7  UNL d   1       3.001  -2.051   4.672  0.00  0.00     0.002 A 
ENDROOT
BRANCH   1   7
ATOM      7  C1  UNL d   1       2.017  -0.028   3.530  0.00  0.00     0.055 C 
ATOM      8  C   UNL d   1       2.811   0.453   2.324  0.00  0.00     0.019 C 
ENDBRANCH   1   7
TORSDOF 1
ENDMDL
