MODEL 1
REMARK minimizedAffinity 1.14830697
REMARK minimizedRMSD -1
REMARK  0 active torsions:
REMARK  status: ('A' for Active; 'I' for Inactive)
ROOT
ATOM      1  C1  BNZ d   1       0.511   0.958   2.256  0.00  0.00     0.000 A 
ATOM      2  C2  BNZ d   1      -0.813   0.661   2.073  0.00  0.00     0.000 A 
ATOM      3  C3  BNZ d   1      -1.787   1.537   2.465  0.00  0.00     0.000 A 
ATOM      4  C4  BNZ d   1      -1.438   2.688   3.074  0.00  0.00     0.000 A 
ATOM      5  C5  BNZ d   1      -0.107   2.998   3.274  0.00  0.00     0.000 A 
ATOM      6  C6  BNZ d   1       0.872   2.132   2.843  0.00  0.00     0.000 A 
ENDROOT
TORSDOF 0
ENDMDL
