MODEL 1
REMARK minimizedAffinity 2.0257616
REMARK minimizedRMSD -1
REMARK  0 active torsions:
REMARK  status: ('A' for Active; 'I' for Inactive)
ROOT
ATOM      1  C1  BNZ d   1      -2.053   1.059   2.491  0.00  0.00     0.000 A 
ATOM      2  C2  BNZ d   1      -1.264   2.114   2.866  0.00  0.00     0.000 A 
ATOM      3  C3  BNZ d   1       0.098   1.995   2.895  0.00  0.00     0.000 A 
ATOM      4  C4  BNZ d   1       0.666   0.810   2.588  0.00  0.00     0.000 A 
ATOM      5  C5  BNZ d   1      -0.117  -0.265   2.218  0.00  0.00     0.000 A 
ATOM      6  C6  BNZ d   1      -1.485  -0.130   2.152  0.00  0.00     0.000 A 
ENDROOT
TORSDOF 0
ENDMDL
