MODEL 1
REMARK minimizedAffinity -0.171016172
REMARK minimizedRMSD -1
REMARK  0 active torsions:
REMARK  status: ('A' for Active; 'I' for Inactive)
ROOT
ATOM      1  C1  BNZ d   1       3.589  -0.219  -3.743  0.00  0.00     0.000 A 
ATOM      2  C2  BNZ d   1       3.276  -1.525  -3.477  0.00  0.00     0.000 A 
ATOM      3  C3  BNZ d   1       2.466  -2.236  -4.318  0.00  0.00     0.000 A 
ATOM      4  C4  BNZ d   1       1.938  -1.629  -5.401  0.00  0.00     0.000 A 
ATOM      5  C5  BNZ d   1       2.237  -0.309  -5.677  0.00  0.00     0.000 A 
ATOM      6  C6  BNZ d   1       3.084   0.391  -4.850  0.00  0.00     0.000 A 
ENDROOT
TORSDOF 0
ENDMDL
