MODEL 1
REMARK minimizedAffinity -0.0858833566
REMARK minimizedRMSD -1
REMARK  0 active torsions:
REMARK  status: ('A' for Active; 'I' for Inactive)
ROOT
ATOM      1  C1  BNZ d   1      -3.640   0.511   5.789  0.00  0.00     0.000 A 
ATOM      2  C2  BNZ d   1      -3.627  -0.853   5.913  0.00  0.00     0.000 A 
ATOM      3  C3  BNZ d   1      -4.794  -1.560   5.994  0.00  0.00     0.000 A 
ATOM      4  C4  BNZ d   1      -5.970  -0.901   5.992  0.00  0.00     0.000 A 
ATOM      5  C5  BNZ d   1      -6.000   0.475   5.878  0.00  0.00     0.000 A 
ATOM      6  C6  BNZ d   1      -4.825   1.180   5.757  0.00  0.00     0.000 A 
ENDROOT
TORSDOF 0
ENDMDL
