MODEL 1
REMARK minimizedAffinity 5.00013447
REMARK minimizedRMSD -1
REMARK  0 active torsions:
REMARK  status: ('A' for Active; 'I' for Inactive)
ROOT
ATOM      1  C1  BNZ d   1       0.425   5.214  -6.000  0.00  0.00     0.000 A 
ATOM      2  C2  BNZ d   1      -0.382   5.456  -4.921  0.00  0.00     0.000 A 
ATOM      3  C3  BNZ d   1      -0.353   4.638  -3.827  0.00  0.00     0.000 A 
ATOM      4  C4  BNZ d   1       0.454   3.557  -3.829  0.00  0.00     0.000 A 
ATOM      5  C5  BNZ d   1       1.267   3.294  -4.913  0.00  0.00     0.000 A 
ATOM      6  C6  BNZ d   1       1.263   4.141  -5.996  0.00  0.00     0.000 A 
ENDROOT
TORSDOF 0
ENDMDL
