MODEL 1
REMARK minimizedAffinity 0.0484098829
REMARK minimizedRMSD -1
REMARK  0 active torsions:
REMARK  status: ('A' for Active; 'I' for Inactive)
ROOT
ATOM      1  C1  BNZ d   1      -3.265  -0.776   5.995  0.00  0.00     0.000 A 
ATOM      2  C2  BNZ d   1      -4.441  -1.478   5.992  0.00  0.00     0.000 A 
ATOM      3  C3  BNZ d   1      -5.644  -0.829   5.968  0.00  0.00     0.000 A 
ATOM      4  C4  BNZ d   1      -5.669   0.520   5.987  0.00  0.00     0.000 A 
ATOM      5  C5  BNZ d   1      -4.493   1.241   6.000  0.00  0.00     0.000 A 
ATOM      6  C6  BNZ d   1      -3.284   0.584   5.985  0.00  0.00     0.000 A 
ENDROOT
TORSDOF 0
ENDMDL
