MODEL 1
REMARK minimizedAffinity -0.741333485
REMARK minimizedRMSD -1
REMARK  0 active torsions:
REMARK  status: ('A' for Active; 'I' for Inactive)
ROOT
ATOM      1  C1  BNZ d   1      -1.874   0.659   0.647  0.00  0.00     0.000 A 
ATOM      2  C2  BNZ d   1      -0.659   0.086   0.915  0.00  0.00     0.000 A 
ATOM      3  C3  BNZ d   1       0.005   0.364   2.077  0.00  0.00     0.000 A 
ATOM      4  C4  BNZ d   1      -0.526   1.244   2.950  0.00  0.00     0.000 A 
ATOM      5  C5  BNZ d   1      -1.745   1.838   2.689  0.00  0.00     0.000 A 
ATOM      6  C6  BNZ d   1      -2.429   1.526   1.537  0.00  0.00     0.000 A 
ENDROOT
TORSDOF 0
ENDMDL
