MODEL 1
REMARK minimizedAffinity 1.31673181
REMARK minimizedRMSD -1
REMARK  0 active torsions:
REMARK  status: ('A' for Active; 'I' for Inactive)
ROOT
ATOM      1  C1  BNZ d   1       0.761   0.426   2.482  0.00  0.00     0.000 A 
ATOM      2  C2  BNZ d   1       0.482   1.395   3.409  0.00  0.00     0.000 A 
ATOM      3  C3  BNZ d   1      -0.699   2.081   3.371  0.00  0.00     0.000 A 
ATOM      4  C4  BNZ d   1      -1.583   1.825   2.385  0.00  0.00     0.000 A 
ATOM      5  C5  BNZ d   1      -1.313   0.858   1.438  0.00  0.00     0.000 A 
ATOM      6  C6  BNZ d   1      -0.139   0.142   1.502  0.00  0.00     0.000 A 
ENDROOT
TORSDOF 0
ENDMDL
