MODEL 1
REMARK minimizedAffinity 0.434572548
REMARK minimizedRMSD -1
REMARK  0 active torsions:
REMARK  status: ('A' for Active; 'I' for Inactive)
ROOT
ATOM      1  C1  BNZ d   1      -4.785   1.139   5.820  0.00  0.00     0.000 A 
ATOM      2  C2  BNZ d   1      -3.609   0.461   5.998  0.00  0.00     0.000 A 
ATOM      3  C3  BNZ d   1      -3.576  -0.905   5.954  0.00  0.00     0.000 A 
ATOM      4  C4  BNZ d   1      -4.723  -1.591   5.773  0.00  0.00     0.000 A 
ATOM      5  C5  BNZ d   1      -5.918  -0.921   5.600  0.00  0.00     0.000 A 
ATOM      6  C6  BNZ d   1      -5.942   0.454   5.606  0.00  0.00     0.000 A 
ENDROOT
TORSDOF 0
ENDMDL
