MODEL 1
REMARK minimizedAffinity 1.74283338
REMARK minimizedRMSD -1
REMARK  0 active torsions:
REMARK  status: ('A' for Active; 'I' for Inactive)
ROOT
ATOM      1  C1  BNZ d   1      -1.529   1.155   1.904  0.00  0.00     0.000 A 
ATOM      2  C2  BNZ d   1      -1.208   2.053   2.887  0.00  0.00     0.000 A 
ATOM      3  C3  BNZ d   1       0.023   2.030   3.481  0.00  0.00     0.000 A 
ATOM      4  C4  BNZ d   1       0.916   1.086   3.120  0.00  0.00     0.000 A 
ATOM      5  C5  BNZ d   1       0.604   0.168   2.137  0.00  0.00     0.000 A 
ATOM      6  C6  BNZ d   1      -0.622   0.219   1.514  0.00  0.00     0.000 A 
ENDROOT
TORSDOF 0
ENDMDL
