MODEL 1
REMARK minimizedAffinity 3.22823954
REMARK minimizedRMSD -1
REMARK  0 active torsions:
REMARK  status: ('A' for Active; 'I' for Inactive)
ROOT
ATOM      1  C1  BNZ d   1      -2.245   1.879   3.690  0.00  0.00     0.000 A 
ATOM      2  C2  BNZ d   1      -1.202   2.321   4.459  0.00  0.00     0.000 A 
ATOM      3  C3  BNZ d   1       0.090   2.163   4.044  0.00  0.00     0.000 A 
ATOM      4  C4  BNZ d   1       0.340   1.527   2.880  0.00  0.00     0.000 A 
ATOM      5  C5  BNZ d   1      -0.701   1.067   2.098  0.00  0.00     0.000 A 
ATOM      6  C6  BNZ d   1      -2.002   1.263   2.501  0.00  0.00     0.000 A 
ENDROOT
TORSDOF 0
ENDMDL
