MODEL 1
REMARK minimizedAffinity 2.37009645
REMARK minimizedRMSD -1
REMARK  0 active torsions:
REMARK  status: ('A' for Active; 'I' for Inactive)
ROOT
ATOM      1  C1  BNZ d   1       3.497  -0.270  -3.306  0.00  0.00     0.000 A 
ATOM      2  C2  BNZ d   1       3.484   1.090  -3.467  0.00  0.00     0.000 A 
ATOM      3  C3  BNZ d   1       2.660   1.678  -4.386  0.00  0.00     0.000 A 
ATOM      4  C4  BNZ d   1       1.881   0.904  -5.169  0.00  0.00     0.000 A 
ATOM      5  C5  BNZ d   1       1.890  -0.469  -5.025  0.00  0.00     0.000 A 
ATOM      6  C6  BNZ d   1       2.692  -1.055  -4.073  0.00  0.00     0.000 A 
ENDROOT
TORSDOF 0
ENDMDL
