MODEL 1
REMARK minimizedAffinity 2.01974511
REMARK minimizedRMSD -1
REMARK  0 active torsions:
REMARK  status: ('A' for Active; 'I' for Inactive)
ROOT
ATOM      1  C1  BNZ d   1       3.652  -0.636  -3.315  0.00  0.00     0.000 A 
ATOM      2  C2  BNZ d   1       3.667   0.674  -3.713  0.00  0.00     0.000 A 
ATOM      3  C3  BNZ d   1       2.811   1.121  -4.680  0.00  0.00     0.000 A 
ATOM      4  C4  BNZ d   1       1.969   0.251  -5.275  0.00  0.00     0.000 A 
ATOM      5  C5  BNZ d   1       1.948  -1.075  -4.890  0.00  0.00     0.000 A 
ATOM      6  C6  BNZ d   1       2.785  -1.513  -3.890  0.00  0.00     0.000 A 
ENDROOT
TORSDOF 0
ENDMDL
