MODEL 1
REMARK minimizedAffinity 1.00504124
REMARK minimizedRMSD -1
REMARK  0 active torsions:
REMARK  status: ('A' for Active; 'I' for Inactive)
ROOT
ATOM      1  C1  BNZ d   1      -3.151   1.517   2.006  0.00  0.00     0.000 A 
ATOM      2  C2  BNZ d   1      -1.961   1.380   1.344  0.00  0.00     0.000 A 
ATOM      3  C3  BNZ d   1      -1.031   0.466   1.757  0.00  0.00     0.000 A 
ATOM      4  C4  BNZ d   1      -1.276  -0.279   2.854  0.00  0.00     0.000 A 
ATOM      5  C5  BNZ d   1      -2.468  -0.145   3.538  0.00  0.00     0.000 A 
ATOM      6  C6  BNZ d   1      -3.417   0.747   3.097  0.00  0.00     0.000 A 
ENDROOT
TORSDOF 0
ENDMDL
