MODEL 1
REMARK minimizedAffinity 1.3539573
REMARK minimizedRMSD -1
REMARK  0 active torsions:
REMARK  status: ('A' for Active; 'I' for Inactive)
ROOT
ATOM      1  C1  BNZ d   1      -0.863   1.816   2.767  0.00  0.00     0.000 A 
ATOM      2  C2  BNZ d   1      -0.196   1.113   1.800  0.00  0.00     0.000 A 
ATOM      3  C3  BNZ d   1      -0.875   0.508   0.779  0.00  0.00     0.000 A 
ATOM      4  C4  BNZ d   1      -2.222   0.574   0.749  0.00  0.00     0.000 A 
ATOM      5  C5  BNZ d   1      -2.910   1.271   1.722  0.00  0.00     0.000 A 
ATOM      6  C6  BNZ d   1      -2.220   1.911   2.726  0.00  0.00     0.000 A 
ENDROOT
TORSDOF 0
ENDMDL
