MODEL 1
REMARK minimizedAffinity 1.83340275
REMARK minimizedRMSD -1
REMARK  0 active torsions:
REMARK  status: ('A' for Active; 'I' for Inactive)
ROOT
ATOM      1  C1  BNZ d   1      -5.994   0.326   3.685  0.00  0.00     0.000 A 
ATOM      2  C2  BNZ d   1      -5.992  -0.412   4.839  0.00  0.00     0.000 A 
ATOM      3  C3  BNZ d   1      -5.475   0.100   5.996  0.00  0.00     0.000 A 
ATOM      4  C4  BNZ d   1      -4.925   1.331   5.989  0.00  0.00     0.000 A 
ATOM      5  C5  BNZ d   1      -4.910   2.084   4.832  0.00  0.00     0.000 A 
ATOM      6  C6  BNZ d   1      -5.467   1.581   3.678  0.00  0.00     0.000 A 
ENDROOT
TORSDOF 0
ENDMDL
