MODEL 1
REMARK minimizedAffinity 3.02022505
REMARK minimizedRMSD -1
REMARK  0 active torsions:
REMARK  status: ('A' for Active; 'I' for Inactive)
ROOT
ATOM      1  C1  BNZ d   1       0.197   0.131   2.155  0.00  0.00     0.000 A 
ATOM      2  C2  BNZ d   1      -0.498  -0.293   1.054  0.00  0.00     0.000 A 
ATOM      3  C3  BNZ d   1      -1.729   0.224   0.761  0.00  0.00     0.000 A 
ATOM      4  C4  BNZ d   1      -2.280   1.135   1.590  0.00  0.00     0.000 A 
ATOM      5  C5  BNZ d   1      -1.595   1.566   2.709  0.00  0.00     0.000 A 
ATOM      6  C6  BNZ d   1      -0.340   1.071   2.979  0.00  0.00     0.000 A 
ENDROOT
TORSDOF 0
ENDMDL
