MODEL 1
REMARK minimizedAffinity -1.66326058
REMARK minimizedRMSD -1
REMARK  0 active torsions:
REMARK  status: ('A' for Active; 'I' for Inactive)
ROOT
ATOM      1  C1  BNZ d   1      -2.775   1.087   0.994  0.00  0.00     0.000 A 
ATOM      2  C2  BNZ d   1      -2.579   1.658   2.223  0.00  0.00     0.000 A 
ATOM      3  C3  BNZ d   1      -1.377   1.545   2.865  0.00  0.00     0.000 A 
ATOM      4  C4  BNZ d   1      -0.388   0.827   2.295  0.00  0.00     0.000 A 
ATOM      5  C5  BNZ d   1      -0.572   0.237   1.061  0.00  0.00     0.000 A 
ATOM      6  C6  BNZ d   1      -1.770   0.387   0.401  0.00  0.00     0.000 A 
ENDROOT
TORSDOF 0
ENDMDL
