MODEL 1
REMARK minimizedAffinity 1.81923068
REMARK minimizedRMSD -1
REMARK  0 active torsions:
REMARK  status: ('A' for Active; 'I' for Inactive)
ROOT
ATOM      1  C1  BNZ d   1      -5.651   1.202   3.680  0.00  0.00     0.000 A 
ATOM      2  C2  BNZ d   1      -5.998  -0.123   3.672  0.00  0.00     0.000 A 
ATOM      3  C3  BNZ d   1      -5.989  -0.855   4.827  0.00  0.00     0.000 A 
ATOM      4  C4  BNZ d   1      -5.595  -0.273   5.978  0.00  0.00     0.000 A 
ATOM      5  C5  BNZ d   1      -5.233   1.059   5.999  0.00  0.00     0.000 A 
ATOM      6  C6  BNZ d   1      -5.281   1.803   4.843  0.00  0.00     0.000 A 
ENDROOT
TORSDOF 0
ENDMDL
