MODEL 1
REMARK minimizedAffinity 8.69551754
REMARK minimizedRMSD -1
REMARK  0 active torsions:
REMARK  status: ('A' for Active; 'I' for Inactive)
ROOT
ATOM      1  C   UNL d   1       2.067  -3.342   2.877  0.00  0.00    -0.002 A 
ATOM      2  C1  UNL d   1       1.862  -2.031   3.283  0.00  0.00     0.010 A 
ATOM      3  C2  UNL d   1       2.686  -1.449   4.248  0.00  0.00     0.041 A 
ATOM      4  C3  UNL d   1       3.731  -2.213   4.803  0.00  0.00    -0.075 A 
ATOM      5  S   UNL d   1       4.866  -1.709   5.999  0.00  0.00     0.015 SA
ATOM      6  C4  UNL d   1       5.651  -3.222   5.999  0.00  0.00     0.022 A 
ATOM      7  C5  UNL d   1       5.074  -4.102   5.114  0.00  0.00     0.026 A 
ATOM      8  C6  UNL d   1       3.958  -3.535   4.410  0.00  0.00    -0.082 A 
ATOM      9  C7  UNL d   1       3.105  -4.097   3.430  0.00  0.00     0.045 A 
ENDROOT
TORSDOF 0
ENDMDL
