MODEL 1
REMARK minimizedAffinity 1.48298573
REMARK minimizedRMSD -1
REMARK  0 active torsions:
REMARK  status: ('A' for Active; 'I' for Inactive)
ROOT
ATOM      1  C   UNL d   1       0.776  -2.122  -3.014  0.00  0.00    -0.002 A 
ATOM      2  C1  UNL d   1       1.305  -2.535  -1.799  0.00  0.00     0.010 A 
ATOM      3  C2  UNL d   1       0.474  -2.738  -0.695  0.00  0.00     0.041 A 
ATOM      4  C3  UNL d   1      -0.911  -2.519  -0.835  0.00  0.00    -0.075 A 
ATOM      5  S   UNL d   1      -2.120  -2.705   0.379  0.00  0.00     0.015 SA
ATOM      6  C4  UNL d   1      -3.367  -2.241  -0.686  0.00  0.00     0.022 A 
ATOM      7  C5  UNL d   1      -2.890  -1.948  -1.941  0.00  0.00     0.026 A 
ATOM      8  C6  UNL d   1      -1.467  -2.104  -2.048  0.00  0.00    -0.082 A 
ATOM      9  C7  UNL d   1      -0.598  -1.905  -3.148  0.00  0.00     0.045 A 
ENDROOT
TORSDOF 0
ENDMDL
