MODEL 1
REMARK minimizedAffinity 4.1697197
REMARK minimizedRMSD -1
REMARK  0 active torsions:
REMARK  status: ('A' for Active; 'I' for Inactive)
ROOT
ATOM      1  C   UNL d   1       5.290  -1.564   5.060  0.00  0.00    -0.002 A 
ATOM      2  C1  UNL d   1       5.998  -2.436   5.875  0.00  0.00     0.010 A 
ATOM      3  C2  UNL d   1       5.612  -3.773   5.989  0.00  0.00     0.041 A 
ATOM      4  C3  UNL d   1       4.494  -4.224   5.261  0.00  0.00    -0.075 A 
ATOM      5  S   UNL d   1       3.838  -5.819   5.244  0.00  0.00     0.015 SA
ATOM      6  C4  UNL d   1       2.604  -5.380   4.154  0.00  0.00     0.022 A 
ATOM      7  C5  UNL d   1       2.675  -4.053   3.801  0.00  0.00     0.026 A 
ATOM      8  C6  UNL d   1       3.765  -3.365   4.433  0.00  0.00    -0.082 A 
ATOM      9  C7  UNL d   1       4.181  -2.015   4.340  0.00  0.00     0.045 A 
ENDROOT
TORSDOF 0
ENDMDL
