MODEL 1
REMARK minimizedAffinity 10.8205185
REMARK minimizedRMSD -1
REMARK  0 active torsions:
REMARK  status: ('A' for Active; 'I' for Inactive)
ROOT
ATOM      1  C   UNL d   1       5.275   2.920  -4.410  0.00  0.00    -0.002 A 
ATOM      2  C1  UNL d   1       3.991   3.387  -4.653  0.00  0.00     0.010 A 
ATOM      3  C2  UNL d   1       3.403   4.323  -3.800  0.00  0.00     0.041 A 
ATOM      4  C3  UNL d   1       4.136   4.788  -2.690  0.00  0.00    -0.075 A 
ATOM      5  S   UNL d   1       3.619   5.935  -1.511  0.00  0.00     0.015 SA
ATOM      6  C4  UNL d   1       5.091   5.833  -0.658  0.00  0.00     0.022 A 
ATOM      7  C5  UNL d   1       5.967   4.950  -1.245  0.00  0.00     0.026 A 
ATOM      8  C6  UNL d   1       5.431   4.333  -2.426  0.00  0.00    -0.082 A 
ATOM      9  C7  UNL d   1       5.998   3.383  -3.308  0.00  0.00     0.045 A 
ENDROOT
TORSDOF 0
ENDMDL
