MODEL 1
REMARK minimizedAffinity 13.0205679
REMARK minimizedRMSD -1
REMARK  0 active torsions:
REMARK  status: ('A' for Active; 'I' for Inactive)
ROOT
ATOM      1  C   UNL d   1      -1.127  -2.244  -2.227  0.00  0.00    -0.002 A 
ATOM      2  C1  UNL d   1      -0.642  -1.957  -0.959  0.00  0.00     0.010 A 
ATOM      3  C2  UNL d   1       0.728  -2.017  -0.693  0.00  0.00     0.041 A 
ATOM      4  C3  UNL d   1       1.609  -2.372  -1.733  0.00  0.00    -0.075 A 
ATOM      5  S   UNL d   1       3.325  -2.509  -1.639  0.00  0.00     0.015 SA
ATOM      6  C4  UNL d   1       3.454  -2.950  -3.280  0.00  0.00     0.022 A 
ATOM      7  C5  UNL d   1       2.228  -2.997  -3.900  0.00  0.00     0.026 A 
ATOM      8  C6  UNL d   1       1.144  -2.664  -3.018  0.00  0.00    -0.082 A 
ATOM      9  C7  UNL d   1      -0.250  -2.595  -3.256  0.00  0.00     0.045 A 
ENDROOT
TORSDOF 0
ENDMDL
