MODEL 1
REMARK minimizedAffinity 6.38737726
REMARK minimizedRMSD -1
REMARK  0 active torsions:
REMARK  status: ('A' for Active; 'I' for Inactive)
ROOT
ATOM      1  C   UNL d   1       5.103   4.881  -5.799  0.00  0.00    -0.002 A 
ATOM      2  C1  UNL d   1       3.918   5.591  -5.666  0.00  0.00     0.010 A 
ATOM      3  C2  UNL d   1       3.457   5.976  -4.406  0.00  0.00     0.041 A 
ATOM      4  C3  UNL d   1       4.216   5.633  -3.269  0.00  0.00    -0.075 A 
ATOM      5  S   UNL d   1       3.848   5.998  -1.625  0.00  0.00     0.015 SA
ATOM      6  C4  UNL d   1       5.255   5.221  -1.059  0.00  0.00     0.022 A 
ATOM      7  C5  UNL d   1       5.999   4.690  -2.086  0.00  0.00     0.026 A 
ATOM      8  C6  UNL d   1       5.413   4.919  -3.377  0.00  0.00    -0.082 A 
ATOM      9  C7  UNL d   1       5.853   4.543  -4.669  0.00  0.00     0.045 A 
ENDROOT
TORSDOF 0
ENDMDL
