MODEL 1
REMARK minimizedAffinity 4.87124062
REMARK minimizedRMSD -1
REMARK  0 active torsions:
REMARK  status: ('A' for Active; 'I' for Inactive)
ROOT
ATOM      1  C   UNL d   1       4.014   5.979  -5.829  0.00  0.00    -0.002 A 
ATOM      2  C1  UNL d   1       5.312   5.511  -5.978  0.00  0.00     0.010 A 
ATOM      3  C2  UNL d   1       5.999   4.966  -4.892  0.00  0.00     0.041 A 
ATOM      4  C3  UNL d   1       5.354   4.896  -3.642  0.00  0.00    -0.075 A 
ATOM      5  S   UNL d   1       6.000   4.268  -2.172  0.00  0.00     0.015 SA
ATOM      6  C4  UNL d   1       4.567   4.604  -1.311  0.00  0.00     0.022 A 
ATOM      7  C5  UNL d   1       3.609   5.182  -2.110  0.00  0.00     0.026 A 
ATOM      8  C6  UNL d   1       4.047   5.359  -3.467  0.00  0.00    -0.082 A 
ATOM      9  C7  UNL d   1       3.376   5.908  -4.587  0.00  0.00     0.045 A 
ENDROOT
TORSDOF 0
ENDMDL
