MODEL 1
REMARK minimizedAffinity 2.57997918
REMARK minimizedRMSD -1
REMARK  0 active torsions:
REMARK  status: ('A' for Active; 'I' for Inactive)
ROOT
ATOM      1  C   UNL d   1       4.093  -2.586   1.542  0.00  0.00    -0.002 A 
ATOM      2  C1  UNL d   1       3.406  -1.522   2.108  0.00  0.00     0.010 A 
ATOM      3  C2  UNL d   1       3.484  -1.276   3.481  0.00  0.00     0.041 A 
ATOM      4  C3  UNL d   1       4.274  -2.124   4.281  0.00  0.00    -0.075 A 
ATOM      5  S   UNL d   1       4.520  -2.014   5.984  0.00  0.00     0.015 SA
ATOM      6  C4  UNL d   1       5.543  -3.377   6.000  0.00  0.00     0.022 A 
ATOM      7  C5  UNL d   1       5.705  -3.915   4.745  0.00  0.00     0.026 A 
ATOM      8  C6  UNL d   1       4.976  -3.202   3.734  0.00  0.00    -0.082 A 
ATOM      9  C7  UNL d   1       4.876  -3.426   2.339  0.00  0.00     0.045 A 
ENDROOT
TORSDOF 0
ENDMDL
