MODEL 1
REMARK minimizedAffinity 9.02980995
REMARK minimizedRMSD -1
REMARK  0 active torsions:
REMARK  status: ('A' for Active; 'I' for Inactive)
ROOT
ATOM      1  C   UNL d   1       0.110  -1.906  -2.387  0.00  0.00    -0.002 A 
ATOM      2  C1  UNL d   1       0.863  -1.211  -1.451  0.00  0.00     0.010 A 
ATOM      3  C2  UNL d   1       0.466  -1.165  -0.113  0.00  0.00     0.041 A 
ATOM      4  C3  UNL d   1      -0.711  -1.837   0.272  0.00  0.00    -0.075 A 
ATOM      5  S   UNL d   1      -1.390  -1.920   1.855  0.00  0.00     0.015 SA
ATOM      6  C4  UNL d   1      -2.695  -2.880   1.325  0.00  0.00     0.022 A 
ATOM      7  C5  UNL d   1      -2.630  -3.141  -0.023  0.00  0.00     0.026 A 
ATOM      8  C6  UNL d   1      -1.485  -2.545  -0.652  0.00  0.00    -0.082 A 
ATOM      9  C7  UNL d   1      -1.056  -2.572  -2.001  0.00  0.00     0.045 A 
ENDROOT
TORSDOF 0
ENDMDL
