MODEL 1
REMARK minimizedAffinity -3.2106483
REMARK minimizedRMSD -1
REMARK  0 active torsions:
REMARK  status: ('A' for Active; 'I' for Inactive)
ROOT
ATOM      1  O1  BZF d   1       2.492  -1.154  -0.293  0.00  0.00    -0.204 OA
ATOM      2  C2  BZF d   1       2.373  -0.943  -1.653  0.00  0.00     0.174 A 
ATOM      3  C3  BZF d   1       1.319  -0.146  -1.923  0.00  0.00    -0.012 A 
ATOM      4  C3A BZF d   1       0.798   0.235  -0.646  0.00  0.00    -0.107 A 
ATOM      5  C4  BZF d   1      -0.239   1.031  -0.255  0.00  0.00     0.055 A 
ATOM      6  C5  BZF d   1      -0.528   1.137   1.069  0.00  0.00    -0.016 A 
ATOM      7  C6  BZF d   1       0.195   0.457   2.027  0.00  0.00     0.022 A 
ATOM      8  C7  BZF d   1       1.236  -0.341   1.687  0.00  0.00     0.029 A 
ATOM      9  C7A BZF d   1       1.552  -0.424   0.353  0.00  0.00     0.058 A 
ENDROOT
TORSDOF 0
ENDMDL
