MODEL 1
REMARK minimizedAffinity -3.95248532
REMARK minimizedRMSD -1
REMARK  0 active torsions:
REMARK  status: ('A' for Active; 'I' for Inactive)
ROOT
ATOM      1  O1  BZF d   1       0.110   1.493  -3.360  0.00  0.00    -0.204 OA
ATOM      2  C2  BZF d   1       0.989   0.832  -4.197  0.00  0.00     0.174 A 
ATOM      3  C3  BZF d   1       1.578  -0.197  -3.556  0.00  0.00    -0.012 A 
ATOM      4  C3A BZF d   1       0.965  -0.237  -2.263  0.00  0.00    -0.107 A 
ATOM      5  C4  BZF d   1       1.117  -1.049  -1.176  0.00  0.00     0.055 A 
ATOM      6  C5  BZF d   1       0.420  -0.773  -0.043  0.00  0.00    -0.016 A 
ATOM      7  C6  BZF d   1      -0.434   0.307   0.039  0.00  0.00     0.022 A 
ATOM      8  C7  BZF d   1      -0.621   1.138  -1.014  0.00  0.00     0.029 A 
ATOM      9  C7A BZF d   1       0.057   0.844  -2.172  0.00  0.00     0.058 A 
ENDROOT
TORSDOF 0
ENDMDL
