MODEL 1
REMARK minimizedAffinity -2.90491891
REMARK minimizedRMSD -1
REMARK  0 active torsions:
REMARK  status: ('A' for Active; 'I' for Inactive)
ROOT
ATOM      1  O1  BZF d   1       0.357   0.521  -0.618  0.00  0.00    -0.204 OA
ATOM      2  C2  BZF d   1      -0.690  -0.156  -1.213  0.00  0.00     0.174 A 
ATOM      3  C3  BZF d   1      -1.693  -0.353  -0.333  0.00  0.00    -0.012 A 
ATOM      4  C3A BZF d   1      -1.283   0.319   0.862  0.00  0.00    -0.107 A 
ATOM      5  C4  BZF d   1      -1.862   0.495   2.086  0.00  0.00     0.055 A 
ATOM      6  C5  BZF d   1      -1.167   1.139   3.060  0.00  0.00    -0.016 A 
ATOM      7  C6  BZF d   1       0.111   1.614   2.846  0.00  0.00     0.022 A 
ATOM      8  C7  BZF d   1       0.725   1.468   1.647  0.00  0.00     0.029 A 
ATOM      9  C7A BZF d   1       0.012   0.847   0.651  0.00  0.00     0.058 A 
ENDROOT
TORSDOF 0
ENDMDL
