MODEL 1
REMARK minimizedAffinity -3.90645957
REMARK minimizedRMSD -1
REMARK  0 active torsions:
REMARK  status: ('A' for Active; 'I' for Inactive)
ROOT
ATOM      1  O1  BZF d   1      -1.354  -0.722  -0.191  0.00  0.00    -0.204 OA
ATOM      2  C2  BZF d   1      -0.312  -0.774  -1.097  0.00  0.00     0.174 A 
ATOM      3  C3  BZF d   1       0.755  -0.090  -0.637  0.00  0.00    -0.012 A 
ATOM      4  C3A BZF d   1       0.387   0.344   0.676  0.00  0.00    -0.107 A 
ATOM      5  C4  BZF d   1       1.035   1.055   1.646  0.00  0.00     0.055 A 
ATOM      6  C5  BZF d   1       0.369   1.372   2.787  0.00  0.00    -0.016 A 
ATOM      7  C6  BZF d   1      -0.943   0.999   2.990  0.00  0.00     0.022 A 
ATOM      8  C7  BZF d   1      -1.625   0.288   2.059  0.00  0.00     0.029 A 
ATOM      9  C7A BZF d   1      -0.945  -0.062   0.919  0.00  0.00     0.058 A 
ENDROOT
TORSDOF 0
ENDMDL
