MODEL 1
REMARK minimizedAffinity -3.97467566
REMARK minimizedRMSD -1
REMARK  0 active torsions:
REMARK  status: ('A' for Active; 'I' for Inactive)
ROOT
ATOM      1  O1  BZF d   1       0.178   0.377   2.656  0.00  0.00    -0.204 OA
ATOM      2  C2  BZF d   1      -0.865   1.113   3.183  0.00  0.00     0.174 A 
ATOM      3  C3  BZF d   1      -1.615   1.651   2.200  0.00  0.00    -0.012 A 
ATOM      4  C3A BZF d   1      -1.056   1.150   0.982  0.00  0.00    -0.107 A 
ATOM      5  C4  BZF d   1      -1.376   1.314  -0.335  0.00  0.00     0.055 A 
ATOM      6  C5  BZF d   1      -0.585   0.746  -1.283  0.00  0.00    -0.016 A 
ATOM      7  C6  BZF d   1       0.535   0.011  -0.949  0.00  0.00     0.022 A 
ATOM      8  C7  BZF d   1       0.889  -0.184   0.345  0.00  0.00     0.029 A 
ATOM      9  C7A BZF d   1       0.073   0.362   1.305  0.00  0.00     0.058 A 
ENDROOT
TORSDOF 0
ENDMDL
