MODEL 1
REMARK minimizedAffinity -2.35032964
REMARK minimizedRMSD -1
REMARK  0 active torsions:
REMARK  status: ('A' for Active; 'I' for Inactive)
ROOT
ATOM      1  O1  BZF d   1       0.473  -1.266  -2.049  0.00  0.00    -0.204 OA
ATOM      2  C2  BZF d   1       1.111  -0.330  -2.839  0.00  0.00     0.174 A 
ATOM      3  C3  BZF d   1       0.995   0.904  -2.307  0.00  0.00    -0.012 A 
ATOM      4  C3A BZF d   1       0.315   0.715  -1.063  0.00  0.00    -0.107 A 
ATOM      5  C4  BZF d   1      -0.079   1.566  -0.069  0.00  0.00     0.055 A 
ATOM      6  C5  BZF d   1      -0.787   1.072   0.980  0.00  0.00    -0.016 A 
ATOM      7  C6  BZF d   1      -1.123  -0.263   1.066  0.00  0.00     0.022 A 
ATOM      8  C7  BZF d   1      -0.750  -1.146   0.108  0.00  0.00     0.029 A 
ATOM      9  C7A BZF d   1      -0.006  -0.656  -0.938  0.00  0.00     0.058 A 
ENDROOT
TORSDOF 0
ENDMDL
