MODEL 1
REMARK minimizedAffinity -3.89551759
REMARK minimizedRMSD -1
REMARK  0 active torsions:
REMARK  status: ('A' for Active; 'I' for Inactive)
ROOT
ATOM      1  O1  BZF d   1       1.085   0.894  -0.489  0.00  0.00    -0.204 OA
ATOM      2  C2  BZF d   1       0.815   0.204  -1.655  0.00  0.00     0.174 A 
ATOM      3  C3  BZF d   1      -0.287  -0.561  -1.514  0.00  0.00    -0.012 A 
ATOM      4  C3A BZF d   1      -0.785  -0.265  -0.206  0.00  0.00    -0.107 A 
ATOM      5  C4  BZF d   1      -1.865  -0.699   0.508  0.00  0.00     0.055 A 
ATOM      6  C5  BZF d   1      -2.028  -0.271   1.787  0.00  0.00    -0.016 A 
ATOM      7  C6  BZF d   1      -1.128   0.587   2.385  0.00  0.00     0.022 A 
ATOM      8  C7  BZF d   1      -0.044   1.049   1.716  0.00  0.00     0.029 A 
ATOM      9  C7A BZF d   1       0.105   0.643   0.412  0.00  0.00     0.058 A 
ENDROOT
TORSDOF 0
ENDMDL
