MODEL 1
REMARK minimizedAffinity -4.35449696
REMARK minimizedRMSD -1
REMARK  0 active torsions:
REMARK  status: ('A' for Active; 'I' for Inactive)
ROOT
ATOM      1  O1  BZF d   1       1.413  -0.931   1.302  0.00  0.00    -0.204 OA
ATOM      2  C2  BZF d   1       1.641  -1.360   0.009  0.00  0.00     0.174 A 
ATOM      3  C3  BZF d   1       0.577  -1.099  -0.777  0.00  0.00    -0.012 A 
ATOM      4  C3A BZF d   1      -0.340  -0.383   0.057  0.00  0.00    -0.107 A 
ATOM      5  C4  BZF d   1      -1.573   0.164  -0.156  0.00  0.00     0.055 A 
ATOM      6  C5  BZF d   1      -2.233   0.731   0.887  0.00  0.00    -0.016 A 
ATOM      7  C6  BZF d   1      -1.693   0.765   2.156  0.00  0.00     0.022 A 
ATOM      8  C7  BZF d   1      -0.471   0.240   2.416  0.00  0.00     0.029 A 
ATOM      9  C7A BZF d   1       0.213  -0.305   1.356  0.00  0.00     0.058 A 
ENDROOT
TORSDOF 0
ENDMDL
