MODEL 1
REMARK minimizedAffinity -3.68087959
REMARK minimizedRMSD -1
REMARK  0 active torsions:
REMARK  status: ('A' for Active; 'I' for Inactive)
ROOT
ATOM      1  O1  BZF d   1       0.658   1.033  -0.140  0.00  0.00    -0.204 OA
ATOM      2  C2  BZF d   1       0.208   0.231  -1.171  0.00  0.00     0.174 A 
ATOM      3  C3  BZF d   1      -0.912  -0.428  -0.811  0.00  0.00    -0.012 A 
ATOM      4  C3A BZF d   1      -1.231   0.059   0.496  0.00  0.00    -0.107 A 
ATOM      5  C4  BZF d   1      -2.242  -0.205   1.375  0.00  0.00     0.055 A 
ATOM      6  C5  BZF d   1      -2.224   0.384   2.599  0.00  0.00    -0.016 A 
ATOM      7  C6  BZF d   1      -1.209   1.238   2.979  0.00  0.00     0.022 A 
ATOM      8  C7  BZF d   1      -0.187   1.534   2.139  0.00  0.00     0.029 A 
ATOM      9  C7A BZF d   1      -0.220   0.966   0.889  0.00  0.00     0.058 A 
ENDROOT
TORSDOF 0
ENDMDL
