MODEL 1
REMARK minimizedAffinity -5.18389702
REMARK minimizedRMSD -1
REMARK  0 active torsions:
REMARK  status: ('A' for Active; 'I' for Inactive)
ROOT
ATOM      1  O1  BZF d   1      -1.261   1.774  -0.966  0.00  0.00    -0.204 OA
ATOM      2  C2  BZF d   1      -1.387   0.970   0.151  0.00  0.00     0.174 A 
ATOM      3  C3  BZF d   1      -0.684  -0.172  -0.001  0.00  0.00    -0.012 A 
ATOM      4  C3A BZF d   1      -0.008  -0.034  -1.254  0.00  0.00    -0.107 A 
ATOM      5  C4  BZF d   1       0.855  -0.833  -1.949  0.00  0.00     0.055 A 
ATOM      6  C5  BZF d   1       1.277  -0.438  -3.178  0.00  0.00    -0.016 A 
ATOM      7  C6  BZF d   1       0.853   0.746  -3.745  0.00  0.00     0.022 A 
ATOM      8  C7  BZF d   1       0.002   1.575  -3.093  0.00  0.00     0.029 A 
ATOM      9  C7A BZF d   1      -0.401   1.194  -1.836  0.00  0.00     0.058 A 
ENDROOT
TORSDOF 0
ENDMDL
