MODEL 1
REMARK minimizedAffinity -4.02830553
REMARK minimizedRMSD -1
REMARK  0 active torsions:
REMARK  status: ('A' for Active; 'I' for Inactive)
ROOT
ATOM      1  O1  BZF d   1       0.454  -1.475  -0.353  0.00  0.00    -0.204 OA
ATOM      2  C2  BZF d   1       1.579  -1.656   0.429  0.00  0.00     0.174 A 
ATOM      3  C3  BZF d   1       1.445  -1.026   1.614  0.00  0.00    -0.012 A 
ATOM      4  C3A BZF d   1       0.119  -0.489   1.606  0.00  0.00    -0.107 A 
ATOM      5  C4  BZF d   1      -0.608   0.230   2.512  0.00  0.00     0.055 A 
ATOM      6  C5  BZF d   1      -1.850   0.663   2.168  0.00  0.00    -0.016 A 
ATOM      7  C6  BZF d   1      -2.392   0.399   0.927  0.00  0.00     0.022 A 
ATOM      8  C7  BZF d   1      -1.711  -0.314  -0.002  0.00  0.00     0.029 A 
ATOM      9  C7A BZF d   1      -0.470  -0.781   0.354  0.00  0.00     0.058 A 
ENDROOT
TORSDOF 0
ENDMDL
