MODEL 1
REMARK minimizedAffinity -4.2378602
REMARK minimizedRMSD -1
REMARK  0 active torsions:
REMARK  status: ('A' for Active; 'I' for Inactive)
ROOT
ATOM      1  O1  BZF d   1       1.476  -0.922   1.634  0.00  0.00    -0.204 OA
ATOM      2  C2  BZF d   1       1.714  -0.693   2.976  0.00  0.00     0.174 A 
ATOM      3  C3  BZF d   1       0.716   0.031   3.522  0.00  0.00    -0.012 A 
ATOM      4  C3A BZF d   1      -0.248   0.192   2.477  0.00  0.00    -0.107 A 
ATOM      5  C4  BZF d   1      -1.466   0.807   2.409  0.00  0.00     0.055 A 
ATOM      6  C5  BZF d   1      -2.120   0.846   1.219  0.00  0.00    -0.016 A 
ATOM      7  C6  BZF d   1      -1.586   0.286   0.077  0.00  0.00     0.022 A 
ATOM      8  C7  BZF d   1      -0.383  -0.339   0.096  0.00  0.00     0.029 A 
ATOM      9  C7A BZF d   1       0.266  -0.409   1.305  0.00  0.00     0.058 A 
ENDROOT
TORSDOF 0
ENDMDL
