MODEL 1
REMARK minimizedAffinity 25.8134193
REMARK minimizedRMSD -1
REMARK  0 active torsions:
REMARK  status: ('A' for Active; 'I' for Inactive)
ROOT
ATOM      1  C   UNL d   1      -1.251  -3.081  -4.820  0.00  0.00     0.124 A 
ATOM      2  C1  UNL d   1      -0.889  -4.313  -4.294  0.00  0.00     0.062 A 
ATOM      3  C2  UNL d   1      -1.528  -4.805  -3.160  0.00  0.00     0.162 A 
ATOM      4  C3  UNL d   1      -2.538  -4.065  -2.545  0.00  0.00    -0.034 A 
ATOM      5  C4  UNL d   1      -2.896  -2.826  -3.079  0.00  0.00     0.162 A 
ATOM      6  C5  UNL d   1      -2.254  -2.339  -4.212  0.00  0.00     0.062 A 
ATOM      7  F   UNL d   1      -2.605  -1.148  -4.719  0.00  0.00    -0.097 F 
ATOM      8  F1  UNL d   1      -3.863  -2.089  -2.512  0.00  0.00    -0.096 F 
ATOM      9  I   UNL d   1      -3.497  -4.798  -0.849  0.00  0.00    -0.060 I 
ATOM     10  F2  UNL d   1      -1.158  -5.999  -2.673  0.00  0.00    -0.096 F 
ATOM     11  F3  UNL d   1       0.081  -5.031  -4.879  0.00  0.00    -0.097 F 
ATOM     12  F4  UNL d   1      -0.633  -2.609  -5.910  0.00  0.00    -0.092 F 
ENDROOT
TORSDOF 0
ENDMDL
