MODEL 1
REMARK minimizedAffinity 20.0680542
REMARK minimizedRMSD -1
REMARK  0 active torsions:
REMARK  status: ('A' for Active; 'I' for Inactive)
ROOT
ATOM      1  C   UNL d   1       1.848   3.512   0.694  0.00  0.00     0.124 A 
ATOM      2  C1  UNL d   1       0.689   3.657   1.444  0.00  0.00     0.062 A 
ATOM      3  C2  UNL d   1       0.158   2.568   2.129  0.00  0.00     0.162 A 
ATOM      4  C3  UNL d   1       0.786   1.324   2.068  0.00  0.00    -0.034 A 
ATOM      5  C4  UNL d   1       1.951   1.186   1.310  0.00  0.00     0.162 A 
ATOM      6  C5  UNL d   1       2.478   2.277   0.628  0.00  0.00     0.062 A 
ATOM      7  F   UNL d   1       3.597   2.135  -0.097  0.00  0.00    -0.097 F 
ATOM      8  F1  UNL d   1       2.580   0.004   1.230  0.00  0.00    -0.096 F 
ATOM      9  I   UNL d   1      -0.005  -0.307   3.090  0.00  0.00    -0.060 I 
ATOM     10  F2  UNL d   1      -0.963   2.737   2.846  0.00  0.00    -0.096 F 
ATOM     11  F3  UNL d   1       0.079   4.849   1.508  0.00  0.00    -0.097 F 
ATOM     12  F4  UNL d   1       2.357   4.561   0.035  0.00  0.00    -0.092 F 
ENDROOT
TORSDOF 0
ENDMDL
