MODEL 1
REMARK minimizedAffinity 15.1019812
REMARK minimizedRMSD -1
REMARK  0 active torsions:
REMARK  status: ('A' for Active; 'I' for Inactive)
ROOT
ATOM      1  C   UNL d   1      -3.618  -2.951  -2.410  0.00  0.00     0.124 A 
ATOM      2  C1  UNL d   1      -4.187  -2.782  -1.155  0.00  0.00     0.062 A 
ATOM      3  C2  UNL d   1      -3.377  -2.679  -0.027  0.00  0.00     0.162 A 
ATOM      4  C3  UNL d   1      -1.989  -2.745  -0.150  0.00  0.00    -0.034 A 
ATOM      5  C4  UNL d   1      -1.424  -2.916  -1.415  0.00  0.00     0.162 A 
ATOM      6  C5  UNL d   1      -2.238  -3.018  -2.539  0.00  0.00     0.062 A 
ATOM      7  F   UNL d   1      -1.687  -3.182  -3.750  0.00  0.00    -0.097 F 
ATOM      8  F1  UNL d   1      -0.094  -2.983  -1.568  0.00  0.00    -0.096 F 
ATOM      9  I   UNL d   1      -0.774  -2.591   1.533  0.00  0.00    -0.060 I 
ATOM     10  F2  UNL d   1      -3.953  -2.516   1.173  0.00  0.00    -0.096 F 
ATOM     11  F3  UNL d   1      -5.520  -2.718  -1.027  0.00  0.00    -0.097 F 
ATOM     12  F4  UNL d   1      -4.400  -3.051  -3.492  0.00  0.00    -0.092 F 
ENDROOT
TORSDOF 0
ENDMDL
