MODEL 1
REMARK minimizedAffinity 18.5724983
REMARK minimizedRMSD -1
REMARK  0 active torsions:
REMARK  status: ('A' for Active; 'I' for Inactive)
ROOT
ATOM      1  C   UNL d   1      -2.190  -2.761  -1.662  0.00  0.00     0.124 A 
ATOM      2  C1  UNL d   1      -3.528  -2.504  -1.398  0.00  0.00     0.062 A 
ATOM      3  C2  UNL d   1      -4.504  -3.426  -1.764  0.00  0.00     0.162 A 
ATOM      4  C3  UNL d   1      -4.146  -4.615  -2.399  0.00  0.00    -0.034 A 
ATOM      5  C4  UNL d   1      -2.798  -4.866  -2.663  0.00  0.00     0.162 A 
ATOM      6  C5  UNL d   1      -1.826  -3.942  -2.294  0.00  0.00     0.062 A 
ATOM      7  F   UNL d   1      -0.534  -4.192  -2.551  0.00  0.00    -0.097 F 
ATOM      8  F1  UNL d   1      -2.418  -6.000  -3.271  0.00  0.00    -0.096 F 
ATOM      9  I   UNL d   1      -5.602  -5.997  -2.948  0.00  0.00    -0.060 I 
ATOM     10  F2  UNL d   1      -5.789  -3.151  -1.496  0.00  0.00    -0.096 F 
ATOM     11  F3  UNL d   1      -3.882  -1.363  -0.788  0.00  0.00    -0.097 F 
ATOM     12  F4  UNL d   1      -1.253  -1.871  -1.310  0.00  0.00    -0.092 F 
ENDROOT
TORSDOF 0
ENDMDL
