MODEL 1
REMARK minimizedAffinity 6.75743294
REMARK minimizedRMSD -1
REMARK  0 active torsions:
REMARK  status: ('A' for Active; 'I' for Inactive)
ROOT
ATOM      1  C   UNL d   1       4.868   0.895   0.712  0.00  0.00     0.124 A 
ATOM      2  C1  UNL d   1       4.862   2.251   0.419  0.00  0.00     0.062 A 
ATOM      3  C2  UNL d   1       3.687   2.988   0.535  0.00  0.00     0.162 A 
ATOM      4  C3  UNL d   1       2.507   2.369   0.949  0.00  0.00    -0.034 A 
ATOM      5  C4  UNL d   1       2.520   1.004   1.242  0.00  0.00     0.162 A 
ATOM      6  C5  UNL d   1       3.698   0.273   1.123  0.00  0.00     0.062 A 
ATOM      7  F   UNL d   1       3.701  -1.038   1.408  0.00  0.00    -0.097 F 
ATOM      8  F1  UNL d   1       1.404   0.378   1.642  0.00  0.00    -0.096 F 
ATOM      9  I   UNL d   1       0.747   3.467   1.125  0.00  0.00    -0.060 I 
ATOM     10  F2  UNL d   1       3.710   4.297   0.245  0.00  0.00    -0.096 F 
ATOM     11  F3  UNL d   1       5.991   2.854   0.020  0.00  0.00    -0.097 F 
ATOM     12  F4  UNL d   1       6.000   0.188   0.598  0.00  0.00    -0.092 F 
ENDROOT
TORSDOF 0
ENDMDL
