MODEL 1
REMARK minimizedAffinity 11.9475555
REMARK minimizedRMSD -1
REMARK  0 active torsions:
REMARK  status: ('A' for Active; 'I' for Inactive)
ROOT
ATOM      1  C   UNL d   1       3.526   0.273   1.491  0.00  0.00     0.124 A 
ATOM      2  C1  UNL d   1       2.384   0.840   0.943  0.00  0.00     0.062 A 
ATOM      3  C2  UNL d   1       2.453   1.520  -0.269  0.00  0.00     0.162 A 
ATOM      4  C3  UNL d   1       3.669   1.638  -0.943  0.00  0.00    -0.034 A 
ATOM      5  C4  UNL d   1       4.814   1.066  -0.385  0.00  0.00     0.162 A 
ATOM      6  C5  UNL d   1       4.740   0.387   0.827  0.00  0.00     0.062 A 
ATOM      7  F   UNL d   1       5.844  -0.160   1.355  0.00  0.00    -0.097 F 
ATOM      8  F1  UNL d   1       5.999   1.160  -1.005  0.00  0.00    -0.096 F 
ATOM      9  I   UNL d   1       3.776   2.655  -2.755  0.00  0.00    -0.060 I 
ATOM     10  F2  UNL d   1       1.333   2.058  -0.776  0.00  0.00    -0.096 F 
ATOM     11  F3  UNL d   1       1.210   0.732   1.582  0.00  0.00    -0.097 F 
ATOM     12  F4  UNL d   1       3.457  -0.381   2.658  0.00  0.00    -0.092 F 
ENDROOT
TORSDOF 0
ENDMDL
