MODEL 1
REMARK minimizedAffinity 24.3964672
REMARK minimizedRMSD -1
REMARK  0 active torsions:
REMARK  status: ('A' for Active; 'I' for Inactive)
ROOT
ATOM      1  C   UNL d   1       4.549   0.328   0.227  0.00  0.00     0.124 A 
ATOM      2  C1  UNL d   1       4.545  -0.525   1.322  0.00  0.00     0.062 A 
ATOM      3  C2  UNL d   1       3.414  -0.625   2.127  0.00  0.00     0.162 A 
ATOM      4  C3  UNL d   1       2.277   0.131   1.841  0.00  0.00    -0.034 A 
ATOM      5  C4  UNL d   1       2.290   0.988   0.739  0.00  0.00     0.162 A 
ATOM      6  C5  UNL d   1       3.422   1.084  -0.063  0.00  0.00     0.062 A 
ATOM      7  F   UNL d   1       3.424   1.909  -1.120  0.00  0.00    -0.097 F 
ATOM      8  F1  UNL d   1       1.214   1.729   0.435  0.00  0.00    -0.096 F 
ATOM      9  I   UNL d   1       0.585  -0.015   3.043  0.00  0.00    -0.060 I 
ATOM     10  F2  UNL d   1       3.438  -1.458   3.178  0.00  0.00    -0.096 F 
ATOM     11  F3  UNL d   1       5.633  -1.256   1.604  0.00  0.00    -0.097 F 
ATOM     12  F4  UNL d   1       5.639   0.423  -0.546  0.00  0.00    -0.092 F 
ENDROOT
TORSDOF 0
ENDMDL
