MODEL 1
REMARK minimizedAffinity 17.2798824
REMARK minimizedRMSD -1
REMARK  0 active torsions:
REMARK  status: ('A' for Active; 'I' for Inactive)
ROOT
ATOM      1  C   UNL d   1      -2.617  -3.914  -2.477  0.00  0.00     0.124 A 
ATOM      2  C1  UNL d   1      -2.744  -2.569  -2.795  0.00  0.00     0.062 A 
ATOM      3  C2  UNL d   1      -1.949  -2.007  -3.790  0.00  0.00     0.162 A 
ATOM      4  C3  UNL d   1      -1.021  -2.791  -4.476  0.00  0.00    -0.034 A 
ATOM      5  C4  UNL d   1      -0.899  -4.143  -4.150  0.00  0.00     0.162 A 
ATOM      6  C5  UNL d   1      -1.695  -4.700  -3.154  0.00  0.00     0.062 A 
ATOM      7  F   UNL d   1      -1.572  -5.999  -2.848  0.00  0.00    -0.097 F 
ATOM      8  F1  UNL d   1      -0.017  -4.925  -4.789  0.00  0.00    -0.096 F 
ATOM      9  I   UNL d   1       0.169  -1.955  -5.965  0.00  0.00    -0.060 I 
ATOM     10  F2  UNL d   1      -2.093  -0.705  -4.077  0.00  0.00    -0.096 F 
ATOM     11  F3  UNL d   1      -3.633  -1.808  -2.141  0.00  0.00    -0.097 F 
ATOM     12  F4  UNL d   1      -3.382  -4.452  -1.518  0.00  0.00    -0.092 F 
ENDROOT
TORSDOF 0
ENDMDL
