MODEL 1
REMARK minimizedAffinity 26.0544052
REMARK minimizedRMSD -1
REMARK  0 active torsions:
REMARK  status: ('A' for Active; 'I' for Inactive)
ROOT
ATOM      1  C   UNL d   1      -2.504  -2.178  -1.823  0.00  0.00     0.124 A 
ATOM      2  C1  UNL d   1      -3.401  -3.132  -2.283  0.00  0.00     0.062 A 
ATOM      3  C2  UNL d   1      -3.735  -4.221  -1.484  0.00  0.00     0.162 A 
ATOM      4  C3  UNL d   1      -3.172  -4.363  -0.215  0.00  0.00    -0.034 A 
ATOM      5  C4  UNL d   1      -2.270  -3.400   0.240  0.00  0.00     0.162 A 
ATOM      6  C5  UNL d   1      -1.939  -2.313  -0.562  0.00  0.00     0.062 A 
ATOM      7  F   UNL d   1      -1.072  -1.392  -0.116  0.00  0.00    -0.097 F 
ATOM      8  F1  UNL d   1      -1.710  -3.505   1.455  0.00  0.00    -0.096 F 
ATOM      9  I   UNL d   1      -3.669  -5.991   0.982  0.00  0.00    -0.060 I 
ATOM     10  F2  UNL d   1      -4.605  -5.128  -1.954  0.00  0.00    -0.096 F 
ATOM     11  F3  UNL d   1      -3.947  -3.004  -3.501  0.00  0.00    -0.097 F 
ATOM     12  F4  UNL d   1      -2.183  -1.131  -2.594  0.00  0.00    -0.092 F 
ENDROOT
TORSDOF 0
ENDMDL
