MODEL 1
REMARK minimizedAffinity 20.1684742
REMARK minimizedRMSD -1
REMARK  0 active torsions:
REMARK  status: ('A' for Active; 'I' for Inactive)
ROOT
ATOM      1  C   UNL d   1      -2.032   1.257   1.874  0.00  0.00     0.124 A 
ATOM      2  C1  UNL d   1      -2.396  -0.022   2.269  0.00  0.00     0.062 A 
ATOM      3  C2  UNL d   1      -3.456  -0.207   3.153  0.00  0.00     0.162 A 
ATOM      4  C3  UNL d   1      -4.160   0.891   3.646  0.00  0.00    -0.034 A 
ATOM      5  C4  UNL d   1      -3.787   2.175   3.245  0.00  0.00     0.162 A 
ATOM      6  C5  UNL d   1      -2.727   2.354   2.362  0.00  0.00     0.062 A 
ATOM      7  F   UNL d   1      -2.377   3.591   1.981  0.00  0.00    -0.097 F 
ATOM      8  F1  UNL d   1      -4.443   3.253   3.700  0.00  0.00    -0.096 F 
ATOM      9  I   UNL d   1      -5.745   0.620   4.968  0.00  0.00    -0.060 I 
ATOM     10  F2  UNL d   1      -3.786  -1.455   3.518  0.00  0.00    -0.096 F 
ATOM     11  F3  UNL d   1      -1.725  -1.084   1.800  0.00  0.00    -0.097 F 
ATOM     12  F4  UNL d   1      -1.011   1.432   1.025  0.00  0.00    -0.092 F 
ENDROOT
TORSDOF 0
ENDMDL
