MODEL 1
REMARK minimizedAffinity 24.3129063
REMARK minimizedRMSD -1
REMARK  0 active torsions:
REMARK  status: ('A' for Active; 'I' for Inactive)
ROOT
ATOM      1  C   UNL d   1       0.936  -4.063  -3.888  0.00  0.00     0.124 A 
ATOM      2  C1  UNL d   1       0.553  -4.314  -2.578  0.00  0.00     0.062 A 
ATOM      3  C2  UNL d   1      -0.679  -3.866  -2.110  0.00  0.00     0.162 A 
ATOM      4  C3  UNL d   1      -1.539  -3.164  -2.954  0.00  0.00    -0.034 A 
ATOM      5  C4  UNL d   1      -1.148  -2.915  -4.271  0.00  0.00     0.162 A 
ATOM      6  C5  UNL d   1       0.085  -3.364  -4.733  0.00  0.00     0.062 A 
ATOM      7  F   UNL d   1       0.452  -3.121  -6.000  0.00  0.00    -0.097 F 
ATOM      8  F1  UNL d   1      -1.951  -2.243  -5.109  0.00  0.00    -0.096 F 
ATOM      9  I   UNL d   1      -3.383  -2.494  -2.259  0.00  0.00    -0.060 I 
ATOM     10  F2  UNL d   1      -1.022  -4.123  -0.839  0.00  0.00    -0.096 F 
ATOM     11  F3  UNL d   1       1.374  -4.987  -1.759  0.00  0.00    -0.097 F 
ATOM     12  F4  UNL d   1       2.122  -4.493  -4.335  0.00  0.00    -0.092 F 
ENDROOT
TORSDOF 0
ENDMDL
