MODEL 1
REMARK minimizedAffinity 8.77409935
REMARK minimizedRMSD -1
REMARK  0 active torsions:
REMARK  status: ('A' for Active; 'I' for Inactive)
ROOT
ATOM      1  C   UNL d   1      -2.385   1.504   2.413  0.00  0.00     0.124 A 
ATOM      2  C1  UNL d   1      -2.165   0.207   2.854  0.00  0.00     0.062 A 
ATOM      3  C2  UNL d   1      -0.866  -0.277   2.984  0.00  0.00     0.162 A 
ATOM      4  C3  UNL d   1       0.223   0.536   2.672  0.00  0.00    -0.034 A 
ATOM      5  C4  UNL d   1      -0.007   1.840   2.228  0.00  0.00     0.162 A 
ATOM      6  C5  UNL d   1      -1.306   2.319   2.100  0.00  0.00     0.062 A 
ATOM      7  F   UNL d   1      -1.517   3.573   1.674  0.00  0.00    -0.097 F 
ATOM      8  F1  UNL d   1       1.018   2.649   1.920  0.00  0.00    -0.096 F 
ATOM      9  I   UNL d   1       2.166  -0.184   2.864  0.00  0.00    -0.060 I 
ATOM     10  F2  UNL d   1      -0.683  -1.535   3.412  0.00  0.00    -0.096 F 
ATOM     11  F3  UNL d   1      -3.205  -0.583   3.156  0.00  0.00    -0.097 F 
ATOM     12  F4  UNL d   1      -3.635   1.968   2.289  0.00  0.00    -0.092 F 
ENDROOT
TORSDOF 0
ENDMDL
