MODEL 1
REMARK minimizedAffinity 8.44635582
REMARK minimizedRMSD -1
REMARK  0 active torsions:
REMARK  status: ('A' for Active; 'I' for Inactive)
ROOT
ATOM      1  C   UNL d   1      -1.551   1.478   2.123  0.00  0.00     0.124 A 
ATOM      2  C1  UNL d   1      -1.351   0.131   2.389  0.00  0.00     0.062 A 
ATOM      3  C2  UNL d   1      -0.062  -0.361   2.579  0.00  0.00     0.162 A 
ATOM      4  C3  UNL d   1       1.036   0.495   2.504  0.00  0.00    -0.034 A 
ATOM      5  C4  UNL d   1       0.827   1.849   2.235  0.00  0.00     0.162 A 
ATOM      6  C5  UNL d   1      -0.463   2.336   2.047  0.00  0.00     0.062 A 
ATOM      7  F   UNL d   1      -0.655   3.638   1.790  0.00  0.00    -0.097 F 
ATOM      8  F1  UNL d   1       1.860   2.700   2.157  0.00  0.00    -0.096 F 
ATOM      9  I   UNL d   1       2.964  -0.236   2.787  0.00  0.00    -0.060 I 
ATOM     10  F2  UNL d   1       0.102  -1.668   2.834  0.00  0.00    -0.096 F 
ATOM     11  F3  UNL d   1      -2.400  -0.700   2.463  0.00  0.00    -0.097 F 
ATOM     12  F4  UNL d   1      -2.792   1.949   1.940  0.00  0.00    -0.092 F 
ENDROOT
TORSDOF 0
ENDMDL
