MODEL 1
REMARK minimizedAffinity 16.9023094
REMARK minimizedRMSD -1
REMARK  0 active torsions:
REMARK  status: ('A' for Active; 'I' for Inactive)
ROOT
ATOM      1  O1  BZF d   1       2.239   2.243  -0.746  0.00  0.00    -0.204 OA
ATOM      2  C2  BZF d   1       2.259   0.880  -0.966  0.00  0.00     0.174 A 
ATOM      3  C3  BZF d   1       3.448   0.493  -1.470  0.00  0.00    -0.012 A 
ATOM      4  C3A BZF d   1       4.253   1.676  -1.485  0.00  0.00    -0.107 A 
ATOM      5  C4  BZF d   1       5.541   1.931  -1.862  0.00  0.00     0.055 A 
ATOM      6  C5  BZF d   1       6.000   3.210  -1.820  0.00  0.00    -0.016 A 
ATOM      7  C6  BZF d   1       5.199   4.256  -1.412  0.00  0.00     0.022 A 
ATOM      8  C7  BZF d   1       3.917   4.052  -1.024  0.00  0.00     0.029 A 
ATOM      9  C7A BZF d   1       3.460   2.756  -1.033  0.00  0.00     0.058 A 
ENDROOT
TORSDOF 0
ENDMDL
