MODEL 1
REMARK minimizedAffinity 11.6202183
REMARK minimizedRMSD -1
REMARK  0 active torsions:
REMARK  status: ('A' for Active; 'I' for Inactive)
ROOT
ATOM      1  O1  BZF d   1       2.754   1.691   3.567  0.00  0.00    -0.204 OA
ATOM      2  C2  BZF d   1       2.176   2.944   3.650  0.00  0.00     0.174 A 
ATOM      3  C3  BZF d   1       1.694   3.329   2.451  0.00  0.00    -0.012 A 
ATOM      4  C3A BZF d   1       1.907   2.212   1.583  0.00  0.00    -0.107 A 
ATOM      5  C4  BZF d   1       1.626   1.979   0.267  0.00  0.00     0.055 A 
ATOM      6  C5  BZF d   1       2.030   0.810  -0.297  0.00  0.00    -0.016 A 
ATOM      7  C6  BZF d   1       2.721  -0.143   0.422  0.00  0.00     0.022 A 
ATOM      8  C7  BZF d   1       3.018   0.042   1.731  0.00  0.00     0.029 A 
ATOM      9  C7A BZF d   1       2.582   1.207   2.313  0.00  0.00     0.058 A 
ENDROOT
TORSDOF 0
ENDMDL
