MODEL 1
REMARK minimizedAffinity 4.62038517
REMARK minimizedRMSD -1
REMARK  0 active torsions:
REMARK  status: ('A' for Active; 'I' for Inactive)
ROOT
ATOM      1  O1  BZF d   1      -0.292   0.757   3.807  0.00  0.00    -0.204 OA
ATOM      2  C2  BZF d   1       0.772  -0.122   3.871  0.00  0.00     0.174 A 
ATOM      3  C3  BZF d   1       1.547  -0.016   2.772  0.00  0.00    -0.012 A 
ATOM      4  C3A BZF d   1       0.979   1.056   2.013  0.00  0.00    -0.107 A 
ATOM      5  C4  BZF d   1       1.313   1.647   0.828  0.00  0.00     0.055 A 
ATOM      6  C5  BZF d   1       0.510   2.621   0.327  0.00  0.00    -0.016 A 
ATOM      7  C6  BZF d   1      -0.636   3.025   0.980  0.00  0.00     0.022 A 
ATOM      8  C7  BZF d   1      -1.005   2.472   2.161  0.00  0.00     0.029 A 
ATOM      9  C7A BZF d   1      -0.178   1.510   2.687  0.00  0.00     0.058 A 
ENDROOT
TORSDOF 0
ENDMDL
