MODEL 1
REMARK minimizedAffinity 10.7663174
REMARK minimizedRMSD -1
REMARK  0 active torsions:
REMARK  status: ('A' for Active; 'I' for Inactive)
ROOT
ATOM      1  O1  BZF d   1       1.078   0.650   2.298  0.00  0.00    -0.204 OA
ATOM      2  C2  BZF d   1       0.291   0.659   3.433  0.00  0.00     0.174 A 
ATOM      3  C3  BZF d   1      -0.642   1.630   3.361  0.00  0.00    -0.012 A 
ATOM      4  C3A BZF d   1      -0.483   2.209   2.061  0.00  0.00    -0.107 A 
ATOM      5  C4  BZF d   1      -1.130   3.209   1.394  0.00  0.00     0.055 A 
ATOM      6  C5  BZF d   1      -0.682   3.580   0.166  0.00  0.00    -0.016 A 
ATOM      7  C6  BZF d   1       0.411   2.977  -0.422  0.00  0.00     0.022 A 
ATOM      8  C7  BZF d   1       1.081   1.976   0.200  0.00  0.00     0.029 A 
ATOM      9  C7A BZF d   1       0.611   1.577   1.427  0.00  0.00     0.058 A 
ENDROOT
TORSDOF 0
ENDMDL
