MODEL 1
REMARK minimizedAffinity 6.09052706
REMARK minimizedRMSD -1
REMARK  0 active torsions:
REMARK  status: ('A' for Active; 'I' for Inactive)
ROOT
ATOM      1  O1  BZF d   1      -1.633   1.306   2.569  0.00  0.00    -0.204 OA
ATOM      2  C2  BZF d   1      -1.039   0.525   3.542  0.00  0.00     0.174 A 
ATOM      3  C3  BZF d   1       0.239   0.244   3.216  0.00  0.00    -0.012 A 
ATOM      4  C3A BZF d   1       0.487   0.967   2.007  0.00  0.00    -0.107 A 
ATOM      5  C4  BZF d   1       1.581   1.102   1.201  0.00  0.00     0.055 A 
ATOM      6  C5  BZF d   1       1.472   1.822   0.054  0.00  0.00    -0.016 A 
ATOM      7  C6  BZF d   1       0.284   2.415  -0.321  0.00  0.00     0.022 A 
ATOM      8  C7  BZF d   1      -0.827   2.312   0.448  0.00  0.00     0.029 A 
ATOM      9  C7A BZF d   1      -0.711   1.613   1.624  0.00  0.00     0.058 A 
ENDROOT
TORSDOF 0
ENDMDL
