MODEL 1
REMARK minimizedAffinity 2.09389019
REMARK minimizedRMSD -1
REMARK  0 active torsions:
REMARK  status: ('A' for Active; 'I' for Inactive)
ROOT
ATOM      1  O1  BZF d   1       1.206  -0.846  -0.413  0.00  0.00    -0.204 OA
ATOM      2  C2  BZF d   1       2.448  -1.310  -0.022  0.00  0.00     0.174 A 
ATOM      3  C3  BZF d   1       3.227  -0.294   0.401  0.00  0.00    -0.012 A 
ATOM      4  C3A BZF d   1       2.391   0.867   0.354  0.00  0.00    -0.107 A 
ATOM      5  C4  BZF d   1       2.589   2.181   0.669  0.00  0.00     0.055 A 
ATOM      6  C5  BZF d   1       1.591   3.073   0.438  0.00  0.00    -0.016 A 
ATOM      7  C6  BZF d   1       0.385   2.688  -0.110  0.00  0.00     0.022 A 
ATOM      8  C7  BZF d   1       0.139   1.395  -0.433  0.00  0.00     0.029 A 
ATOM      9  C7A BZF d   1       1.134   0.485  -0.171  0.00  0.00     0.058 A 
ENDROOT
TORSDOF 0
ENDMDL
