MODEL 1
REMARK minimizedAffinity 0.860971928
REMARK minimizedRMSD -1
REMARK  0 active torsions:
REMARK  status: ('A' for Active; 'I' for Inactive)
ROOT
ATOM      1  O1  BZF d   1       0.884  -0.047   0.024  0.00  0.00    -0.204 OA
ATOM      2  C2  BZF d   1       1.453  -1.298  -0.116  0.00  0.00     0.174 A 
ATOM      3  C3  BZF d   1       2.797  -1.207  -0.176  0.00  0.00    -0.012 A 
ATOM      4  C3A BZF d   1       3.091   0.178   0.025  0.00  0.00    -0.107 A 
ATOM      5  C4  BZF d   1       4.253   0.892   0.088  0.00  0.00     0.055 A 
ATOM      6  C5  BZF d   1       4.192   2.243   0.223  0.00  0.00    -0.016 A 
ATOM      7  C6  BZF d   1       2.988   2.912   0.293  0.00  0.00     0.022 A 
ATOM      8  C7  BZF d   1       1.808   2.246   0.241  0.00  0.00     0.029 A 
ATOM      9  C7A BZF d   1       1.867   0.878   0.137  0.00  0.00     0.058 A 
ENDROOT
TORSDOF 0
ENDMDL
