MODEL 1
REMARK minimizedAffinity 6.47374964
REMARK minimizedRMSD -1
REMARK  0 active torsions:
REMARK  status: ('A' for Active; 'I' for Inactive)
ROOT
ATOM      1  O1  BZF d   1      -3.588   0.045  -1.985  0.00  0.00    -0.204 OA
ATOM      2  C2  BZF d   1      -3.718  -0.263  -0.645  0.00  0.00     0.174 A 
ATOM      3  C3  BZF d   1      -4.512   0.633  -0.023  0.00  0.00    -0.012 A 
ATOM      4  C3A BZF d   1      -4.976   1.506  -1.058  0.00  0.00    -0.107 A 
ATOM      5  C4  BZF d   1      -5.810   2.587  -1.070  0.00  0.00     0.055 A 
ATOM      6  C5  BZF d   1      -6.000   3.262  -2.234  0.00  0.00    -0.016 A 
ATOM      7  C6  BZF d   1      -5.369   2.886  -3.402  0.00  0.00     0.022 A 
ATOM      8  C7  BZF d   1      -4.537   1.817  -3.440  0.00  0.00     0.029 A 
ATOM      9  C7A BZF d   1      -4.369   1.114  -2.273  0.00  0.00     0.058 A 
ENDROOT
TORSDOF 0
ENDMDL
