MODEL 1
REMARK minimizedAffinity -5.79277372
REMARK minimizedRMSD -1
REMARK  0 active torsions:
REMARK  status: ('A' for Active; 'I' for Inactive)
ROOT
ATOM      1  O1  BZF d   1       2.367  -2.082  -0.385  0.00  0.00    -0.204 OA
ATOM      2  C2  BZF d   1       3.133  -1.677   0.691  0.00  0.00     0.174 A 
ATOM      3  C3  BZF d   1       2.541  -0.654   1.342  0.00  0.00    -0.012 A 
ATOM      4  C3A BZF d   1       1.285  -0.466   0.683  0.00  0.00    -0.107 A 
ATOM      5  C4  BZF d   1       0.241   0.392   0.880  0.00  0.00     0.055 A 
ATOM      6  C5  BZF d   1      -0.807   0.366   0.016  0.00  0.00    -0.016 A 
ATOM      7  C6  BZF d   1      -0.842  -0.500  -1.058  0.00  0.00     0.022 A 
ATOM      8  C7  BZF d   1       0.168  -1.372  -1.292  0.00  0.00     0.029 A 
ATOM      9  C7A BZF d   1       1.214  -1.371  -0.401  0.00  0.00     0.058 A 
ENDROOT
TORSDOF 0
ENDMDL
