MODEL 1
REMARK minimizedAffinity 6.6011982
REMARK minimizedRMSD -1
REMARK  0 active torsions:
REMARK  status: ('A' for Active; 'I' for Inactive)
ROOT
ATOM      1  C2' OXE d   1       0.819  -1.782   2.776  0.00  0.00     0.078 C 
ATOM      2  C1' OXE d   1       2.274  -0.815   0.578  0.00  0.00     0.078 C 
ATOM      3  C1  OXE d   1       2.207  -2.309   0.775  0.00  0.00    -0.078 A 
ATOM      4  C2  OXE d   1       1.532  -2.771   1.879  0.00  0.00    -0.078 A 
ATOM      5  C3  OXE d   1       1.393  -4.142   2.079  0.00  0.00     0.003 A 
ATOM      6  C4  OXE d   1       2.064  -5.050   1.250  0.00  0.00    -0.002 A 
ATOM      7  C5  OXE d   1       2.790  -4.599   0.143  0.00  0.00    -0.002 A 
ATOM      8  C6  OXE d   1       2.836  -3.236  -0.132  0.00  0.00     0.003 A 
ENDROOT
TORSDOF 0
ENDMDL
