MODEL 1
REMARK minimizedAffinity 7.32380247
REMARK minimizedRMSD -1
REMARK  0 active torsions:
REMARK  status: ('A' for Active; 'I' for Inactive)
ROOT
ATOM      1  C2' OXE d   1       1.230  -1.213  -0.255  0.00  0.00     0.078 C 
ATOM      2  C1' OXE d   1       0.307  -2.471   2.079  0.00  0.00     0.078 C 
ATOM      3  C1  OXE d   1       1.793  -2.474   1.819  0.00  0.00    -0.078 A 
ATOM      4  C2  OXE d   1       2.231  -1.897   0.652  0.00  0.00    -0.078 A 
ATOM      5  C3  OXE d   1       3.597  -1.823   0.390  0.00  0.00     0.003 A 
ATOM      6  C4  OXE d   1       4.515  -2.467   1.228  0.00  0.00    -0.002 A 
ATOM      7  C5  OXE d   1       4.086  -3.095   2.402  0.00  0.00    -0.002 A 
ATOM      8  C6  OXE d   1       2.735  -3.070   2.733  0.00  0.00     0.003 A 
ENDROOT
TORSDOF 0
ENDMDL
