MODEL 1
REMARK minimizedAffinity 4.03551149
REMARK minimizedRMSD -1
REMARK  0 active torsions:
REMARK  status: ('A' for Active; 'I' for Inactive)
ROOT
ATOM      1  C2' OXE d   1      -0.481  -1.524   3.287  0.00  0.00     0.078 C 
ATOM      2  C1' OXE d   1      -1.341  -4.189   3.090  0.00  0.00     0.078 C 
ATOM      3  C1  OXE d   1      -0.022  -3.827   2.456  0.00  0.00    -0.078 A 
ATOM      4  C2  OXE d   1       0.369  -2.511   2.517  0.00  0.00    -0.078 A 
ATOM      5  C3  OXE d   1       1.604  -2.134   1.996  0.00  0.00     0.003 A 
ATOM      6  C4  OXE d   1       2.379  -3.051   1.276  0.00  0.00    -0.002 A 
ATOM      7  C5  OXE d   1       1.981  -4.388   1.168  0.00  0.00    -0.002 A 
ATOM      8  C6  OXE d   1       0.806  -4.801   1.787  0.00  0.00     0.003 A 
ENDROOT
TORSDOF 0
ENDMDL
