MODEL 1
REMARK minimizedAffinity 3.82033491
REMARK minimizedRMSD -1
REMARK  0 active torsions:
REMARK  status: ('A' for Active; 'I' for Inactive)
ROOT
ATOM      1  C2' OXE d   1      -0.498  -1.596   4.222  0.00  0.00     0.078 C 
ATOM      2  C1' OXE d   1      -1.861  -0.478   2.039  0.00  0.00     0.078 C 
ATOM      3  C1  OXE d   1      -0.630  -1.301   1.753  0.00  0.00    -0.078 A 
ATOM      4  C2  OXE d   1       0.057  -1.805   2.830  0.00  0.00    -0.078 A 
ATOM      5  C3  OXE d   1       1.168  -2.617   2.620  0.00  0.00     0.003 A 
ATOM      6  C4  OXE d   1       1.681  -2.797   1.330  0.00  0.00    -0.002 A 
ATOM      7  C5  OXE d   1       1.018  -2.259   0.221  0.00  0.00    -0.002 A 
ATOM      8  C6  OXE d   1      -0.160  -1.546   0.412  0.00  0.00     0.003 A 
ENDROOT
TORSDOF 0
ENDMDL
