MODEL 1
REMARK minimizedAffinity 6.76744366
REMARK minimizedRMSD -1
REMARK  0 active torsions:
REMARK  status: ('A' for Active; 'I' for Inactive)
ROOT
ATOM      1  C2' OXE d   1       2.561  -1.838  -0.341  0.00  0.00     0.078 C 
ATOM      2  C1' OXE d   1       2.567  -3.986   1.467  0.00  0.00     0.078 C 
ATOM      3  C1  OXE d   1       1.585  -2.867   1.707  0.00  0.00    -0.078 A 
ATOM      4  C2  OXE d   1       1.621  -1.798   0.844  0.00  0.00    -0.078 A 
ATOM      5  C3  OXE d   1       0.699  -0.764   0.988  0.00  0.00     0.003 A 
ATOM      6  C4  OXE d   1      -0.161  -0.730   2.092  0.00  0.00    -0.002 A 
ATOM      7  C5  OXE d   1      -0.186  -1.789   3.005  0.00  0.00    -0.002 A 
ATOM      8  C6  OXE d   1       0.648  -2.883   2.804  0.00  0.00     0.003 A 
ENDROOT
TORSDOF 0
ENDMDL
