MODEL 1
REMARK minimizedAffinity 4.02590466
REMARK minimizedRMSD -1
REMARK  0 active torsions:
REMARK  status: ('A' for Active; 'I' for Inactive)
ROOT
ATOM      1  C2' OXE d   1       5.861   3.096   0.169  0.00  0.00     0.078 C 
ATOM      2  C1' OXE d   1       5.867   2.082   2.786  0.00  0.00     0.078 C 
ATOM      3  C1  OXE d   1       5.921   1.093   1.649  0.00  0.00    -0.078 A 
ATOM      4  C2  OXE d   1       5.870   1.596   0.371  0.00  0.00    -0.078 A 
ATOM      5  C3  OXE d   1       5.972   0.731  -0.715  0.00  0.00     0.003 A 
ATOM      6  C4  OXE d   1       5.969  -0.655  -0.519  0.00  0.00    -0.002 A 
ATOM      7  C5  OXE d   1       5.981  -1.190   0.773  0.00  0.00    -0.002 A 
ATOM      8  C6  OXE d   1       6.000  -0.330   1.866  0.00  0.00     0.003 A 
ENDROOT
TORSDOF 0
ENDMDL
