MODEL 1
REMARK minimizedAffinity 6.57886982
REMARK minimizedRMSD -1
REMARK  0 active torsions:
REMARK  status: ('A' for Active; 'I' for Inactive)
ROOT
ATOM      1  C2' OXE d   1       5.937  -1.681   1.083  0.00  0.00     0.078 C 
ATOM      2  C1' OXE d   1       5.916  -0.877  -1.606  0.00  0.00     0.078 C 
ATOM      3  C1  OXE d   1       5.951   0.199  -0.550  0.00  0.00    -0.078 A 
ATOM      4  C2  OXE d   1       5.914  -0.202   0.763  0.00  0.00    -0.078 A 
ATOM      5  C3  OXE d   1       5.999   0.748   1.777  0.00  0.00     0.003 A 
ATOM      6  C4  OXE d   1       5.967   2.114   1.473  0.00  0.00    -0.002 A 
ATOM      7  C5  OXE d   1       5.964   2.545   0.142  0.00  0.00    -0.002 A 
ATOM      8  C6  OXE d   1       5.999   1.603  -0.880  0.00  0.00     0.003 A 
ENDROOT
TORSDOF 0
ENDMDL
