MODEL 1
REMARK minimizedAffinity 0.0517156534
REMARK minimizedRMSD -1
REMARK  0 active torsions:
REMARK  status: ('A' for Active; 'I' for Inactive)
ROOT
ATOM      1  C2' OXE d   1      -0.455  -1.638   3.536  0.00  0.00     0.078 C 
ATOM      2  C1' OXE d   1      -1.673  -4.167   3.531  0.00  0.00     0.078 C 
ATOM      3  C1  OXE d   1      -0.334  -4.030   2.850  0.00  0.00    -0.078 A 
ATOM      4  C2  OXE d   1       0.233  -2.778   2.817  0.00  0.00    -0.078 A 
ATOM      5  C3  OXE d   1       1.492  -2.607   2.250  0.00  0.00     0.003 A 
ATOM      6  C4  OXE d   1       2.117  -3.665   1.579  0.00  0.00    -0.002 A 
ATOM      7  C5  OXE d   1       1.539  -4.938   1.566  0.00  0.00    -0.002 A 
ATOM      8  C6  OXE d   1       0.336  -5.147   2.232  0.00  0.00     0.003 A 
ENDROOT
TORSDOF 0
ENDMDL
