MODEL 1
REMARK minimizedAffinity 5.86462736
REMARK minimizedRMSD -1
REMARK  0 active torsions:
REMARK  status: ('A' for Active; 'I' for Inactive)
ROOT
ATOM      1  C2' OXE d   1       0.185  -1.497   0.012  0.00  0.00     0.078 C 
ATOM      2  C1' OXE d   1      -0.205  -1.439   2.792  0.00  0.00     0.078 C 
ATOM      3  C1  OXE d   1       1.029  -2.131   2.269  0.00  0.00    -0.078 A 
ATOM      4  C2  OXE d   1       1.187  -2.196   0.905  0.00  0.00    -0.078 A 
ATOM      5  C3  OXE d   1       2.335  -2.775   0.371  0.00  0.00     0.003 A 
ATOM      6  C4  OXE d   1       3.252  -3.428   1.203  0.00  0.00    -0.002 A 
ATOM      7  C5  OXE d   1       3.089  -3.409   2.593  0.00  0.00    -0.002 A 
ATOM      8  C6  OXE d   1       2.008  -2.729   3.142  0.00  0.00     0.003 A 
ENDROOT
TORSDOF 0
ENDMDL
