MODEL 1
REMARK minimizedAffinity 0.0883163437
REMARK minimizedRMSD -1
REMARK  2 active torsions:
REMARK  status: ('A' for Active; 'I' for Inactive)
REMARK    1  A    between atoms: C1_2  and  C2_3 
REMARK    2  A    between atoms: C2_3  and  C3_4 
ROOT
ATOM      1  C3  UNL d   1      -3.565   3.661  -5.988  0.00  0.00    -0.075 A 
ATOM      2  C4  UNL d   1      -3.227   5.022  -5.994  0.00  0.00     0.002 A 
ATOM      3  C5  UNL d   1      -4.223   6.000  -5.989  0.00  0.00     0.002 A 
ATOM      4  C6  UNL d   1      -5.566   5.630  -5.989  0.00  0.00    -0.004 A 
ATOM      5  C7  UNL d   1      -5.913   4.281  -5.999  0.00  0.00     0.002 A 
ATOM      6  C8  UNL d   1      -4.919   3.301  -5.999  0.00  0.00     0.002 A 
ENDROOT
BRANCH   1   7
ATOM      7  C2  UNL d   1      -2.492   2.599  -5.963  0.00  0.00     0.056 C 
BRANCH   7   8
ATOM      8  C1  UNL d   1      -1.207   3.027  -5.248  0.00  0.00     0.007 C 
ATOM      9  C   UNL d   1      -1.418   3.352  -3.775  0.00  0.00     0.009 C 
ENDBRANCH   7   8
ENDBRANCH   1   7
TORSDOF 2
ENDMDL
