MODEL 1
REMARK minimizedAffinity -1.31742275
REMARK minimizedRMSD -1
REMARK  2 active torsions:
REMARK  status: ('A' for Active; 'I' for Inactive)
REMARK    1  A    between atoms: C1_2  and  C2_3 
REMARK    2  A    between atoms: C2_3  and  C3_4 
ROOT
ATOM      1  C3  UNL d   1       0.082   0.770   0.763  0.00  0.00    -0.075 A 
ATOM      2  C4  UNL d   1      -1.313   0.646   0.840  0.00  0.00     0.002 A 
ATOM      3  C5  UNL d   1      -2.112   1.766   1.077  0.00  0.00     0.002 A 
ATOM      4  C6  UNL d   1      -1.527   3.018   1.249  0.00  0.00    -0.004 A 
ATOM      5  C7  UNL d   1      -0.141   3.150   1.191  0.00  0.00     0.002 A 
ATOM      6  C8  UNL d   1       0.660   2.033   0.950  0.00  0.00     0.002 A 
ENDROOT
BRANCH   1   7
ATOM      7  C2  UNL d   1       0.950  -0.432   0.477  0.00  0.00     0.056 C 
BRANCH   7   8
ATOM      8  C1  UNL d   1       2.355  -0.082  -0.023  0.00  0.00     0.007 C 
ATOM      9  C   UNL d   1       2.783  -0.903  -1.232  0.00  0.00     0.009 C 
ENDBRANCH   7   8
ENDBRANCH   1   7
TORSDOF 2
ENDMDL
