MODEL 1
REMARK minimizedAffinity -2.07094073
REMARK minimizedRMSD -1
REMARK  2 active torsions:
REMARK  status: ('A' for Active; 'I' for Inactive)
REMARK    1  A    between atoms: C1_2  and  C2_3 
REMARK    2  A    between atoms: C2_3  and  C3_4 
ROOT
ATOM      1  C3  UNL d   1       0.375  -0.015   0.059  0.00  0.00    -0.075 A 
ATOM      2  C4  UNL d   1       1.587   0.350   0.662  0.00  0.00     0.002 A 
ATOM      3  C5  UNL d   1       2.758   0.429  -0.093  0.00  0.00     0.002 A 
ATOM      4  C6  UNL d   1       2.735   0.135  -1.454  0.00  0.00    -0.004 A 
ATOM      5  C7  UNL d   1       1.539  -0.246  -2.060  0.00  0.00     0.002 A 
ATOM      6  C8  UNL d   1       0.365  -0.321  -1.309  0.00  0.00     0.002 A 
ENDROOT
BRANCH   1   7
ATOM      7  C2  UNL d   1      -0.901  -0.074   0.863  0.00  0.00     0.056 C 
BRANCH   7   8
ATOM      8  C1  UNL d   1      -1.800   1.156   0.698  0.00  0.00     0.007 C 
ATOM      9  C   UNL d   1      -1.153   2.443   1.191  0.00  0.00     0.009 C 
ENDBRANCH   7   8
ENDBRANCH   1   7
TORSDOF 2
ENDMDL
