MODEL 1
REMARK minimizedAffinity -0.614244878
REMARK minimizedRMSD -1
REMARK  2 active torsions:
REMARK  status: ('A' for Active; 'I' for Inactive)
REMARK    1  A    between atoms: C1_2  and  C2_3 
REMARK    2  A    between atoms: C2_3  and  C3_4 
ROOT
ATOM      1  C3  UNL d   1       1.280   1.599   1.090  0.00  0.00    -0.075 A 
ATOM      2  C4  UNL d   1       0.432   2.689   1.335  0.00  0.00     0.002 A 
ATOM      3  C5  UNL d   1      -0.935   2.595   1.074  0.00  0.00     0.002 A 
ATOM      4  C6  UNL d   1      -1.469   1.417   0.557  0.00  0.00    -0.004 A 
ATOM      5  C7  UNL d   1      -0.634   0.334   0.294  0.00  0.00     0.002 A 
ATOM      6  C8  UNL d   1       0.734   0.423   0.558  0.00  0.00     0.002 A 
ENDROOT
BRANCH   1   7
ATOM      7  C2  UNL d   1       2.756   1.684   1.398  0.00  0.00     0.056 C 
BRANCH   7   8
ATOM      8  C1  UNL d   1       3.133   2.839   2.333  0.00  0.00     0.007 C 
ATOM      9  C   UNL d   1       4.636   3.054   2.445  0.00  0.00     0.009 C 
ENDBRANCH   7   8
ENDBRANCH   1   7
TORSDOF 2
ENDMDL
