MODEL 1
REMARK minimizedAffinity 2.45070219
REMARK minimizedRMSD -1
REMARK  2 active torsions:
REMARK  status: ('A' for Active; 'I' for Inactive)
REMARK    1  A    between atoms: C1_2  and  C2_3 
REMARK    2  A    between atoms: C2_3  and  C3_4 
ROOT
ATOM      1  C3  UNL d   1       0.233   1.339   1.074  0.00  0.00    -0.075 A 
ATOM      2  C4  UNL d   1      -0.647   2.431   1.110  0.00  0.00     0.002 A 
ATOM      3  C5  UNL d   1      -2.028   2.228   1.099  0.00  0.00     0.002 A 
ATOM      4  C6  UNL d   1      -2.545   0.935   1.042  0.00  0.00    -0.004 A 
ATOM      5  C7  UNL d   1      -1.679  -0.155   0.989  0.00  0.00     0.002 A 
ATOM      6  C8  UNL d   1      -0.298   0.044   1.004  0.00  0.00     0.002 A 
ENDROOT
BRANCH   1   7
ATOM      7  C2  UNL d   1       1.728   1.551   1.115  0.00  0.00     0.056 C 
BRANCH   7   8
ATOM      8  C1  UNL d   1       2.171   2.693   2.035  0.00  0.00     0.007 C 
ATOM      9  C   UNL d   1       3.524   2.447   2.689  0.00  0.00     0.009 C 
ENDBRANCH   7   8
ENDBRANCH   1   7
TORSDOF 2
ENDMDL
