MODEL 1
REMARK minimizedAffinity 3.306633
REMARK minimizedRMSD -1
REMARK  2 active torsions:
REMARK  status: ('A' for Active; 'I' for Inactive)
REMARK    1  A    between atoms: C1_2  and  C2_3 
REMARK    2  A    between atoms: C2_3  and  C3_4 
ROOT
ATOM      1  C3  UNL d   1       0.115   0.948   0.294  0.00  0.00    -0.075 A 
ATOM      2  C4  UNL d   1      -0.962   0.108   0.613  0.00  0.00     0.002 A 
ATOM      3  C5  UNL d   1      -2.206   0.646   0.946  0.00  0.00     0.002 A 
ATOM      4  C6  UNL d   1      -2.386   2.027   0.973  0.00  0.00    -0.004 A 
ATOM      5  C7  UNL d   1      -1.319   2.872   0.674  0.00  0.00     0.002 A 
ATOM      6  C8  UNL d   1      -0.074   2.336   0.337  0.00  0.00     0.002 A 
ENDROOT
BRANCH   1   7
ATOM      7  C2  UNL d   1       1.455   0.372  -0.095  0.00  0.00     0.056 C 
BRANCH   7   8
ATOM      8  C1  UNL d   1       1.822   0.585  -1.568  0.00  0.00     0.007 C 
ATOM      9  C   UNL d   1       2.639  -0.558  -2.155  0.00  0.00     0.009 C 
ENDBRANCH   7   8
ENDBRANCH   1   7
TORSDOF 2
ENDMDL
