MODEL 1
REMARK minimizedAffinity 0.498417974
REMARK minimizedRMSD -1
REMARK  2 active torsions:
REMARK  status: ('A' for Active; 'I' for Inactive)
REMARK    1  A    between atoms: C1_2  and  C2_3 
REMARK    2  A    between atoms: C2_3  and  C3_4 
ROOT
ATOM      1  C3  UNL d   1       0.963   2.384   1.369  0.00  0.00    -0.075 A 
ATOM      2  C4  UNL d   1      -0.337   2.910   1.373  0.00  0.00     0.002 A 
ATOM      3  C5  UNL d   1      -1.426   2.109   1.030  0.00  0.00     0.002 A 
ATOM      4  C6  UNL d   1      -1.230   0.777   0.669  0.00  0.00    -0.004 A 
ATOM      5  C7  UNL d   1       0.059   0.249   0.646  0.00  0.00     0.002 A 
ATOM      6  C8  UNL d   1       1.151   1.047   0.993  0.00  0.00     0.002 A 
ENDROOT
BRANCH   1   7
ATOM      7  C2  UNL d   1       2.143   3.238   1.768  0.00  0.00     0.056 C 
BRANCH   7   8
ATOM      8  C1  UNL d   1       2.856   2.762   3.039  0.00  0.00     0.007 C 
ATOM      9  C   UNL d   1       4.277   2.277   2.784  0.00  0.00     0.009 C 
ENDBRANCH   7   8
ENDBRANCH   1   7
TORSDOF 2
ENDMDL
