MODEL 1
REMARK minimizedAffinity 2.62507463
REMARK minimizedRMSD -1
REMARK  2 active torsions:
REMARK  status: ('A' for Active; 'I' for Inactive)
REMARK    1  A    between atoms: C1_2  and  C2_3 
REMARK    2  A    between atoms: C2_3  and  C3_4 
ROOT
ATOM      1  C3  UNL d   1      -0.715   0.996   0.888  0.00  0.00    -0.075 A 
ATOM      2  C4  UNL d   1       0.530   0.385   0.677  0.00  0.00     0.002 A 
ATOM      3  C5  UNL d   1       1.712   1.074   0.952  0.00  0.00     0.002 A 
ATOM      4  C6  UNL d   1       1.665   2.382   1.429  0.00  0.00    -0.004 A 
ATOM      5  C7  UNL d   1       0.434   3.004   1.625  0.00  0.00     0.002 A 
ATOM      6  C8  UNL d   1      -0.750   2.316   1.356  0.00  0.00     0.002 A 
ENDROOT
BRANCH   1   7
ATOM      7  C2  UNL d   1      -1.998   0.246   0.621  0.00  0.00     0.056 C 
BRANCH   7   8
ATOM      8  C1  UNL d   1      -3.202   0.767   1.413  0.00  0.00     0.007 C 
ATOM      9  C   UNL d   1      -4.223   1.492   0.545  0.00  0.00     0.009 C 
ENDBRANCH   7   8
ENDBRANCH   1   7
TORSDOF 2
ENDMDL
