MODEL 1
REMARK minimizedAffinity 2.75624132
REMARK minimizedRMSD -1
REMARK  2 active torsions:
REMARK  status: ('A' for Active; 'I' for Inactive)
REMARK    1  A    between atoms: C1_2  and  C2_3 
REMARK    2  A    between atoms: C2_3  and  C3_4 
ROOT
ATOM      1  C3  UNL d   1      -0.023   2.083   0.925  0.00  0.00    -0.075 A 
ATOM      2  C4  UNL d   1       0.890   1.185   0.354  0.00  0.00     0.002 A 
ATOM      3  C5  UNL d   1       2.252   1.280   0.641  0.00  0.00     0.002 A 
ATOM      4  C6  UNL d   1       2.719   2.278   1.494  0.00  0.00    -0.004 A 
ATOM      5  C7  UNL d   1       1.823   3.186   2.054  0.00  0.00     0.002 A 
ATOM      6  C8  UNL d   1       0.459   3.090   1.771  0.00  0.00     0.002 A 
ENDROOT
BRANCH   1   7
ATOM      7  C2  UNL d   1      -1.502   1.967   0.641  0.00  0.00     0.056 C 
BRANCH   7   8
ATOM      8  C1  UNL d   1      -1.996   0.524   0.489  0.00  0.00     0.007 C 
ATOM      9  C   UNL d   1      -3.065   0.146   1.506  0.00  0.00     0.009 C 
ENDBRANCH   7   8
ENDBRANCH   1   7
TORSDOF 2
ENDMDL
