MODEL 1
REMARK minimizedAffinity -0.35397166
REMARK minimizedRMSD -1
REMARK  2 active torsions:
REMARK  status: ('A' for Active; 'I' for Inactive)
REMARK    1  A    between atoms: C1_2  and  C2_3 
REMARK    2  A    between atoms: C2_3  and  C3_4 
ROOT
ATOM      1  C3  UNL d   1       0.771   0.428   0.877  0.00  0.00    -0.075 A 
ATOM      2  C4  UNL d   1      -0.213  -0.565   0.984  0.00  0.00     0.002 A 
ATOM      3  C5  UNL d   1      -1.558  -0.218   1.117  0.00  0.00     0.002 A 
ATOM      4  C6  UNL d   1      -1.934   1.123   1.154  0.00  0.00    -0.004 A 
ATOM      5  C7  UNL d   1      -0.962   2.118   1.065  0.00  0.00     0.002 A 
ATOM      6  C8  UNL d   1       0.384   1.773   0.928  0.00  0.00     0.002 A 
ENDROOT
BRANCH   1   7
ATOM      7  C2  UNL d   1       2.225   0.058   0.703  0.00  0.00     0.056 C 
BRANCH   7   8
ATOM      8  C1  UNL d   1       2.679  -0.020  -0.758  0.00  0.00     0.007 C 
ATOM      9  C   UNL d   1       3.617  -1.187  -1.034  0.00  0.00     0.009 C 
ENDBRANCH   7   8
ENDBRANCH   1   7
TORSDOF 2
ENDMDL
