MODEL 1
REMARK minimizedAffinity 2.59933472
REMARK minimizedRMSD -1
REMARK  2 active torsions:
REMARK  status: ('A' for Active; 'I' for Inactive)
REMARK    1  A    between atoms: C1_2  and  C2_3 
REMARK    2  A    between atoms: C2_3  and  C3_4 
ROOT
ATOM      1  C3  UNL d   1       1.482   2.338   2.019  0.00  0.00    -0.075 A 
ATOM      2  C4  UNL d   1       1.524   1.453   0.931  0.00  0.00     0.002 A 
ATOM      3  C5  UNL d   1       0.380   1.212   0.170  0.00  0.00     0.002 A 
ATOM      4  C6  UNL d   1      -0.820   1.842   0.491  0.00  0.00    -0.004 A 
ATOM      5  C7  UNL d   1      -0.878   2.710   1.580  0.00  0.00     0.002 A 
ATOM      6  C8  UNL d   1       0.266   2.957   2.341  0.00  0.00     0.002 A 
ENDROOT
BRANCH   1   7
ATOM      7  C2  UNL d   1       2.723   2.626   2.829  0.00  0.00     0.056 C 
BRANCH   7   8
ATOM      8  C1  UNL d   1       4.032   2.288   2.107  0.00  0.00     0.007 C 
ATOM      9  C   UNL d   1       5.146   1.859   3.052  0.00  0.00     0.009 C 
ENDBRANCH   7   8
ENDBRANCH   1   7
TORSDOF 2
ENDMDL
