MODEL 1
REMARK minimizedAffinity 1.84358144
REMARK minimizedRMSD -1
REMARK  2 active torsions:
REMARK  status: ('A' for Active; 'I' for Inactive)
REMARK    1  A    between atoms: C1_2  and  C2_3 
REMARK    2  A    between atoms: C2_3  and  C3_4 
ROOT
ATOM      1  C3  UNL d   1      -2.506   3.500  -5.706  0.00  0.00    -0.075 A 
ATOM      2  C4  UNL d   1      -1.936   4.707  -5.277  0.00  0.00     0.002 A 
ATOM      3  C5  UNL d   1      -2.742   5.807  -4.982  0.00  0.00     0.002 A 
ATOM      4  C6  UNL d   1      -4.125   5.717  -5.120  0.00  0.00    -0.004 A 
ATOM      5  C7  UNL d   1      -4.702   4.528  -5.562  0.00  0.00     0.002 A 
ATOM      6  C8  UNL d   1      -3.898   3.425  -5.854  0.00  0.00     0.002 A 
ENDROOT
BRANCH   1   7
ATOM      7  C2  UNL d   1      -1.641   2.298  -5.999  0.00  0.00     0.056 C 
BRANCH   7   8
ATOM      8  C1  UNL d   1      -0.137   2.584  -5.947  0.00  0.00     0.007 C 
ATOM      9  C   UNL d   1       0.716   1.324  -5.999  0.00  0.00     0.009 C 
ENDBRANCH   7   8
ENDBRANCH   1   7
TORSDOF 2
ENDMDL
