MODEL 1
REMARK minimizedAffinity 3.22284937
REMARK minimizedRMSD -1
REMARK  2 active torsions:
REMARK  status: ('A' for Active; 'I' for Inactive)
REMARK    1  A    between atoms: C1_2  and  C2_3 
REMARK    2  A    between atoms: C2_3  and  C3_4 
ROOT
ATOM      1  C3  UNL d   1       0.341   0.599   0.449  0.00  0.00    -0.075 A 
ATOM      2  C4  UNL d   1      -0.614  -0.391   0.721  0.00  0.00     0.002 A 
ATOM      3  C5  UNL d   1      -1.923  -0.041   1.052  0.00  0.00     0.002 A 
ATOM      4  C6  UNL d   1      -2.291   1.301   1.125  0.00  0.00    -0.004 A 
ATOM      5  C7  UNL d   1      -1.347   2.293   0.872  0.00  0.00     0.002 A 
ATOM      6  C8  UNL d   1      -0.037   1.946   0.537  0.00  0.00     0.002 A 
ENDROOT
BRANCH   1   7
ATOM      7  C2  UNL d   1       1.752   0.226   0.061  0.00  0.00     0.056 C 
BRANCH   7   8
ATOM      8  C1  UNL d   1       2.131   0.622  -1.370  0.00  0.00     0.007 C 
ATOM      9  C   UNL d   1       2.547  -0.564  -2.230  0.00  0.00     0.009 C 
ENDBRANCH   7   8
ENDBRANCH   1   7
TORSDOF 2
ENDMDL
