MODEL 1
REMARK minimizedAffinity 13.3724337
REMARK minimizedRMSD -1
REMARK  2 active torsions:
REMARK  status: ('A' for Active; 'I' for Inactive)
REMARK    1  A    between atoms: C1_2  and  C2_3 
REMARK    2  A    between atoms: C2_3  and  C3_4 
ROOT
ATOM      1  C3  UNL d   1       2.181  -0.250  -1.299  0.00  0.00    -0.075 A 
ATOM      2  C4  UNL d   1       3.466  -0.756  -1.541  0.00  0.00     0.002 A 
ATOM      3  C5  UNL d   1       4.023  -0.696  -2.819  0.00  0.00     0.002 A 
ATOM      4  C6  UNL d   1       3.299  -0.139  -3.871  0.00  0.00    -0.004 A 
ATOM      5  C7  UNL d   1       2.015   0.352  -3.646  0.00  0.00     0.002 A 
ATOM      6  C8  UNL d   1       1.458   0.297  -2.368  0.00  0.00     0.002 A 
ENDROOT
BRANCH   1   7
ATOM      7  C2  UNL d   1       1.585  -0.286   0.088  0.00  0.00     0.056 C 
BRANCH   7   8
ATOM      8  C1  UNL d   1       1.172   1.089   0.624  0.00  0.00     0.007 C 
ATOM      9  C   UNL d   1       2.347   1.913   1.133  0.00  0.00     0.009 C 
ENDBRANCH   7   8
ENDBRANCH   1   7
TORSDOF 2
ENDMDL
