MODEL 1
REMARK minimizedAffinity 8.6799469
REMARK minimizedRMSD -1
REMARK  2 active torsions:
REMARK  status: ('A' for Active; 'I' for Inactive)
REMARK    1  A    between atoms: C1_2  and  C2_3 
REMARK    2  A    between atoms: C2_3  and  C3_4 
ROOT
ATOM      1  C3  UNL d   1      -0.232   1.158   0.719  0.00  0.00    -0.075 A 
ATOM      2  C4  UNL d   1      -1.102   0.059   0.781  0.00  0.00     0.002 A 
ATOM      3  C5  UNL d   1      -2.476   0.251   0.924  0.00  0.00     0.002 A 
ATOM      4  C6  UNL d   1      -2.997   1.540   1.017  0.00  0.00    -0.004 A 
ATOM      5  C7  UNL d   1      -2.141   2.638   0.973  0.00  0.00     0.002 A 
ATOM      6  C8  UNL d   1      -0.766   2.450   0.825  0.00  0.00     0.002 A 
ENDROOT
BRANCH   1   7
ATOM      7  C2  UNL d   1       1.253   0.958   0.534  0.00  0.00     0.056 C 
BRANCH   7   8
ATOM      8  C1  UNL d   1       1.619   0.066  -0.656  0.00  0.00     0.007 C 
ATOM      9  C   UNL d   1       2.356   0.811  -1.761  0.00  0.00     0.009 C 
ENDBRANCH   7   8
ENDBRANCH   1   7
TORSDOF 2
ENDMDL
