MODEL 1
REMARK minimizedAffinity 0.762732446
REMARK minimizedRMSD -1
REMARK  2 active torsions:
REMARK  status: ('A' for Active; 'I' for Inactive)
REMARK    1  A    between atoms: C1_2  and  C2_3 
REMARK    2  A    between atoms: C2_3  and  C3_4 
ROOT
ATOM      1  C3  UNL d   1       2.163  -0.237  -0.901  0.00  0.00    -0.075 A 
ATOM      2  C4  UNL d   1       3.088  -1.290  -0.935  0.00  0.00     0.002 A 
ATOM      3  C5  UNL d   1       3.660  -1.692  -2.142  0.00  0.00     0.002 A 
ATOM      4  C6  UNL d   1       3.308  -1.053  -3.329  0.00  0.00    -0.004 A 
ATOM      5  C7  UNL d   1       2.378  -0.016  -3.309  0.00  0.00     0.002 A 
ATOM      6  C8  UNL d   1       1.807   0.390  -2.102  0.00  0.00     0.002 A 
ENDROOT
BRANCH   1   7
ATOM      7  C2  UNL d   1       1.562   0.222   0.407  0.00  0.00     0.056 C 
BRANCH   7   8
ATOM      8  C1  UNL d   1       2.202   1.492   0.976  0.00  0.00     0.007 C 
ATOM      9  C   UNL d   1       1.505   2.769   0.526  0.00  0.00     0.009 C 
ENDBRANCH   7   8
ENDBRANCH   1   7
TORSDOF 2
ENDMDL
