MODEL 1
REMARK minimizedAffinity 11.1948118
REMARK minimizedRMSD -1
REMARK  2 active torsions:
REMARK  status: ('A' for Active; 'I' for Inactive)
REMARK    1  A    between atoms: C1_2  and  C2_3 
REMARK    2  A    between atoms: C2_3  and  C3_4 
ROOT
ATOM      1  C3  UNL d   1       1.549   0.815  -3.232  0.00  0.00    -0.075 A 
ATOM      2  C4  UNL d   1       2.284   1.483  -4.222  0.00  0.00     0.002 A 
ATOM      3  C5  UNL d   1       1.725   2.555  -4.918  0.00  0.00     0.002 A 
ATOM      4  C6  UNL d   1       0.423   2.966  -4.641  0.00  0.00    -0.004 A 
ATOM      5  C7  UNL d   1      -0.323   2.299  -3.671  0.00  0.00     0.002 A 
ATOM      6  C8  UNL d   1       0.236   1.229  -2.970  0.00  0.00     0.002 A 
ENDROOT
BRANCH   1   7
ATOM      7  C2  UNL d   1       2.158  -0.328  -2.455  0.00  0.00     0.056 C 
BRANCH   7   8
ATOM      8  C1  UNL d   1       1.325  -0.777  -1.250  0.00  0.00     0.007 C 
ATOM      9  C   UNL d   1       1.540   0.088  -0.016  0.00  0.00     0.009 C 
ENDBRANCH   7   8
ENDBRANCH   1   7
TORSDOF 2
ENDMDL
