MODEL 1
REMARK minimizedAffinity -2.88812661
REMARK minimizedRMSD -1
REMARK  3 active torsions:
REMARK  status: ('A' for Active; 'I' for Inactive)
REMARK    1  A    between atoms: C3'_2  and  C2'_3 
REMARK    2  A    between atoms: C2'_3  and  C1'_4 
REMARK    3  A    between atoms: C1'_4  and  C1_5 
ROOT
ATOM      1  C1  N4B d   1      -0.646   0.364  -0.282  0.00  0.00    -0.075 A 
ATOM      2  C2  N4B d   1      -0.636  -0.901   0.344  0.00  0.00     0.002 A 
ATOM      3  C3  N4B d   1       0.442  -1.283   1.105  0.00  0.00     0.002 A 
ATOM      4  C4  N4B d   1       1.525  -0.427   1.237  0.00  0.00    -0.004 A 
ATOM      5  C5  N4B d   1       1.497   0.804   0.649  0.00  0.00     0.002 A 
ATOM      6  C6  N4B d   1       0.419   1.202  -0.114  0.00  0.00     0.002 A 
ENDROOT
BRANCH   1   7
ATOM      7  C1' N4B d   1      -1.764   0.791  -1.193  0.00  0.00     0.057 C 
BRANCH   7   8
ATOM      8  C2' N4B d   1      -1.999  -0.294  -2.240  0.00  0.00     0.009 C 
BRANCH   8   9
ATOM      9  C3' N4B d   1      -3.107   0.081  -3.208  0.00  0.00     0.004 C 
ATOM     10  C4' N4B d   1      -2.884   1.413  -3.860  0.00  0.00     0.003 C 
ENDBRANCH   8   9
ENDBRANCH   7   8
ENDBRANCH   1   7
TORSDOF 3
ENDMDL
