MODEL 1
REMARK minimizedAffinity -5.98088026
REMARK minimizedRMSD -1
REMARK  3 active torsions:
REMARK  status: ('A' for Active; 'I' for Inactive)
REMARK    1  A    between atoms: C3'_2  and  C2'_3 
REMARK    2  A    between atoms: C2'_3  and  C1'_4 
REMARK    3  A    between atoms: C1'_4  and  C1_5 
ROOT
ATOM      1  C1  N4B d   1       0.132   0.006   0.765  0.00  0.00    -0.075 A 
ATOM      2  C2  N4B d   1       0.911   1.181   0.847  0.00  0.00     0.002 A 
ATOM      3  C3  N4B d   1       2.271   1.093   1.013  0.00  0.00     0.002 A 
ATOM      4  C4  N4B d   1       2.870  -0.153   1.119  0.00  0.00    -0.004 A 
ATOM      5  C5  N4B d   1       2.114  -1.284   1.013  0.00  0.00     0.002 A 
ATOM      6  C6  N4B d   1       0.746  -1.210   0.842  0.00  0.00     0.002 A 
ENDROOT
BRANCH   1   7
ATOM      7  C1' N4B d   1      -1.369   0.053   0.670  0.00  0.00     0.057 C 
BRANCH   7   8
ATOM      8  C2' N4B d   1      -1.830  -0.901  -0.428  0.00  0.00     0.009 C 
BRANCH   8   9
ATOM      9  C3' N4B d   1      -2.686  -0.199  -1.468  0.00  0.00     0.004 C 
ATOM     10  C4' N4B d   1      -3.087  -1.102  -2.596  0.00  0.00     0.003 C 
ENDBRANCH   8   9
ENDBRANCH   7   8
ENDBRANCH   1   7
TORSDOF 3
ENDMDL
