MODEL 1
REMARK minimizedAffinity -4.22824001
REMARK minimizedRMSD -1
REMARK  3 active torsions:
REMARK  status: ('A' for Active; 'I' for Inactive)
REMARK    1  A    between atoms: C3'_2  and  C2'_3 
REMARK    2  A    between atoms: C2'_3  and  C1'_4 
REMARK    3  A    between atoms: C1'_4  and  C1_5 
ROOT
ATOM      1  C1  N4B d   1       0.824  -0.205   0.754  0.00  0.00    -0.075 A 
ATOM      2  C2  N4B d   1       2.062   0.350   1.147  0.00  0.00     0.002 A 
ATOM      3  C3  N4B d   1       2.784  -0.231   2.161  0.00  0.00     0.002 A 
ATOM      4  C4  N4B d   1       2.281  -1.350   2.807  0.00  0.00    -0.004 A 
ATOM      5  C5  N4B d   1       1.096  -1.894   2.405  0.00  0.00     0.002 A 
ATOM      6  C6  N4B d   1       0.362  -1.324   1.384  0.00  0.00     0.002 A 
ENDROOT
BRANCH   1   7
ATOM      7  C1' N4B d   1      -0.041   0.445  -0.291  0.00  0.00     0.057 C 
BRANCH   7   8
ATOM      8  C2' N4B d   1      -1.507   0.166   0.028  0.00  0.00     0.009 C 
BRANCH   8   9
ATOM      9  C3' N4B d   1      -2.441   0.804  -0.986  0.00  0.00     0.004 C 
ATOM     10  C4' N4B d   1      -2.808  -0.127  -2.103  0.00  0.00     0.003 C 
ENDBRANCH   8   9
ENDBRANCH   7   8
ENDBRANCH   1   7
TORSDOF 3
ENDMDL
