MODEL 1
REMARK minimizedAffinity -3.98297906
REMARK minimizedRMSD -1
REMARK  3 active torsions:
REMARK  status: ('A' for Active; 'I' for Inactive)
REMARK    1  A    between atoms: C3'_2  and  C2'_3 
REMARK    2  A    between atoms: C2'_3  and  C1'_4 
REMARK    3  A    between atoms: C1'_4  and  C1_5 
ROOT
ATOM      1  C1  N4B d   1      -1.966  -0.011  -0.957  0.00  0.00    -0.075 A 
ATOM      2  C2  N4B d   1      -2.775   1.099  -1.283  0.00  0.00     0.002 A 
ATOM      3  C3  N4B d   1      -3.443   1.134  -2.483  0.00  0.00     0.002 A 
ATOM      4  C4  N4B d   1      -3.302   0.083  -3.377  0.00  0.00    -0.004 A 
ATOM      5  C5  N4B d   1      -2.538  -0.997  -3.044  0.00  0.00     0.002 A 
ATOM      6  C6  N4B d   1      -1.865  -1.047  -1.840  0.00  0.00     0.002 A 
ENDROOT
BRANCH   1   7
ATOM      7  C1' N4B d   1      -1.149  -0.055   0.305  0.00  0.00     0.057 C 
BRANCH   7   8
ATOM      8  C2' N4B d   1       0.076   0.840   0.140  0.00  0.00     0.009 C 
BRANCH   8   9
ATOM      9  C3' N4B d   1       1.358   0.034   0.029  0.00  0.00     0.004 C 
ATOM     10  C4' N4B d   1       2.456   0.565   0.900  0.00  0.00     0.003 C 
ENDBRANCH   8   9
ENDBRANCH   7   8
ENDBRANCH   1   7
TORSDOF 3
ENDMDL
