MODEL 1
REMARK minimizedAffinity -5.10610151
REMARK minimizedRMSD -1
REMARK  3 active torsions:
REMARK  status: ('A' for Active; 'I' for Inactive)
REMARK    1  A    between atoms: C3'_2  and  C2'_3 
REMARK    2  A    between atoms: C2'_3  and  C1'_4 
REMARK    3  A    between atoms: C1'_4  and  C1_5 
ROOT
ATOM      1  C1  N4B d   1       0.701  -0.065   0.311  0.00  0.00    -0.075 A 
ATOM      2  C2  N4B d   1       0.370  -1.326   0.852  0.00  0.00     0.002 A 
ATOM      3  C3  N4B d   1       1.353  -2.125   1.383  0.00  0.00     0.002 A 
ATOM      4  C4  N4B d   1       2.671  -1.692   1.367  0.00  0.00    -0.004 A 
ATOM      5  C5  N4B d   1       2.979  -0.461   0.865  0.00  0.00     0.002 A 
ATOM      6  C6  N4B d   1       2.000   0.353   0.332  0.00  0.00     0.002 A 
ENDROOT
BRANCH   1   7
ATOM      7  C1' N4B d   1      -0.327   0.807  -0.358  0.00  0.00     0.057 C 
BRANCH   7   8
ATOM      8  C2' N4B d   1      -1.412  -0.077  -0.967  0.00  0.00     0.009 C 
BRANCH   8   9
ATOM      9  C3' N4B d   1      -2.559   0.742  -1.535  0.00  0.00     0.004 C 
ATOM     10  C4' N4B d   1      -2.989   0.275  -2.894  0.00  0.00     0.003 C 
ENDBRANCH   8   9
ENDBRANCH   7   8
ENDBRANCH   1   7
TORSDOF 3
ENDMDL
