MODEL 1
REMARK minimizedAffinity 3.88764882
REMARK minimizedRMSD -1
REMARK  0 active torsions:
REMARK  status: ('A' for Active; 'I' for Inactive)
ROOT
ATOM      1  C1  DEN d   1       1.798   4.888  -5.968  0.00  0.00     0.130 A 
ATOM      2  C2  DEN d   1       2.669   3.716  -5.991  0.00  0.00    -0.031 A 
ATOM      3  C3  DEN d   1       1.813   2.512  -5.997  0.00  0.00     0.027 A 
ATOM      4  C4  DEN d   1      -0.761   2.351  -5.977  0.00  0.00     0.027 A 
ATOM      5  C5  DEN d   1      -1.931   3.078  -5.945  0.00  0.00    -0.003 A 
ATOM      6  C6  DEN d   1      -1.940   4.446  -5.885  0.00  0.00     0.001 A 
ATOM      7  C7  DEN d   1      -0.755   5.133  -5.900  0.00  0.00     0.017 A 
ATOM      8  C8  DEN d   1       0.429   4.408  -5.924  0.00  0.00    -0.094 A 
ATOM      9  C9  DEN d   1       0.417   3.025  -5.998  0.00  0.00    -0.072 A 
ENDROOT
TORSDOF 0
ENDMDL
