MODEL 1
REMARK minimizedAffinity 1.62259209
REMARK minimizedRMSD -1
REMARK  0 active torsions:
REMARK  status: ('A' for Active; 'I' for Inactive)
ROOT
ATOM      1  C1  DEN d   1       1.074   3.562  -3.633  0.00  0.00     0.130 A 
ATOM      2  C2  DEN d   1       1.604   2.959  -4.853  0.00  0.00    -0.031 A 
ATOM      3  C3  DEN d   1       0.845   3.501  -5.997  0.00  0.00     0.027 A 
ATOM      4  C4  DEN d   1      -1.086   5.212  -5.999  0.00  0.00     0.027 A 
ATOM      5  C5  DEN d   1      -1.891   5.997  -5.204  0.00  0.00    -0.003 A 
ATOM      6  C6  DEN d   1      -1.788   6.000  -3.838  0.00  0.00     0.001 A 
ATOM      7  C7  DEN d   1      -0.828   5.236  -3.228  0.00  0.00     0.017 A 
ATOM      8  C8  DEN d   1      -0.017   4.436  -4.023  0.00  0.00    -0.094 A 
ATOM      9  C9  DEN d   1      -0.129   4.456  -5.403  0.00  0.00    -0.072 A 
ENDROOT
TORSDOF 0
ENDMDL
