MODEL 1
REMARK minimizedAffinity -2.63128901
REMARK minimizedRMSD -1
REMARK  0 active torsions:
REMARK  status: ('A' for Active; 'I' for Inactive)
ROOT
ATOM      1  C1  DEN d   1       0.060   4.638  -5.952  0.00  0.00     0.130 A 
ATOM      2  C2  DEN d   1       0.315   3.200  -5.941  0.00  0.00    -0.031 A 
ATOM      3  C3  DEN d   1      -0.988   2.505  -5.954  0.00  0.00     0.027 A 
ATOM      4  C4  DEN d   1      -3.363   3.511  -5.994  0.00  0.00     0.027 A 
ATOM      5  C5  DEN d   1      -4.086   4.683  -5.998  0.00  0.00    -0.003 A 
ATOM      6  C6  DEN d   1      -3.483   5.913  -5.953  0.00  0.00     0.001 A 
ATOM      7  C7  DEN d   1      -2.116   5.999  -5.947  0.00  0.00     0.017 A 
ATOM      8  C8  DEN d   1      -1.381   4.821  -5.936  0.00  0.00    -0.094 A 
ATOM      9  C9  DEN d   1      -2.008   3.588  -5.994  0.00  0.00    -0.072 A 
ENDROOT
TORSDOF 0
ENDMDL
