MODEL 1
REMARK minimizedAffinity 1.91409934
REMARK minimizedRMSD -1
REMARK  0 active torsions:
REMARK  status: ('A' for Active; 'I' for Inactive)
ROOT
ATOM      1  C1  DEN d   1      -0.764   2.341  -5.983  0.00  0.00     0.130 A 
ATOM      2  C2  DEN d   1       0.630   2.778  -5.979  0.00  0.00    -0.031 A 
ATOM      3  C3  DEN d   1       0.645   4.254  -5.958  0.00  0.00     0.027 A 
ATOM      4  C4  DEN d   1      -1.342   5.898  -5.926  0.00  0.00     0.027 A 
ATOM      5  C5  DEN d   1      -2.716   5.998  -5.934  0.00  0.00    -0.003 A 
ATOM      6  C6  DEN d   1      -3.528   4.897  -5.992  0.00  0.00     0.001 A 
ATOM      7  C7  DEN d   1      -2.974   3.644  -6.000  0.00  0.00     0.017 A 
ATOM      8  C8  DEN d   1      -1.590   3.535  -6.000  0.00  0.00    -0.094 A 
ATOM      9  C9  DEN d   1      -0.786   4.660  -5.928  0.00  0.00    -0.072 A 
ENDROOT
TORSDOF 0
ENDMDL
