MODEL 1
REMARK minimizedAffinity -0.936436892
REMARK minimizedRMSD -1
REMARK  0 active torsions:
REMARK  status: ('A' for Active; 'I' for Inactive)
ROOT
ATOM      1  C1  DEN d   1       1.123   5.989  -5.978  0.00  0.00     0.130 A 
ATOM      2  C2  DEN d   1       0.099   4.948  -5.985  0.00  0.00    -0.031 A 
ATOM      3  C3  DEN d   1       0.781   3.638  -5.975  0.00  0.00     0.027 A 
ATOM      4  C4  DEN d   1       3.308   3.124  -5.946  0.00  0.00     0.027 A 
ATOM      5  C5  DEN d   1       4.567   3.682  -5.947  0.00  0.00    -0.003 A 
ATOM      6  C6  DEN d   1       4.765   5.037  -5.993  0.00  0.00     0.001 A 
ATOM      7  C7  DEN d   1       3.686   5.881  -5.994  0.00  0.00     0.017 A 
ATOM      8  C8  DEN d   1       2.413   5.325  -6.000  0.00  0.00    -0.094 A 
ATOM      9  C9  DEN d   1       2.234   3.953  -5.941  0.00  0.00    -0.072 A 
ENDROOT
TORSDOF 0
ENDMDL
