MODEL 1
REMARK minimizedAffinity -2.31429791
REMARK minimizedRMSD -1
REMARK  0 active torsions:
REMARK  status: ('A' for Active; 'I' for Inactive)
ROOT
ATOM      1  C1  DEN d   1      -2.345   5.910  -5.946  0.00  0.00     0.130 A 
ATOM      2  C2  DEN d   1      -3.751   5.517  -5.973  0.00  0.00    -0.031 A 
ATOM      3  C3  DEN d   1      -3.813   4.042  -5.999  0.00  0.00     0.027 A 
ATOM      4  C4  DEN d   1      -1.877   2.337  -5.994  0.00  0.00     0.027 A 
ATOM      5  C5  DEN d   1      -0.507   2.194  -5.987  0.00  0.00    -0.003 A 
ATOM      6  C6  DEN d   1       0.339   3.271  -6.000  0.00  0.00     0.001 A 
ATOM      7  C7  DEN d   1      -0.176   4.540  -5.975  0.00  0.00     0.017 A 
ATOM      8  C8  DEN d   1      -1.556   4.692  -5.990  0.00  0.00    -0.094 A 
ATOM      9  C9  DEN d   1      -2.395   3.591  -5.964  0.00  0.00    -0.072 A 
ENDROOT
TORSDOF 0
ENDMDL
