MODEL 1
REMARK minimizedAffinity 1.83139384
REMARK minimizedRMSD -1
REMARK  0 active torsions:
REMARK  status: ('A' for Active; 'I' for Inactive)
ROOT
ATOM      1  C1  DEN d   1       0.458   3.429  -5.919  0.00  0.00     0.130 A 
ATOM      2  C2  DEN d   1       1.107   4.737  -5.873  0.00  0.00    -0.031 A 
ATOM      3  C3  DEN d   1       0.051   5.770  -5.845  0.00  0.00     0.027 A 
ATOM      4  C4  DEN d   1      -2.511   5.472  -5.865  0.00  0.00     0.027 A 
ATOM      5  C5  DEN d   1      -3.533   4.551  -5.912  0.00  0.00    -0.003 A 
ATOM      6  C6  DEN d   1      -3.299   3.204  -5.998  0.00  0.00     0.001 A 
ATOM      7  C7  DEN d   1      -2.011   2.737  -5.995  0.00  0.00     0.017 A 
ATOM      8  C8  DEN d   1      -0.975   3.660  -5.955  0.00  0.00    -0.094 A 
ATOM      9  C9  DEN d   1      -1.232   5.017  -5.856  0.00  0.00    -0.072 A 
ENDROOT
TORSDOF 0
ENDMDL
