MODEL 1
REMARK minimizedAffinity 0.405250728
REMARK minimizedRMSD -1
REMARK  0 active torsions:
REMARK  status: ('A' for Active; 'I' for Inactive)
ROOT
ATOM      1  C1  DEN d   1       0.861   3.084  -5.912  0.00  0.00     0.130 A 
ATOM      2  C2  DEN d   1       1.425   4.430  -5.941  0.00  0.00    -0.031 A 
ATOM      3  C3  DEN d   1       0.306   5.393  -5.982  0.00  0.00     0.027 A 
ATOM      4  C4  DEN d   1      -2.232   4.932  -5.999  0.00  0.00     0.027 A 
ATOM      5  C5  DEN d   1      -3.193   3.946  -5.996  0.00  0.00    -0.003 A 
ATOM      6  C6  DEN d   1      -2.873   2.614  -5.999  0.00  0.00     0.001 A 
ATOM      7  C7  DEN d   1      -1.559   2.231  -5.960  0.00  0.00     0.017 A 
ATOM      8  C8  DEN d   1      -0.583   3.220  -5.970  0.00  0.00    -0.094 A 
ATOM      9  C9  DEN d   1      -0.927   4.561  -5.955  0.00  0.00    -0.072 A 
ENDROOT
TORSDOF 0
ENDMDL
