MODEL 1
REMARK minimizedAffinity -1.27434623
REMARK minimizedRMSD -1
REMARK  0 active torsions:
REMARK  status: ('A' for Active; 'I' for Inactive)
ROOT
ATOM      1  C1  DEN d   1       0.305   4.018  -5.991  0.00  0.00     0.130 A 
ATOM      2  C2  DEN d   1       0.257   2.558  -5.968  0.00  0.00    -0.031 A 
ATOM      3  C3  DEN d   1      -1.162   2.148  -5.959  0.00  0.00     0.027 A 
ATOM      4  C4  DEN d   1      -3.278   3.623  -5.985  0.00  0.00     0.027 A 
ATOM      5  C5  DEN d   1      -3.742   4.920  -5.994  0.00  0.00    -0.003 A 
ATOM      6  C6  DEN d   1      -2.898   5.998  -5.969  0.00  0.00     0.001 A 
ATOM      7  C7  DEN d   1      -1.542   5.799  -5.979  0.00  0.00     0.017 A 
ATOM      8  C8  DEN d   1      -1.066   4.494  -5.962  0.00  0.00    -0.094 A 
ATOM      9  C9  DEN d   1      -1.936   3.418  -6.000  0.00  0.00    -0.072 A 
ENDROOT
TORSDOF 0
ENDMDL
