MODEL 1
REMARK minimizedAffinity 6.19949627
REMARK minimizedRMSD -1
REMARK  0 active torsions:
REMARK  status: ('A' for Active; 'I' for Inactive)
ROOT
ATOM      1  C1  DEN d   1      -0.221   3.337  -4.746  0.00  0.00     0.130 A 
ATOM      2  C2  DEN d   1      -0.468   2.025  -5.338  0.00  0.00    -0.031 A 
ATOM      3  C3  DEN d   1      -1.821   2.040  -5.930  0.00  0.00     0.027 A 
ATOM      4  C4  DEN d   1      -3.545   3.957  -5.991  0.00  0.00     0.027 A 
ATOM      5  C5  DEN d   1      -3.792   5.257  -5.609  0.00  0.00    -0.003 A 
ATOM      6  C6  DEN d   1      -2.887   5.991  -4.888  0.00  0.00     0.001 A 
ATOM      7  C7  DEN d   1      -1.673   5.444  -4.566  0.00  0.00     0.017 A 
ATOM      8  C8  DEN d   1      -1.419   4.132  -4.942  0.00  0.00    -0.094 A 
ATOM      9  C9  DEN d   1      -2.342   3.410  -5.681  0.00  0.00    -0.072 A 
ENDROOT
TORSDOF 0
ENDMDL
