MODEL 1
REMARK minimizedAffinity 6.12038755
REMARK minimizedRMSD -1
REMARK  0 active torsions:
REMARK  status: ('A' for Active; 'I' for Inactive)
ROOT
ATOM      1  C1  DEN d   1       1.375   5.131  -5.530  0.00  0.00     0.130 A 
ATOM      2  C2  DEN d   1       1.883   3.845  -6.000  0.00  0.00    -0.031 A 
ATOM      3  C3  DEN d   1       0.761   2.884  -6.000  0.00  0.00     0.027 A 
ATOM      4  C4  DEN d   1      -1.700   3.263  -5.327  0.00  0.00     0.027 A 
ATOM      5  C5  DEN d   1      -2.604   4.187  -4.851  0.00  0.00    -0.003 A 
ATOM      6  C6  DEN d   1      -2.241   5.470  -4.539  0.00  0.00     0.001 A 
ATOM      7  C7  DEN d   1      -0.949   5.878  -4.742  0.00  0.00     0.017 A 
ATOM      8  C8  DEN d   1      -0.030   4.951  -5.214  0.00  0.00    -0.094 A 
ATOM      9  C9  DEN d   1      -0.419   3.661  -5.535  0.00  0.00    -0.072 A 
ENDROOT
TORSDOF 0
ENDMDL
