MODEL 1
REMARK minimizedAffinity 6.50431871
REMARK minimizedRMSD -1
REMARK  0 active torsions:
REMARK  status: ('A' for Active; 'I' for Inactive)
ROOT
ATOM      1  C1  DEN d   1      -2.536   3.111  -5.996  0.00  0.00     0.130 A 
ATOM      2  C2  DEN d   1      -3.130   4.444  -5.962  0.00  0.00    -0.031 A 
ATOM      3  C3  DEN d   1      -2.032   5.432  -5.947  0.00  0.00     0.027 A 
ATOM      4  C4  DEN d   1       0.515   5.029  -5.980  0.00  0.00     0.027 A 
ATOM      5  C5  DEN d   1       1.499   4.065  -5.998  0.00  0.00    -0.003 A 
ATOM      6  C6  DEN d   1       1.210   2.726  -5.983  0.00  0.00     0.001 A 
ATOM      7  C7  DEN d   1      -0.097   2.314  -5.994  0.00  0.00     0.017 A 
ATOM      8  C8  DEN d   1      -1.094   3.280  -5.968  0.00  0.00    -0.094 A 
ATOM      9  C9  DEN d   1      -0.781   4.628  -5.996  0.00  0.00    -0.072 A 
ENDROOT
TORSDOF 0
ENDMDL
