MODEL 1
REMARK minimizedAffinity -1.16431439
REMARK minimizedRMSD -1
REMARK  0 active torsions:
REMARK  status: ('A' for Active; 'I' for Inactive)
ROOT
ATOM      1  C1  DEN d   1       0.873   4.887  -5.972  0.00  0.00     0.130 A 
ATOM      2  C2  DEN d   1       1.500   3.568  -5.991  0.00  0.00    -0.031 A 
ATOM      3  C3  DEN d   1       0.427   2.553  -5.995  0.00  0.00     0.027 A 
ATOM      4  C4  DEN d   1      -2.129   2.893  -5.980  0.00  0.00     0.027 A 
ATOM      5  C5  DEN d   1      -3.136   3.833  -5.951  0.00  0.00    -0.003 A 
ATOM      6  C6  DEN d   1      -2.880   5.177  -5.894  0.00  0.00     0.001 A 
ATOM      7  C7  DEN d   1      -1.584   5.622  -5.909  0.00  0.00     0.017 A 
ATOM      8  C8  DEN d   1      -0.563   4.681  -5.930  0.00  0.00    -0.094 A 
ATOM      9  C9  DEN d   1      -0.843   3.327  -6.000  0.00  0.00    -0.072 A 
ENDROOT
TORSDOF 0
ENDMDL
