MODEL 1
REMARK minimizedAffinity -4.16286993
REMARK minimizedRMSD -1
REMARK  0 active torsions:
REMARK  status: ('A' for Active; 'I' for Inactive)
ROOT
ATOM      1  C1  DEN d   1       3.382   2.637  -5.954  0.00  0.00     0.130 A 
ATOM      2  C2  DEN d   1       4.124   3.894  -5.980  0.00  0.00    -0.031 A 
ATOM      3  C3  DEN d   1       3.146   5.001  -6.000  0.00  0.00     0.027 A 
ATOM      4  C4  DEN d   1       0.569   4.889  -5.989  0.00  0.00     0.027 A 
ATOM      5  C5  DEN d   1      -0.518   4.043  -5.982  0.00  0.00    -0.003 A 
ATOM      6  C6  DEN d   1      -0.382   2.680  -5.999  0.00  0.00     0.001 A 
ATOM      7  C7  DEN d   1       0.869   2.122  -5.979  0.00  0.00     0.017 A 
ATOM      8  C8  DEN d   1       1.969   2.969  -5.994  0.00  0.00    -0.094 A 
ATOM      9  C9  DEN d   1       1.812   4.344  -5.963  0.00  0.00    -0.072 A 
ENDROOT
TORSDOF 0
ENDMDL
