MODEL 1
REMARK minimizedAffinity 5.03469372
REMARK minimizedRMSD -1
REMARK  0 active torsions:
REMARK  status: ('A' for Active; 'I' for Inactive)
ROOT
ATOM      1  C1  DEN d   1       2.188   4.843  -6.000  0.00  0.00     0.130 A 
ATOM      2  C2  DEN d   1       2.668   3.464  -5.971  0.00  0.00    -0.031 A 
ATOM      3  C3  DEN d   1       1.492   2.571  -5.957  0.00  0.00     0.027 A 
ATOM      4  C4  DEN d   1      -1.013   3.187  -5.980  0.00  0.00     0.027 A 
ATOM      5  C5  DEN d   1      -1.913   4.230  -5.992  0.00  0.00    -0.003 A 
ATOM      6  C6  DEN d   1      -1.512   5.540  -5.973  0.00  0.00     0.001 A 
ATOM      7  C7  DEN d   1      -0.176   5.841  -5.987  0.00  0.00     0.017 A 
ATOM      8  C8  DEN d   1       0.737   4.795  -5.968  0.00  0.00    -0.094 A 
ATOM      9  C9  DEN d   1       0.312   3.477  -5.999  0.00  0.00    -0.072 A 
ENDROOT
TORSDOF 0
ENDMDL
