MODEL 1
REMARK minimizedAffinity -2.00762868
REMARK minimizedRMSD -1
REMARK  0 active torsions:
REMARK  status: ('A' for Active; 'I' for Inactive)
ROOT
ATOM      1  C1  DEN d   1       1.391   4.555  -5.985  0.00  0.00     0.130 A 
ATOM      2  C2  DEN d   1       1.608   3.110  -5.989  0.00  0.00    -0.031 A 
ATOM      3  C3  DEN d   1       0.287   2.451  -5.985  0.00  0.00     0.027 A 
ATOM      4  C4  DEN d   1      -2.061   3.519  -5.977  0.00  0.00     0.027 A 
ATOM      5  C5  DEN d   1      -2.752   4.711  -5.961  0.00  0.00    -0.003 A 
ATOM      6  C6  DEN d   1      -2.116   5.923  -5.917  0.00  0.00     0.001 A 
ATOM      7  C7  DEN d   1      -0.747   5.972  -5.934  0.00  0.00     0.017 A 
ATOM      8  C8  DEN d   1      -0.043   4.775  -5.943  0.00  0.00    -0.094 A 
ATOM      9  C9  DEN d   1      -0.705   3.560  -6.000  0.00  0.00    -0.072 A 
ENDROOT
TORSDOF 0
ENDMDL
