MODEL 1
REMARK minimizedAffinity -2.80896616
REMARK minimizedRMSD -1
REMARK  0 active torsions:
REMARK  status: ('A' for Active; 'I' for Inactive)
ROOT
ATOM      1  C1  DEN d   1       0.811   4.561  -6.000  0.00  0.00     0.130 A 
ATOM      2  C2  DEN d   1       1.408   3.229  -5.956  0.00  0.00    -0.031 A 
ATOM      3  C3  DEN d   1       0.314   2.238  -5.932  0.00  0.00     0.027 A 
ATOM      4  C4  DEN d   1      -2.235   2.635  -5.964  0.00  0.00     0.027 A 
ATOM      5  C5  DEN d   1      -3.221   3.596  -5.988  0.00  0.00    -0.003 A 
ATOM      6  C6  DEN d   1      -2.935   4.935  -5.983  0.00  0.00     0.001 A 
ATOM      7  C7  DEN d   1      -1.630   5.351  -6.000  0.00  0.00     0.017 A 
ATOM      8  C8  DEN d   1      -0.630   4.388  -5.968  0.00  0.00    -0.094 A 
ATOM      9  C9  DEN d   1      -0.939   3.039  -5.985  0.00  0.00    -0.072 A 
ENDROOT
TORSDOF 0
ENDMDL
