MODEL 1
REMARK minimizedAffinity -1.0674051
REMARK minimizedRMSD -1
REMARK  0 active torsions:
REMARK  status: ('A' for Active; 'I' for Inactive)
ROOT
ATOM      1  C1  DEN d   1       1.183   3.972  -6.000  0.00  0.00     0.130 A 
ATOM      2  C2  DEN d   1       1.552   2.560  -5.962  0.00  0.00    -0.031 A 
ATOM      3  C3  DEN d   1       0.309   1.763  -5.945  0.00  0.00     0.027 A 
ATOM      4  C4  DEN d   1      -2.139   2.575  -5.979  0.00  0.00     0.027 A 
ATOM      5  C5  DEN d   1      -2.953   3.686  -6.000  0.00  0.00    -0.003 A 
ATOM      6  C6  DEN d   1      -2.450   4.960  -5.988  0.00  0.00     0.001 A 
ATOM      7  C7  DEN d   1      -1.094   5.155  -6.000  0.00  0.00     0.017 A 
ATOM      8  C8  DEN d   1      -0.267   4.040  -5.971  0.00  0.00    -0.094 A 
ATOM      9  C9  DEN d   1      -0.795   2.760  -5.996  0.00  0.00    -0.072 A 
ENDROOT
TORSDOF 0
ENDMDL
