MODEL 1
REMARK minimizedAffinity 11.9573545
REMARK minimizedRMSD -1
REMARK  0 active torsions:
REMARK  status: ('A' for Active; 'I' for Inactive)
ROOT
ATOM      1  C   UNL d   1      -2.265  -3.184  -6.000  0.00  0.00     0.023 A 
ATOM      2  C1  UNL d   1      -1.890  -1.920  -5.545  0.00  0.00     0.003 A 
ATOM      3  C2  UNL d   1      -1.907  -1.634  -4.179  0.00  0.00     0.048 A 
ATOM      4  C3  UNL d   1      -2.301  -2.617  -3.272  0.00  0.00     0.023 A 
ATOM      5  C4  UNL d   1      -2.677  -3.884  -3.722  0.00  0.00     0.048 A 
ATOM      6  C5  UNL d   1      -2.658  -4.165  -5.089  0.00  0.00     0.003 A 
ATOM      7  I   UNL d   1      -2.328  -2.195  -1.237  0.00  0.00    -0.146 I 
ENDROOT
TORSDOF 0
ENDMDL
