MODEL 1
REMARK minimizedAffinity 8.01363277
REMARK minimizedRMSD -1
REMARK  0 active torsions:
REMARK  status: ('A' for Active; 'I' for Inactive)
ROOT
ATOM      1  C   UNL d   1      -2.235  -3.576  -5.997  0.00  0.00     0.023 A 
ATOM      2  C1  UNL d   1      -1.237  -2.627  -5.775  0.00  0.00     0.003 A 
ATOM      3  C2  UNL d   1      -0.931  -2.226  -4.473  0.00  0.00     0.048 A 
ATOM      4  C3  UNL d   1      -1.627  -2.778  -3.398  0.00  0.00     0.023 A 
ATOM      5  C4  UNL d   1      -2.625  -3.728  -3.615  0.00  0.00     0.048 A 
ATOM      6  C5  UNL d   1      -2.929  -4.126  -4.918  0.00  0.00     0.003 A 
ATOM      7  I   UNL d   1      -1.173  -2.182  -1.459  0.00  0.00    -0.146 I 
ENDROOT
TORSDOF 0
ENDMDL
