MODEL 1
REMARK minimizedAffinity 3.71860743
REMARK minimizedRMSD -1
REMARK  0 active torsions:
REMARK  status: ('A' for Active; 'I' for Inactive)
ROOT
ATOM      1  C   UNL d   1      -2.139  -3.076  -6.000  0.00  0.00     0.023 A 
ATOM      2  C1  UNL d   1      -2.759  -3.916  -5.074  0.00  0.00     0.003 A 
ATOM      3  C2  UNL d   1      -2.660  -3.644  -3.708  0.00  0.00     0.048 A 
ATOM      4  C3  UNL d   1      -1.942  -2.530  -3.274  0.00  0.00     0.023 A 
ATOM      5  C4  UNL d   1      -1.321  -1.687  -4.197  0.00  0.00     0.048 A 
ATOM      6  C5  UNL d   1      -1.421  -1.963  -5.562  0.00  0.00     0.003 A 
ATOM      7  I   UNL d   1      -1.794  -2.124  -1.242  0.00  0.00    -0.146 I 
ENDROOT
TORSDOF 0
ENDMDL
