MODEL 1
REMARK minimizedAffinity 7.36877155
REMARK minimizedRMSD -1
REMARK  0 active torsions:
REMARK  status: ('A' for Active; 'I' for Inactive)
ROOT
ATOM      1  C   UNL d   1      -2.258  -3.709  -6.000  0.00  0.00     0.023 A 
ATOM      2  C1  UNL d   1      -2.680  -4.462  -4.904  0.00  0.00     0.003 A 
ATOM      3  C2  UNL d   1      -2.344  -4.062  -3.609  0.00  0.00     0.048 A 
ATOM      4  C3  UNL d   1      -1.587  -2.907  -3.417  0.00  0.00     0.023 A 
ATOM      5  C4  UNL d   1      -1.163  -2.149  -4.510  0.00  0.00     0.048 A 
ATOM      6  C5  UNL d   1      -1.500  -2.554  -5.803  0.00  0.00     0.003 A 
ATOM      7  I   UNL d   1      -1.087  -2.309  -1.490  0.00  0.00    -0.146 I 
ENDROOT
TORSDOF 0
ENDMDL
