MODEL 1
REMARK minimizedAffinity 1.62717152
REMARK minimizedRMSD -1
REMARK  0 active torsions:
REMARK  status: ('A' for Active; 'I' for Inactive)
ROOT
ATOM      1  C   UNL d   1       2.007   2.130  -5.962  0.00  0.00     0.023 A 
ATOM      2  C1  UNL d   1       1.489   3.425  -5.984  0.00  0.00     0.003 A 
ATOM      3  C2  UNL d   1       2.351   4.523  -5.995  0.00  0.00     0.048 A 
ATOM      4  C3  UNL d   1       3.730   4.320  -5.984  0.00  0.00     0.023 A 
ATOM      5  C4  UNL d   1       4.254   3.026  -5.963  0.00  0.00     0.048 A 
ATOM      6  C5  UNL d   1       3.388   1.931  -5.952  0.00  0.00     0.003 A 
ATOM      7  I   UNL d   1       5.015   5.953  -6.000  0.00  0.00    -0.146 I 
ENDROOT
TORSDOF 0
ENDMDL
