MODEL 1
REMARK minimizedAffinity 4.83416796
REMARK minimizedRMSD -1
REMARK  0 active torsions:
REMARK  status: ('A' for Active; 'I' for Inactive)
ROOT
ATOM      1  C   UNL d   1      -0.697  -1.882  -1.652  0.00  0.00     0.023 A 
ATOM      2  C1  UNL d   1      -1.906  -1.482  -1.081  0.00  0.00     0.003 A 
ATOM      3  C2  UNL d   1      -2.145  -1.703   0.276  0.00  0.00     0.048 A 
ATOM      4  C3  UNL d   1      -1.171  -2.322   1.059  0.00  0.00     0.023 A 
ATOM      5  C4  UNL d   1       0.040  -2.723   0.493  0.00  0.00     0.048 A 
ATOM      6  C5  UNL d   1       0.275  -2.501  -0.865  0.00  0.00     0.003 A 
ATOM      7  I   UNL d   1      -1.526  -2.652   3.080  0.00  0.00    -0.146 I 
ENDROOT
TORSDOF 0
ENDMDL
