MODEL 1
REMARK minimizedAffinity 8.54618931
REMARK minimizedRMSD -1
REMARK  0 active torsions:
REMARK  status: ('A' for Active; 'I' for Inactive)
ROOT
ATOM      1  C   UNL d   1      -2.286  -3.385  -5.998  0.00  0.00     0.023 A 
ATOM      2  C1  UNL d   1      -2.913  -4.087  -4.968  0.00  0.00     0.003 A 
ATOM      3  C2  UNL d   1      -2.722  -3.699  -3.640  0.00  0.00     0.048 A 
ATOM      4  C3  UNL d   1      -1.905  -2.607  -3.350  0.00  0.00     0.023 A 
ATOM      5  C4  UNL d   1      -1.277  -1.901  -4.377  0.00  0.00     0.048 A 
ATOM      6  C5  UNL d   1      -1.469  -2.294  -5.703  0.00  0.00     0.003 A 
ATOM      7  I   UNL d   1      -1.619  -2.027  -1.374  0.00  0.00    -0.146 I 
ENDROOT
TORSDOF 0
ENDMDL
