MODEL 1
REMARK minimizedAffinity -0.115429945
REMARK minimizedRMSD -1
REMARK  0 active torsions:
REMARK  status: ('A' for Active; 'I' for Inactive)
ROOT
ATOM      1  C   UNL d   1       6.000   0.298  -4.160  0.00  0.00     0.023 A 
ATOM      2  C1  UNL d   1       5.633   1.393  -3.377  0.00  0.00     0.003 A 
ATOM      3  C2  UNL d   1       4.799   2.381  -3.903  0.00  0.00     0.048 A 
ATOM      4  C3  UNL d   1       4.334   2.268  -5.212  0.00  0.00     0.023 A 
ATOM      5  C4  UNL d   1       4.697   1.175  -6.000  0.00  0.00     0.048 A 
ATOM      6  C5  UNL d   1       5.532   0.189  -5.470  0.00  0.00     0.003 A 
ATOM      7  I   UNL d   1       3.092   3.738  -5.998  0.00  0.00    -0.146 I 
ENDROOT
TORSDOF 0
ENDMDL
