MODEL 1
REMARK minimizedAffinity 8.13030529
REMARK minimizedRMSD -1
REMARK  0 active torsions:
REMARK  status: ('A' for Active; 'I' for Inactive)
ROOT
ATOM      1  C   UNL d   1       5.999   0.086  -4.077  0.00  0.00     0.023 A 
ATOM      2  C1  UNL d   1       5.748   0.032  -5.448  0.00  0.00     0.003 A 
ATOM      3  C2  UNL d   1       4.706   0.782  -5.998  0.00  0.00     0.048 A 
ATOM      4  C3  UNL d   1       3.920   1.584  -5.172  0.00  0.00     0.023 A 
ATOM      5  C4  UNL d   1       4.169   1.643  -3.800  0.00  0.00     0.048 A 
ATOM      6  C5  UNL d   1       5.211   0.891  -3.254  0.00  0.00     0.003 A 
ATOM      7  I   UNL d   1       2.370   2.701  -5.989  0.00  0.00    -0.146 I 
ENDROOT
TORSDOF 0
ENDMDL
