MODEL 1
REMARK minimizedAffinity -0.0735180676
REMARK minimizedRMSD -1
REMARK  0 active torsions:
REMARK  status: ('A' for Active; 'I' for Inactive)
ROOT
ATOM      1  C   UNL d   1       1.092   3.990  -5.941  0.00  0.00     0.023 A 
ATOM      2  C1  UNL d   1       1.228   5.378  -5.973  0.00  0.00     0.003 A 
ATOM      3  C2  UNL d   1       2.499   5.956  -5.989  0.00  0.00     0.048 A 
ATOM      4  C3  UNL d   1       3.630   5.140  -5.974  0.00  0.00     0.023 A 
ATOM      5  C4  UNL d   1       3.498   3.751  -5.944  0.00  0.00     0.048 A 
ATOM      6  C5  UNL d   1       2.225   3.178  -5.927  0.00  0.00     0.003 A 
ATOM      7  I   UNL d   1       5.523   5.998  -5.998  0.00  0.00    -0.146 I 
ENDROOT
TORSDOF 0
ENDMDL
