MODEL 1
REMARK minimizedAffinity 4.3803587
REMARK minimizedRMSD -1
REMARK  0 active torsions:
REMARK  status: ('A' for Active; 'I' for Inactive)
ROOT
ATOM      1  C   UNL d   1       2.076   5.227  -6.000  0.00  0.00     0.023 A 
ATOM      2  C1  UNL d   1       2.169   5.978  -4.828  0.00  0.00     0.003 A 
ATOM      3  C2  UNL d   1       2.416   5.344  -3.608  0.00  0.00     0.048 A 
ATOM      4  C3  UNL d   1       2.570   3.959  -3.568  0.00  0.00     0.023 A 
ATOM      5  C4  UNL d   1       2.479   3.203  -4.738  0.00  0.00     0.048 A 
ATOM      6  C5  UNL d   1       2.231   3.841  -5.955  0.00  0.00     0.003 A 
ATOM      7  I   UNL d   1       2.939   3.013  -1.754  0.00  0.00    -0.146 I 
ENDROOT
TORSDOF 0
ENDMDL
