MODEL 1
REMARK minimizedAffinity -1.87763309
REMARK minimizedRMSD -1
REMARK  0 active torsions:
REMARK  status: ('A' for Active; 'I' for Inactive)
ROOT
ATOM      1  C   UNL d   1       1.841   3.277  -5.986  0.00  0.00     0.023 A 
ATOM      2  C1  UNL d   1       1.788   4.671  -5.976  0.00  0.00     0.003 A 
ATOM      3  C2  UNL d   1       2.970   5.416  -5.976  0.00  0.00     0.048 A 
ATOM      4  C3  UNL d   1       4.200   4.760  -5.988  0.00  0.00     0.023 A 
ATOM      5  C4  UNL d   1       4.258   3.366  -5.999  0.00  0.00     0.048 A 
ATOM      6  C5  UNL d   1       3.075   2.625  -5.998  0.00  0.00     0.003 A 
ATOM      7  I   UNL d   1       5.960   5.867  -5.989  0.00  0.00    -0.146 I 
ENDROOT
TORSDOF 0
ENDMDL
