MODEL 1
REMARK minimizedAffinity -0.917576075
REMARK minimizedRMSD -1
REMARK  0 active torsions:
REMARK  status: ('A' for Active; 'I' for Inactive)
ROOT
ATOM      1  C   UNL d   1       1.446   3.706  -5.741  0.00  0.00     0.023 A 
ATOM      2  C1  UNL d   1       1.519   5.095  -5.636  0.00  0.00     0.003 A 
ATOM      3  C2  UNL d   1       2.757   5.738  -5.709  0.00  0.00     0.048 A 
ATOM      4  C3  UNL d   1       3.917   4.986  -5.888  0.00  0.00     0.023 A 
ATOM      5  C4  UNL d   1       3.849   3.596  -5.995  0.00  0.00     0.048 A 
ATOM      6  C5  UNL d   1       2.609   2.957  -5.920  0.00  0.00     0.003 A 
ATOM      7  I   UNL d   1       5.760   5.940  -5.997  0.00  0.00    -0.146 I 
ENDROOT
TORSDOF 0
ENDMDL
