MODEL 1
REMARK minimizedAffinity -2.30012012
REMARK minimizedRMSD -1
REMARK  0 active torsions:
REMARK  status: ('A' for Active; 'I' for Inactive)
ROOT
ATOM      1  C   UNL d   1       5.998   1.314  -5.072  0.00  0.00     0.023 A 
ATOM      2  C1  UNL d   1       4.933   0.607  -5.629  0.00  0.00     0.003 A 
ATOM      3  C2  UNL d   1       3.725   1.256  -5.892  0.00  0.00     0.048 A 
ATOM      4  C3  UNL d   1       3.589   2.611  -5.596  0.00  0.00     0.023 A 
ATOM      5  C4  UNL d   1       4.653   3.323  -5.038  0.00  0.00     0.048 A 
ATOM      6  C5  UNL d   1       5.858   2.670  -4.777  0.00  0.00     0.003 A 
ATOM      7  I   UNL d   1       1.791   3.579  -5.986  0.00  0.00    -0.146 I 
ENDROOT
TORSDOF 0
ENDMDL
