MODEL 1
REMARK minimizedAffinity 1.18088412
REMARK minimizedRMSD -1
REMARK  0 active torsions:
REMARK  status: ('A' for Active; 'I' for Inactive)
ROOT
ATOM      1  C   UNL d   1       5.988   4.250  -4.777  0.00  0.00     0.023 A 
ATOM      2  C1  UNL d   1       5.987   3.571  -3.558  0.00  0.00     0.003 A 
ATOM      3  C2  UNL d   1       5.990   2.175  -3.535  0.00  0.00     0.048 A 
ATOM      4  C3  UNL d   1       5.995   1.464  -4.735  0.00  0.00     0.023 A 
ATOM      5  C4  UNL d   1       5.996   2.139  -5.957  0.00  0.00     0.048 A 
ATOM      6  C5  UNL d   1       5.992   3.535  -5.974  0.00  0.00     0.003 A 
ATOM      7  I   UNL d   1       5.999  -0.614  -4.704  0.00  0.00    -0.146 I 
ENDROOT
TORSDOF 0
ENDMDL
