MODEL 1
REMARK minimizedAffinity 0.492711723
REMARK minimizedRMSD -1
REMARK  2 active torsions:
REMARK  status: ('A' for Active; 'I' for Inactive)
REMARK    1  A    between atoms: C2'_3  and  C1'_4 
REMARK    2  A    between atoms: C1'_4  and  C1_5 
ROOT
ATOM      1  C1  I4B d   1      -0.825  -2.857   0.609  0.00  0.00    -0.075 A 
ATOM      2  C2  I4B d   1      -0.689  -4.103   0.049  0.00  0.00     0.003 A 
ATOM      3  C3  I4B d   1       0.598  -4.620  -0.236  0.00  0.00     0.002 A 
ATOM      4  C4  I4B d   1       1.712  -3.843   0.009  0.00  0.00    -0.004 A 
ATOM      5  C5  I4B d   1       1.573  -2.589   0.599  0.00  0.00     0.002 A 
ATOM      6  C6  I4B d   1       0.297  -2.098   0.913  0.00  0.00     0.003 A 
ENDROOT
BRANCH   1   7
ATOM      7  C1' I4B d   1      -2.201  -2.329   0.866  0.00  0.00     0.060 C 
BRANCH   7   8
ATOM      8  C2' I4B d   1      -3.029  -2.556  -0.383  0.00  0.00    -0.013 C 
ATOM      9  C4' I4B d   1      -4.493  -2.680  -0.051  0.00  0.00     0.013 C 
ATOM     10  C3' I4B d   1      -2.780  -1.410  -1.318  0.00  0.00     0.013 C 
ENDBRANCH   7   8
ENDBRANCH   1   7
TORSDOF 2
ENDMDL
