MODEL 1
REMARK minimizedAffinity 8.9189167
REMARK minimizedRMSD -1
REMARK  2 active torsions:
REMARK  status: ('A' for Active; 'I' for Inactive)
REMARK    1  A    between atoms: C2'_3  and  C1'_4 
REMARK    2  A    between atoms: C1'_4  and  C1_5 
ROOT
ATOM      1  C1  I4B d   1       2.131  -2.156   3.985  0.00  0.00    -0.075 A 
ATOM      2  C2  I4B d   1       2.970  -2.787   4.870  0.00  0.00     0.003 A 
ATOM      3  C3  I4B d   1       4.368  -2.795   4.645  0.00  0.00     0.002 A 
ATOM      4  C4  I4B d   1       4.876  -2.208   3.504  0.00  0.00    -0.004 A 
ATOM      5  C5  I4B d   1       4.027  -1.549   2.620  0.00  0.00     0.002 A 
ATOM      6  C6  I4B d   1       2.647  -1.512   2.868  0.00  0.00     0.003 A 
ENDROOT
BRANCH   1   7
ATOM      7  C1' I4B d   1       0.657  -2.195   4.236  0.00  0.00     0.060 C 
BRANCH   7   8
ATOM      8  C2' I4B d   1       0.420  -1.811   5.683  0.00  0.00    -0.013 C 
ATOM      9  C4' I4B d   1       1.034  -0.472   5.999  0.00  0.00     0.013 C 
ATOM     10  C3' I4B d   1      -1.061  -1.798   5.921  0.00  0.00     0.013 C 
ENDBRANCH   7   8
ENDBRANCH   1   7
TORSDOF 2
ENDMDL
