MODEL 1
REMARK minimizedAffinity 12.0388336
REMARK minimizedRMSD -1
REMARK  2 active torsions:
REMARK  status: ('A' for Active; 'I' for Inactive)
REMARK    1  A    between atoms: C2'_3  and  C1'_4 
REMARK    2  A    between atoms: C1'_4  and  C1_5 
ROOT
ATOM      1  C1  I4B d   1      -2.113  -3.080   0.255  0.00  0.00    -0.075 A 
ATOM      2  C2  I4B d   1      -1.132  -2.678  -0.617  0.00  0.00     0.003 A 
ATOM      3  C3  I4B d   1      -0.022  -3.518  -0.878  0.00  0.00     0.002 A 
ATOM      4  C4  I4B d   1       0.091  -4.721  -0.210  0.00  0.00    -0.004 A 
ATOM      5  C5  I4B d   1      -0.916  -5.136   0.656  0.00  0.00     0.002 A 
ATOM      6  C6  I4B d   1      -2.031  -4.316   0.882  0.00  0.00     0.003 A 
ENDROOT
BRANCH   1   7
ATOM      7  C1' I4B d   1      -3.254  -2.153   0.533  0.00  0.00     0.060 C 
BRANCH   7   8
ATOM      8  C2' I4B d   1      -4.184  -2.188  -0.663  0.00  0.00    -0.013 C 
ATOM      9  C4' I4B d   1      -5.623  -2.295  -0.232  0.00  0.00     0.013 C 
ATOM     10  C3' I4B d   1      -3.951  -0.943  -1.467  0.00  0.00     0.013 C 
ENDBRANCH   7   8
ENDBRANCH   1   7
TORSDOF 2
ENDMDL
