MODEL 1
REMARK minimizedAffinity 4.44891071
REMARK minimizedRMSD -1
REMARK  2 active torsions:
REMARK  status: ('A' for Active; 'I' for Inactive)
REMARK    1  A    between atoms: C2'_3  and  C1'_4 
REMARK    2  A    between atoms: C1'_4  and  C1_5 
ROOT
ATOM      1  C1  I4B d   1      -2.472  -1.170   5.104  0.00  0.00    -0.075 A 
ATOM      2  C2  I4B d   1      -2.314  -1.658   3.831  0.00  0.00     0.003 A 
ATOM      3  C3  I4B d   1      -1.062  -2.173   3.416  0.00  0.00     0.002 A 
ATOM      4  C4  I4B d   1       0.010  -2.134   4.283  0.00  0.00    -0.004 A 
ATOM      5  C5  I4B d   1      -0.158  -1.660   5.581  0.00  0.00     0.002 A 
ATOM      6  C6  I4B d   1      -1.410  -1.186   5.999  0.00  0.00     0.003 A 
ENDROOT
BRANCH   1   7
ATOM      7  C1' I4B d   1      -3.799  -0.604   5.499  0.00  0.00     0.060 C 
BRANCH   7   8
ATOM      8  C2' I4B d   1      -4.824  -1.060   4.480  0.00  0.00    -0.013 C 
ATOM      9  C4' I4B d   1      -5.996  -1.731   5.148  0.00  0.00     0.013 C 
ATOM     10  C3' I4B d   1      -5.262   0.139   3.694  0.00  0.00     0.013 C 
ENDBRANCH   7   8
ENDBRANCH   1   7
TORSDOF 2
ENDMDL
