MODEL 1
REMARK minimizedAffinity -3.98094463
REMARK minimizedRMSD -1
REMARK  2 active torsions:
REMARK  status: ('A' for Active; 'I' for Inactive)
REMARK    1  A    between atoms: C2'_3  and  C1'_4 
REMARK    2  A    between atoms: C1'_4  and  C1_5 
ROOT
ATOM      1  C1  I4B d   1      -1.168  -2.025   0.121  0.00  0.00    -0.075 A 
ATOM      2  C2  I4B d   1      -0.118  -2.446   0.900  0.00  0.00     0.003 A 
ATOM      3  C3  I4B d   1       1.129  -1.778   0.837  0.00  0.00     0.002 A 
ATOM      4  C4  I4B d   1       1.296  -0.733  -0.049  0.00  0.00    -0.004 A 
ATOM      5  C5  I4B d   1       0.224  -0.294  -0.821  0.00  0.00     0.002 A 
ATOM      6  C6  I4B d   1      -1.019  -0.936  -0.727  0.00  0.00     0.003 A 
ENDROOT
BRANCH   1   7
ATOM      7  C1' I4B d   1      -2.461  -2.775   0.189  0.00  0.00     0.060 C 
BRANCH   7   8
ATOM      8  C2' I4B d   1      -3.564  -1.844  -0.272  0.00  0.00    -0.013 C 
ATOM      9  C4' I4B d   1      -3.629  -1.780  -1.776  0.00  0.00     0.013 C 
ATOM     10  C3' I4B d   1      -4.857  -2.337   0.305  0.00  0.00     0.013 C 
ENDBRANCH   7   8
ENDBRANCH   1   7
TORSDOF 2
ENDMDL
