MODEL 1
REMARK minimizedAffinity -2.50269175
REMARK minimizedRMSD -1
REMARK  3 active torsions:
REMARK  status: ('A' for Active; 'I' for Inactive)
REMARK    1  A    between atoms: C3'_2  and  C2'_3 
REMARK    2  A    between atoms: C2'_3  and  C1'_4 
REMARK    3  A    between atoms: C1'_4  and  C1_5 
ROOT
ATOM      1  C1  N4B d   1       0.411   0.370   0.234  0.00  0.00    -0.075 A 
ATOM      2  C2  N4B d   1       0.959   1.242   1.200  0.00  0.00     0.002 A 
ATOM      3  C3  N4B d   1       0.354   1.377   2.425  0.00  0.00     0.002 A 
ATOM      4  C4  N4B d   1      -0.806   0.668   2.698  0.00  0.00    -0.004 A 
ATOM      5  C5  N4B d   1      -1.315  -0.192   1.769  0.00  0.00     0.002 A 
ATOM      6  C6  N4B d   1      -0.714  -0.341   0.535  0.00  0.00     0.002 A 
ENDROOT
BRANCH   1   7
ATOM      7  C1' N4B d   1       0.989   0.254  -1.150  0.00  0.00     0.057 C 
BRANCH   7   8
ATOM      8  C2' N4B d   1       0.116   1.038  -2.125  0.00  0.00     0.009 C 
BRANCH   8   9
ATOM      9  C3' N4B d   1       0.616   0.923  -3.555  0.00  0.00     0.004 C 
ATOM     10  C4' N4B d   1       2.063   1.290  -3.695  0.00  0.00     0.003 C 
ENDBRANCH   8   9
ENDBRANCH   7   8
ENDBRANCH   1   7
TORSDOF 3
ENDMDL
