MODEL 1
REMARK minimizedAffinity -1.53431964
REMARK minimizedRMSD -1
REMARK  0 active torsions:
REMARK  status: ('A' for Active; 'I' for Inactive)
ROOT
ATOM      1  C   UNL d   1      -1.442  -5.246  -4.872  0.00  0.00     0.023 A 
ATOM      2  C1  UNL d   1      -2.247  -5.234  -3.733  0.00  0.00     0.003 A 
ATOM      3  C2  UNL d   1      -3.417  -4.473  -3.711  0.00  0.00     0.048 A 
ATOM      4  C3  UNL d   1      -3.778  -3.727  -4.833  0.00  0.00     0.023 A 
ATOM      5  C4  UNL d   1      -2.977  -3.737  -5.976  0.00  0.00     0.048 A 
ATOM      6  C5  UNL d   1      -1.807  -4.499  -5.993  0.00  0.00     0.003 A 
ATOM      7  I   UNL d   1      -5.520  -2.594  -4.804  0.00  0.00    -0.146 I 
ENDROOT
TORSDOF 0
ENDMDL
