MODEL 1
REMARK minimizedAffinity -3.17207861
REMARK minimizedRMSD -1
REMARK  0 active torsions:
REMARK  status: ('A' for Active; 'I' for Inactive)
ROOT
ATOM      1  C   UNL d   1      -5.928  -3.215  -4.107  0.00  0.00     0.023 A 
ATOM      2  C1  UNL d   1      -5.250  -4.157  -3.333  0.00  0.00     0.003 A 
ATOM      3  C2  UNL d   1      -4.175  -4.865  -3.874  0.00  0.00     0.048 A 
ATOM      4  C3  UNL d   1      -3.783  -4.625  -5.191  0.00  0.00     0.023 A 
ATOM      5  C4  UNL d   1      -4.457  -3.683  -5.969  0.00  0.00     0.048 A 
ATOM      6  C5  UNL d   1      -5.532  -2.979  -5.423  0.00  0.00     0.003 A 
ATOM      7  I   UNL d   1      -2.183  -5.677  -5.999  0.00  0.00    -0.146 I 
ENDROOT
TORSDOF 0
ENDMDL
