MODEL 1
REMARK minimizedAffinity -2.03071308
REMARK minimizedRMSD -1
REMARK  0 active torsions:
REMARK  status: ('A' for Active; 'I' for Inactive)
ROOT
ATOM      1  C   UNL d   1      -5.702  -2.526  -5.007  0.00  0.00     0.023 A 
ATOM      2  C1  UNL d   1      -4.490  -2.193  -5.613  0.00  0.00     0.003 A 
ATOM      3  C2  UNL d   1      -3.553  -3.189  -5.895  0.00  0.00     0.048 A 
ATOM      4  C3  UNL d   1      -3.834  -4.516  -5.569  0.00  0.00     0.023 A 
ATOM      5  C4  UNL d   1      -5.046  -4.853  -4.963  0.00  0.00     0.048 A 
ATOM      6  C5  UNL d   1      -5.979  -3.854  -4.682  0.00  0.00     0.003 A 
ATOM      7  I   UNL d   1      -2.441  -6.000  -5.988  0.00  0.00    -0.146 I 
ENDROOT
TORSDOF 0
ENDMDL
