MODEL 1
REMARK minimizedAffinity -2.92078519
REMARK minimizedRMSD -1
REMARK  0 active torsions:
REMARK  status: ('A' for Active; 'I' for Inactive)
ROOT
ATOM      1  C   UNL d   1      -2.463  -5.235  -5.252  0.00  0.00     0.023 A 
ATOM      2  C1  UNL d   1      -2.146  -4.101  -6.000  0.00  0.00     0.003 A 
ATOM      3  C2  UNL d   1      -3.005  -3.000  -6.000  0.00  0.00     0.048 A 
ATOM      4  C3  UNL d   1      -4.179  -3.039  -5.248  0.00  0.00     0.023 A 
ATOM      5  C4  UNL d   1      -4.500  -4.171  -4.498  0.00  0.00     0.048 A 
ATOM      6  C5  UNL d   1      -3.639  -5.270  -4.502  0.00  0.00     0.003 A 
ATOM      7  I   UNL d   1      -5.458  -1.401  -5.246  0.00  0.00    -0.146 I 
ENDROOT
TORSDOF 0
ENDMDL
