MODEL 1
REMARK minimizedAffinity 5.19678068
REMARK minimizedRMSD -1
REMARK  0 active torsions:
REMARK  status: ('A' for Active; 'I' for Inactive)
ROOT
ATOM      1  C   UNL d   1      -5.108  -3.267  -4.127  0.00  0.00     0.023 A 
ATOM      2  C1  UNL d   1      -4.407  -4.138  -3.292  0.00  0.00     0.003 A 
ATOM      3  C2  UNL d   1      -3.374  -4.923  -3.809  0.00  0.00     0.048 A 
ATOM      4  C3  UNL d   1      -3.046  -4.831  -5.161  0.00  0.00     0.023 A 
ATOM      5  C4  UNL d   1      -3.744  -3.961  -6.000  0.00  0.00     0.048 A 
ATOM      6  C5  UNL d   1      -4.777  -3.179  -5.479  0.00  0.00     0.003 A 
ATOM      7  I   UNL d   1      -1.509  -5.999  -5.932  0.00  0.00    -0.146 I 
ENDROOT
TORSDOF 0
ENDMDL
