MODEL 1
REMARK minimizedAffinity -2.90474725
REMARK minimizedRMSD -1
REMARK  0 active torsions:
REMARK  status: ('A' for Active; 'I' for Inactive)
ROOT
ATOM      1  C   UNL d   1      -3.016  -5.787  -5.317  0.00  0.00     0.023 A 
ATOM      2  C1  UNL d   1      -2.524  -4.488  -5.197  0.00  0.00     0.003 A 
ATOM      3  C2  UNL d   1      -3.379  -3.397  -5.369  0.00  0.00     0.048 A 
ATOM      4  C3  UNL d   1      -4.725  -3.614  -5.660  0.00  0.00     0.023 A 
ATOM      5  C4  UNL d   1      -5.222  -4.912  -5.780  0.00  0.00     0.048 A 
ATOM      6  C5  UNL d   1      -4.363  -6.000  -5.608  0.00  0.00     0.003 A 
ATOM      7  I   UNL d   1      -6.000  -1.992  -5.917  0.00  0.00    -0.146 I 
ENDROOT
TORSDOF 0
ENDMDL
