MODEL 1
REMARK minimizedAffinity -0.946789205
REMARK minimizedRMSD -1
REMARK  0 active torsions:
REMARK  status: ('A' for Active; 'I' for Inactive)
ROOT
ATOM      1  C   UNL d   1      -2.672  -5.948  -6.000  0.00  0.00     0.023 A 
ATOM      2  C1  UNL d   1      -4.066  -6.000  -5.999  0.00  0.00     0.003 A 
ATOM      3  C2  UNL d   1      -4.803  -4.985  -5.386  0.00  0.00     0.048 A 
ATOM      4  C3  UNL d   1      -4.140  -3.921  -4.776  0.00  0.00     0.023 A 
ATOM      5  C4  UNL d   1      -2.746  -3.864  -4.774  0.00  0.00     0.048 A 
ATOM      6  C5  UNL d   1      -2.013  -4.881  -5.388  0.00  0.00     0.003 A 
ATOM      7  I   UNL d   1      -5.236  -2.409  -3.862  0.00  0.00    -0.146 I 
ENDROOT
TORSDOF 0
ENDMDL
