MODEL 1
REMARK minimizedAffinity 0.476814866
REMARK minimizedRMSD -1
REMARK  0 active torsions:
REMARK  status: ('A' for Active; 'I' for Inactive)
ROOT
ATOM      1  C   UNL d   1      -2.679  -1.015   1.065  0.00  0.00     0.023 A 
ATOM      2  C1  UNL d   1      -2.384  -0.690   2.389  0.00  0.00     0.003 A 
ATOM      3  C2  UNL d   1      -1.234  -1.201   2.995  0.00  0.00     0.048 A 
ATOM      4  C3  UNL d   1      -0.383  -2.035   2.270  0.00  0.00     0.023 A 
ATOM      5  C4  UNL d   1      -0.674  -2.362   0.945  0.00  0.00     0.048 A 
ATOM      6  C5  UNL d   1      -1.825  -1.849   0.344  0.00  0.00     0.003 A 
ATOM      7  I   UNL d   1       1.329  -2.796   3.169  0.00  0.00    -0.146 I 
ENDROOT
TORSDOF 0
ENDMDL
