MODEL 1
REMARK minimizedAffinity -0.429628521
REMARK minimizedRMSD -1
REMARK  0 active torsions:
REMARK  status: ('A' for Active; 'I' for Inactive)
ROOT
ATOM      1  C   UNL d   1      -1.845  -5.568  -4.924  0.00  0.00     0.023 A 
ATOM      2  C1  UNL d   1      -2.730  -5.502  -6.000  0.00  0.00     0.003 A 
ATOM      3  C2  UNL d   1      -3.775  -4.576  -5.990  0.00  0.00     0.048 A 
ATOM      4  C3  UNL d   1      -3.928  -3.718  -4.902  0.00  0.00     0.023 A 
ATOM      5  C4  UNL d   1      -3.044  -3.780  -3.823  0.00  0.00     0.048 A 
ATOM      6  C5  UNL d   1      -2.002  -4.708  -3.837  0.00  0.00     0.003 A 
ATOM      7  I   UNL d   1      -5.482  -2.338  -4.885  0.00  0.00    -0.146 I 
ENDROOT
TORSDOF 0
ENDMDL
