MODEL 1
REMARK minimizedAffinity -3.31228709
REMARK minimizedRMSD -1
REMARK  0 active torsions:
REMARK  status: ('A' for Active; 'I' for Inactive)
ROOT
ATOM      1  C   UNL d   1      -5.960  -2.371  -4.897  0.00  0.00     0.023 A 
ATOM      2  C1  UNL d   1      -6.000  -3.720  -4.545  0.00  0.00     0.003 A 
ATOM      3  C2  UNL d   1      -4.899  -4.541  -4.797  0.00  0.00     0.048 A 
ATOM      4  C3  UNL d   1      -3.761  -4.007  -5.400  0.00  0.00     0.023 A 
ATOM      5  C4  UNL d   1      -3.716  -2.657  -5.753  0.00  0.00     0.048 A 
ATOM      6  C5  UNL d   1      -4.820  -1.840  -5.500  0.00  0.00     0.003 A 
ATOM      7  I   UNL d   1      -2.121  -5.227  -5.776  0.00  0.00    -0.146 I 
ENDROOT
TORSDOF 0
ENDMDL
