MODEL 1
REMARK minimizedAffinity 4.13292408
REMARK minimizedRMSD -1
REMARK  0 active torsions:
REMARK  status: ('A' for Active; 'I' for Inactive)
ROOT
ATOM      1  C   UNL d   1       0.279  -0.813   0.738  0.00  0.00     0.023 A 
ATOM      2  C1  UNL d   1       1.325  -1.734   0.811  0.00  0.00     0.003 A 
ATOM      3  C2  UNL d   1       1.618  -2.365   2.022  0.00  0.00     0.048 A 
ATOM      4  C3  UNL d   1       0.861  -2.072   3.156  0.00  0.00     0.023 A 
ATOM      5  C4  UNL d   1      -0.186  -1.152   3.087  0.00  0.00     0.048 A 
ATOM      6  C5  UNL d   1      -0.475  -0.523   1.875  0.00  0.00     0.003 A 
ATOM      7  I   UNL d   1       1.296  -3.010   4.959  0.00  0.00    -0.146 I 
ENDROOT
TORSDOF 0
ENDMDL
