MODEL 1
REMARK minimizedAffinity 4.79125977
REMARK minimizedRMSD -1
REMARK  0 active torsions:
REMARK  status: ('A' for Active; 'I' for Inactive)
ROOT
ATOM      1  C   UNL d   1      -1.862  -4.144  -3.574  0.00  0.00     0.023 A 
ATOM      2  C1  UNL d   1      -2.077  -3.537  -4.812  0.00  0.00     0.003 A 
ATOM      3  C2  UNL d   1      -3.264  -3.773  -5.509  0.00  0.00     0.048 A 
ATOM      4  C3  UNL d   1      -4.231  -4.616  -4.963  0.00  0.00     0.023 A 
ATOM      5  C4  UNL d   1      -4.020  -5.225  -3.725  0.00  0.00     0.048 A 
ATOM      6  C5  UNL d   1      -2.832  -4.987  -3.032  0.00  0.00     0.003 A 
ATOM      7  I   UNL d   1      -5.998  -4.969  -6.000  0.00  0.00    -0.146 I 
ENDROOT
TORSDOF 0
ENDMDL
