MODEL 1
REMARK minimizedAffinity -2.41567469
REMARK minimizedRMSD -1
REMARK  0 active torsions:
REMARK  status: ('A' for Active; 'I' for Inactive)
ROOT
ATOM      1  C   UNL d   1      -2.115  -5.760  -4.686  0.00  0.00     0.023 A 
ATOM      2  C1  UNL d   1      -3.114  -5.731  -3.713  0.00  0.00     0.003 A 
ATOM      3  C2  UNL d   1      -4.230  -4.907  -3.880  0.00  0.00     0.048 A 
ATOM      4  C3  UNL d   1      -4.340  -4.116  -5.024  0.00  0.00     0.023 A 
ATOM      5  C4  UNL d   1      -3.343  -4.143  -6.000  0.00  0.00     0.048 A 
ATOM      6  C5  UNL d   1      -2.229  -4.967  -5.828  0.00  0.00     0.003 A 
ATOM      7  I   UNL d   1      -5.999  -2.890  -5.275  0.00  0.00    -0.146 I 
ENDROOT
TORSDOF 0
ENDMDL
