MODEL 1
REMARK minimizedAffinity -2.82043314
REMARK minimizedRMSD -1
REMARK  0 active torsions:
REMARK  status: ('A' for Active; 'I' for Inactive)
ROOT
ATOM      1  C   UNL d   1      -6.000  -4.427  -5.608  0.00  0.00     0.023 A 
ATOM      2  C1  UNL d   1      -5.260  -3.534  -4.833  0.00  0.00     0.003 A 
ATOM      3  C2  UNL d   1      -3.968  -3.869  -4.421  0.00  0.00     0.048 A 
ATOM      4  C3  UNL d   1      -3.423  -5.099  -4.789  0.00  0.00     0.023 A 
ATOM      5  C4  UNL d   1      -4.159  -5.995  -5.565  0.00  0.00     0.048 A 
ATOM      6  C5  UNL d   1      -5.450  -5.656  -5.974  0.00  0.00     0.003 A 
ATOM      7  I   UNL d   1      -1.501  -5.600  -4.178  0.00  0.00    -0.146 I 
ENDROOT
TORSDOF 0
ENDMDL
