MODEL 1
REMARK minimizedAffinity -2.14334822
REMARK minimizedRMSD -1
REMARK  0 active torsions:
REMARK  status: ('A' for Active; 'I' for Inactive)
ROOT
ATOM      1  C   UNL d   1      -5.652  -3.951  -4.622  0.00  0.00     0.023 A 
ATOM      2  C1  UNL d   1      -5.653  -4.975  -5.569  0.00  0.00     0.003 A 
ATOM      3  C2  UNL d   1      -4.450  -5.564  -5.964  0.00  0.00     0.048 A 
ATOM      4  C3  UNL d   1      -3.250  -5.124  -5.408  0.00  0.00     0.023 A 
ATOM      5  C4  UNL d   1      -3.244  -4.100  -4.459  0.00  0.00     0.048 A 
ATOM      6  C5  UNL d   1      -4.449  -3.514  -4.068  0.00  0.00     0.003 A 
ATOM      7  I   UNL d   1      -1.458  -5.999  -5.995  0.00  0.00    -0.146 I 
ENDROOT
TORSDOF 0
ENDMDL
