MODEL 1
REMARK minimizedAffinity -4.17920113
REMARK minimizedRMSD -1
REMARK  0 active torsions:
REMARK  status: ('A' for Active; 'I' for Inactive)
ROOT
ATOM      1  C   UNL d   1      -1.108  -5.650  -3.747  0.00  0.00     0.023 A 
ATOM      2  C1  UNL d   1      -1.165  -5.628  -5.141  0.00  0.00     0.003 A 
ATOM      3  C2  UNL d   1      -2.140  -4.868  -5.789  0.00  0.00     0.048 A 
ATOM      4  C3  UNL d   1      -3.056  -4.132  -5.037  0.00  0.00     0.023 A 
ATOM      5  C4  UNL d   1      -3.003  -4.151  -3.643  0.00  0.00     0.048 A 
ATOM      6  C5  UNL d   1      -2.026  -4.913  -2.999  0.00  0.00     0.003 A 
ATOM      7  I   UNL d   1      -4.510  -3.000  -6.000  0.00  0.00    -0.146 I 
ENDROOT
TORSDOF 0
ENDMDL
