MODEL 1
REMARK minimizedAffinity 5.62387133
REMARK minimizedRMSD -1
REMARK  0 active torsions:
REMARK  status: ('A' for Active; 'I' for Inactive)
ROOT
ATOM      1  C   UNL d   1       4.048   1.718   3.390  0.00  0.00     0.023 A 
ATOM      2  C1  UNL d   1       4.089   2.900   4.129  0.00  0.00     0.003 A 
ATOM      3  C2  UNL d   1       4.201   4.130   3.477  0.00  0.00     0.048 A 
ATOM      4  C3  UNL d   1       4.270   4.170   2.085  0.00  0.00     0.023 A 
ATOM      5  C4  UNL d   1       4.229   2.990   1.341  0.00  0.00     0.048 A 
ATOM      6  C5  UNL d   1       4.118   1.763   1.998  0.00  0.00     0.003 A 
ATOM      7  I   UNL d   1       4.436   5.999   1.112  0.00  0.00    -0.146 I 
ENDROOT
TORSDOF 0
ENDMDL
