MODEL 1
REMARK minimizedAffinity 13.9495449
REMARK minimizedRMSD -1
REMARK  0 active torsions:
REMARK  status: ('A' for Active; 'I' for Inactive)
ROOT
ATOM      1  C   UNL d   1       4.297   5.151   1.723  0.00  0.00     0.023 A 
ATOM      2  C1  UNL d   1       4.416   5.064   3.110  0.00  0.00     0.003 A 
ATOM      3  C2  UNL d   1       4.360   3.820   3.741  0.00  0.00     0.048 A 
ATOM      4  C3  UNL d   1       4.184   2.666   2.978  0.00  0.00     0.023 A 
ATOM      5  C4  UNL d   1       4.065   2.747   1.590  0.00  0.00     0.048 A 
ATOM      6  C5  UNL d   1       4.122   3.994   0.964  0.00  0.00     0.003 A 
ATOM      7  I   UNL d   1       4.100   0.812   3.915  0.00  0.00    -0.146 I 
ENDROOT
TORSDOF 0
ENDMDL
