MODEL 1
REMARK minimizedAffinity 9.13560581
REMARK minimizedRMSD -1
REMARK  0 active torsions:
REMARK  status: ('A' for Active; 'I' for Inactive)
ROOT
ATOM      1  C   UNL d   1       3.587   4.694   0.989  0.00  0.00     0.023 A 
ATOM      2  C1  UNL d   1       3.747   5.171   2.290  0.00  0.00     0.003 A 
ATOM      3  C2  UNL d   1       3.952   4.276   3.342  0.00  0.00     0.048 A 
ATOM      4  C3  UNL d   1       3.997   2.906   3.087  0.00  0.00     0.023 A 
ATOM      5  C4  UNL d   1       3.838   2.424   1.786  0.00  0.00     0.048 A 
ATOM      6  C5  UNL d   1       3.632   3.322   0.737  0.00  0.00     0.003 A 
ATOM      7  I   UNL d   1       4.303   1.573   4.652  0.00  0.00    -0.146 I 
ENDROOT
TORSDOF 0
ENDMDL
