MODEL 1
REMARK minimizedAffinity 12.0746098
REMARK minimizedRMSD -1
REMARK  0 active torsions:
REMARK  status: ('A' for Active; 'I' for Inactive)
ROOT
ATOM      1  C   UNL d   1       0.375  -2.135  -5.634  0.00  0.00     0.023 A 
ATOM      2  C1  UNL d   1       0.341  -0.764  -5.893  0.00  0.00     0.003 A 
ATOM      3  C2  UNL d   1       1.532  -0.042  -5.998  0.00  0.00     0.048 A 
ATOM      4  C3  UNL d   1       2.753  -0.697  -5.844  0.00  0.00     0.023 A 
ATOM      5  C4  UNL d   1       2.792  -2.068  -5.585  0.00  0.00     0.048 A 
ATOM      6  C5  UNL d   1       1.599  -2.786  -5.480  0.00  0.00     0.003 A 
ATOM      7  I   UNL d   1       4.527   0.375  -5.999  0.00  0.00    -0.146 I 
ENDROOT
TORSDOF 0
ENDMDL
