MODEL 1
REMARK minimizedAffinity 14.940073
REMARK minimizedRMSD -1
REMARK  0 active torsions:
REMARK  status: ('A' for Active; 'I' for Inactive)
ROOT
ATOM      1  C   UNL d   1       2.410  -0.390  -4.667  0.00  0.00     0.023 A 
ATOM      2  C1  UNL d   1       2.967  -1.520  -5.266  0.00  0.00     0.003 A 
ATOM      3  C2  UNL d   1       2.148  -2.585  -5.649  0.00  0.00     0.048 A 
ATOM      4  C3  UNL d   1       0.773  -2.512  -5.431  0.00  0.00     0.023 A 
ATOM      5  C4  UNL d   1       0.211  -1.382  -4.833  0.00  0.00     0.048 A 
ATOM      6  C5  UNL d   1       1.034  -0.321  -4.451  0.00  0.00     0.003 A 
ATOM      7  I   UNL d   1      -0.448  -4.094  -6.000  0.00  0.00    -0.146 I 
ENDROOT
TORSDOF 0
ENDMDL
