MODEL 1
REMARK minimizedAffinity 8.75871181
REMARK minimizedRMSD -1
REMARK  0 active torsions:
REMARK  status: ('A' for Active; 'I' for Inactive)
ROOT
ATOM      1  C   UNL d   1       3.598   6.000   5.148  0.00  0.00     0.023 A 
ATOM      2  C1  UNL d   1       3.330   4.923   5.993  0.00  0.00     0.003 A 
ATOM      3  C2  UNL d   1       3.935   3.686   5.762  0.00  0.00     0.048 A 
ATOM      4  C3  UNL d   1       4.808   3.533   4.685  0.00  0.00     0.023 A 
ATOM      5  C4  UNL d   1       5.079   4.608   3.837  0.00  0.00     0.048 A 
ATOM      6  C5  UNL d   1       4.471   5.843   4.072  0.00  0.00     0.003 A 
ATOM      7  I   UNL d   1       5.709   1.693   4.340  0.00  0.00    -0.146 I 
ENDROOT
TORSDOF 0
ENDMDL
