MODEL 1
REMARK minimizedAffinity 6.47986746
REMARK minimizedRMSD -1
REMARK  0 active torsions:
REMARK  status: ('A' for Active; 'I' for Inactive)
ROOT
ATOM      1  C   UNL d   1       0.037   0.241   2.511  0.00  0.00     0.023 A 
ATOM      2  C1  UNL d   1       0.761   0.824   3.551  0.00  0.00     0.003 A 
ATOM      3  C2  UNL d   1       1.440   0.018   4.467  0.00  0.00     0.048 A 
ATOM      4  C3  UNL d   1       1.393  -1.369   4.336  0.00  0.00     0.023 A 
ATOM      5  C4  UNL d   1       0.671  -1.957   3.296  0.00  0.00     0.048 A 
ATOM      6  C5  UNL d   1      -0.008  -1.147   2.383  0.00  0.00     0.003 A 
ATOM      7  I   UNL d   1       2.404  -2.570   5.698  0.00  0.00    -0.146 I 
ENDROOT
TORSDOF 0
ENDMDL
