MODEL 1
REMARK minimizedAffinity 14.4649992
REMARK minimizedRMSD -1
REMARK  0 active torsions:
REMARK  status: ('A' for Active; 'I' for Inactive)
ROOT
ATOM      1  C   UNL d   1       0.053  -0.561  -3.232  0.00  0.00     0.023 A 
ATOM      2  C1  UNL d   1       0.419  -0.683  -4.572  0.00  0.00     0.003 A 
ATOM      3  C2  UNL d   1      -0.107  -1.717  -5.349  0.00  0.00     0.048 A 
ATOM      4  C3  UNL d   1      -0.999  -2.625  -4.779  0.00  0.00     0.023 A 
ATOM      5  C4  UNL d   1      -1.368  -2.506  -3.439  0.00  0.00     0.048 A 
ATOM      6  C5  UNL d   1      -0.839  -1.471  -2.665  0.00  0.00     0.003 A 
ATOM      7  I   UNL d   1      -1.784  -4.165  -5.934  0.00  0.00    -0.146 I 
ENDROOT
TORSDOF 0
ENDMDL
