MODEL 1
REMARK minimizedAffinity -1.84555173
REMARK minimizedRMSD -1
REMARK  1 active torsions:
REMARK  status: ('A' for Active; 'I' for Inactive)
REMARK    1  A    between atoms: C3_4  and  O_7 
ROOT
ATOM      1  C   UNL d   1      -0.711  -3.005   2.807  0.00  0.00    -0.033 A 
ATOM      2  C1  UNL d   1      -0.012  -4.213   2.853  0.00  0.00     0.039 A 
ATOM      3  C2  UNL d   1       1.078  -4.423   2.007  0.00  0.00    -0.080 A 
ATOM      4  C3  UNL d   1       1.460  -3.419   1.122  0.00  0.00     0.150 A 
ATOM      5  C4  UNL d   1       0.771  -2.212   1.074  0.00  0.00    -0.007 A 
ATOM      6  C5  UNL d   1      -0.318  -2.004   1.918  0.00  0.00     0.039 A 
ENDROOT
BRANCH   4   7
ATOM      7  O   UNL d   1       2.515  -3.580   0.274  0.00  0.00    -0.526 OA
ATOM      8  H5  UNL d   1       2.877  -4.473   0.399  0.00  0.00     0.418 HD
ENDBRANCH   4   7
TORSDOF 1
ENDMDL
