MODEL 1
REMARK minimizedAffinity -3.52325606
REMARK minimizedRMSD -1
REMARK  1 active torsions:
REMARK  status: ('A' for Active; 'I' for Inactive)
REMARK    1  A    between atoms: C3_4  and  O_7 
ROOT
ATOM      1  C   UNL d   1       0.616  -1.090   1.107  0.00  0.00    -0.033 A 
ATOM      2  C1  UNL d   1       1.362  -0.832  -0.045  0.00  0.00     0.039 A 
ATOM      3  C2  UNL d   1       2.200  -1.817  -0.571  0.00  0.00    -0.080 A 
ATOM      4  C3  UNL d   1       2.281  -3.055   0.062  0.00  0.00     0.150 A 
ATOM      5  C4  UNL d   1       1.538  -3.320   1.207  0.00  0.00    -0.007 A 
ATOM      6  C5  UNL d   1       0.702  -2.335   1.732  0.00  0.00     0.039 A 
ENDROOT
BRANCH   4   7
ATOM      7  O   UNL d   1       3.089  -4.045  -0.412  0.00  0.00    -0.526 OA
ATOM      8  H5  UNL d   1       3.563  -3.710  -1.191  0.00  0.00     0.418 HD
ENDBRANCH   4   7
TORSDOF 1
ENDMDL
