MODEL 1
REMARK minimizedAffinity -1.17959774
REMARK minimizedRMSD -1
REMARK  1 active torsions:
REMARK  status: ('A' for Active; 'I' for Inactive)
REMARK    1  A    between atoms: C3_4  and  O_7 
ROOT
ATOM      1  C   UNL d   1       0.282   4.146  -5.998  0.00  0.00    -0.033 A 
ATOM      2  C1  UNL d   1      -0.724   3.254  -5.623  0.00  0.00     0.039 A 
ATOM      3  C2  UNL d   1      -1.980   3.733  -5.245  0.00  0.00    -0.080 A 
ATOM      4  C3  UNL d   1      -2.216   5.105  -5.247  0.00  0.00     0.150 A 
ATOM      5  C4  UNL d   1      -1.220   6.000  -5.624  0.00  0.00    -0.007 A 
ATOM      6  C5  UNL d   1       0.034   5.519  -6.000  0.00  0.00     0.039 A 
ENDROOT
BRANCH   4   7
ATOM      7  O   UNL d   1      -3.424   5.621  -4.882  0.00  0.00    -0.526 OA
ATOM      8  H5  UNL d   1      -4.005   4.887  -4.619  0.00  0.00     0.418 HD
ENDBRANCH   4   7
TORSDOF 1
ENDMDL
