MODEL 1
REMARK minimizedAffinity 3.44031668
REMARK minimizedRMSD -1
REMARK  1 active torsions:
REMARK  status: ('A' for Active; 'I' for Inactive)
REMARK    1  A    between atoms: C3_4  and  O_7 
ROOT
ATOM      1  C   UNL d   1       0.583  -0.091   1.181  0.00  0.00    -0.033 A 
ATOM      2  C1  UNL d   1      -0.046  -1.214   1.722  0.00  0.00     0.039 A 
ATOM      3  C2  UNL d   1       0.643  -2.425   1.816  0.00  0.00    -0.080 A 
ATOM      4  C3  UNL d   1       1.959  -2.499   1.367  0.00  0.00     0.150 A 
ATOM      5  C4  UNL d   1       2.592  -1.383   0.830  0.00  0.00    -0.007 A 
ATOM      6  C5  UNL d   1       1.902  -0.175   0.736  0.00  0.00     0.039 A 
ENDROOT
BRANCH   4   7
ATOM      7  O   UNL d   1       2.670  -3.660   1.433  0.00  0.00    -0.526 OA
ATOM      8  H5  UNL d   1       2.096  -4.353   1.799  0.00  0.00     0.418 HD
ENDBRANCH   4   7
TORSDOF 1
ENDMDL
