MODEL 1
REMARK minimizedAffinity -0.328174323
REMARK minimizedRMSD -1
REMARK  1 active torsions:
REMARK  status: ('A' for Active; 'I' for Inactive)
REMARK    1  A    between atoms: C3_4  and  O_7 
ROOT
ATOM      1  C   UNL d   1      -3.840  -3.757  -6.000  0.00  0.00    -0.033 A 
ATOM      2  C1  UNL d   1      -3.035  -2.616  -5.995  0.00  0.00     0.039 A 
ATOM      3  C2  UNL d   1      -3.618  -1.348  -5.993  0.00  0.00    -0.080 A 
ATOM      4  C3  UNL d   1      -5.005  -1.233  -5.996  0.00  0.00     0.150 A 
ATOM      5  C4  UNL d   1      -5.814  -2.365  -5.997  0.00  0.00    -0.007 A 
ATOM      6  C5  UNL d   1      -5.229  -3.631  -5.999  0.00  0.00     0.039 A 
ENDROOT
BRANCH   4   7
ATOM      7  O   UNL d   1      -5.620  -0.017  -6.000  0.00  0.00    -0.526 OA
ATOM      8  H5  UNL d   1      -4.936   0.673  -6.028  0.00  0.00     0.418 HD
ENDBRANCH   4   7
TORSDOF 1
ENDMDL
