MODEL 1
REMARK minimizedAffinity -0.360198945
REMARK minimizedRMSD -1
REMARK  1 active torsions:
REMARK  status: ('A' for Active; 'I' for Inactive)
REMARK    1  A    between atoms: C3_4  and  O_7 
ROOT
ATOM      1  C   UNL d   1       1.002  -2.272   1.546  0.00  0.00    -0.033 A 
ATOM      2  C1  UNL d   1       1.380  -3.543   1.982  0.00  0.00     0.039 A 
ATOM      3  C2  UNL d   1       2.251  -4.317   1.212  0.00  0.00    -0.080 A 
ATOM      4  C3  UNL d   1       2.737  -3.807   0.011  0.00  0.00     0.150 A 
ATOM      5  C4  UNL d   1       2.368  -2.540  -0.427  0.00  0.00    -0.007 A 
ATOM      6  C5  UNL d   1       1.498  -1.769   0.343  0.00  0.00     0.039 A 
ENDROOT
BRANCH   4   7
ATOM      7  O   UNL d   1       3.585  -4.527  -0.777  0.00  0.00    -0.526 OA
ATOM      8  H5  UNL d   1       3.729  -5.394  -0.362  0.00  0.00     0.418 HD
ENDBRANCH   4   7
TORSDOF 1
ENDMDL
