MODEL 1
REMARK minimizedAffinity 10.7373447
REMARK minimizedRMSD -1
REMARK  0 active torsions:
REMARK  status: ('A' for Active; 'I' for Inactive)
ROOT
ATOM      1  C   UNL d   1       1.428   4.875   5.718  0.00  0.00     0.020 A 
ATOM      2  C1  UNL d   1       2.253   5.999   5.764  0.00  0.00     0.020 A 
ATOM      3  C2  UNL d   1       3.470   6.000   5.079  0.00  0.00     0.034 A 
ATOM      4  C3  UNL d   1       3.865   4.876   4.345  0.00  0.00     0.017 A 
ATOM      5  C4  UNL d   1       3.037   3.749   4.299  0.00  0.00     0.017 A 
ATOM      6  C5  UNL d   1       1.819   3.753   4.987  0.00  0.00     0.034 A 
ATOM      7 Cl   UNL d   1       3.457   2.325   3.415  0.00  0.00    -0.070 Cl
ATOM      8 Cl1  UNL d   1       5.383   4.947   3.522  0.00  0.00    -0.070 Cl
ENDROOT
TORSDOF 0
ENDMDL
