MODEL 1
REMARK minimizedAffinity 7.57416821
REMARK minimizedRMSD -1
REMARK  0 active torsions:
REMARK  status: ('A' for Active; 'I' for Inactive)
ROOT
ATOM      1  C   UNL d   1       1.901   5.433   3.697  0.00  0.00     0.020 A 
ATOM      2  C1  UNL d   1       1.809   4.050   3.854  0.00  0.00     0.020 A 
ATOM      3  C2  UNL d   1       2.888   3.234   3.506  0.00  0.00     0.034 A 
ATOM      4  C3  UNL d   1       4.064   3.800   3.000  0.00  0.00     0.017 A 
ATOM      5  C4  UNL d   1       4.155   5.188   2.842  0.00  0.00     0.017 A 
ATOM      6  C5  UNL d   1       3.072   6.000   3.192  0.00  0.00     0.034 A 
ATOM      7 Cl   UNL d   1       5.573   5.959   2.224  0.00  0.00    -0.070 Cl
ATOM      8 Cl1  UNL d   1       5.358   2.731   2.591  0.00  0.00    -0.070 Cl
ENDROOT
TORSDOF 0
ENDMDL
