MODEL 1
REMARK minimizedAffinity 8.08310223
REMARK minimizedRMSD -1
REMARK  0 active torsions:
REMARK  status: ('A' for Active; 'I' for Inactive)
ROOT
ATOM      1  C   UNL d   1      -2.418  -0.140   1.627  0.00  0.00     0.020 A 
ATOM      2  C1  UNL d   1      -2.265  -0.282   0.249  0.00  0.00     0.020 A 
ATOM      3  C2  UNL d   1      -0.993  -0.465  -0.298  0.00  0.00     0.034 A 
ATOM      4  C3  UNL d   1       0.132  -0.506   0.535  0.00  0.00     0.017 A 
ATOM      5  C4  UNL d   1      -0.023  -0.363   1.919  0.00  0.00     0.017 A 
ATOM      6  C5  UNL d   1      -1.299  -0.180   2.460  0.00  0.00     0.034 A 
ATOM      7 Cl   UNL d   1       1.317  -0.403   3.010  0.00  0.00    -0.070 Cl
ATOM      8 Cl1  UNL d   1       1.674  -0.735  -0.209  0.00  0.00    -0.070 Cl
ENDROOT
TORSDOF 0
ENDMDL
