MODEL 1
REMARK minimizedAffinity 6.20026302
REMARK minimizedRMSD -1
REMARK  0 active torsions:
REMARK  status: ('A' for Active; 'I' for Inactive)
ROOT
ATOM      1  C   UNL d   1       1.402  -0.200  -0.066  0.00  0.00     0.020 A 
ATOM      2  C1  UNL d   1       1.965  -0.956   0.961  0.00  0.00     0.020 A 
ATOM      3  C2  UNL d   1       1.143  -1.567   1.910  0.00  0.00     0.034 A 
ATOM      4  C3  UNL d   1      -0.247  -1.423   1.835  0.00  0.00     0.017 A 
ATOM      5  C4  UNL d   1      -0.812  -0.664   0.804  0.00  0.00     0.017 A 
ATOM      6  C5  UNL d   1       0.016  -0.055  -0.145  0.00  0.00     0.034 A 
ATOM      7 Cl   UNL d   1      -2.518  -0.441   0.645  0.00  0.00    -0.070 Cl
ATOM      8 Cl1  UNL d   1      -1.203  -2.206   3.043  0.00  0.00    -0.070 Cl
ENDROOT
TORSDOF 0
ENDMDL
