MODEL 1
REMARK minimizedAffinity 0.196228951
REMARK minimizedRMSD -1
REMARK  0 active torsions:
REMARK  status: ('A' for Active; 'I' for Inactive)
ROOT
ATOM      1  C   UNL d   1      -2.880  -2.879   3.601  0.00  0.00     0.020 A 
ATOM      2  C1  UNL d   1      -3.909  -2.328   2.838  0.00  0.00     0.020 A 
ATOM      3  C2  UNL d   1      -3.628  -1.326   1.907  0.00  0.00     0.034 A 
ATOM      4  C3  UNL d   1      -2.316  -0.871   1.736  0.00  0.00     0.017 A 
ATOM      5  C4  UNL d   1      -1.284  -1.425   2.503  0.00  0.00     0.017 A 
ATOM      6  C5  UNL d   1      -1.570  -2.428   3.433  0.00  0.00     0.034 A 
ATOM      7 Cl   UNL d   1       0.361  -0.915   2.348  0.00  0.00    -0.070 Cl
ATOM      8 Cl1  UNL d   1      -2.041   0.370   0.567  0.00  0.00    -0.070 Cl
ENDROOT
TORSDOF 0
ENDMDL
