MODEL 1
REMARK minimizedAffinity 7.52854872
REMARK minimizedRMSD -1
REMARK  0 active torsions:
REMARK  status: ('A' for Active; 'I' for Inactive)
ROOT
ATOM      1  C   UNL d   1      -0.126  -2.069   2.421  0.00  0.00     0.020 A 
ATOM      2  C1  UNL d   1      -1.175  -1.216   2.763  0.00  0.00     0.020 A 
ATOM      3  C2  UNL d   1      -1.381  -0.038   2.042  0.00  0.00     0.034 A 
ATOM      4  C3  UNL d   1      -0.538   0.291   0.975  0.00  0.00     0.017 A 
ATOM      5  C4  UNL d   1       0.515  -0.566   0.631  0.00  0.00     0.017 A 
ATOM      6  C5  UNL d   1       0.717  -1.744   1.357  0.00  0.00     0.034 A 
ATOM      7 Cl   UNL d   1       1.597  -0.228  -0.673  0.00  0.00    -0.070 Cl
ATOM      8 Cl1  UNL d   1      -0.852   1.763   0.126  0.00  0.00    -0.070 Cl
ENDROOT
TORSDOF 0
ENDMDL
