MODEL 1
REMARK minimizedAffinity 0.141066313
REMARK minimizedRMSD -1
REMARK  3 active torsions:
REMARK  status: ('A' for Active; 'I' for Inactive)
REMARK    1  A    between atoms: C3'_2  and  C2'_3 
REMARK    2  A    between atoms: C2'_3  and  C1'_4 
REMARK    3  A    between atoms: C1'_4  and  C1_5 
ROOT
ATOM      1  C1  N4B d   1      -0.516   0.780   3.176  0.00  0.00    -0.075 A 
ATOM      2  C2  N4B d   1      -1.636   0.109   2.636  0.00  0.00     0.002 A 
ATOM      3  C3  N4B d   1      -2.781   0.809   2.344  0.00  0.00     0.002 A 
ATOM      4  C4  N4B d   1      -2.836   2.171   2.601  0.00  0.00    -0.004 A 
ATOM      5  C5  N4B d   1      -1.742   2.816   3.099  0.00  0.00     0.002 A 
ATOM      6  C6  N4B d   1      -0.583   2.126   3.393  0.00  0.00     0.002 A 
ENDROOT
BRANCH   1   7
ATOM      7  C1' N4B d   1       0.727   0.043   3.590  0.00  0.00     0.057 C 
BRANCH   7   8
ATOM      8  C2' N4B d   1       1.943   0.720   2.965  0.00  0.00     0.009 C 
BRANCH   8   9
ATOM      9  C3' N4B d   1       3.237   0.013   3.329  0.00  0.00     0.004 C 
ATOM     10  C4' N4B d   1       4.341   0.283   2.350  0.00  0.00     0.003 C 
ENDBRANCH   8   9
ENDBRANCH   7   8
ENDBRANCH   1   7
TORSDOF 3
ENDMDL
