MODEL 1
REMARK minimizedAffinity 6.0787878
REMARK minimizedRMSD -1
REMARK  3 active torsions:
REMARK  status: ('A' for Active; 'I' for Inactive)
REMARK    1  A    between atoms: C3'_2  and  C2'_3 
REMARK    2  A    between atoms: C2'_3  and  C1'_4 
REMARK    3  A    between atoms: C1'_4  and  C1_5 
ROOT
ATOM      1  C1  N4B d   1      -3.444  -0.765   0.715  0.00  0.00    -0.075 A 
ATOM      2  C2  N4B d   1      -4.546  -0.032   1.207  0.00  0.00     0.002 A 
ATOM      3  C3  N4B d   1      -4.343   1.015   2.072  0.00  0.00     0.002 A 
ATOM      4  C4  N4B d   1      -3.055   1.335   2.472  0.00  0.00    -0.004 A 
ATOM      5  C5  N4B d   1      -1.993   0.639   1.972  0.00  0.00     0.002 A 
ATOM      6  C6  N4B d   1      -2.182  -0.414   1.099  0.00  0.00     0.002 A 
ENDROOT
BRANCH   1   7
ATOM      7  C1' N4B d   1      -3.622  -1.971  -0.165  0.00  0.00     0.057 C 
BRANCH   7   8
ATOM      8  C2' N4B d   1      -2.990  -3.183   0.513  0.00  0.00     0.009 C 
BRANCH   8   9
ATOM      9  C3' N4B d   1      -1.598  -3.473  -0.022  0.00  0.00     0.004 C 
ATOM     10  C4' N4B d   1      -0.546  -3.441   1.046  0.00  0.00     0.003 C 
ENDBRANCH   8   9
ENDBRANCH   7   8
ENDBRANCH   1   7
TORSDOF 3
ENDMDL
