MODEL 1
REMARK minimizedAffinity 1.09180796
REMARK minimizedRMSD -1
REMARK  3 active torsions:
REMARK  status: ('A' for Active; 'I' for Inactive)
REMARK    1  A    between atoms: C3'_2  and  C2'_3 
REMARK    2  A    between atoms: C2'_3  and  C1'_4 
REMARK    3  A    between atoms: C1'_4  and  C1_5 
ROOT
ATOM      1  C1  N4B d   1      -3.285   1.379   3.034  0.00  0.00    -0.075 A 
ATOM      2  C2  N4B d   1      -3.730   1.224   1.703  0.00  0.00     0.002 A 
ATOM      3  C3  N4B d   1      -2.859   0.785   0.735  0.00  0.00     0.002 A 
ATOM      4  C4  N4B d   1      -1.541   0.515   1.070  0.00  0.00    -0.004 A 
ATOM      5  C5  N4B d   1      -1.126   0.643   2.363  0.00  0.00     0.002 A 
ATOM      6  C6  N4B d   1      -1.991   1.080   3.347  0.00  0.00     0.002 A 
ENDROOT
BRANCH   1   7
ATOM      7  C1' N4B d   1      -4.177   1.938   4.109  0.00  0.00     0.057 C 
BRANCH   7   8
ATOM      8  C2' N4B d   1      -5.140   0.851   4.576  0.00  0.00     0.009 C 
BRANCH   8   9
ATOM      9  C3' N4B d   1      -4.807   0.359   5.974  0.00  0.00     0.004 C 
ATOM     10  C4' N4B d   1      -4.352  -1.070   5.995  0.00  0.00     0.003 C 
ENDBRANCH   8   9
ENDBRANCH   7   8
ENDBRANCH   1   7
TORSDOF 3
ENDMDL
