MODEL 1
REMARK minimizedAffinity 12.8175163
REMARK minimizedRMSD -1
REMARK  3 active torsions:
REMARK  status: ('A' for Active; 'I' for Inactive)
REMARK    1  A    between atoms: C3'_2  and  C2'_3 
REMARK    2  A    between atoms: C2'_3  and  C1'_4 
REMARK    3  A    between atoms: C1'_4  and  C1_5 
ROOT
ATOM      1  C1  N4B d   1      -3.591  -0.510   0.386  0.00  0.00    -0.075 A 
ATOM      2  C2  N4B d   1      -2.357  -0.500   1.073  0.00  0.00     0.002 A 
ATOM      3  C3  N4B d   1      -1.878   0.670   1.607  0.00  0.00     0.002 A 
ATOM      4  C4  N4B d   1      -2.602   1.843   1.451  0.00  0.00    -0.004 A 
ATOM      5  C5  N4B d   1      -3.805   1.820   0.808  0.00  0.00     0.002 A 
ATOM      6  C6  N4B d   1      -4.301   0.650   0.270  0.00  0.00     0.002 A 
ENDROOT
BRANCH   1   7
ATOM      7  C1' N4B d   1      -4.114  -1.748  -0.289  0.00  0.00     0.057 C 
BRANCH   7   8
ATOM      8  C2' N4B d   1      -3.775  -2.966   0.565  0.00  0.00     0.009 C 
BRANCH   8   9
ATOM      9  C3' N4B d   1      -2.806  -3.901  -0.137  0.00  0.00     0.004 C 
ATOM     10  C4' N4B d   1      -1.381  -3.676   0.273  0.00  0.00     0.003 C 
ENDBRANCH   8   9
ENDBRANCH   7   8
ENDBRANCH   1   7
TORSDOF 3
ENDMDL
