MODEL 1
REMARK minimizedAffinity 0.785278738
REMARK minimizedRMSD -1
REMARK  3 active torsions:
REMARK  status: ('A' for Active; 'I' for Inactive)
REMARK    1  A    between atoms: C3'_2  and  C2'_3 
REMARK    2  A    between atoms: C2'_3  and  C1'_4 
REMARK    3  A    between atoms: C1'_4  and  C1_5 
ROOT
ATOM      1  C1  N4B d   1       0.022  -5.632   1.700  0.00  0.00    -0.075 A 
ATOM      2  C2  N4B d   1      -1.296  -5.907   2.125  0.00  0.00     0.002 A 
ATOM      3  C3  N4B d   1      -2.361  -5.534   1.343  0.00  0.00     0.002 A 
ATOM      4  C4  N4B d   1      -2.135  -4.871   0.146  0.00  0.00    -0.004 A 
ATOM      5  C5  N4B d   1      -0.858  -4.632  -0.269  0.00  0.00     0.002 A 
ATOM      6  C6  N4B d   1       0.223  -5.005   0.504  0.00  0.00     0.002 A 
ENDROOT
BRANCH   1   7
ATOM      7  C1' N4B d   1       1.216  -5.944   2.561  0.00  0.00     0.057 C 
BRANCH   7   8
ATOM      8  C2' N4B d   1       2.464  -6.000   1.685  0.00  0.00     0.009 C 
BRANCH   8   9
ATOM      9  C3' N4B d   1       3.739  -6.000   2.512  0.00  0.00     0.004 C 
ATOM     10  C4' N4B d   1       4.968  -5.767   1.684  0.00  0.00     0.003 C 
ENDBRANCH   8   9
ENDBRANCH   7   8
ENDBRANCH   1   7
TORSDOF 3
ENDMDL
