MODEL 1
REMARK minimizedAffinity 3.65845895
REMARK minimizedRMSD -1
REMARK  3 active torsions:
REMARK  status: ('A' for Active; 'I' for Inactive)
REMARK    1  A    between atoms: C3'_2  and  C2'_3 
REMARK    2  A    between atoms: C2'_3  and  C1'_4 
REMARK    3  A    between atoms: C1'_4  and  C1_5 
ROOT
ATOM      1  C1  N4B d   1      -1.851   1.071   1.697  0.00  0.00    -0.075 A 
ATOM      2  C2  N4B d   1      -1.941   2.351   2.288  0.00  0.00     0.002 A 
ATOM      3  C3  N4B d   1      -1.054   2.717   3.270  0.00  0.00     0.002 A 
ATOM      4  C4  N4B d   1      -0.085   1.817   3.690  0.00  0.00    -0.004 A 
ATOM      5  C5  N4B d   1       0.011   0.593   3.096  0.00  0.00     0.002 A 
ATOM      6  C6  N4B d   1      -0.871   0.213   2.105  0.00  0.00     0.002 A 
ENDROOT
BRANCH   1   7
ATOM      7  C1' N4B d   1      -2.851   0.594   0.679  0.00  0.00     0.057 C 
BRANCH   7   8
ATOM      8  C2' N4B d   1      -3.605  -0.607   1.243  0.00  0.00     0.009 C 
BRANCH   8   9
ATOM      9  C3' N4B d   1      -3.894  -1.649   0.176  0.00  0.00     0.004 C 
ATOM     10  C4' N4B d   1      -3.117  -2.915   0.376  0.00  0.00     0.003 C 
ENDBRANCH   8   9
ENDBRANCH   7   8
ENDBRANCH   1   7
TORSDOF 3
ENDMDL
