MODEL 1
REMARK minimizedAffinity -1.33733678
REMARK minimizedRMSD -1
REMARK  1 active torsions:
REMARK  status: ('A' for Active; 'I' for Inactive)
REMARK    1  A    between atoms: N_2  and  C1_3 
ROOT
ATOM      1  C1  UNL d   1      -1.219   5.925  -4.353  0.00  0.00     0.143 A 
ATOM      2  C2  UNL d   1      -0.760   5.977  -3.033  0.00  0.00    -0.057 A 
ATOM      3  C3  UNL d   1      -1.652   6.000  -1.954  0.00  0.00     0.033 A 
ATOM      4  C4  UNL d   1      -3.025   6.000  -2.179  0.00  0.00    -0.042 A 
ATOM      5  C5  UNL d   1      -3.504   5.974  -3.484  0.00  0.00     0.033 A 
ATOM      6  C6  UNL d   1      -2.608   5.944  -4.557  0.00  0.00    -0.057 A 
ENDROOT
BRANCH   1   7
ATOM      7  N   UNL d   1      -0.384   6.000  -5.470  0.00  0.00    -0.732 N 
ATOM      8  C   UNL d   1       1.038   5.763  -5.345  0.00  0.00     0.284 C 
ATOM      9  H3  UNL d   1      -0.803   5.582  -6.298  0.00  0.00     0.395 HD
ENDBRANCH   1   7
TORSDOF 1
ENDMDL
