MODEL 1
REMARK minimizedAffinity 1.10902524
REMARK minimizedRMSD -1
REMARK  1 active torsions:
REMARK  status: ('A' for Active; 'I' for Inactive)
REMARK    1  A    between atoms: N_2  and  C1_3 
ROOT
ATOM      1  C1  UNL d   1       1.839   5.476  -5.422  0.00  0.00     0.143 A 
ATOM      2  C2  UNL d   1       1.852   4.362  -4.576  0.00  0.00    -0.057 A 
ATOM      3  C3  UNL d   1       3.056   3.820  -4.109  0.00  0.00     0.033 A 
ATOM      4  C4  UNL d   1       4.272   4.367  -4.504  0.00  0.00    -0.042 A 
ATOM      5  C5  UNL d   1       4.283   5.459  -5.364  0.00  0.00     0.033 A 
ATOM      6  C6  UNL d   1       3.078   6.000  -5.823  0.00  0.00    -0.057 A 
ENDROOT
BRANCH   1   7
ATOM      7  N   UNL d   1       0.679   5.999  -6.000  0.00  0.00    -0.732 N 
ATOM      8  C   UNL d   1      -0.589   5.924  -5.306  0.00  0.00     0.284 C 
ATOM      9  H3  UNL d   1       0.845   6.888  -6.467  0.00  0.00     0.395 HD
ENDBRANCH   1   7
TORSDOF 1
ENDMDL
