MODEL 1
REMARK minimizedAffinity -2.52740955
REMARK minimizedRMSD -1
REMARK  1 active torsions:
REMARK  status: ('A' for Active; 'I' for Inactive)
REMARK    1  A    between atoms: N_2  and  C1_3 
ROOT
ATOM      1  C1  UNL d   1       3.481   5.278  -4.635  0.00  0.00     0.143 A 
ATOM      2  C2  UNL d   1       3.585   3.885  -4.718  0.00  0.00    -0.057 A 
ATOM      3  C3  UNL d   1       4.805   3.234  -4.504  0.00  0.00     0.033 A 
ATOM      4  C4  UNL d   1       5.954   3.969  -4.231  0.00  0.00    -0.042 A 
ATOM      5  C5  UNL d   1       5.880   5.356  -4.168  0.00  0.00     0.033 A 
ATOM      6  C6  UNL d   1       4.656   6.000  -4.376  0.00  0.00    -0.057 A 
ENDROOT
BRANCH   1   7
ATOM      7  N   UNL d   1       2.317   5.990  -4.934  0.00  0.00    -0.732 N 
ATOM      8  C   UNL d   1       1.436   5.551  -5.994  0.00  0.00     0.284 C 
ATOM      9  H3  UNL d   1       1.834   6.313  -4.099  0.00  0.00     0.395 HD
ENDBRANCH   1   7
TORSDOF 1
ENDMDL
