MODEL 1
REMARK minimizedAffinity -1.11934388
REMARK minimizedRMSD -1
REMARK  1 active torsions:
REMARK  status: ('A' for Active; 'I' for Inactive)
REMARK    1  A    between atoms: N_2  and  C1_3 
ROOT
ATOM      1  C1  UNL d   1       2.085   5.987  -4.649  0.00  0.00     0.143 A 
ATOM      2  C2  UNL d   1       1.279   5.959  -5.792  0.00  0.00    -0.057 A 
ATOM      3  C3  UNL d   1      -0.118   5.978  -5.697  0.00  0.00     0.033 A 
ATOM      4  C4  UNL d   1      -0.736   5.995  -4.451  0.00  0.00    -0.042 A 
ATOM      5  C5  UNL d   1       0.045   5.998  -3.300  0.00  0.00     0.033 A 
ATOM      6  C6  UNL d   1       1.440   5.986  -3.402  0.00  0.00    -0.057 A 
ENDROOT
BRANCH   1   7
ATOM      7  N   UNL d   1       3.477   5.871  -4.675  0.00  0.00    -0.732 N 
ATOM      8  C   UNL d   1       4.203   5.997  -5.920  0.00  0.00     0.284 C 
ATOM      9  H3  UNL d   1       3.920   6.336  -3.886  0.00  0.00     0.395 HD
ENDBRANCH   1   7
TORSDOF 1
ENDMDL
