MODEL 1
REMARK minimizedAffinity 5.13999987
REMARK minimizedRMSD -1
REMARK  1 active torsions:
REMARK  status: ('A' for Active; 'I' for Inactive)
REMARK    1  A    between atoms: N_2  and  C1_3 
ROOT
ATOM      1  C1  UNL d   1       4.590   4.176  -4.499  0.00  0.00     0.143 A 
ATOM      2  C2  UNL d   1       4.930   5.300  -5.260  0.00  0.00    -0.057 A 
ATOM      3  C3  UNL d   1       3.963   6.000  -5.993  0.00  0.00     0.033 A 
ATOM      4  C4  UNL d   1       2.641   5.569  -6.000  0.00  0.00    -0.042 A 
ATOM      5  C5  UNL d   1       2.285   4.440  -5.271  0.00  0.00     0.033 A 
ATOM      6  C6  UNL d   1       3.253   3.749  -4.536  0.00  0.00    -0.057 A 
ENDROOT
BRANCH   1   7
ATOM      7  N   UNL d   1       5.522   3.380  -3.829  0.00  0.00    -0.732 N 
ATOM      8  C   UNL d   1       5.616   1.962  -4.107  0.00  0.00     0.284 C 
ATOM      9  H3  UNL d   1       6.422   3.842  -3.721  0.00  0.00     0.395 HD
ENDBRANCH   1   7
TORSDOF 1
ENDMDL
