MODEL 1
REMARK minimizedAffinity -0.72501725
REMARK minimizedRMSD -1
REMARK  1 active torsions:
REMARK  status: ('A' for Active; 'I' for Inactive)
REMARK    1  A    between atoms: N_2  and  C1_3 
ROOT
ATOM      1  C1  UNL d   1       2.177   5.862  -4.660  0.00  0.00     0.143 A 
ATOM      2  C2  UNL d   1       1.388   5.999  -3.513  0.00  0.00    -0.057 A 
ATOM      3  C3  UNL d   1      -0.010   5.999  -3.590  0.00  0.00     0.033 A 
ATOM      4  C4  UNL d   1      -0.645   5.890  -4.823  0.00  0.00    -0.042 A 
ATOM      5  C5  UNL d   1       0.120   5.778  -5.978  0.00  0.00     0.033 A 
ATOM      6  C6  UNL d   1       1.515   5.773  -5.895  0.00  0.00    -0.057 A 
ENDROOT
BRANCH   1   7
ATOM      7  N   UNL d   1       3.571   5.954  -4.660  0.00  0.00    -0.732 N 
ATOM      8  C   UNL d   1       4.331   5.632  -5.849  0.00  0.00     0.284 C 
ATOM      9  H3  UNL d   1       3.906   6.776  -4.163  0.00  0.00     0.395 HD
ENDBRANCH   1   7
TORSDOF 1
ENDMDL
