MODEL 1
REMARK minimizedAffinity 1.16487241
REMARK minimizedRMSD -1
REMARK  1 active torsions:
REMARK  status: ('A' for Active; 'I' for Inactive)
REMARK    1  A    between atoms: N_2  and  C1_3 
ROOT
ATOM      1  C1  UNL d   1      -1.604  -3.570   3.970  0.00  0.00     0.143 A 
ATOM      2  C2  UNL d   1      -1.210  -4.766   4.579  0.00  0.00    -0.057 A 
ATOM      3  C3  UNL d   1      -0.467  -5.726   3.880  0.00  0.00     0.033 A 
ATOM      4  C4  UNL d   1      -0.129  -5.517   2.547  0.00  0.00    -0.042 A 
ATOM      5  C5  UNL d   1      -0.532  -4.347   1.914  0.00  0.00     0.033 A 
ATOM      6  C6  UNL d   1      -1.268  -3.390   2.619  0.00  0.00    -0.057 A 
ENDROOT
BRANCH   1   7
ATOM      7  N   UNL d   1      -2.428  -2.621   4.581  0.00  0.00    -0.732 N 
ATOM      8  C   UNL d   1      -3.268  -2.987   5.701  0.00  0.00     0.284 C 
ATOM      9  H3  UNL d   1      -1.972  -1.717   4.680  0.00  0.00     0.395 HD
ENDBRANCH   1   7
TORSDOF 1
ENDMDL
