MODEL 1
REMARK minimizedAffinity -1.34414041
REMARK minimizedRMSD -1
REMARK  1 active torsions:
REMARK  status: ('A' for Active; 'I' for Inactive)
REMARK    1  A    between atoms: N_2  and  C1_3 
ROOT
ATOM      1  C1  UNL d   1      -2.038   5.908  -3.145  0.00  0.00     0.143 A 
ATOM      2  C2  UNL d   1      -2.205   5.925  -4.534  0.00  0.00    -0.057 A 
ATOM      3  C3  UNL d   1      -1.103   5.948  -5.397  0.00  0.00     0.033 A 
ATOM      4  C4  UNL d   1       0.189   5.985  -4.884  0.00  0.00    -0.042 A 
ATOM      5  C5  UNL d   1       0.378   5.995  -3.507  0.00  0.00     0.033 A 
ATOM      6  C6  UNL d   1      -0.726   5.964  -2.650  0.00  0.00    -0.057 A 
ENDROOT
BRANCH   1   7
ATOM      7  N   UNL d   1      -3.095   5.984  -2.234  0.00  0.00    -0.732 N 
ATOM      8  C   UNL d   1      -3.133   5.118  -1.075  0.00  0.00     0.284 C 
ATOM      9  H3  UNL d   1      -3.376   6.944  -2.044  0.00  0.00     0.395 HD
ENDBRANCH   1   7
TORSDOF 1
ENDMDL
