MODEL 1
REMARK minimizedAffinity 1.95419645
REMARK minimizedRMSD -1
REMARK  1 active torsions:
REMARK  status: ('A' for Active; 'I' for Inactive)
REMARK    1  A    between atoms: N_2  and  C1_3 
ROOT
ATOM      1  C1  UNL d   1       0.804   5.969  -5.099  0.00  0.00     0.143 A 
ATOM      2  C2  UNL d   1      -0.488   5.971  -5.635  0.00  0.00    -0.057 A 
ATOM      3  C3  UNL d   1      -1.618   6.000  -4.808  0.00  0.00     0.033 A 
ATOM      4  C4  UNL d   1      -1.474   5.998  -3.425  0.00  0.00    -0.042 A 
ATOM      5  C5  UNL d   1      -0.200   5.972  -2.869  0.00  0.00     0.033 A 
ATOM      6  C6  UNL d   1       0.924   5.949  -3.700  0.00  0.00    -0.057 A 
ENDROOT
BRANCH   1   7
ATOM      7  N   UNL d   1       1.965   5.841  -5.866  0.00  0.00    -0.732 N 
ATOM      8  C   UNL d   1       3.270   5.970  -5.255  0.00  0.00     0.284 C 
ATOM      9  H3  UNL d   1       1.898   5.090  -6.549  0.00  0.00     0.395 HD
ENDBRANCH   1   7
TORSDOF 1
ENDMDL
