MODEL 1
REMARK minimizedAffinity 4.10254669
REMARK minimizedRMSD -1
REMARK  1 active torsions:
REMARK  status: ('A' for Active; 'I' for Inactive)
REMARK    1  A    between atoms: N_2  and  C1_3 
ROOT
ATOM      1  C1  UNL d   1       2.109   2.304  -0.359  0.00  0.00     0.143 A 
ATOM      2  C2  UNL d   1       1.352   3.253   0.336  0.00  0.00    -0.057 A 
ATOM      3  C3  UNL d   1       0.387   2.867   1.274  0.00  0.00     0.033 A 
ATOM      4  C4  UNL d   1       0.140   1.518   1.512  0.00  0.00    -0.042 A 
ATOM      5  C5  UNL d   1       0.862   0.557   0.814  0.00  0.00     0.033 A 
ATOM      6  C6  UNL d   1       1.830   0.950  -0.116  0.00  0.00    -0.057 A 
ENDROOT
BRANCH   1   7
ATOM      7  N   UNL d   1       3.014   2.623  -1.375  0.00  0.00    -0.732 N 
ATOM      8  C   UNL d   1       2.657   2.439  -2.765  0.00  0.00     0.284 C 
ATOM      9  H3  UNL d   1       3.521   3.484  -1.186  0.00  0.00     0.395 HD
ENDBRANCH   1   7
TORSDOF 1
ENDMDL
