MODEL 1
REMARK minimizedAffinity 2.71021485
REMARK minimizedRMSD -1
REMARK  1 active torsions:
REMARK  status: ('A' for Active; 'I' for Inactive)
REMARK    1  A    between atoms: N_2  and  C1_3 
ROOT
ATOM      1  C1  UNL d   1       2.532   4.795  -5.293  0.00  0.00     0.143 A 
ATOM      2  C2  UNL d   1       3.282   5.974  -5.232  0.00  0.00    -0.057 A 
ATOM      3  C3  UNL d   1       4.610   5.968  -4.787  0.00  0.00     0.033 A 
ATOM      4  C4  UNL d   1       5.203   4.783  -4.366  0.00  0.00    -0.042 A 
ATOM      5  C5  UNL d   1       4.468   3.603  -4.395  0.00  0.00     0.033 A 
ATOM      6  C6  UNL d   1       3.145   3.614  -4.846  0.00  0.00    -0.057 A 
ENDROOT
BRANCH   1   7
ATOM      7  N   UNL d   1       1.177   4.752  -5.633  0.00  0.00    -0.732 N 
ATOM      8  C   UNL d   1       0.417   5.973  -5.790  0.00  0.00     0.284 C 
ATOM      9  H3  UNL d   1       0.975   4.043  -6.334  0.00  0.00     0.395 HD
ENDBRANCH   1   7
TORSDOF 1
ENDMDL
