MODEL 1
REMARK minimizedAffinity 5.92084122
REMARK minimizedRMSD -1
REMARK  1 active torsions:
REMARK  status: ('A' for Active; 'I' for Inactive)
REMARK    1  A    between atoms: C1_2  and  C2_3 
ROOT
ATOM      1  C2  UNL d   1       2.212   1.560  -4.880  0.00  0.00    -0.081 A 
ATOM      2  C3  UNL d   1       1.663   0.365  -5.362  0.00  0.00     0.006 A 
ATOM      3  C4  UNL d   1       2.037  -0.861  -4.807  0.00  0.00     0.002 A 
ATOM      4  C5  UNL d   1       2.961  -0.913  -3.758  0.00  0.00    -0.080 A 
ATOM      5  C6  UNL d   1       3.349  -2.220  -3.134  0.00  0.00     0.076 C 
ATOM      6  C7  UNL d   1       3.524   0.279  -3.289  0.00  0.00     0.002 A 
ATOM      7  C8  UNL d   1       3.150   1.505  -3.843  0.00  0.00     0.006 A 
ENDROOT
BRANCH   1   8
ATOM      8  C1  UNL d   1       1.762   2.888  -5.433  0.00  0.00     0.054 C 
ATOM      9  C   UNL d   1       2.933   3.678  -5.998  0.00  0.00     0.018 C 
ENDBRANCH   1   8
TORSDOF 1
ENDMDL
