MODEL 1
REMARK minimizedAffinity 0.535539448
REMARK minimizedRMSD -1
REMARK  1 active torsions:
REMARK  status: ('A' for Active; 'I' for Inactive)
REMARK    1  A    between atoms: C1_2  and  C2_3 
ROOT
ATOM      1  C2  UNL d   1      -0.024   0.742   2.018  0.00  0.00    -0.081 A 
ATOM      2  C3  UNL d   1       0.884   1.718   1.588  0.00  0.00     0.006 A 
ATOM      3  C4  UNL d   1       2.254   1.447   1.561  0.00  0.00     0.002 A 
ATOM      4  C5  UNL d   1       2.738   0.195   1.956  0.00  0.00    -0.080 A 
ATOM      5  C6  UNL d   1       4.204  -0.119   1.904  0.00  0.00     0.076 C 
ATOM      6  C7  UNL d   1       1.832  -0.773   2.402  0.00  0.00     0.002 A 
ATOM      7  C8  UNL d   1       0.462  -0.503   2.430  0.00  0.00     0.006 A 
ENDROOT
BRANCH   1   8
ATOM      8  C1  UNL d   1      -1.507   1.009   1.986  0.00  0.00     0.054 C 
ATOM      9  C   UNL d   1      -2.080   0.787   0.594  0.00  0.00     0.018 C 
ENDBRANCH   1   8
TORSDOF 1
ENDMDL
