MODEL 1
REMARK minimizedAffinity 8.99112797
REMARK minimizedRMSD -1
REMARK  1 active torsions:
REMARK  status: ('A' for Active; 'I' for Inactive)
REMARK    1  A    between atoms: C1_2  and  C2_3 
ROOT
ATOM      1  C2  UNL d   1      -1.279   0.531   1.303  0.00  0.00    -0.081 A 
ATOM      2  C3  UNL d   1      -1.757   1.588   2.088  0.00  0.00     0.006 A 
ATOM      3  C4  UNL d   1      -0.964   2.133   3.100  0.00  0.00     0.002 A 
ATOM      4  C5  UNL d   1       0.322   1.636   3.339  0.00  0.00    -0.080 A 
ATOM      5  C6  UNL d   1       1.195   2.233   4.403  0.00  0.00     0.076 C 
ATOM      6  C7  UNL d   1       0.793   0.569   2.567  0.00  0.00     0.002 A 
ATOM      7  C8  UNL d   1      -0.000   0.023   1.555  0.00  0.00     0.006 A 
ENDROOT
BRANCH   1   8
ATOM      8  C1  UNL d   1      -2.107  -0.016   0.168  0.00  0.00     0.054 C 
ATOM      9  C   UNL d   1      -2.672   1.103  -0.695  0.00  0.00     0.018 C 
ENDBRANCH   1   8
TORSDOF 1
ENDMDL
