MODEL 1
REMARK minimizedAffinity 4.4612608
REMARK minimizedRMSD -1
REMARK  1 active torsions:
REMARK  status: ('A' for Active; 'I' for Inactive)
REMARK    1  A    between atoms: C1_2  and  C2_3 
ROOT
ATOM      1  C2  UNL d   1      -1.903   0.836   2.585  0.00  0.00    -0.081 A 
ATOM      2  C3  UNL d   1      -1.134   1.983   2.820  0.00  0.00     0.006 A 
ATOM      3  C4  UNL d   1       0.260   1.928   2.752  0.00  0.00     0.002 A 
ATOM      4  C5  UNL d   1       0.908   0.728   2.440  0.00  0.00    -0.080 A 
ATOM      5  C6  UNL d   1       2.403   0.662   2.335  0.00  0.00     0.076 C 
ATOM      6  C7  UNL d   1       0.141  -0.422   2.223  0.00  0.00     0.002 A 
ATOM      7  C8  UNL d   1      -1.252  -0.367   2.291  0.00  0.00     0.006 A 
ENDROOT
BRANCH   1   8
ATOM      8  C1  UNL d   1      -3.408   0.907   2.593  0.00  0.00     0.054 C 
ATOM      9  C   UNL d   1      -3.967   0.631   3.982  0.00  0.00     0.018 C 
ENDBRANCH   1   8
TORSDOF 1
ENDMDL
