MODEL 1
REMARK minimizedAffinity 5.22539186
REMARK minimizedRMSD -1
REMARK  1 active torsions:
REMARK  status: ('A' for Active; 'I' for Inactive)
REMARK    1  A    between atoms: C1_2  and  C2_3 
ROOT
ATOM      1  C2  UNL d   1      -3.305   1.096   5.094  0.00  0.00    -0.081 A 
ATOM      2  C3  UNL d   1      -2.946   2.159   4.257  0.00  0.00     0.006 A 
ATOM      3  C4  UNL d   1      -1.870   2.035   3.376  0.00  0.00     0.002 A 
ATOM      4  C5  UNL d   1      -1.141   0.843   3.310  0.00  0.00    -0.080 A 
ATOM      5  C6  UNL d   1      -0.002   0.685   2.346  0.00  0.00     0.076 C 
ATOM      6  C7  UNL d   1      -1.488  -0.214   4.158  0.00  0.00     0.002 A 
ATOM      7  C8  UNL d   1      -2.564  -0.090   5.040  0.00  0.00     0.006 A 
ENDROOT
BRANCH   1   8
ATOM      8  C1  UNL d   1      -4.506   1.204   5.999  0.00  0.00     0.054 C 
ATOM      9  C   UNL d   1      -5.319  -0.082   5.997  0.00  0.00     0.018 C 
ENDBRANCH   1   8
TORSDOF 1
ENDMDL
