MODEL 1
REMARK minimizedAffinity 0.506855488
REMARK minimizedRMSD -1
REMARK  1 active torsions:
REMARK  status: ('A' for Active; 'I' for Inactive)
REMARK    1  A    between atoms: C1_2  and  C2_3 
ROOT
ATOM      1  C2  UNL d   1       0.296   0.735   2.078  0.00  0.00    -0.081 A 
ATOM      2  C3  UNL d   1       0.913  -0.342   2.724  0.00  0.00     0.006 A 
ATOM      3  C4  UNL d   1       2.293  -0.533   2.623  0.00  0.00     0.002 A 
ATOM      4  C5  UNL d   1       3.080   0.355   1.882  0.00  0.00    -0.080 A 
ATOM      5  C6  UNL d   1       4.566   0.179   1.790  0.00  0.00     0.076 C 
ATOM      6  C7  UNL d   1       2.461   1.422   1.221  0.00  0.00     0.002 A 
ATOM      7  C8  UNL d   1       1.081   1.612   1.321  0.00  0.00     0.006 A 
ENDROOT
BRANCH   1   8
ATOM      8  C1  UNL d   1      -1.183   0.980   2.238  0.00  0.00     0.054 C 
ATOM      9  C   UNL d   1      -1.908   0.880   0.903  0.00  0.00     0.018 C 
ENDBRANCH   1   8
TORSDOF 1
ENDMDL
