MODEL 1
REMARK minimizedAffinity 6.4092679
REMARK minimizedRMSD -1
REMARK  1 active torsions:
REMARK  status: ('A' for Active; 'I' for Inactive)
REMARK    1  A    between atoms: C1_2  and  C2_3 
ROOT
ATOM      1  C2  UNL d   1       3.004   0.481  -4.213  0.00  0.00    -0.081 A 
ATOM      2  C3  UNL d   1       2.184   1.420  -3.575  0.00  0.00     0.006 A 
ATOM      3  C4  UNL d   1       1.973   2.678  -4.144  0.00  0.00     0.002 A 
ATOM      4  C5  UNL d   1       2.571   3.015  -5.363  0.00  0.00    -0.080 A 
ATOM      5  C6  UNL d   1       2.329   4.352  -5.999  0.00  0.00     0.076 C 
ATOM      6  C7  UNL d   1       3.404   2.084  -5.992  0.00  0.00     0.002 A 
ATOM      7  C8  UNL d   1       3.616   0.826  -5.423  0.00  0.00     0.006 A 
ENDROOT
BRANCH   1   8
ATOM      8  C1  UNL d   1       3.182  -0.900  -3.635  0.00  0.00     0.054 C 
ATOM      9  C   UNL d   1       2.608  -1.965  -4.558  0.00  0.00     0.018 C 
ENDBRANCH   1   8
TORSDOF 1
ENDMDL
