MODEL 1
REMARK minimizedAffinity 7.15518379
REMARK minimizedRMSD -1
REMARK  1 active torsions:
REMARK  status: ('A' for Active; 'I' for Inactive)
REMARK    1  A    between atoms: C1_2  and  C2_3 
ROOT
ATOM      1  C2  UNL d   1      -2.166   1.078   1.145  0.00  0.00    -0.081 A 
ATOM      2  C3  UNL d   1      -3.114   1.704   1.963  0.00  0.00     0.006 A 
ATOM      3  C4  UNL d   1      -4.360   1.112   2.184  0.00  0.00     0.002 A 
ATOM      4  C5  UNL d   1      -4.675  -0.118   1.597  0.00  0.00    -0.080 A 
ATOM      5  C6  UNL d   1      -5.997  -0.779   1.850  0.00  0.00     0.076 C 
ATOM      6  C7  UNL d   1      -3.735  -0.735   0.765  0.00  0.00     0.002 A 
ATOM      7  C8  UNL d   1      -2.489  -0.143   0.543  0.00  0.00     0.006 A 
ENDROOT
BRANCH   1   8
ATOM      8  C1  UNL d   1      -0.798   1.683   0.956  0.00  0.00     0.054 C 
ATOM      9  C   UNL d   1       0.187   1.155   1.990  0.00  0.00     0.018 C 
ENDBRANCH   1   8
TORSDOF 1
ENDMDL
