MODEL 1
REMARK minimizedAffinity 3.98419952
REMARK minimizedRMSD -1
REMARK  1 active torsions:
REMARK  status: ('A' for Active; 'I' for Inactive)
REMARK    1  A    between atoms: C1_2  and  C2_3 
ROOT
ATOM      1  C2  UNL d   1      -2.974   1.648   2.575  0.00  0.00    -0.081 A 
ATOM      2  C3  UNL d   1      -1.751   2.132   3.056  0.00  0.00     0.006 A 
ATOM      3  C4  UNL d   1      -0.562   1.843   2.384  0.00  0.00     0.002 A 
ATOM      4  C5  UNL d   1      -0.575   1.072   1.217  0.00  0.00    -0.080 A 
ATOM      5  C6  UNL d   1       0.692   0.780   0.469  0.00  0.00     0.076 C 
ATOM      6  C7  UNL d   1      -1.794   0.574   0.746  0.00  0.00     0.002 A 
ATOM      7  C8  UNL d   1      -2.984   0.862   1.418  0.00  0.00     0.006 A 
ENDROOT
BRANCH   1   8
ATOM      8  C1  UNL d   1      -4.266   2.012   3.261  0.00  0.00     0.054 C 
ATOM      9  C   UNL d   1      -4.121   1.963   4.776  0.00  0.00     0.018 C 
ENDBRANCH   1   8
TORSDOF 1
ENDMDL
