MODEL 1
REMARK minimizedAffinity 8.93431187
REMARK minimizedRMSD -1
REMARK  1 active torsions:
REMARK  status: ('A' for Active; 'I' for Inactive)
REMARK    1  A    between atoms: C1_2  and  C2_3 
ROOT
ATOM      1  C2  UNL d   1      -5.864  -0.575   3.962  0.00  0.00    -0.081 A 
ATOM      2  C3  UNL d   1      -5.994   0.630   3.260  0.00  0.00     0.006 A 
ATOM      3  C4  UNL d   1      -5.822   1.853   3.914  0.00  0.00     0.002 A 
ATOM      4  C5  UNL d   1      -5.510   1.891   5.277  0.00  0.00    -0.080 A 
ATOM      5  C6  UNL d   1      -5.293   3.196   5.984  0.00  0.00     0.076 C 
ATOM      6  C7  UNL d   1      -5.397   0.688   5.982  0.00  0.00     0.002 A 
ATOM      7  C8  UNL d   1      -5.570  -0.535   5.329  0.00  0.00     0.006 A 
ENDROOT
BRANCH   1   8
ATOM      8  C1  UNL d   1      -5.985  -1.896   3.246  0.00  0.00     0.054 C 
ATOM      9  C   UNL d   1      -5.856  -1.722   1.739  0.00  0.00     0.018 C 
ENDBRANCH   1   8
TORSDOF 1
ENDMDL
