MODEL 1
REMARK minimizedAffinity -4.6896472
REMARK minimizedRMSD -1
REMARK  0 active torsions:
REMARK  status: ('A' for Active; 'I' for Inactive)
ROOT
ATOM      1  C4' PXY d   1      -0.092   2.215   0.194  0.00  0.00     0.077 C 
ATOM      2  C1' PXY d   1      -0.108  -3.563   0.012  0.00  0.00     0.077 C 
ATOM      3  C1  PXY d   1      -0.116  -2.048   0.064  0.00  0.00    -0.082 A 
ATOM      4  C2  PXY d   1       0.701  -1.362  -0.719  0.00  0.00     0.003 A 
ATOM      5  C3  PXY d   1       0.730   0.008  -0.661  0.00  0.00     0.003 A 
ATOM      6  C4  PXY d   1      -0.125   0.684   0.168  0.00  0.00    -0.082 A 
ATOM      7  C5  PXY d   1      -0.969  -0.008   0.962  0.00  0.00     0.003 A 
ATOM      8  C6  PXY d   1      -0.953  -1.399   0.918  0.00  0.00     0.003 A 
ENDROOT
TORSDOF 0
ENDMDL
