MODEL 1
REMARK minimizedAffinity -3.26749635
REMARK minimizedRMSD -1
REMARK  0 active torsions:
REMARK  status: ('A' for Active; 'I' for Inactive)
ROOT
ATOM      1  C4' PXY d   1      -0.863   1.828  -0.458  0.00  0.00     0.077 C 
ATOM      2  C1' PXY d   1       0.399  -3.729   0.510  0.00  0.00     0.077 C 
ATOM      3  C1  PXY d   1       0.080  -2.270   0.253  0.00  0.00    -0.082 A 
ATOM      4  C2  PXY d   1      -0.952  -1.708   0.862  0.00  0.00     0.003 A 
ATOM      5  C3  PXY d   1      -1.273  -0.398   0.616  0.00  0.00     0.003 A 
ATOM      6  C4  PXY d   1      -0.498   0.360  -0.221  0.00  0.00    -0.082 A 
ATOM      7  C5  PXY d   1       0.562  -0.203  -0.838  0.00  0.00     0.003 A 
ATOM      8  C6  PXY d   1       0.847  -1.545  -0.607  0.00  0.00     0.003 A 
ENDROOT
TORSDOF 0
ENDMDL
