MODEL 1
REMARK minimizedAffinity -3.42322707
REMARK minimizedRMSD -1
REMARK  0 active torsions:
REMARK  status: ('A' for Active; 'I' for Inactive)
ROOT
ATOM      1  C4' PXY d   1       0.441  -3.748   1.069  0.00  0.00     0.077 C 
ATOM      2  C1' PXY d   1       0.054   1.666  -0.918  0.00  0.00     0.077 C 
ATOM      3  C1  PXY d   1       0.150   0.250  -0.386  0.00  0.00    -0.082 A 
ATOM      4  C2  PXY d   1       1.078  -0.566  -0.859  0.00  0.00     0.003 A 
ATOM      5  C3  PXY d   1       1.158  -1.860  -0.412  0.00  0.00     0.003 A 
ATOM      6  C4  PXY d   1       0.314  -2.307   0.568  0.00  0.00    -0.082 A 
ATOM      7  C5  PXY d   1      -0.629  -1.478   1.065  0.00  0.00     0.003 A 
ATOM      8  C6  PXY d   1      -0.720  -0.181   0.568  0.00  0.00     0.003 A 
ENDROOT
TORSDOF 0
ENDMDL
