MODEL 1
REMARK minimizedAffinity -4.02053213
REMARK minimizedRMSD -1
REMARK  0 active torsions:
REMARK  status: ('A' for Active; 'I' for Inactive)
ROOT
ATOM      1  C4' PXY d   1       0.290   2.514   0.017  0.00  0.00     0.077 C 
ATOM      2  C1' PXY d   1      -0.023  -3.247   0.387  0.00  0.00     0.077 C 
ATOM      3  C1  PXY d   1       0.046  -1.735   0.291  0.00  0.00    -0.082 A 
ATOM      4  C2  PXY d   1       1.095  -1.163  -0.279  0.00  0.00     0.003 A 
ATOM      5  C3  PXY d   1       1.188   0.203  -0.346  0.00  0.00     0.003 A 
ATOM      6  C4  PXY d   1       0.174   0.991   0.128  0.00  0.00    -0.082 A 
ATOM      7  C5  PXY d   1      -0.904   0.415   0.701  0.00  0.00     0.003 A 
ATOM      8  C6  PXY d   1      -0.961  -0.973   0.796  0.00  0.00     0.003 A 
ENDROOT
TORSDOF 0
ENDMDL
