MODEL 1
REMARK minimizedAffinity -3.12393928
REMARK minimizedRMSD -1
REMARK  0 active torsions:
REMARK  status: ('A' for Active; 'I' for Inactive)
ROOT
ATOM      1  C4' PXY d   1       0.227  -3.290   0.478  0.00  0.00     0.077 C 
ATOM      2  C1' PXY d   1      -0.324   2.458   0.199  0.00  0.00     0.077 C 
ATOM      3  C1  PXY d   1      -0.189   0.950   0.281  0.00  0.00    -0.082 A 
ATOM      4  C2  PXY d   1       0.956   0.377  -0.053  0.00  0.00     0.003 A 
ATOM      5  C3  PXY d   1       1.085  -0.988  -0.015  0.00  0.00     0.003 A 
ATOM      6  C4  PXY d   1       0.049  -1.770   0.419  0.00  0.00    -0.082 A 
ATOM      7  C5  PXY d   1      -1.119  -1.192   0.772  0.00  0.00     0.003 A 
ATOM      8  C6  PXY d   1      -1.243   0.192   0.688  0.00  0.00     0.003 A 
ENDROOT
TORSDOF 0
ENDMDL
