MODEL 1
REMARK minimizedAffinity -2.41235161
REMARK minimizedRMSD -1
REMARK  0 active torsions:
REMARK  status: ('A' for Active; 'I' for Inactive)
ROOT
ATOM      1  C4' PXY d   1      -0.428   2.227  -0.029  0.00  0.00     0.077 C 
ATOM      2  C1' PXY d   1       0.184  -3.519   0.118  0.00  0.00     0.077 C 
ATOM      3  C1  PXY d   1       0.012  -2.013   0.085  0.00  0.00    -0.082 A 
ATOM      4  C2  PXY d   1       0.642  -1.302  -0.836  0.00  0.00     0.003 A 
ATOM      5  C3  PXY d   1       0.523   0.063  -0.860  0.00  0.00     0.003 A 
ATOM      6  C4  PXY d   1      -0.291   0.704   0.035  0.00  0.00    -0.082 A 
ATOM      7  C5  PXY d   1      -0.946  -0.015   0.972  0.00  0.00     0.003 A 
ATOM      8  C6  PXY d   1      -0.779  -1.397   1.005  0.00  0.00     0.003 A 
ENDROOT
TORSDOF 0
ENDMDL
