MODEL 1
REMARK minimizedAffinity -5.41692877
REMARK minimizedRMSD -1
REMARK  0 active torsions:
REMARK  status: ('A' for Active; 'I' for Inactive)
ROOT
ATOM      1  C4' PXY d   1       0.144  -3.482   0.446  0.00  0.00     0.077 C 
ATOM      2  C1' PXY d   1       0.147   2.221  -0.497  0.00  0.00     0.077 C 
ATOM      3  C1  PXY d   1       0.148   0.723  -0.262  0.00  0.00    -0.082 A 
ATOM      4  C2  PXY d   1      -0.459   0.228   0.804  0.00  0.00     0.003 A 
ATOM      5  C3  PXY d   1      -0.440  -1.121   1.048  0.00  0.00     0.003 A 
ATOM      6  C4  PXY d   1       0.160  -1.977   0.164  0.00  0.00    -0.082 A 
ATOM      7  C5  PXY d   1       0.772  -1.480  -0.932  0.00  0.00     0.003 A 
ATOM      8  C6  PXY d   1       0.777  -0.104  -1.140  0.00  0.00     0.003 A 
ENDROOT
TORSDOF 0
ENDMDL
