MODEL 1
REMARK minimizedAffinity -2.87750149
REMARK minimizedRMSD -1
REMARK  0 active torsions:
REMARK  status: ('A' for Active; 'I' for Inactive)
ROOT
ATOM      1  C4' PXY d   1       0.013  -3.647   0.279  0.00  0.00     0.077 C 
ATOM      2  C1' PXY d   1       0.191   2.069  -0.568  0.00  0.00     0.077 C 
ATOM      3  C1  PXY d   1       0.149   0.568  -0.358  0.00  0.00    -0.082 A 
ATOM      4  C2  PXY d   1      -0.649   0.059   0.567  0.00  0.00     0.003 A 
ATOM      5  C3  PXY d   1      -0.676  -1.293   0.792  0.00  0.00     0.003 A 
ATOM      6  C4  PXY d   1       0.082  -2.138   0.026  0.00  0.00    -0.082 A 
ATOM      7  C5  PXY d   1       0.890  -1.628  -0.927  0.00  0.00     0.003 A 
ATOM      8  C6  PXY d   1       0.934  -0.249  -1.112  0.00  0.00     0.003 A 
ENDROOT
TORSDOF 0
ENDMDL
