MODEL 1
REMARK minimizedAffinity -4.72001743
REMARK minimizedRMSD -1
REMARK  0 active torsions:
REMARK  status: ('A' for Active; 'I' for Inactive)
ROOT
ATOM      1  C4' PXY d   1       0.120  -4.329  -0.782  0.00  0.00     0.077 C 
ATOM      2  C1' PXY d   1      -0.145   1.433  -0.414  0.00  0.00     0.077 C 
ATOM      3  C1  PXY d   1      -0.075  -0.077  -0.523  0.00  0.00    -0.082 A 
ATOM      4  C2  PXY d   1      -0.521  -0.826   0.472  0.00  0.00     0.003 A 
ATOM      5  C3  PXY d   1      -0.437  -2.193   0.403  0.00  0.00     0.003 A 
ATOM      6  C4  PXY d   1       0.061  -2.801  -0.719  0.00  0.00    -0.082 A 
ATOM      7  C5  PXY d   1       0.508  -2.043  -1.743  0.00  0.00     0.003 A 
ATOM      8  C6  PXY d   1       0.451  -0.657  -1.636  0.00  0.00     0.003 A 
ENDROOT
TORSDOF 0
ENDMDL
