MODEL 1
REMARK minimizedAffinity -5.0388298
REMARK minimizedRMSD -1
REMARK  0 active torsions:
REMARK  status: ('A' for Active; 'I' for Inactive)
ROOT
ATOM      1  C4' PXY d   1      -0.850  -2.292  -0.134  0.00  0.00     0.077 C 
ATOM      2  C1' PXY d   1       0.742   3.259   0.131  0.00  0.00     0.077 C 
ATOM      3  C1  PXY d   1       0.316   1.806   0.052  0.00  0.00    -0.082 A 
ATOM      4  C2  PXY d   1       0.439   1.030   1.116  0.00  0.00     0.003 A 
ATOM      5  C3  PXY d   1       0.089  -0.295   1.052  0.00  0.00     0.003 A 
ATOM      6  C4  PXY d   1      -0.442  -0.816  -0.097  0.00  0.00    -0.082 A 
ATOM      7  C5  PXY d   1      -0.580  -0.028  -1.184  0.00  0.00     0.003 A 
ATOM      8  C6  PXY d   1      -0.180   1.303  -1.111  0.00  0.00     0.003 A 
ENDROOT
TORSDOF 0
ENDMDL
