MODEL 1
REMARK minimizedAffinity -3.47544098
REMARK minimizedRMSD -1
REMARK  0 active torsions:
REMARK  status: ('A' for Active; 'I' for Inactive)
ROOT
ATOM      1  C4' PXY d   1      -2.833   0.458   1.224  0.00  0.00     0.077 C 
ATOM      2  C1' PXY d   1       1.668  -2.714  -0.533  0.00  0.00     0.077 C 
ATOM      3  C1  PXY d   1       0.481  -1.893  -0.070  0.00  0.00    -0.082 A 
ATOM      4  C2  PXY d   1       0.312  -0.666  -0.536  0.00  0.00     0.003 A 
ATOM      5  C3  PXY d   1      -0.738   0.102  -0.103  0.00  0.00     0.003 A 
ATOM      6  C4  PXY d   1      -1.654  -0.410   0.776  0.00  0.00    -0.082 A 
ATOM      7  C5  PXY d   1      -1.495  -1.665   1.248  0.00  0.00     0.003 A 
ATOM      8  C6  PXY d   1      -0.399  -2.413   0.828  0.00  0.00     0.003 A 
ENDROOT
TORSDOF 0
ENDMDL
