MODEL 1
REMARK minimizedAffinity -3.28061724
REMARK minimizedRMSD -1
REMARK  0 active torsions:
REMARK  status: ('A' for Active; 'I' for Inactive)
ROOT
ATOM      1  C4' PXY d   1       1.108   1.877   0.142  0.00  0.00     0.077 C 
ATOM      2  C1' PXY d   1      -0.204  -3.728   0.669  0.00  0.00     0.077 C 
ATOM      3  C1  PXY d   1       0.146  -2.261   0.520  0.00  0.00    -0.082 A 
ATOM      4  C2  PXY d   1       0.209  -1.490   1.594  0.00  0.00     0.003 A 
ATOM      5  C3  PXY d   1       0.492  -0.154   1.473  0.00  0.00     0.003 A 
ATOM      6  C4  PXY d   1       0.767   0.388   0.246  0.00  0.00    -0.082 A 
ATOM      7  C5  PXY d   1       0.716  -0.394  -0.853  0.00  0.00     0.003 A 
ATOM      8  C6  PXY d   1       0.386  -1.739  -0.714  0.00  0.00     0.003 A 
ENDROOT
TORSDOF 0
ENDMDL
