MODEL 1
REMARK minimizedAffinity -4.28194046
REMARK minimizedRMSD -1
REMARK  0 active torsions:
REMARK  status: ('A' for Active; 'I' for Inactive)
ROOT
ATOM      1  C4' PXY d   1       0.180   2.153   0.422  0.00  0.00     0.077 C 
ATOM      2  C1' PXY d   1      -0.185  -3.588  -0.146  0.00  0.00     0.077 C 
ATOM      3  C1  PXY d   1      -0.083  -2.082  -0.008  0.00  0.00    -0.082 A 
ATOM      4  C2  PXY d   1      -0.216  -1.524   1.184  0.00  0.00     0.003 A 
ATOM      5  C3  PXY d   1      -0.158  -0.161   1.322  0.00  0.00     0.003 A 
ATOM      6  C4  PXY d   1       0.093   0.635   0.237  0.00  0.00    -0.082 A 
ATOM      7  C5  PXY d   1       0.241   0.073  -0.981  0.00  0.00     0.003 A 
ATOM      8  C6  PXY d   1       0.137  -1.310  -1.107  0.00  0.00     0.003 A 
ENDROOT
TORSDOF 0
ENDMDL
