MODEL 1
REMARK minimizedAffinity -4.91553068
REMARK minimizedRMSD -1
REMARK  0 active torsions:
REMARK  status: ('A' for Active; 'I' for Inactive)
ROOT
ATOM      1  C4' PXY d   1       0.220   1.889   0.122  0.00  0.00     0.077 C 
ATOM      2  C1' PXY d   1       0.119  -3.851  -0.547  0.00  0.00     0.077 C 
ATOM      3  C1  PXY d   1       0.136  -2.347  -0.363  0.00  0.00    -0.082 A 
ATOM      4  C2  PXY d   1       0.578  -1.573  -1.341  0.00  0.00     0.003 A 
ATOM      5  C3  PXY d   1       0.631  -0.212  -1.179  0.00  0.00     0.003 A 
ATOM      6  C4  PXY d   1       0.176   0.366  -0.024  0.00  0.00    -0.082 A 
ATOM      7  C5  PXY d   1      -0.287  -0.416   0.975  0.00  0.00     0.003 A 
ATOM      8  C6  PXY d   1      -0.293  -1.798   0.806  0.00  0.00     0.003 A 
ENDROOT
TORSDOF 0
ENDMDL
