MODEL 1
REMARK minimizedAffinity -3.14486003
REMARK minimizedRMSD -1
REMARK  0 active torsions:
REMARK  status: ('A' for Active; 'I' for Inactive)
ROOT
ATOM      1  C4' PXY d   1       0.054   1.877   0.386  0.00  0.00     0.077 C 
ATOM      2  C1' PXY d   1       0.305  -3.893   0.148  0.00  0.00     0.077 C 
ATOM      3  C1  PXY d   1       0.226  -2.381   0.210  0.00  0.00    -0.082 A 
ATOM      4  C2  PXY d   1       1.245  -1.654  -0.220  0.00  0.00     0.003 A 
ATOM      5  C3  PXY d   1       1.203  -0.286  -0.141  0.00  0.00     0.003 A 
ATOM      6  C4  PXY d   1       0.086   0.347   0.334  0.00  0.00    -0.082 A 
ATOM      7  C5  PXY d   1      -0.962  -0.387   0.764  0.00  0.00     0.003 A 
ATOM      8  C6  PXY d   1      -0.883  -1.776   0.714  0.00  0.00     0.003 A 
ENDROOT
TORSDOF 0
ENDMDL
