MODEL 1
REMARK minimizedAffinity -3.14887023
REMARK minimizedRMSD -1
REMARK  0 active torsions:
REMARK  status: ('A' for Active; 'I' for Inactive)
ROOT
ATOM      1  C4' PXY d   1       0.245  -3.591   0.479  0.00  0.00     0.077 C 
ATOM      2  C1' PXY d   1      -0.555   2.099  -0.157  0.00  0.00     0.077 C 
ATOM      3  C1  PXY d   1      -0.349   0.608   0.023  0.00  0.00    -0.082 A 
ATOM      4  C2  PXY d   1       0.483  -0.039  -0.778  0.00  0.00     0.003 A 
ATOM      5  C3  PXY d   1       0.657  -1.393  -0.651  0.00  0.00     0.003 A 
ATOM      6  C4  PXY d   1       0.013  -2.083   0.341  0.00  0.00    -0.082 A 
ATOM      7  C5  PXY d   1      -0.829  -1.429   1.169  0.00  0.00     0.003 A 
ATOM      8  C6  PXY d   1      -1.023  -0.062   0.996  0.00  0.00     0.003 A 
ENDROOT
TORSDOF 0
ENDMDL
