MODEL 1
REMARK minimizedAffinity -2.73262382
REMARK minimizedRMSD -1
REMARK  0 active torsions:
REMARK  status: ('A' for Active; 'I' for Inactive)
ROOT
ATOM      1  C4' PXY d   1      -0.179   2.287  -0.797  0.00  0.00     0.077 C 
ATOM      2  C1' PXY d   1       0.281  -3.324   0.516  0.00  0.00     0.077 C 
ATOM      3  C1  PXY d   1       0.171  -1.853   0.165  0.00  0.00    -0.082 A 
ATOM      4  C2  PXY d   1      -0.560  -1.052   0.923  0.00  0.00     0.003 A 
ATOM      5  C3  PXY d   1      -0.695   0.274   0.602  0.00  0.00     0.003 A 
ATOM      6  C4  PXY d   1      -0.032   0.797  -0.476  0.00  0.00    -0.082 A 
ATOM      7  C5  PXY d   1       0.724  -0.011  -1.248  0.00  0.00     0.003 A 
ATOM      8  C6  PXY d   1       0.816  -1.363  -0.928  0.00  0.00     0.003 A 
ENDROOT
TORSDOF 0
ENDMDL
