MODEL 1
REMARK minimizedAffinity -1.97563052
REMARK minimizedRMSD -1
REMARK  0 active torsions:
REMARK  status: ('A' for Active; 'I' for Inactive)
ROOT
ATOM      1  C4' PXY d   1       0.047   1.958  -0.827  0.00  0.00     0.077 C 
ATOM      2  C1' PXY d   1       0.122  -3.618   0.695  0.00  0.00     0.077 C 
ATOM      3  C1  PXY d   1       0.114  -2.157   0.289  0.00  0.00    -0.082 A 
ATOM      4  C2  PXY d   1      -0.557  -1.280   1.018  0.00  0.00     0.003 A 
ATOM      5  C3  PXY d   1      -0.601   0.040   0.648  0.00  0.00     0.003 A 
ATOM      6  C4  PXY d   1       0.091   0.475  -0.450  0.00  0.00    -0.082 A 
ATOM      7  C5  PXY d   1       0.787  -0.412  -1.193  0.00  0.00     0.003 A 
ATOM      8  C6  PXY d   1       0.786  -1.754  -0.823  0.00  0.00     0.003 A 
ENDROOT
TORSDOF 0
ENDMDL
