MODEL 1
REMARK minimizedAffinity -1.71333218
REMARK minimizedRMSD -1
REMARK  0 active torsions:
REMARK  status: ('A' for Active; 'I' for Inactive)
ROOT
ATOM      1  C4' PXY d   1      -0.260   2.382   0.057  0.00  0.00     0.077 C 
ATOM      2  C1' PXY d   1       0.409  -3.346   0.447  0.00  0.00     0.077 C 
ATOM      3  C1  PXY d   1       0.246  -1.843   0.339  0.00  0.00    -0.082 A 
ATOM      4  C2  PXY d   1      -0.571  -1.213   1.167  0.00  0.00     0.003 A 
ATOM      5  C3  PXY d   1      -0.756   0.142   1.063  0.00  0.00     0.003 A 
ATOM      6  C4  PXY d   1      -0.056   0.867   0.135  0.00  0.00    -0.082 A 
ATOM      7  C5  PXY d   1       0.787   0.233  -0.707  0.00  0.00     0.003 A 
ATOM      8  C6  PXY d   1       0.929  -1.149  -0.611  0.00  0.00     0.003 A 
ENDROOT
TORSDOF 0
ENDMDL
