MODEL 1
REMARK minimizedAffinity -3.59255576
REMARK minimizedRMSD -1
REMARK  0 active torsions:
REMARK  status: ('A' for Active; 'I' for Inactive)
ROOT
ATOM      1  C4' PXY d   1      -0.719   2.626   0.458  0.00  0.00     0.077 C 
ATOM      2  C1' PXY d   1       0.462  -3.023   0.788  0.00  0.00     0.077 C 
ATOM      3  C1  PXY d   1       0.140  -1.544   0.699  0.00  0.00    -0.082 A 
ATOM      4  C2  PXY d   1       1.097  -0.684   0.391  0.00  0.00     0.003 A 
ATOM      5  C3  PXY d   1       0.830   0.660   0.338  0.00  0.00     0.003 A 
ATOM      6  C4  PXY d   1      -0.441   1.123   0.550  0.00  0.00    -0.082 A 
ATOM      7  C5  PXY d   1      -1.425   0.250   0.855  0.00  0.00     0.003 A 
ATOM      8  C6  PXY d   1      -1.124  -1.106   0.945  0.00  0.00     0.003 A 
ENDROOT
TORSDOF 0
ENDMDL
