MODEL 1
REMARK minimizedAffinity -5.53524351
REMARK minimizedRMSD -1
REMARK  1 active torsions:
REMARK  status: ('A' for Active; 'I' for Inactive)
REMARK    1  A    between atoms: C1_2  and  C2_3 
ROOT
ATOM      1  C2  UNL d   1       0.029   0.026  -0.349  0.00  0.00    -0.077 A 
ATOM      2  C3  UNL d   1      -1.146  -0.454   0.246  0.00  0.00     0.002 A 
ATOM      3  C4  UNL d   1      -1.222  -0.615   1.631  0.00  0.00     0.002 A 
ATOM      4  C5  UNL d   1      -0.127  -0.296   2.432  0.00  0.00    -0.004 A 
ATOM      5  C6  UNL d   1       1.047   0.181   1.850  0.00  0.00     0.002 A 
ATOM      6  C7  UNL d   1       1.124   0.342   0.465  0.00  0.00     0.002 A 
ENDROOT
BRANCH   1   7
ATOM      7  C1  UNL d   1       0.095   0.248  -1.837  0.00  0.00     0.055 C 
ATOM      8  C   UNL d   1       0.998  -0.776  -2.510  0.00  0.00     0.019 C 
ENDBRANCH   1   7
TORSDOF 1
ENDMDL
