MODEL 1
REMARK minimizedAffinity -4.96057367
REMARK minimizedRMSD -1
REMARK  1 active torsions:
REMARK  status: ('A' for Active; 'I' for Inactive)
REMARK    1  A    between atoms: C1_2  and  C2_3 
ROOT
ATOM      1  C2  UNL d   1      -0.435  -0.025  -0.777  0.00  0.00    -0.077 A 
ATOM      2  C3  UNL d   1      -1.771   0.332  -0.549  0.00  0.00     0.002 A 
ATOM      3  C4  UNL d   1      -2.342   0.162   0.713  0.00  0.00     0.002 A 
ATOM      4  C5  UNL d   1      -1.584  -0.361   1.759  0.00  0.00    -0.004 A 
ATOM      5  C6  UNL d   1      -0.254  -0.721   1.542  0.00  0.00     0.002 A 
ATOM      6  C7  UNL d   1       0.318  -0.553   0.280  0.00  0.00     0.002 A 
ENDROOT
BRANCH   1   7
ATOM      7  C1  UNL d   1       0.197   0.203  -2.125  0.00  0.00     0.055 C 
ATOM      8  C   UNL d   1       0.805  -1.079  -2.676  0.00  0.00     0.019 C 
ENDBRANCH   1   7
TORSDOF 1
ENDMDL
