MODEL 1
REMARK minimizedAffinity -5.19268274
REMARK minimizedRMSD -1
REMARK  1 active torsions:
REMARK  status: ('A' for Active; 'I' for Inactive)
REMARK    1  A    between atoms: C1_2  and  C2_3 
ROOT
ATOM      1  C2  UNL d   1       0.185  -0.687  -0.892  0.00  0.00    -0.077 A 
ATOM      2  C3  UNL d   1      -0.682  -1.162   0.102  0.00  0.00     0.002 A 
ATOM      3  C4  UNL d   1      -0.505  -0.780   1.434  0.00  0.00     0.002 A 
ATOM      4  C5  UNL d   1       0.534   0.081   1.782  0.00  0.00    -0.004 A 
ATOM      5  C6  UNL d   1       1.403   0.556   0.800  0.00  0.00     0.002 A 
ATOM      6  C7  UNL d   1       1.229   0.175  -0.531  0.00  0.00     0.002 A 
ENDROOT
BRANCH   1   7
ATOM      7  C1  UNL d   1      -0.033  -1.059  -2.336  0.00  0.00     0.055 C 
ATOM      8  C   UNL d   1       1.284  -1.366  -3.033  0.00  0.00     0.019 C 
ENDBRANCH   1   7
TORSDOF 1
ENDMDL
