MODEL 1
REMARK minimizedAffinity -4.63105822
REMARK minimizedRMSD -1
REMARK  1 active torsions:
REMARK  status: ('A' for Active; 'I' for Inactive)
REMARK    1  A    between atoms: C1_2  and  C2_3 
ROOT
ATOM      1  C2  UNL d   1       0.012   0.009   1.751  0.00  0.00    -0.077 A 
ATOM      2  C3  UNL d   1       1.127   0.457   1.030  0.00  0.00     0.002 A 
ATOM      3  C4  UNL d   1       1.030   0.702  -0.342  0.00  0.00     0.002 A 
ATOM      4  C5  UNL d   1      -0.181   0.505  -1.002  0.00  0.00    -0.004 A 
ATOM      5  C6  UNL d   1      -1.295   0.057  -0.294  0.00  0.00     0.002 A 
ATOM      6  C7  UNL d   1      -1.200  -0.189   1.076  0.00  0.00     0.002 A 
ENDROOT
BRANCH   1   7
ATOM      7  C1  UNL d   1       0.101  -0.209   3.239  0.00  0.00     0.055 C 
ATOM      8  C   UNL d   1      -1.248  -0.598   3.823  0.00  0.00     0.019 C 
ENDBRANCH   1   7
TORSDOF 1
ENDMDL
