MODEL 1
REMARK minimizedAffinity -6.11427784
REMARK minimizedRMSD -1
REMARK  1 active torsions:
REMARK  status: ('A' for Active; 'I' for Inactive)
REMARK    1  A    between atoms: C1_2  and  C2_3 
ROOT
ATOM      1  C2  UNL d   1      -0.870  -0.303   1.085  0.00  0.00    -0.077 A 
ATOM      2  C3  UNL d   1       0.109  -0.052   2.056  0.00  0.00     0.002 A 
ATOM      3  C4  UNL d   1      -0.254   0.160   3.388  0.00  0.00     0.002 A 
ATOM      4  C5  UNL d   1      -1.596   0.119   3.760  0.00  0.00    -0.004 A 
ATOM      5  C6  UNL d   1      -2.578  -0.128   2.801  0.00  0.00     0.002 A 
ATOM      6  C7  UNL d   1      -2.216  -0.338   1.470  0.00  0.00     0.002 A 
ENDROOT
BRANCH   1   7
ATOM      7  C1  UNL d   1      -0.476  -0.580  -0.342  0.00  0.00     0.055 C 
ATOM      8  C   UNL d   1      -0.074   0.698  -1.064  0.00  0.00     0.019 C 
ENDBRANCH   1   7
TORSDOF 1
ENDMDL
