MODEL 1
REMARK minimizedAffinity -3.54283237
REMARK minimizedRMSD -1
REMARK  1 active torsions:
REMARK  status: ('A' for Active; 'I' for Inactive)
REMARK    1  A    between atoms: C1_2  and  C2_3 
ROOT
ATOM      1  C2  UNL d   1      -0.470   0.123   0.813  0.00  0.00    -0.077 A 
ATOM      2  C3  UNL d   1      -0.617   0.457   2.167  0.00  0.00     0.002 A 
ATOM      3  C4  UNL d   1      -1.188  -0.452   3.060  0.00  0.00     0.002 A 
ATOM      4  C5  UNL d   1      -1.612  -1.701   2.611  0.00  0.00    -0.004 A 
ATOM      5  C6  UNL d   1      -1.472  -2.041   1.266  0.00  0.00     0.002 A 
ATOM      6  C7  UNL d   1      -0.903  -1.134   0.372  0.00  0.00     0.002 A 
ENDROOT
BRANCH   1   7
ATOM      7  C1  UNL d   1       0.190   1.083  -0.142  0.00  0.00     0.055 C 
ATOM      8  C   UNL d   1       1.502   1.610   0.421  0.00  0.00     0.019 C 
ENDBRANCH   1   7
TORSDOF 1
ENDMDL
