MODEL 1
REMARK minimizedAffinity -5.39248466
REMARK minimizedRMSD -1
REMARK  1 active torsions:
REMARK  status: ('A' for Active; 'I' for Inactive)
REMARK    1  A    between atoms: C1_2  and  C2_3 
ROOT
ATOM      1  C2  UNL d   1      -0.385   0.402   0.194  0.00  0.00    -0.077 A 
ATOM      2  C3  UNL d   1       0.806   0.463   0.932  0.00  0.00     0.002 A 
ATOM      3  C4  UNL d   1       0.878  -0.106   2.205  0.00  0.00     0.002 A 
ATOM      4  C5  UNL d   1      -0.236  -0.742   2.750  0.00  0.00    -0.004 A 
ATOM      5  C6  UNL d   1      -1.425  -0.806   2.025  0.00  0.00     0.002 A 
ATOM      6  C7  UNL d   1      -1.499  -0.237   0.753  0.00  0.00     0.002 A 
ENDROOT
BRANCH   1   7
ATOM      7  C1  UNL d   1      -0.450   0.971  -1.199  0.00  0.00     0.055 C 
ATOM      8  C   UNL d   1       0.261   0.070  -2.199  0.00  0.00     0.019 C 
ENDBRANCH   1   7
TORSDOF 1
ENDMDL
