MODEL 1
REMARK minimizedAffinity -3.87260485
REMARK minimizedRMSD -1
REMARK  1 active torsions:
REMARK  status: ('A' for Active; 'I' for Inactive)
REMARK    1  A    between atoms: C1_2  and  C2_3 
ROOT
ATOM      1  C2  UNL d   1      -0.103   0.380  -1.120  0.00  0.00    -0.077 A 
ATOM      2  C3  UNL d   1      -1.345   1.021  -1.002  0.00  0.00     0.002 A 
ATOM      3  C4  UNL d   1      -2.201   0.712   0.057  0.00  0.00     0.002 A 
ATOM      4  C5  UNL d   1      -1.824  -0.235   1.007  0.00  0.00    -0.004 A 
ATOM      5  C6  UNL d   1      -0.593  -0.880   0.897  0.00  0.00     0.002 A 
ATOM      6  C7  UNL d   1       0.264  -0.573  -0.161  0.00  0.00     0.002 A 
ENDROOT
BRANCH   1   7
ATOM      7  C1  UNL d   1       0.843   0.747  -2.233  0.00  0.00     0.055 C 
ATOM      8  C   UNL d   1       1.108  -0.439  -3.148  0.00  0.00     0.019 C 
ENDBRANCH   1   7
TORSDOF 1
ENDMDL
