MODEL 1
REMARK minimizedAffinity -3.81899333
REMARK minimizedRMSD -1
REMARK  1 active torsions:
REMARK  status: ('A' for Active; 'I' for Inactive)
REMARK    1  A    between atoms: C1_2  and  C2_3 
ROOT
ATOM      1  C2  UNL d   1      -0.389  -0.062   1.533  0.00  0.00    -0.077 A 
ATOM      2  C3  UNL d   1       0.981   0.110   1.290  0.00  0.00     0.002 A 
ATOM      3  C4  UNL d   1       1.445   0.330  -0.008  0.00  0.00     0.002 A 
ATOM      4  C5  UNL d   1       0.547   0.384  -1.072  0.00  0.00    -0.004 A 
ATOM      5  C6  UNL d   1      -0.817   0.211  -0.841  0.00  0.00     0.002 A 
ATOM      6  C7  UNL d   1      -1.283  -0.010   0.456  0.00  0.00     0.002 A 
ENDROOT
BRANCH   1   7
ATOM      7  C1  UNL d   1      -0.897  -0.250   2.939  0.00  0.00     0.055 C 
ATOM      8  C   UNL d   1      -0.251   0.739   3.898  0.00  0.00     0.019 C 
ENDBRANCH   1   7
TORSDOF 1
ENDMDL
