MODEL 1
REMARK minimizedAffinity -2.35147381
REMARK minimizedRMSD -1
REMARK  1 active torsions:
REMARK  status: ('A' for Active; 'I' for Inactive)
REMARK    1  A    between atoms: C1_2  and  C2_3 
ROOT
ATOM      1  C2  UNL d   1      -0.907  -0.012   0.420  0.00  0.00    -0.077 A 
ATOM      2  C3  UNL d   1      -1.931  -0.770   1.006  0.00  0.00     0.002 A 
ATOM      3  C4  UNL d   1      -1.886  -1.086   2.365  0.00  0.00     0.002 A 
ATOM      4  C5  UNL d   1      -0.823  -0.645   3.150  0.00  0.00    -0.004 A 
ATOM      5  C6  UNL d   1       0.201   0.107   2.577  0.00  0.00     0.002 A 
ATOM      6  C7  UNL d   1       0.159   0.423   1.218  0.00  0.00     0.002 A 
ENDROOT
BRANCH   1   7
ATOM      7  C1  UNL d   1      -0.978   0.372  -1.035  0.00  0.00     0.055 C 
ATOM      8  C   UNL d   1       0.275   1.115  -1.473  0.00  0.00     0.019 C 
ENDBRANCH   1   7
TORSDOF 1
ENDMDL
