MODEL 1
REMARK minimizedAffinity -2.97040319
REMARK minimizedRMSD -1
REMARK  1 active torsions:
REMARK  status: ('A' for Active; 'I' for Inactive)
REMARK    1  A    between atoms: C1_2  and  C2_3 
ROOT
ATOM      1  C2  UNL d   1       0.302  -0.114  -2.280  0.00  0.00    -0.077 A 
ATOM      2  C3  UNL d   1      -0.372  -1.202  -2.853  0.00  0.00     0.002 A 
ATOM      3  C4  UNL d   1       0.245  -1.976  -3.838  0.00  0.00     0.002 A 
ATOM      4  C5  UNL d   1       1.539  -1.672  -4.256  0.00  0.00    -0.004 A 
ATOM      5  C6  UNL d   1       2.217  -0.591  -3.694  0.00  0.00     0.002 A 
ATOM      6  C7  UNL d   1       1.601   0.184  -2.710  0.00  0.00     0.002 A 
ENDROOT
BRANCH   1   7
ATOM      7  C1  UNL d   1      -0.343   0.691  -1.183  0.00  0.00     0.055 C 
ATOM      8  C   UNL d   1      -0.042   0.100   0.187  0.00  0.00     0.019 C 
ENDBRANCH   1   7
TORSDOF 1
ENDMDL
