MODEL 1
REMARK minimizedAffinity 9.62397385
REMARK minimizedRMSD -1
REMARK  1 active torsions:
REMARK  status: ('A' for Active; 'I' for Inactive)
REMARK    1  A    between atoms: N_2  and  C1_3 
ROOT
ATOM      1  C1  UNL d   1      -0.093  -1.751   3.303  0.00  0.00     0.143 A 
ATOM      2  C2  UNL d   1       0.110  -1.081   4.515  0.00  0.00    -0.057 A 
ATOM      3  C3  UNL d   1       1.379  -0.622   4.887  0.00  0.00     0.033 A 
ATOM      4  C4  UNL d   1       2.477  -0.851   4.065  0.00  0.00    -0.042 A 
ATOM      5  C5  UNL d   1       2.304  -1.537   2.868  0.00  0.00     0.033 A 
ATOM      6  C6  UNL d   1       1.033  -1.987   2.498  0.00  0.00    -0.057 A 
ENDROOT
BRANCH   1   7
ATOM      7  N   UNL d   1      -1.311  -2.318   2.922  0.00  0.00    -0.732 N 
ATOM      8  C   UNL d   1      -2.518  -1.520   2.891  0.00  0.00     0.284 C 
ATOM      9  H3  UNL d   1      -1.214  -2.956   2.135  0.00  0.00     0.395 HD
ENDBRANCH   1   7
TORSDOF 1
ENDMDL
