MODEL 1
REMARK minimizedAffinity 4.23477316
REMARK minimizedRMSD -1
REMARK  1 active torsions:
REMARK  status: ('A' for Active; 'I' for Inactive)
REMARK    1  A    between atoms: N_2  and  C1_3 
ROOT
ATOM      1  C1  UNL d   1       0.232  -1.090  -5.194  0.00  0.00     0.143 A 
ATOM      2  C2  UNL d   1       0.713  -1.846  -4.120  0.00  0.00    -0.057 A 
ATOM      3  C3  UNL d   1       2.082  -1.908  -3.831  0.00  0.00     0.033 A 
ATOM      4  C4  UNL d   1       2.999  -1.236  -4.632  0.00  0.00    -0.042 A 
ATOM      5  C5  UNL d   1       2.546  -0.499  -5.720  0.00  0.00     0.033 A 
ATOM      6  C6  UNL d   1       1.178  -0.435  -5.999  0.00  0.00    -0.057 A 
ENDROOT
BRANCH   1   7
ATOM      7  N   UNL d   1      -1.107  -1.067  -5.591  0.00  0.00    -0.732 N 
ATOM      8  C   UNL d   1      -2.075  -0.264  -4.876  0.00  0.00     0.284 C 
ATOM      9  H3  UNL d   1      -1.211  -1.041  -6.603  0.00  0.00     0.395 HD
ENDBRANCH   1   7
TORSDOF 1
ENDMDL
