MODEL 1
REMARK minimizedAffinity 4.33760309
REMARK minimizedRMSD -1
REMARK  1 active torsions:
REMARK  status: ('A' for Active; 'I' for Inactive)
REMARK    1  A    between atoms: N_2  and  C1_3 
ROOT
ATOM      1  C1  UNL d   1       0.033  -1.842   3.265  0.00  0.00     0.143 A 
ATOM      2  C2  UNL d   1       0.618  -1.652   4.521  0.00  0.00    -0.057 A 
ATOM      3  C3  UNL d   1       1.992  -1.422   4.656  0.00  0.00     0.033 A 
ATOM      4  C4  UNL d   1       2.814  -1.406   3.533  0.00  0.00    -0.042 A 
ATOM      5  C5  UNL d   1       2.258  -1.617   2.276  0.00  0.00     0.033 A 
ATOM      6  C6  UNL d   1       0.884  -1.840   2.148  0.00  0.00    -0.057 A 
ENDROOT
BRANCH   1   7
ATOM      7  N   UNL d   1      -1.311  -2.172   3.074  0.00  0.00    -0.732 N 
ATOM      8  C   UNL d   1      -2.279  -1.153   2.732  0.00  0.00     0.284 C 
ATOM      9  H3  UNL d   1      -1.427  -3.045   2.563  0.00  0.00     0.395 HD
ENDBRANCH   1   7
TORSDOF 1
ENDMDL
