MODEL 1
REMARK minimizedAffinity -2.24970269
REMARK minimizedRMSD -1
REMARK  1 active torsions:
REMARK  status: ('A' for Active; 'I' for Inactive)
REMARK    1  A    between atoms: N_2  and  C1_3 
ROOT
ATOM      1  C1  UNL d   1       2.045  -0.591  -5.362  0.00  0.00     0.143 A 
ATOM      2  C2  UNL d   1       0.772  -0.511  -5.936  0.00  0.00    -0.057 A 
ATOM      3  C3  UNL d   1      -0.341  -1.093  -5.318  0.00  0.00     0.033 A 
ATOM      4  C4  UNL d   1      -0.195  -1.793  -4.125  0.00  0.00    -0.042 A 
ATOM      5  C5  UNL d   1       1.065  -1.907  -3.549  0.00  0.00     0.033 A 
ATOM      6  C6  UNL d   1       2.172  -1.318  -4.168  0.00  0.00    -0.057 A 
ENDROOT
BRANCH   1   7
ATOM      7  N   UNL d   1       3.207  -0.118  -5.977  0.00  0.00    -0.732 N 
ATOM      8  C   UNL d   1       4.432  -0.887  -5.928  0.00  0.00     0.284 C 
ATOM      9  H3  UNL d   1       3.021   0.311  -6.880  0.00  0.00     0.395 HD
ENDBRANCH   1   7
TORSDOF 1
ENDMDL
