MODEL 1
REMARK minimizedAffinity 3.55868626
REMARK minimizedRMSD -1
REMARK  1 active torsions:
REMARK  status: ('A' for Active; 'I' for Inactive)
REMARK    1  A    between atoms: N_2  and  C1_3 
ROOT
ATOM      1  C1  UNL d   1       2.281  -0.350  -5.257  0.00  0.00     0.143 A 
ATOM      2  C2  UNL d   1       2.507  -0.922  -4.000  0.00  0.00    -0.057 A 
ATOM      3  C3  UNL d   1       3.801  -1.053  -3.484  0.00  0.00     0.033 A 
ATOM      4  C4  UNL d   1       4.900  -0.639  -4.230  0.00  0.00    -0.042 A 
ATOM      5  C5  UNL d   1       4.701  -0.090  -5.492  0.00  0.00     0.033 A 
ATOM      6  C6  UNL d   1       3.405   0.044  -6.000  0.00  0.00    -0.057 A 
ENDROOT
BRANCH   1   7
ATOM      7  N   UNL d   1       1.026  -0.282  -5.866  0.00  0.00    -0.732 N 
ATOM      8  C   UNL d   1      -0.041  -1.171  -5.459  0.00  0.00     0.284 C 
ATOM      9  H3  UNL d   1       0.727   0.676  -6.034  0.00  0.00     0.395 HD
ENDBRANCH   1   7
TORSDOF 1
ENDMDL
