MODEL 1
REMARK minimizedAffinity 3.2949295
REMARK minimizedRMSD -1
REMARK  1 active torsions:
REMARK  status: ('A' for Active; 'I' for Inactive)
REMARK    1  A    between atoms: N_2  and  C1_3 
ROOT
ATOM      1  C1  UNL d   1       1.932  -0.493  -5.374  0.00  0.00     0.143 A 
ATOM      2  C2  UNL d   1       0.683  -0.575  -5.999  0.00  0.00    -0.057 A 
ATOM      3  C3  UNL d   1      -0.415  -1.158  -5.355  0.00  0.00     0.033 A 
ATOM      4  C4  UNL d   1      -0.275  -1.697  -4.081  0.00  0.00    -0.042 A 
ATOM      5  C5  UNL d   1       0.963  -1.649  -3.450  0.00  0.00     0.033 A 
ATOM      6  C6  UNL d   1       2.054  -1.060  -4.096  0.00  0.00    -0.057 A 
ENDROOT
BRANCH   1   7
ATOM      7  N   UNL d   1       3.086  -0.014  -6.000  0.00  0.00    -0.732 N 
ATOM      8  C   UNL d   1       4.349  -0.703  -5.844  0.00  0.00     0.284 C 
ATOM      9  H3  UNL d   1       2.906   0.316  -6.945  0.00  0.00     0.395 HD
ENDBRANCH   1   7
TORSDOF 1
ENDMDL
