MODEL 1
REMARK minimizedAffinity 5.28118134
REMARK minimizedRMSD -1
REMARK  0 active torsions:
REMARK  status: ('A' for Active; 'I' for Inactive)
ROOT
ATOM      1  O1  BZF d   1      -3.379   2.056  -0.864  0.00  0.00    -0.204 OA
ATOM      2  C2  BZF d   1      -2.691   1.288   0.055  0.00  0.00     0.174 A 
ATOM      3  C3  BZF d   1      -2.248   2.047   1.078  0.00  0.00    -0.012 A 
ATOM      4  C3A BZF d   1      -2.766   3.357   0.826  0.00  0.00    -0.107 A 
ATOM      5  C4  BZF d   1      -2.682   4.544   1.495  0.00  0.00     0.055 A 
ATOM      6  C5  BZF d   1      -3.239   5.654   0.943  0.00  0.00    -0.016 A 
ATOM      7  C6  BZF d   1      -3.882   5.614  -0.277  0.00  0.00     0.022 A 
ATOM      8  C7  BZF d   1      -3.995   4.458  -0.975  0.00  0.00     0.029 A 
ATOM      9  C7A BZF d   1      -3.461   3.328  -0.405  0.00  0.00     0.058 A 
ENDROOT
TORSDOF 0
ENDMDL
