MODEL 1
REMARK minimizedAffinity 22.4804955
REMARK minimizedRMSD -1
REMARK  0 active torsions:
REMARK  status: ('A' for Active; 'I' for Inactive)
ROOT
ATOM      1  O1  BZF d   1      -4.782  -5.954  -5.924  0.00  0.00    -0.204 OA
ATOM      2  C2  BZF d   1      -5.974  -5.995  -5.228  0.00  0.00     0.174 A 
ATOM      3  C3  BZF d   1      -5.927  -5.186  -4.150  0.00  0.00    -0.012 A 
ATOM      4  C3A BZF d   1      -4.656  -4.533  -4.225  0.00  0.00    -0.107 A 
ATOM      5  C4  BZF d   1      -4.033  -3.600  -3.447  0.00  0.00     0.055 A 
ATOM      6  C5  BZF d   1      -2.763  -3.225  -3.755  0.00  0.00    -0.016 A 
ATOM      7  C6  BZF d   1      -2.087  -3.764  -4.829  0.00  0.00     0.022 A 
ATOM      8  C7  BZF d   1      -2.666  -4.688  -5.634  0.00  0.00     0.029 A 
ATOM      9  C7A BZF d   1      -3.961  -5.046  -5.344  0.00  0.00     0.058 A 
ENDROOT
TORSDOF 0
ENDMDL
