MODEL 1
REMARK minimizedAffinity 14.198081
REMARK minimizedRMSD -1
REMARK  0 active torsions:
REMARK  status: ('A' for Active; 'I' for Inactive)
ROOT
ATOM      1  O1  BZF d   1       5.048  -1.741  -1.443  0.00  0.00    -0.204 OA
ATOM      2  C2  BZF d   1       5.976  -2.549  -0.816  0.00  0.00     0.174 A 
ATOM      3  C3  BZF d   1       6.000  -3.775  -1.377  0.00  0.00    -0.012 A 
ATOM      4  C3A BZF d   1       5.091  -3.702  -2.480  0.00  0.00    -0.107 A 
ATOM      5  C4  BZF d   1       4.695  -4.598  -3.432  0.00  0.00     0.055 A 
ATOM      6  C5  BZF d   1       3.736  -4.234  -4.323  0.00  0.00    -0.016 A 
ATOM      7  C6  BZF d   1       3.149  -2.986  -4.288  0.00  0.00     0.022 A 
ATOM      8  C7  BZF d   1       3.512  -2.062  -3.366  0.00  0.00     0.029 A 
ATOM      9  C7A BZF d   1       4.504  -2.415  -2.484  0.00  0.00     0.058 A 
ENDROOT
TORSDOF 0
ENDMDL
