MODEL 1
REMARK minimizedAffinity 17.3663158
REMARK minimizedRMSD -1
REMARK  0 active torsions:
REMARK  status: ('A' for Active; 'I' for Inactive)
ROOT
ATOM      1  O1  BZF d   1       1.110   3.707   0.993  0.00  0.00    -0.204 OA
ATOM      2  C2  BZF d   1       1.316   5.068   1.117  0.00  0.00     0.174 A 
ATOM      3  C3  BZF d   1       0.176   5.748   0.879  0.00  0.00    -0.012 A 
ATOM      4  C3A BZF d   1      -0.825   4.746   0.679  0.00  0.00    -0.107 A 
ATOM      5  C4  BZF d   1      -2.165   4.796   0.418  0.00  0.00     0.055 A 
ATOM      6  C5  BZF d   1      -2.840   3.636   0.204  0.00  0.00    -0.016 A 
ATOM      7  C6  BZF d   1      -2.207   2.411   0.238  0.00  0.00     0.022 A 
ATOM      8  C7  BZF d   1      -0.881   2.310   0.498  0.00  0.00     0.029 A 
ATOM      9  C7A BZF d   1      -0.202   3.478   0.747  0.00  0.00     0.058 A 
ENDROOT
TORSDOF 0
ENDMDL
