MODEL 1
REMARK minimizedAffinity 16.0344028
REMARK minimizedRMSD -1
REMARK  0 active torsions:
REMARK  status: ('A' for Active; 'I' for Inactive)
ROOT
ATOM      1  O1  BZF d   1       4.496  -1.164  -2.597  0.00  0.00    -0.204 OA
ATOM      2  C2  BZF d   1       3.752  -2.210  -3.109  0.00  0.00     0.174 A 
ATOM      3  C3  BZF d   1       3.654  -2.115  -4.451  0.00  0.00    -0.012 A 
ATOM      4  C3A BZF d   1       4.460  -0.988  -4.809  0.00  0.00    -0.107 A 
ATOM      5  C4  BZF d   1       4.773  -0.398  -6.000  0.00  0.00     0.055 A 
ATOM      6  C5  BZF d   1       5.527   0.733  -5.999  0.00  0.00    -0.016 A 
ATOM      7  C6  BZF d   1       5.979   1.303  -4.827  0.00  0.00     0.022 A 
ATOM      8  C7  BZF d   1       5.698   0.751  -3.621  0.00  0.00     0.029 A 
ATOM      9  C7A BZF d   1       4.964  -0.410  -3.621  0.00  0.00     0.058 A 
ENDROOT
TORSDOF 0
ENDMDL
