MODEL 1
REMARK minimizedAffinity 9.80395699
REMARK minimizedRMSD -1
REMARK  0 active torsions:
REMARK  status: ('A' for Active; 'I' for Inactive)
ROOT
ATOM      1  O1  BZF d   1      -2.364   2.527  -0.773  0.00  0.00    -0.204 OA
ATOM      2  C2  BZF d   1      -1.489   2.378   0.286  0.00  0.00     0.174 A 
ATOM      3  C3  BZF d   1      -1.582   3.423   1.134  0.00  0.00    -0.012 A 
ATOM      4  C3A BZF d   1      -2.643   4.232   0.619  0.00  0.00    -0.107 A 
ATOM      5  C4  BZF d   1      -3.220   5.399   1.033  0.00  0.00     0.055 A 
ATOM      6  C5  BZF d   1      -4.187   5.966   0.265  0.00  0.00    -0.016 A 
ATOM      7  C6  BZF d   1      -4.597   5.398  -0.924  0.00  0.00     0.022 A 
ATOM      8  C7  BZF d   1      -4.058   4.239  -1.373  0.00  0.00     0.029 A 
ATOM      9  C7A BZF d   1      -3.104   3.646  -0.583  0.00  0.00     0.058 A 
ENDROOT
TORSDOF 0
ENDMDL
