MODEL 1
REMARK minimizedAffinity 13.4623985
REMARK minimizedRMSD -1
REMARK  0 active torsions:
REMARK  status: ('A' for Active; 'I' for Inactive)
ROOT
ATOM      1  O1  BZF d   1       3.532  -5.199   5.343  0.00  0.00    -0.204 OA
ATOM      2  C2  BZF d   1       4.555  -5.999   5.814  0.00  0.00     0.174 A 
ATOM      3  C3  BZF d   1       5.682  -5.280   5.991  0.00  0.00    -0.012 A 
ATOM      4  C3A BZF d   1       5.316  -3.929   5.696  0.00  0.00    -0.107 A 
ATOM      5  C4  BZF d   1       6.000  -2.747   5.707  0.00  0.00     0.055 A 
ATOM      6  C5  BZF d   1       5.370  -1.615   5.295  0.00  0.00    -0.016 A 
ATOM      7  C6  BZF d   1       4.061  -1.630   4.861  0.00  0.00     0.022 A 
ATOM      8  C7  BZF d   1       3.340  -2.777   4.837  0.00  0.00     0.029 A 
ATOM      9  C7A BZF d   1       3.963  -3.917   5.284  0.00  0.00     0.058 A 
ENDROOT
TORSDOF 0
ENDMDL
