MODEL 1
REMARK minimizedAffinity 18.6787033
REMARK minimizedRMSD -1
REMARK  0 active torsions:
REMARK  status: ('A' for Active; 'I' for Inactive)
ROOT
ATOM      1  O1  BZF d   1       1.978   5.672  -1.179  0.00  0.00    -0.204 OA
ATOM      2  C2  BZF d   1       1.650   5.212   0.081  0.00  0.00     0.174 A 
ATOM      3  C3  BZF d   1       2.755   4.841   0.758  0.00  0.00    -0.012 A 
ATOM      4  C3A BZF d   1       3.851   5.170  -0.101  0.00  0.00    -0.107 A 
ATOM      5  C4  BZF d   1       5.206   5.055   0.020  0.00  0.00     0.055 A 
ATOM      6  C5  BZF d   1       5.995   5.401  -1.031  0.00  0.00    -0.016 A 
ATOM      7  C6  BZF d   1       5.463   5.862  -2.218  0.00  0.00     0.022 A 
ATOM      8  C7  BZF d   1       4.124   5.998  -2.383  0.00  0.00     0.029 A 
ATOM      9  C7A BZF d   1       3.326   5.680  -1.311  0.00  0.00     0.058 A 
ENDROOT
TORSDOF 0
ENDMDL
