MODEL 1
REMARK minimizedAffinity 17.3338642
REMARK minimizedRMSD -1
REMARK  0 active torsions:
REMARK  status: ('A' for Active; 'I' for Inactive)
ROOT
ATOM      1  O1  BZF d   1       2.071   5.656  -1.342  0.00  0.00    -0.204 OA
ATOM      2  C2  BZF d   1       1.529   5.216  -0.151  0.00  0.00     0.174 A 
ATOM      3  C3  BZF d   1       2.500   4.881   0.722  0.00  0.00    -0.012 A 
ATOM      4  C3A BZF d   1       3.727   5.214   0.066  0.00  0.00    -0.107 A 
ATOM      5  C4  BZF d   1       5.041   5.127   0.431  0.00  0.00     0.055 A 
ATOM      6  C5  BZF d   1       6.000   5.468  -0.470  0.00  0.00    -0.016 A 
ATOM      7  C6  BZF d   1       5.682   5.893  -1.743  0.00  0.00     0.022 A 
ATOM      8  C7  BZF d   1       4.394   6.000  -2.149  0.00  0.00     0.029 A 
ATOM      9  C7A BZF d   1       3.421   5.688  -1.230  0.00  0.00     0.058 A 
ENDROOT
TORSDOF 0
ENDMDL
