MODEL 1
REMARK minimizedAffinity 14.2449522
REMARK minimizedRMSD -1
REMARK  0 active torsions:
REMARK  status: ('A' for Active; 'I' for Inactive)
ROOT
ATOM      1  O1  BZF d   1      -2.711  -1.997   5.953  0.00  0.00    -0.204 OA
ATOM      2  C2  BZF d   1      -1.522  -1.294   5.922  0.00  0.00     0.174 A 
ATOM      3  C3  BZF d   1      -1.753   0.034   5.868  0.00  0.00    -0.012 A 
ATOM      4  C3A BZF d   1      -3.174   0.173   5.958  0.00  0.00    -0.107 A 
ATOM      5  C4  BZF d   1      -4.012   1.251   5.973  0.00  0.00     0.055 A 
ATOM      6  C5  BZF d   1      -5.355   1.042   5.996  0.00  0.00    -0.016 A 
ATOM      7  C6  BZF d   1      -5.893  -0.228   5.998  0.00  0.00     0.022 A 
ATOM      8  C7  BZF d   1      -5.101  -1.328   5.989  0.00  0.00     0.029 A 
ATOM      9  C7A BZF d   1      -3.743  -1.121   5.999  0.00  0.00     0.058 A 
ENDROOT
TORSDOF 0
ENDMDL
