MODEL 1
REMARK minimizedAffinity 17.4053764
REMARK minimizedRMSD -1
REMARK  0 active torsions:
REMARK  status: ('A' for Active; 'I' for Inactive)
ROOT
ATOM      1  O1  BZF d   1      -2.263  -2.079  -2.713  0.00  0.00    -0.204 OA
ATOM      2  C2  BZF d   1      -3.511  -2.150  -2.125  0.00  0.00     0.174 A 
ATOM      3  C3  BZF d   1      -3.404  -2.352  -0.796  0.00  0.00    -0.012 A 
ATOM      4  C3A BZF d   1      -2.000  -2.320  -0.523  0.00  0.00    -0.107 A 
ATOM      5  C4  BZF d   1      -1.263  -2.444   0.620  0.00  0.00     0.055 A 
ATOM      6  C5  BZF d   1       0.094  -2.439   0.535  0.00  0.00    -0.016 A 
ATOM      7  C6  BZF d   1       0.745  -2.316  -0.675  0.00  0.00     0.022 A 
ATOM      8  C7  BZF d   1       0.056  -2.184  -1.835  0.00  0.00     0.029 A 
ATOM      9  C7A BZF d   1      -1.314  -2.156  -1.749  0.00  0.00     0.058 A 
ENDROOT
TORSDOF 0
ENDMDL
