MODEL 1
REMARK minimizedAffinity 21.7918892
REMARK minimizedRMSD -1
REMARK  0 active torsions:
REMARK  status: ('A' for Active; 'I' for Inactive)
ROOT
ATOM      1  O1  BZF d   1      -2.522  -2.701   1.311  0.00  0.00    -0.204 OA
ATOM      2  C2  BZF d   1      -3.639  -2.074   0.792  0.00  0.00     0.174 A 
ATOM      3  C3  BZF d   1      -3.343  -1.453  -0.368  0.00  0.00    -0.012 A 
ATOM      4  C3A BZF d   1      -1.977  -1.785  -0.635  0.00  0.00    -0.107 A 
ATOM      5  C4  BZF d   1      -1.118  -1.479  -1.652  0.00  0.00     0.055 A 
ATOM      6  C5  BZF d   1       0.172  -1.901  -1.576  0.00  0.00    -0.016 A 
ATOM      7  C6  BZF d   1       0.637  -2.625  -0.498  0.00  0.00     0.022 A 
ATOM      8  C7  BZF d   1      -0.179  -2.957   0.532  0.00  0.00     0.029 A 
ATOM      9  C7A BZF d   1      -1.491  -2.561   0.443  0.00  0.00     0.058 A 
ENDROOT
TORSDOF 0
ENDMDL
