MODEL 1
REMARK minimizedAffinity 13.7090406
REMARK minimizedRMSD -1
REMARK  0 active torsions:
REMARK  status: ('A' for Active; 'I' for Inactive)
ROOT
ATOM      1  O1  BZF d   1      -5.634  -4.708  -4.188  0.00  0.00    -0.204 OA
ATOM      2  C2  BZF d   1      -5.998  -5.730  -5.044  0.00  0.00     0.174 A 
ATOM      3  C3  BZF d   1      -5.006  -6.000  -5.916  0.00  0.00    -0.012 A 
ATOM      4  C3A BZF d   1      -3.921  -5.153  -5.525  0.00  0.00    -0.107 A 
ATOM      5  C4  BZF d   1      -2.652  -4.974  -5.998  0.00  0.00     0.055 A 
ATOM      6  C5  BZF d   1      -1.868  -4.016  -5.438  0.00  0.00    -0.016 A 
ATOM      7  C6  BZF d   1      -2.321  -3.216  -4.409  0.00  0.00     0.022 A 
ATOM      8  C7  BZF d   1      -3.570  -3.360  -3.903  0.00  0.00     0.029 A 
ATOM      9  C7A BZF d   1      -4.353  -4.350  -4.445  0.00  0.00     0.058 A 
ENDROOT
TORSDOF 0
ENDMDL
