MODEL 1
REMARK minimizedAffinity 26.0605125
REMARK minimizedRMSD -1
REMARK  0 active torsions:
REMARK  status: ('A' for Active; 'I' for Inactive)
ROOT
ATOM      1  O1  BZF d   1       3.022   1.790  -3.682  0.00  0.00    -0.204 OA
ATOM      2  C2  BZF d   1       4.279   1.544  -4.200  0.00  0.00     0.174 A 
ATOM      3  C3  BZF d   1       4.884   2.695  -4.556  0.00  0.00    -0.012 A 
ATOM      4  C3A BZF d   1       3.983   3.733  -4.156  0.00  0.00    -0.107 A 
ATOM      5  C4  BZF d   1       4.030   5.096  -4.227  0.00  0.00     0.055 A 
ATOM      6  C5  BZF d   1       2.955   5.816  -3.813  0.00  0.00    -0.016 A 
ATOM      7  C6  BZF d   1       1.816   5.207  -3.328  0.00  0.00     0.022 A 
ATOM      8  C7  BZF d   1       1.725   3.858  -3.234  0.00  0.00     0.029 A 
ATOM      9  C7A BZF d   1       2.822   3.129  -3.620  0.00  0.00     0.058 A 
ENDROOT
TORSDOF 0
ENDMDL
