MODEL 1
REMARK minimizedAffinity 11.6957951
REMARK minimizedRMSD -1
REMARK  0 active torsions:
REMARK  status: ('A' for Active; 'I' for Inactive)
ROOT
ATOM      1  O1  BZF d   1      -0.783  -1.354  -1.592  0.00  0.00    -0.204 OA
ATOM      2  C2  BZF d   1      -0.710  -1.976  -0.360  0.00  0.00     0.174 A 
ATOM      3  C3  BZF d   1       0.543  -2.412  -0.118  0.00  0.00    -0.012 A 
ATOM      4  C3A BZF d   1       1.321  -1.958  -1.230  0.00  0.00    -0.107 A 
ATOM      5  C4  BZF d   1       2.642  -2.066  -1.558  0.00  0.00     0.055 A 
ATOM      6  C5  BZF d   1       3.068  -1.575  -2.752  0.00  0.00    -0.016 A 
ATOM      7  C6  BZF d   1       2.201  -0.977  -3.642  0.00  0.00     0.022 A 
ATOM      8  C7  BZF d   1       0.883  -0.842  -3.359  0.00  0.00     0.029 A 
ATOM      9  C7A BZF d   1       0.455  -1.307  -2.140  0.00  0.00     0.058 A 
ENDROOT
TORSDOF 0
ENDMDL
