MODEL 1
REMARK minimizedAffinity 20.3467331
REMARK minimizedRMSD -1
REMARK  0 active torsions:
REMARK  status: ('A' for Active; 'I' for Inactive)
ROOT
ATOM      1  O1  BZF d   1       0.106  -1.191  -0.647  0.00  0.00    -0.204 OA
ATOM      2  C2  BZF d   1      -0.588  -1.526  -1.794  0.00  0.00     0.174 A 
ATOM      3  C3  BZF d   1       0.259  -1.715  -2.827  0.00  0.00    -0.012 A 
ATOM      4  C3A BZF d   1       1.569  -1.575  -2.270  0.00  0.00    -0.107 A 
ATOM      5  C4  BZF d   1       2.827  -1.669  -2.793  0.00  0.00     0.055 A 
ATOM      6  C5  BZF d   1       3.895  -1.404  -1.996  0.00  0.00    -0.016 A 
ATOM      7  C6  BZF d   1       3.743  -1.039  -0.675  0.00  0.00     0.022 A 
ATOM      8  C7  BZF d   1       2.515  -0.938  -0.110  0.00  0.00     0.029 A 
ATOM      9  C7A BZF d   1       1.435  -1.236  -0.903  0.00  0.00     0.058 A 
ENDROOT
TORSDOF 0
ENDMDL
