MODEL 1
REMARK minimizedAffinity 13.5063477
REMARK minimizedRMSD -1
REMARK  0 active torsions:
REMARK  status: ('A' for Active; 'I' for Inactive)
ROOT
ATOM      1  O1  BZF d   1       3.384  -5.873   4.961  0.00  0.00    -0.204 OA
ATOM      2  C2  BZF d   1       4.542  -6.000   5.704  0.00  0.00     0.174 A 
ATOM      3  C3  BZF d   1       5.057  -4.789   5.998  0.00  0.00    -0.012 A 
ATOM      4  C3A BZF d   1       4.116  -3.844   5.480  0.00  0.00    -0.107 A 
ATOM      5  C4  BZF d   1       4.061  -2.479   5.475  0.00  0.00     0.055 A 
ATOM      6  C5  BZF d   1       3.043  -1.861   4.822  0.00  0.00    -0.016 A 
ATOM      7  C6  BZF d   1       2.066  -2.575   4.159  0.00  0.00     0.022 A 
ATOM      8  C7  BZF d   1       2.075  -3.930   4.140  0.00  0.00     0.029 A 
ATOM      9  C7A BZF d   1       3.085  -4.558   4.828  0.00  0.00     0.058 A 
ENDROOT
TORSDOF 0
ENDMDL
