MODEL 1
REMARK minimizedAffinity 12.4565573
REMARK minimizedRMSD -1
REMARK  0 active torsions:
REMARK  status: ('A' for Active; 'I' for Inactive)
ROOT
ATOM      1  O1  BZF d   1       1.472  -1.351  -0.870  0.00  0.00    -0.204 OA
ATOM      2  C2  BZF d   1       0.220  -1.798  -1.247  0.00  0.00     0.174 A 
ATOM      3  C3  BZF d   1       0.264  -2.368  -2.468  0.00  0.00    -0.012 A 
ATOM      4  C3A BZF d   1       1.645  -2.354  -2.841  0.00  0.00    -0.107 A 
ATOM      5  C4  BZF d   1       2.325  -2.794  -3.940  0.00  0.00     0.055 A 
ATOM      6  C5  BZF d   1       3.662  -2.562  -4.027  0.00  0.00    -0.016 A 
ATOM      7  C6  BZF d   1       4.347  -1.889  -3.037  0.00  0.00     0.022 A 
ATOM      8  C7  BZF d   1       3.716  -1.438  -1.926  0.00  0.00     0.029 A 
ATOM      9  C7A BZF d   1       2.372  -1.700  -1.820  0.00  0.00     0.058 A 
ENDROOT
TORSDOF 0
ENDMDL
