MODEL 1
REMARK minimizedAffinity 6.07354927
REMARK minimizedRMSD -1
REMARK  0 active torsions:
REMARK  status: ('A' for Active; 'I' for Inactive)
ROOT
ATOM      1  O1  BZF d   1       6.000  -4.653  -5.569  0.00  0.00    -0.204 OA
ATOM      2  C2  BZF d   1       5.996  -5.622  -4.583  0.00  0.00     0.174 A 
ATOM      3  C3  BZF d   1       5.947  -5.058  -3.359  0.00  0.00    -0.012 A 
ATOM      4  C3A BZF d   1       5.825  -3.652  -3.596  0.00  0.00    -0.107 A 
ATOM      5  C4  BZF d   1       5.716  -2.567  -2.774  0.00  0.00     0.055 A 
ATOM      6  C5  BZF d   1       5.688  -1.324  -3.322  0.00  0.00    -0.016 A 
ATOM      7  C6  BZF d   1       5.772  -1.129  -4.685  0.00  0.00     0.022 A 
ATOM      8  C7  BZF d   1       5.876  -2.174  -5.541  0.00  0.00     0.029 A 
ATOM      9  C7A BZF d   1       5.871  -3.434  -4.993  0.00  0.00     0.058 A 
ENDROOT
TORSDOF 0
ENDMDL
