MODEL 1
REMARK minimizedAffinity 1.93907964
REMARK minimizedRMSD -1
REMARK  0 active torsions:
REMARK  status: ('A' for Active; 'I' for Inactive)
ROOT
ATOM      1  C4' PXY d   1       3.353  -0.660   2.652  0.00  0.00     0.077 C 
ATOM      2  C1' PXY d   1      -2.385  -0.528   3.334  0.00  0.00     0.077 C 
ATOM      3  C1  PXY d   1      -0.881  -0.553   3.147  0.00  0.00    -0.082 A 
ATOM      4  C2  PXY d   1      -0.209  -1.665   3.396  0.00  0.00     0.003 A 
ATOM      5  C3  PXY d   1       1.155  -1.696   3.262  0.00  0.00     0.003 A 
ATOM      6  C4  PXY d   1       1.833  -0.592   2.819  0.00  0.00    -0.082 A 
ATOM      7  C5  PXY d   1       1.153   0.544   2.552  0.00  0.00     0.003 A 
ATOM      8  C6  PXY d   1      -0.227   0.566   2.734  0.00  0.00     0.003 A 
ENDROOT
TORSDOF 0
ENDMDL
