MODEL 1
REMARK minimizedAffinity -3.22782826
REMARK minimizedRMSD -1
REMARK  0 active torsions:
REMARK  status: ('A' for Active; 'I' for Inactive)
ROOT
ATOM      1  C4' PXY d   1      -0.028   0.009   1.769  0.00  0.00     0.077 C 
ATOM      2  C1' PXY d   1       0.442  -1.677  -3.740  0.00  0.00     0.077 C 
ATOM      3  C1  PXY d   1       0.321  -1.222  -2.299  0.00  0.00    -0.082 A 
ATOM      4  C2  PXY d   1       0.533  -2.087  -1.320  0.00  0.00     0.003 A 
ATOM      5  C3  PXY d   1       0.396  -1.701  -0.012  0.00  0.00     0.003 A 
ATOM      6  C4  PXY d   1       0.092  -0.403   0.299  0.00  0.00    -0.082 A 
ATOM      7  C5  PXY d   1      -0.115   0.488  -0.693  0.00  0.00     0.003 A 
ATOM      8  C6  PXY d   1      -0.012   0.066  -2.015  0.00  0.00     0.003 A 
ENDROOT
TORSDOF 0
ENDMDL
