MODEL 1
REMARK minimizedAffinity -1.21757364
REMARK minimizedRMSD -1
REMARK  0 active torsions:
REMARK  status: ('A' for Active; 'I' for Inactive)
ROOT
ATOM      1  C4' PXY d   1       1.392   0.251  -3.481  0.00  0.00     0.077 C 
ATOM      2  C1' PXY d   1      -1.476  -0.239   1.515  0.00  0.00     0.077 C 
ATOM      3  C1  PXY d   1      -0.735  -0.108   0.199  0.00  0.00    -0.082 A 
ATOM      4  C2  PXY d   1       0.446  -0.687   0.052  0.00  0.00     0.003 A 
ATOM      5  C3  PXY d   1       1.144  -0.552  -1.121  0.00  0.00     0.003 A 
ATOM      6  C4  PXY d   1       0.604   0.138  -2.173  0.00  0.00    -0.082 A 
ATOM      7  C5  PXY d   1      -0.605   0.723  -2.034  0.00  0.00     0.003 A 
ATOM      8  C6  PXY d   1      -1.279   0.609  -0.822  0.00  0.00     0.003 A 
ENDROOT
TORSDOF 0
ENDMDL
