MODEL 1
REMARK minimizedAffinity -2.87058711
REMARK minimizedRMSD -1
REMARK  0 active torsions:
REMARK  status: ('A' for Active; 'I' for Inactive)
ROOT
ATOM      1  C4' PXY d   1       0.039   0.718  -2.186  0.00  0.00     0.077 C 
ATOM      2  C1' PXY d   1      -0.982  -0.611   3.347  0.00  0.00     0.077 C 
ATOM      3  C1  PXY d   1      -0.704  -0.256   1.900  0.00  0.00    -0.082 A 
ATOM      4  C2  PXY d   1      -1.704  -0.202   1.035  0.00  0.00     0.003 A 
ATOM      5  C3  PXY d   1      -1.466   0.086  -0.284  0.00  0.00     0.003 A 
ATOM      6  C4  PXY d   1      -0.197   0.373  -0.712  0.00  0.00    -0.082 A 
ATOM      7  C5  PXY d   1       0.827   0.330   0.165  0.00  0.00     0.003 A 
ATOM      8  C6  PXY d   1       0.570  -0.005   1.492  0.00  0.00     0.003 A 
ENDROOT
TORSDOF 0
ENDMDL
