MODEL 1
REMARK minimizedAffinity -3.12604666
REMARK minimizedRMSD -1
REMARK  0 active torsions:
REMARK  status: ('A' for Active; 'I' for Inactive)
ROOT
ATOM      1  C4' PXY d   1       0.566   0.222  -2.571  0.00  0.00     0.077 C 
ATOM      2  C1' PXY d   1      -0.318  -0.291   3.118  0.00  0.00     0.077 C 
ATOM      3  C1  PXY d   1      -0.096  -0.165   1.624  0.00  0.00    -0.082 A 
ATOM      4  C2  PXY d   1       1.096   0.181   1.167  0.00  0.00     0.003 A 
ATOM      5  C3  PXY d   1       1.306   0.331  -0.180  0.00  0.00     0.003 A 
ATOM      6  C4  PXY d   1       0.299   0.073  -1.071  0.00  0.00    -0.082 A 
ATOM      7  C5  PXY d   1      -0.918  -0.291  -0.613  0.00  0.00     0.003 A 
ATOM      8  C6  PXY d   1      -1.121  -0.397   0.760  0.00  0.00     0.003 A 
ENDROOT
TORSDOF 0
ENDMDL
