MODEL 1
REMARK minimizedAffinity -2.52193379
REMARK minimizedRMSD -1
REMARK  0 active torsions:
REMARK  status: ('A' for Active; 'I' for Inactive)
ROOT
ATOM      1  C4' PXY d   1      -3.098  -0.337   0.625  0.00  0.00     0.077 C 
ATOM      2  C1' PXY d   1       2.455  -0.103   2.214  0.00  0.00     0.077 C 
ATOM      3  C1  PXY d   1       1.000  -0.153   1.790  0.00  0.00    -0.082 A 
ATOM      4  C2  PXY d   1       0.116  -0.770   2.558  0.00  0.00     0.003 A 
ATOM      5  C3  PXY d   1      -1.198  -0.853   2.174  0.00  0.00     0.003 A 
ATOM      6  C4  PXY d   1      -1.621  -0.253   1.018  0.00  0.00    -0.082 A 
ATOM      7  C5  PXY d   1      -0.727   0.387   0.234  0.00  0.00     0.003 A 
ATOM      8  C6  PXY d   1       0.610   0.424   0.622  0.00  0.00     0.003 A 
ENDROOT
TORSDOF 0
ENDMDL
