MODEL 1
REMARK minimizedAffinity -2.79264426
REMARK minimizedRMSD -1
REMARK  0 active torsions:
REMARK  status: ('A' for Active; 'I' for Inactive)
ROOT
ATOM      1  C4' PXY d   1      -1.146  -1.099   3.416  0.00  0.00     0.077 C 
ATOM      2  C1' PXY d   1       0.117   0.853  -1.876  0.00  0.00     0.077 C 
ATOM      3  C1  PXY d   1      -0.201   0.339  -0.486  0.00  0.00    -0.082 A 
ATOM      4  C2  PXY d   1      -1.397  -0.168  -0.234  0.00  0.00     0.003 A 
ATOM      5  C3  PXY d   1      -1.713  -0.608   1.026  0.00  0.00     0.003 A 
ATOM      6  C4  PXY d   1      -0.777  -0.577   2.025  0.00  0.00    -0.082 A 
ATOM      7  C5  PXY d   1       0.449  -0.071   1.773  0.00  0.00     0.003 A 
ATOM      8  C6  PXY d   1       0.736   0.408   0.498  0.00  0.00     0.003 A 
ENDROOT
TORSDOF 0
ENDMDL
