MODEL 1
REMARK minimizedAffinity -2.47301507
REMARK minimizedRMSD -1
REMARK  0 active torsions:
REMARK  status: ('A' for Active; 'I' for Inactive)
ROOT
ATOM      1  C4' PXY d   1      -1.483  -1.091   1.906  0.00  0.00     0.077 C 
ATOM      2  C1' PXY d   1       1.165   0.569  -2.957  0.00  0.00     0.077 C 
ATOM      3  C1  PXY d   1       0.461   0.142  -1.684  0.00  0.00    -0.082 A 
ATOM      4  C2  PXY d   1       1.153  -0.438  -0.717  0.00  0.00     0.003 A 
ATOM      5  C3  PXY d   1       0.527  -0.859   0.428  0.00  0.00     0.003 A 
ATOM      6  C4  PXY d   1      -0.812  -0.636   0.607  0.00  0.00    -0.082 A 
ATOM      7  C5  PXY d   1      -1.523  -0.035  -0.370  0.00  0.00     0.003 A 
ATOM      8  C6  PXY d   1      -0.876   0.348  -1.542  0.00  0.00     0.003 A 
ENDROOT
TORSDOF 0
ENDMDL
