MODEL 1
REMARK minimizedAffinity 1.52069926
REMARK minimizedRMSD -1
REMARK  0 active torsions:
REMARK  status: ('A' for Active; 'I' for Inactive)
ROOT
ATOM      1  C4' PXY d   1       1.759  -0.246  -3.207  0.00  0.00     0.077 C 
ATOM      2  C1' PXY d   1      -1.802  -0.743   1.320  0.00  0.00     0.077 C 
ATOM      3  C1  PXY d   1      -0.875  -0.603   0.128  0.00  0.00    -0.082 A 
ATOM      4  C2  PXY d   1      -0.166  -1.645  -0.275  0.00  0.00     0.003 A 
ATOM      5  C3  PXY d   1       0.701  -1.526  -1.331  0.00  0.00     0.003 A 
ATOM      6  C4  PXY d   1       0.803  -0.344  -2.014  0.00  0.00    -0.082 A 
ATOM      7  C5  PXY d   1       0.075   0.720  -1.616  0.00  0.00     0.003 A 
ATOM      8  C6  PXY d   1      -0.768   0.591  -0.516  0.00  0.00     0.003 A 
ENDROOT
TORSDOF 0
ENDMDL
