MODEL 1
REMARK minimizedAffinity -4.9539361
REMARK minimizedRMSD -1
REMARK  0 active torsions:
REMARK  status: ('A' for Active; 'I' for Inactive)
ROOT
ATOM      1  C4' PXY d   1       1.081   0.036  -2.116  0.00  0.00     0.077 C 
ATOM      2  C1' PXY d   1      -0.608  -0.671   3.367  0.00  0.00     0.077 C 
ATOM      3  C1  PXY d   1      -0.159  -0.474   1.932  0.00  0.00    -0.082 A 
ATOM      4  C2  PXY d   1      -0.818  -1.072   0.953  0.00  0.00     0.003 A 
ATOM      5  C3  PXY d   1      -0.407  -0.930  -0.348  0.00  0.00     0.003 A 
ATOM      6  C4  PXY d   1       0.658  -0.127  -0.654  0.00  0.00    -0.082 A 
ATOM      7  C5  PXY d   1       1.329   0.495   0.339  0.00  0.00     0.003 A 
ATOM      8  C6  PXY d   1       0.921   0.306   1.656  0.00  0.00     0.003 A 
ENDROOT
TORSDOF 0
ENDMDL
