MODEL 1
REMARK minimizedAffinity -4.6464386
REMARK minimizedRMSD -1
REMARK  0 active torsions:
REMARK  status: ('A' for Active; 'I' for Inactive)
ROOT
ATOM      1  C4' PXY d   1       1.341   0.023  -2.900  0.00  0.00     0.077 C 
ATOM      2  C1' PXY d   1      -0.150  -0.018   2.685  0.00  0.00     0.077 C 
ATOM      3  C1  PXY d   1       0.234  -0.019   1.219  0.00  0.00    -0.082 A 
ATOM      4  C2  PXY d   1       1.319   0.630   0.827  0.00  0.00     0.003 A 
ATOM      5  C3  PXY d   1       1.664   0.667  -0.500  0.00  0.00     0.003 A 
ATOM      6  C4  PXY d   1       0.920  -0.012  -1.428  0.00  0.00    -0.082 A 
ATOM      7  C5  PXY d   1      -0.182  -0.684  -1.034  0.00  0.00     0.003 A 
ATOM      8  C6  PXY d   1      -0.538  -0.675   0.311  0.00  0.00     0.003 A 
ENDROOT
TORSDOF 0
ENDMDL
