MODEL 1
REMARK minimizedAffinity -2.9577322
REMARK minimizedRMSD -1
REMARK  0 active torsions:
REMARK  status: ('A' for Active; 'I' for Inactive)
ROOT
ATOM      1  C4' PXY d   1      -1.201  -0.444   3.508  0.00  0.00     0.077 C 
ATOM      2  C1' PXY d   1       0.289   0.477  -2.001  0.00  0.00     0.077 C 
ATOM      3  C1  PXY d   1      -0.114   0.235  -0.560  0.00  0.00    -0.082 A 
ATOM      4  C2  PXY d   1       0.685   0.628   0.418  0.00  0.00     0.003 A 
ATOM      5  C3  PXY d   1       0.351   0.389   1.726  0.00  0.00     0.003 A 
ATOM      6  C4  PXY d   1      -0.839  -0.212   2.038  0.00  0.00    -0.082 A 
ATOM      7  C5  PXY d   1      -1.665  -0.607   1.046  0.00  0.00     0.003 A 
ATOM      8  C6  PXY d   1      -1.288  -0.392  -0.276  0.00  0.00     0.003 A 
ENDROOT
TORSDOF 0
ENDMDL
