MODEL 1
REMARK minimizedAffinity -4.56584835
REMARK minimizedRMSD -1
REMARK  0 active torsions:
REMARK  status: ('A' for Active; 'I' for Inactive)
ROOT
ATOM      1  C4' PXY d   1      -0.841  -1.425   2.840  0.00  0.00     0.077 C 
ATOM      2  C1' PXY d   1       0.290   1.362  -2.097  0.00  0.00     0.077 C 
ATOM      3  C1  PXY d   1       0.006   0.631  -0.800  0.00  0.00    -0.082 A 
ATOM      4  C2  PXY d   1      -1.125  -0.041  -0.662  0.00  0.00     0.003 A 
ATOM      5  C3  PXY d   1      -1.412  -0.682   0.516  0.00  0.00     0.003 A 
ATOM      6  C4  PXY d   1      -0.508  -0.680   1.544  0.00  0.00    -0.082 A 
ATOM      7  C5  PXY d   1       0.653  -0.005   1.407  0.00  0.00     0.003 A 
ATOM      8  C6  PXY d   1       0.908   0.673   0.219  0.00  0.00     0.003 A 
ENDROOT
TORSDOF 0
ENDMDL
