MODEL 1
REMARK minimizedAffinity -5.3856349
REMARK minimizedRMSD -1
REMARK  0 active torsions:
REMARK  status: ('A' for Active; 'I' for Inactive)
ROOT
ATOM      1  C4' PXY d   1      -3.048   2.614   3.087  0.00  0.00     0.077 C 
ATOM      2  C1' PXY d   1      -0.479  -2.436   1.942  0.00  0.00     0.077 C 
ATOM      3  C1  PXY d   1      -1.145  -1.110   2.253  0.00  0.00    -0.082 A 
ATOM      4  C2  PXY d   1      -2.369  -0.873   1.808  0.00  0.00     0.003 A 
ATOM      5  C3  PXY d   1      -2.974   0.333   2.053  0.00  0.00     0.003 A 
ATOM      6  C4  PXY d   1      -2.340   1.286   2.805  0.00  0.00    -0.082 A 
ATOM      7  C5  PXY d   1      -1.096   1.047   3.272  0.00  0.00     0.003 A 
ATOM      8  C6  PXY d   1      -0.484  -0.168   2.977  0.00  0.00     0.003 A 
ENDROOT
TORSDOF 0
ENDMDL
