MODEL 1
REMARK minimizedAffinity -1.07837379
REMARK minimizedRMSD -1
REMARK  0 active torsions:
REMARK  status: ('A' for Active; 'I' for Inactive)
ROOT
ATOM      1  C4' PXY d   1       0.430  -0.402  -2.791  0.00  0.00     0.077 C 
ATOM      2  C1' PXY d   1      -0.428  -0.262   2.923  0.00  0.00     0.077 C 
ATOM      3  C1  PXY d   1      -0.192  -0.291   1.426  0.00  0.00    -0.082 A 
ATOM      4  C2  PXY d   1      -1.207  -0.522   0.609  0.00  0.00     0.003 A 
ATOM      5  C3  PXY d   1      -1.006  -0.583  -0.746  0.00  0.00     0.003 A 
ATOM      6  C4  PXY d   1       0.237  -0.354  -1.273  0.00  0.00    -0.082 A 
ATOM      7  C5  PXY d   1       1.275  -0.108  -0.446  0.00  0.00     0.003 A 
ATOM      8  C6  PXY d   1       1.058  -0.090   0.928  0.00  0.00     0.003 A 
ENDROOT
TORSDOF 0
ENDMDL
