MODEL 1
REMARK minimizedAffinity -6.11003065
REMARK minimizedRMSD -1
REMARK  0 active torsions:
REMARK  status: ('A' for Active; 'I' for Inactive)
ROOT
ATOM      1  C4' PXY d   1      -3.026  -0.110   0.374  0.00  0.00     0.077 C 
ATOM      2  C1' PXY d   1       2.606   0.092   1.662  0.00  0.00     0.077 C 
ATOM      3  C1  PXY d   1       1.127   0.030   1.333  0.00  0.00    -0.082 A 
ATOM      4  C2  PXY d   1       0.712   0.353   0.119  0.00  0.00     0.003 A 
ATOM      5  C3  PXY d   1      -0.624   0.334  -0.185  0.00  0.00     0.003 A 
ATOM      6  C4  PXY d   1      -1.542  -0.072   0.747  0.00  0.00    -0.082 A 
ATOM      7  C5  PXY d   1      -1.125  -0.413   1.985  0.00  0.00     0.003 A 
ATOM      8  C6  PXY d   1       0.232  -0.347   2.286  0.00  0.00     0.003 A 
ENDROOT
TORSDOF 0
ENDMDL
