MODEL 1
REMARK minimizedAffinity -4.37565994
REMARK minimizedRMSD -1
REMARK  0 active torsions:
REMARK  status: ('A' for Active; 'I' for Inactive)
ROOT
ATOM      1  C4' PXY d   1       2.851   1.002   1.133  0.00  0.00     0.077 C 
ATOM      2  C1' PXY d   1      -2.644  -0.619   1.898  0.00  0.00     0.077 C 
ATOM      3  C1  PXY d   1      -1.204  -0.198   1.685  0.00  0.00    -0.082 A 
ATOM      4  C2  PXY d   1      -0.401  -0.063   2.728  0.00  0.00     0.003 A 
ATOM      5  C3  PXY d   1       0.896   0.348   2.557  0.00  0.00     0.003 A 
ATOM      6  C4  PXY d   1       1.392   0.571   1.300  0.00  0.00    -0.082 A 
ATOM      7  C5  PXY d   1       0.582   0.424   0.230  0.00  0.00     0.003 A 
ATOM      8  C6  PXY d   1      -0.743   0.047   0.429  0.00  0.00     0.003 A 
ENDROOT
TORSDOF 0
ENDMDL
