MODEL 1
REMARK minimizedAffinity -5.22196674
REMARK minimizedRMSD -1
REMARK  0 active torsions:
REMARK  status: ('A' for Active; 'I' for Inactive)
ROOT
ATOM      1  C4' PXY d   1       0.883  -0.359  -2.138  0.00  0.00     0.077 C 
ATOM      2  C1' PXY d   1      -0.699  -0.398   3.422  0.00  0.00     0.077 C 
ATOM      3  C1  PXY d   1      -0.275  -0.379   1.966  0.00  0.00    -0.082 A 
ATOM      4  C2  PXY d   1      -1.106  -0.824   1.037  0.00  0.00     0.003 A 
ATOM      5  C3  PXY d   1      -0.727  -0.843  -0.281  0.00  0.00     0.003 A 
ATOM      6  C4  PXY d   1       0.494  -0.351  -0.657  0.00  0.00    -0.082 A 
ATOM      7  C5  PXY d   1       1.343   0.114   0.283  0.00  0.00     0.003 A 
ATOM      8  C6  PXY d   1       0.956   0.087   1.620  0.00  0.00     0.003 A 
ENDROOT
TORSDOF 0
ENDMDL
