MODEL 1
REMARK minimizedAffinity -4.13960266
REMARK minimizedRMSD -1
REMARK  0 active torsions:
REMARK  status: ('A' for Active; 'I' for Inactive)
ROOT
ATOM      1  C4' PXY d   1       0.904   0.266  -2.061  0.00  0.00     0.077 C 
ATOM      2  C1' PXY d   1      -0.769  -0.297   3.443  0.00  0.00     0.077 C 
ATOM      3  C1  PXY d   1      -0.319  -0.143   2.004  0.00  0.00    -0.082 A 
ATOM      4  C2  PXY d   1      -1.211  -0.216   1.029  0.00  0.00     0.003 A 
ATOM      5  C3  PXY d   1      -0.817  -0.110  -0.281  0.00  0.00     0.003 A 
ATOM      6  C4  PXY d   1       0.495   0.126  -0.593  0.00  0.00    -0.082 A 
ATOM      7  C5  PXY d   1       1.409   0.212   0.397  0.00  0.00     0.003 A 
ATOM      8  C6  PXY d   1       0.995   0.061   1.717  0.00  0.00     0.003 A 
ENDROOT
TORSDOF 0
ENDMDL
