MODEL 1
REMARK minimizedAffinity -3.74166584
REMARK minimizedRMSD -1
REMARK  0 active torsions:
REMARK  status: ('A' for Active; 'I' for Inactive)
ROOT
ATOM      1  C4' PXY d   1       0.377   0.354  -2.334  0.00  0.00     0.077 C 
ATOM      2  C1' PXY d   1      -0.296  -0.066   3.391  0.00  0.00     0.077 C 
ATOM      3  C1  PXY d   1      -0.132   0.040   1.888  0.00  0.00    -0.082 A 
ATOM      4  C2  PXY d   1       1.081   0.011   1.359  0.00  0.00     0.003 A 
ATOM      5  C3  PXY d   1       1.249   0.137   0.004  0.00  0.00     0.003 A 
ATOM      6  C4  PXY d   1       0.163   0.241  -0.823  0.00  0.00    -0.082 A 
ATOM      7  C5  PXY d   1      -1.078   0.261  -0.291  0.00  0.00     0.003 A 
ATOM      8  C6  PXY d   1      -1.226   0.173   1.090  0.00  0.00     0.003 A 
ENDROOT
TORSDOF 0
ENDMDL
