MODEL 1
REMARK minimizedAffinity -2.70533895
REMARK minimizedRMSD -1
REMARK  1 active torsions:
REMARK  status: ('A' for Active; 'I' for Inactive)
REMARK    1  A    between atoms: C1_2  and  C2_3 
ROOT
ATOM      1  C2  UNL d   1       1.269   0.127  -2.910  0.00  0.00    -0.073 A 
ATOM      2  C3  UNL d   1       1.067  -0.386  -4.197  0.00  0.00    -0.002 A 
ATOM      3  C4  UNL d   1       1.157  -1.758  -4.431  0.00  0.00     0.004 A 
ATOM      4  C5  UNL d   1       1.442  -2.632  -3.382  0.00  0.00    -0.004 A 
ATOM      5  C6  UNL d   1       1.636  -2.141  -2.087  0.00  0.00    -0.075 A 
ATOM      6  C7  UNL d   1       1.946  -3.068  -0.948  0.00  0.00     0.076 C 
ATOM      7  C8  UNL d   1       1.547  -0.761  -1.860  0.00  0.00     0.001 A 
ENDROOT
BRANCH   1   8
ATOM      8  C1  UNL d   1       1.167   1.607  -2.651  0.00  0.00     0.053 C 
ATOM      9  C   UNL d   1       1.700   2.428  -3.815  0.00  0.00     0.018 C 
ENDBRANCH   1   8
TORSDOF 1
ENDMDL
