MODEL 1
REMARK minimizedAffinity 8.80732155
REMARK minimizedRMSD -1
REMARK  1 active torsions:
REMARK  status: ('A' for Active; 'I' for Inactive)
REMARK    1  A    between atoms: C1_2  and  C2_3 
ROOT
ATOM      1  C2  UNL d   1      -3.046   3.435   2.947  0.00  0.00    -0.073 A 
ATOM      2  C3  UNL d   1      -4.067   4.050   2.214  0.00  0.00    -0.002 A 
ATOM      3  C4  UNL d   1      -4.576   5.286   2.615  0.00  0.00     0.004 A 
ATOM      4  C5  UNL d   1      -4.068   5.921   3.747  0.00  0.00    -0.004 A 
ATOM      5  C6  UNL d   1      -3.040   5.327   4.487  0.00  0.00    -0.075 A 
ATOM      6  C7  UNL d   1      -2.483   5.996   5.709  0.00  0.00     0.076 C 
ATOM      7  C8  UNL d   1      -2.535   4.085   4.079  0.00  0.00     0.001 A 
ENDROOT
BRANCH   1   8
ATOM      8  C1  UNL d   1      -2.488   2.104   2.514  0.00  0.00     0.053 C 
ATOM      9  C   UNL d   1      -3.433   0.957   2.838  0.00  0.00     0.018 C 
ENDBRANCH   1   8
TORSDOF 1
ENDMDL
