MODEL 1
REMARK minimizedAffinity 5.47056103
REMARK minimizedRMSD -1
REMARK  1 active torsions:
REMARK  status: ('A' for Active; 'I' for Inactive)
REMARK    1  A    between atoms: C1_2  and  C2_3 
ROOT
ATOM      1  C2  UNL d   1      -3.696   5.802   3.197  0.00  0.00    -0.073 A 
ATOM      2  C3  UNL d   1      -4.890   5.813   3.928  0.00  0.00    -0.002 A 
ATOM      3  C4  UNL d   1      -4.863   5.875   5.322  0.00  0.00     0.004 A 
ATOM      4  C5  UNL d   1      -3.645   5.935   5.998  0.00  0.00    -0.004 A 
ATOM      5  C6  UNL d   1      -2.441   5.937   5.285  0.00  0.00    -0.075 A 
ATOM      6  C7  UNL d   1      -1.122   5.999   5.998  0.00  0.00     0.076 C 
ATOM      7  C8  UNL d   1      -2.477   5.872   3.886  0.00  0.00     0.001 A 
ENDROOT
BRANCH   1   8
ATOM      8  C1  UNL d   1      -3.721   5.741   1.692  0.00  0.00     0.053 C 
ATOM      9  C   UNL d   1      -2.342   5.962   1.090  0.00  0.00     0.018 C 
ENDBRANCH   1   8
TORSDOF 1
ENDMDL
