MODEL 1
REMARK minimizedAffinity 6.22133064
REMARK minimizedRMSD -1
REMARK  1 active torsions:
REMARK  status: ('A' for Active; 'I' for Inactive)
REMARK    1  A    between atoms: C1_2  and  C2_3 
ROOT
ATOM      1  C2  UNL d   1       2.469   2.203  -3.954  0.00  0.00    -0.073 A 
ATOM      2  C3  UNL d   1       1.876   1.006  -3.535  0.00  0.00    -0.002 A 
ATOM      3  C4  UNL d   1       1.468   0.849  -2.210  0.00  0.00     0.004 A 
ATOM      4  C5  UNL d   1       1.640   1.886  -1.294  0.00  0.00    -0.004 A 
ATOM      5  C6  UNL d   1       2.220   3.094  -1.696  0.00  0.00    -0.075 A 
ATOM      6  C7  UNL d   1       2.415   4.219  -0.722  0.00  0.00     0.076 C 
ATOM      7  C8  UNL d   1       2.630   3.243  -3.028  0.00  0.00     0.001 A 
ENDROOT
BRANCH   1   8
ATOM      8  C1  UNL d   1       2.906   2.380  -5.385  0.00  0.00     0.053 C 
ATOM      9  C   UNL d   1       4.304   1.833  -5.626  0.00  0.00     0.018 C 
ENDBRANCH   1   8
TORSDOF 1
ENDMDL
