MODEL 1
REMARK minimizedAffinity 5.05336905
REMARK minimizedRMSD -1
REMARK  1 active torsions:
REMARK  status: ('A' for Active; 'I' for Inactive)
REMARK    1  A    between atoms: C1_2  and  C2_3 
ROOT
ATOM      1  C2  UNL d   1      -2.949   6.000   4.639  0.00  0.00    -0.073 A 
ATOM      2  C3  UNL d   1      -3.612   5.994   5.871  0.00  0.00    -0.002 A 
ATOM      3  C4  UNL d   1      -5.007   5.998   5.921  0.00  0.00     0.004 A 
ATOM      4  C5  UNL d   1      -5.751   6.000   4.742  0.00  0.00    -0.004 A 
ATOM      5  C6  UNL d   1      -5.107   5.993   3.500  0.00  0.00    -0.075 A 
ATOM      6  C7  UNL d   1      -5.893   5.997   2.222  0.00  0.00     0.076 C 
ATOM      7  C8  UNL d   1      -3.706   5.992   3.459  0.00  0.00     0.001 A 
ENDROOT
BRANCH   1   8
ATOM      8  C1  UNL d   1      -1.443   5.990   4.581  0.00  0.00     0.053 C 
ATOM      9  C   UNL d   1      -0.831   5.272   5.773  0.00  0.00     0.018 C 
ENDBRANCH   1   8
TORSDOF 1
ENDMDL
