MODEL 1
REMARK minimizedAffinity -1.35529172
REMARK minimizedRMSD -1
REMARK  1 active torsions:
REMARK  status: ('A' for Active; 'I' for Inactive)
REMARK    1  A    between atoms: C1_2  and  C2_3 
ROOT
ATOM      1  C2  UNL d   1       1.536   0.344  -1.559  0.00  0.00    -0.073 A 
ATOM      2  C3  UNL d   1       1.856   0.321  -2.921  0.00  0.00    -0.002 A 
ATOM      3  C4  UNL d   1       2.092   1.511  -3.610  0.00  0.00     0.004 A 
ATOM      4  C5  UNL d   1       2.016   2.734  -2.944  0.00  0.00    -0.004 A 
ATOM      5  C6  UNL d   1       1.709   2.777  -1.580  0.00  0.00    -0.075 A 
ATOM      6  C7  UNL d   1       1.622   4.085  -0.850  0.00  0.00     0.076 C 
ATOM      7  C8  UNL d   1       1.472   1.578  -0.896  0.00  0.00     0.001 A 
ENDROOT
BRANCH   1   8
ATOM      8  C1  UNL d   1       1.288  -0.939  -0.809  0.00  0.00     0.053 C 
ATOM      9  C   UNL d   1       2.284  -2.023  -1.187  0.00  0.00     0.018 C 
ENDBRANCH   1   8
TORSDOF 1
ENDMDL
