MODEL 1
REMARK minimizedAffinity 1.65249121
REMARK minimizedRMSD -1
REMARK  1 active torsions:
REMARK  status: ('A' for Active; 'I' for Inactive)
REMARK    1  A    between atoms: C1_2  and  C2_3 
ROOT
ATOM      1  C2  UNL d   1       1.879  -0.941  -1.894  0.00  0.00    -0.073 A 
ATOM      2  C3  UNL d   1       1.370  -0.298  -0.759  0.00  0.00    -0.002 A 
ATOM      3  C4  UNL d   1       1.171   1.083  -0.762  0.00  0.00     0.004 A 
ATOM      4  C5  UNL d   1       1.472   1.833  -1.899  0.00  0.00    -0.004 A 
ATOM      5  C6  UNL d   1       1.970   1.207  -3.046  0.00  0.00    -0.075 A 
ATOM      6  C7  UNL d   1       2.300   2.000  -4.277  0.00  0.00     0.076 C 
ATOM      7  C8  UNL d   1       2.169  -0.180  -3.035  0.00  0.00     0.001 A 
ENDROOT
BRANCH   1   8
ATOM      8  C1  UNL d   1       2.089  -2.433  -1.897  0.00  0.00     0.053 C 
ATOM      9  C   UNL d   1       1.953  -3.032  -0.506  0.00  0.00     0.018 C 
ENDBRANCH   1   8
TORSDOF 1
ENDMDL
