MODEL 1
REMARK minimizedAffinity 2.75622392
REMARK minimizedRMSD -1
REMARK  1 active torsions:
REMARK  status: ('A' for Active; 'I' for Inactive)
REMARK    1  A    between atoms: C1_2  and  C2_3 
ROOT
ATOM      1  C2  UNL d   1       5.141  -2.214   5.227  0.00  0.00    -0.073 A 
ATOM      2  C3  UNL d   1       3.750  -2.290   5.091  0.00  0.00    -0.002 A 
ATOM      3  C4  UNL d   1       3.093  -3.512   5.241  0.00  0.00     0.004 A 
ATOM      4  C5  UNL d   1       3.817  -4.667   5.535  0.00  0.00    -0.004 A 
ATOM      5  C6  UNL d   1       5.206  -4.610   5.686  0.00  0.00    -0.075 A 
ATOM      6  C7  UNL d   1       6.000  -5.844   6.000  0.00  0.00     0.076 C 
ATOM      7  C8  UNL d   1       5.859  -3.380   5.531  0.00  0.00     0.001 A 
ENDROOT
BRANCH   1   8
ATOM      8  C1  UNL d   1       5.855  -0.896   5.072  0.00  0.00     0.053 C 
ATOM      9  C   UNL d   1       5.576  -0.252   3.723  0.00  0.00     0.018 C 
ENDBRANCH   1   8
TORSDOF 1
ENDMDL
