MODEL 1
REMARK minimizedAffinity 1.49505281
REMARK minimizedRMSD -1
REMARK  1 active torsions:
REMARK  status: ('A' for Active; 'I' for Inactive)
REMARK    1  A    between atoms: C1_2  and  C2_3 
ROOT
ATOM      1  C2  UNL d   1       1.585   1.051  -3.003  0.00  0.00    -0.073 A 
ATOM      2  C3  UNL d   1       1.526   1.974  -1.953  0.00  0.00    -0.002 A 
ATOM      3  C4  UNL d   1       1.619   3.343  -2.212  0.00  0.00     0.004 A 
ATOM      4  C5  UNL d   1       1.765   3.801  -3.521  0.00  0.00    -0.004 A 
ATOM      5  C6  UNL d   1       1.813   2.894  -4.585  0.00  0.00    -0.075 A 
ATOM      6  C7  UNL d   1       1.972   3.371  -5.999  0.00  0.00     0.076 C 
ATOM      7  C8  UNL d   1       1.722   1.522  -4.317  0.00  0.00     0.001 A 
ENDROOT
BRANCH   1   8
ATOM      8  C1  UNL d   1       1.479  -0.427  -2.729  0.00  0.00     0.053 C 
ATOM      9  C   UNL d   1       2.321  -0.848  -1.535  0.00  0.00     0.018 C 
ENDBRANCH   1   8
TORSDOF 1
ENDMDL
