MODEL 1
REMARK minimizedAffinity 6.76538277
REMARK minimizedRMSD -1
REMARK  1 active torsions:
REMARK  status: ('A' for Active; 'I' for Inactive)
REMARK    1  A    between atoms: C1_2  and  C2_3 
ROOT
ATOM      1  C2  UNL d   1      -2.500  -1.826   0.401  0.00  0.00    -0.073 A 
ATOM      2  C3  UNL d   1      -2.750  -2.546   1.575  0.00  0.00    -0.002 A 
ATOM      3  C4  UNL d   1      -4.046  -2.957   1.888  0.00  0.00     0.004 A 
ATOM      4  C5  UNL d   1      -5.104  -2.658   1.029  0.00  0.00    -0.004 A 
ATOM      5  C6  UNL d   1      -4.872  -1.949  -0.155  0.00  0.00    -0.075 A 
ATOM      6  C7  UNL d   1      -5.999  -1.617  -1.088  0.00  0.00     0.076 C 
ATOM      7  C8  UNL d   1      -3.568  -1.538  -0.461  0.00  0.00     0.001 A 
ENDROOT
BRANCH   1   8
ATOM      8  C1  UNL d   1      -1.101  -1.387   0.056  0.00  0.00     0.053 C 
ATOM      9  C   UNL d   1      -0.339  -2.457  -0.709  0.00  0.00     0.018 C 
ENDBRANCH   1   8
TORSDOF 1
ENDMDL
