MODEL 1
REMARK minimizedAffinity -2.0067668
REMARK minimizedRMSD -1
REMARK  0 active torsions:
REMARK  status: ('A' for Active; 'I' for Inactive)
ROOT
ATOM      1  C   UNL d   1       0.396  -2.020   1.506  0.00  0.00    -0.002 A 
ATOM      2  C1  UNL d   1      -0.938  -1.951   1.130  0.00  0.00     0.010 A 
ATOM      3  C2  UNL d   1      -1.368  -0.991   0.212  0.00  0.00     0.041 A 
ATOM      4  C3  UNL d   1      -0.425  -0.094  -0.329  0.00  0.00    -0.075 A 
ATOM      5  S   UNL d   1      -0.722   1.163  -1.470  0.00  0.00     0.015 SA
ATOM      6  C4  UNL d   1       0.915   1.637  -1.486  0.00  0.00     0.022 A 
ATOM      7  C5  UNL d   1       1.684   0.866  -0.647  0.00  0.00     0.026 A 
ATOM      8  C6  UNL d   1       0.924  -0.145   0.034  0.00  0.00    -0.082 A 
ATOM      9  C7  UNL d   1       1.328  -1.129   0.968  0.00  0.00     0.045 A 
ENDROOT
TORSDOF 0
ENDMDL
