MODEL 1
REMARK minimizedAffinity -1.89176309
REMARK minimizedRMSD -1
REMARK  0 active torsions:
REMARK  status: ('A' for Active; 'I' for Inactive)
ROOT
ATOM      1  C   UNL d   1      -1.468  -2.488   1.334  0.00  0.00    -0.002 A 
ATOM      2  C1  UNL d   1      -2.542  -1.721   0.906  0.00  0.00     0.010 A 
ATOM      3  C2  UNL d   1      -2.331  -0.527   0.215  0.00  0.00     0.041 A 
ATOM      4  C3  UNL d   1      -1.010  -0.113  -0.043  0.00  0.00    -0.075 A 
ATOM      5  S   UNL d   1      -0.510   1.313  -0.873  0.00  0.00     0.015 SA
ATOM      6  C4  UNL d   1       1.141   0.937  -0.680  0.00  0.00     0.022 A 
ATOM      7  C5  UNL d   1       1.325  -0.244  -0.001  0.00  0.00     0.026 A 
ATOM      8  C6  UNL d   1       0.089  -0.869   0.377  0.00  0.00    -0.082 A 
ATOM      9  C7  UNL d   1      -0.159  -2.075   1.076  0.00  0.00     0.045 A 
ENDROOT
TORSDOF 0
ENDMDL
