MODEL 1
REMARK minimizedAffinity -1.62108719
REMARK minimizedRMSD -1
REMARK  0 active torsions:
REMARK  status: ('A' for Active; 'I' for Inactive)
ROOT
ATOM      1  C   UNL d   1       0.208  -2.553   1.160  0.00  0.00    -0.002 A 
ATOM      2  C1  UNL d   1      -1.055  -2.656   0.594  0.00  0.00     0.010 A 
ATOM      3  C2  UNL d   1      -1.529  -1.666  -0.269  0.00  0.00     0.041 A 
ATOM      4  C3  UNL d   1      -0.704  -0.562  -0.559  0.00  0.00    -0.075 A 
ATOM      5  S   UNL d   1      -1.074   0.771  -1.588  0.00  0.00     0.015 SA
ATOM      6  C4  UNL d   1       0.436   1.507  -1.302  0.00  0.00     0.022 A 
ATOM      7  C5  UNL d   1       1.216   0.769  -0.444  0.00  0.00     0.026 A 
ATOM      8  C6  UNL d   1       0.572  -0.436  -0.001  0.00  0.00    -0.082 A 
ATOM      9  C7  UNL d   1       1.023  -1.456   0.871  0.00  0.00     0.045 A 
ENDROOT
TORSDOF 0
ENDMDL
