MODEL 1
REMARK minimizedAffinity -1.92723298
REMARK minimizedRMSD -1
REMARK  0 active torsions:
REMARK  status: ('A' for Active; 'I' for Inactive)
ROOT
ATOM      1  C   UNL d   1      -1.089  -2.646   0.726  0.00  0.00    -0.002 A 
ATOM      2  C1  UNL d   1       0.268  -2.675   0.434  0.00  0.00     0.010 A 
ATOM      3  C2  UNL d   1       0.953  -1.499   0.123  0.00  0.00     0.041 A 
ATOM      4  C3  UNL d   1       0.245  -0.281   0.111  0.00  0.00    -0.075 A 
ATOM      5  S   UNL d   1       0.875   1.285  -0.241  0.00  0.00     0.015 SA
ATOM      6  C4  UNL d   1      -0.641   2.029  -0.012  0.00  0.00     0.022 A 
ATOM      7  C5  UNL d   1      -1.615   1.120   0.325  0.00  0.00     0.026 A 
ATOM      8  C6  UNL d   1      -1.121  -0.226   0.402  0.00  0.00    -0.082 A 
ATOM      9  C7  UNL d   1      -1.787  -1.436   0.713  0.00  0.00     0.045 A 
ENDROOT
TORSDOF 0
ENDMDL
