MODEL 1
REMARK minimizedAffinity -3.7777946
REMARK minimizedRMSD -1
REMARK  0 active torsions:
REMARK  status: ('A' for Active; 'I' for Inactive)
ROOT
ATOM      1  C   UNL d   1       0.282   1.816   0.200  0.00  0.00    -0.002 A 
ATOM      2  C1  UNL d   1      -1.042   1.826   0.615  0.00  0.00     0.010 A 
ATOM      3  C2  UNL d   1      -1.724   0.629   0.842  0.00  0.00     0.041 A 
ATOM      4  C3  UNL d   1      -1.046  -0.590   0.646  0.00  0.00    -0.075 A 
ATOM      5  S   UNL d   1      -1.679  -2.179   0.863  0.00  0.00     0.015 SA
ATOM      6  C4  UNL d   1      -0.206  -2.908   0.412  0.00  0.00     0.022 A 
ATOM      7  C5  UNL d   1       0.756  -1.977   0.099  0.00  0.00     0.026 A 
ATOM      8  C6  UNL d   1       0.288  -0.626   0.229  0.00  0.00    -0.082 A 
ATOM      9  C7  UNL d   1       0.952   0.605   0.006  0.00  0.00     0.045 A 
ENDROOT
TORSDOF 0
ENDMDL
