MODEL 1
REMARK minimizedAffinity -4.98700237
REMARK minimizedRMSD -1
REMARK  0 active torsions:
REMARK  status: ('A' for Active; 'I' for Inactive)
ROOT
ATOM      1  C   UNL d   1      -3.266  -1.371   1.765  0.00  0.00    -0.002 A 
ATOM      2  C1  UNL d   1      -3.069   0.003   1.748  0.00  0.00     0.010 A 
ATOM      3  C2  UNL d   1      -1.892   0.545   1.227  0.00  0.00     0.041 A 
ATOM      4  C3  UNL d   1      -0.908  -0.325   0.717  0.00  0.00    -0.075 A 
ATOM      5  S   UNL d   1       0.611   0.113   0.029  0.00  0.00     0.015 SA
ATOM      6  C4  UNL d   1       1.034  -1.512  -0.258  0.00  0.00     0.022 A 
ATOM      7  C5  UNL d   1       0.052  -2.382   0.154  0.00  0.00     0.026 A 
ATOM      8  C6  UNL d   1      -1.084  -1.712   0.723  0.00  0.00    -0.082 A 
ATOM      9  C7  UNL d   1      -2.287  -2.231   1.259  0.00  0.00     0.045 A 
ENDROOT
TORSDOF 0
ENDMDL
