MODEL 1
REMARK minimizedAffinity -3.02503562
REMARK minimizedRMSD -1
REMARK  0 active torsions:
REMARK  status: ('A' for Active; 'I' for Inactive)
ROOT
ATOM      1  C   UNL d   1      -0.789  -2.371   0.895  0.00  0.00    -0.002 A 
ATOM      2  C1  UNL d   1       0.504  -2.272   0.402  0.00  0.00     0.010 A 
ATOM      3  C2  UNL d   1       1.047  -1.028   0.076  0.00  0.00     0.041 A 
ATOM      4  C3  UNL d   1       0.260   0.127   0.257  0.00  0.00    -0.075 A 
ATOM      5  S   UNL d   1       0.715   1.757  -0.073  0.00  0.00     0.015 SA
ATOM      6  C4  UNL d   1      -0.796   2.360   0.434  0.00  0.00     0.022 A 
ATOM      7  C5  UNL d   1      -1.639   1.356   0.848  0.00  0.00     0.026 A 
ATOM      8  C6  UNL d   1      -1.044   0.053   0.753  0.00  0.00    -0.082 A 
ATOM      9  C7  UNL d   1      -1.566  -1.224   1.074  0.00  0.00     0.045 A 
ENDROOT
TORSDOF 0
ENDMDL
