MODEL 1
REMARK minimizedAffinity -4.64875937
REMARK minimizedRMSD -1
REMARK  0 active torsions:
REMARK  status: ('A' for Active; 'I' for Inactive)
ROOT
ATOM      1  C   UNL d   1      -2.841  -1.639   1.147  0.00  0.00    -0.002 A 
ATOM      2  C1  UNL d   1      -1.891  -2.628   1.362  0.00  0.00     0.010 A 
ATOM      3  C2  UNL d   1      -0.534  -2.364   1.166  0.00  0.00     0.041 A 
ATOM      4  C3  UNL d   1      -0.144  -1.076   0.747  0.00  0.00    -0.075 A 
ATOM      5  S   UNL d   1       1.461  -0.524   0.444  0.00  0.00     0.015 SA
ATOM      6  C4  UNL d   1       0.923   1.037   0.022  0.00  0.00     0.022 A 
ATOM      7  C5  UNL d   1      -0.444   1.152   0.105  0.00  0.00     0.026 A 
ATOM      8  C6  UNL d   1      -1.082  -0.064   0.525  0.00  0.00    -0.082 A 
ATOM      9  C7  UNL d   1      -2.450  -0.363   0.731  0.00  0.00     0.045 A 
ENDROOT
TORSDOF 0
ENDMDL
