MODEL 1
REMARK minimizedAffinity -3.69622874
REMARK minimizedRMSD -1
REMARK  0 active torsions:
REMARK  status: ('A' for Active; 'I' for Inactive)
ROOT
ATOM      1  C   UNL d   1      -1.194  -2.540   1.250  0.00  0.00    -0.002 A 
ATOM      2  C1  UNL d   1       0.111  -2.449   0.786  0.00  0.00     0.010 A 
ATOM      3  C2  UNL d   1       0.676  -1.206   0.494  0.00  0.00     0.041 A 
ATOM      4  C3  UNL d   1      -0.099  -0.045   0.681  0.00  0.00    -0.075 A 
ATOM      5  S   UNL d   1       0.385   1.585   0.392  0.00  0.00     0.015 SA
ATOM      6  C4  UNL d   1      -1.129   2.199   0.878  0.00  0.00     0.022 A 
ATOM      7  C5  UNL d   1      -1.994   1.199   1.255  0.00  0.00     0.026 A 
ATOM      8  C6  UNL d   1      -1.414  -0.110   1.148  0.00  0.00    -0.082 A 
ATOM      9  C7  UNL d   1      -1.959  -1.385   1.434  0.00  0.00     0.045 A 
ENDROOT
TORSDOF 0
ENDMDL
