MODEL 1
REMARK minimizedAffinity -3.90533781
REMARK minimizedRMSD -1
REMARK  0 active torsions:
REMARK  status: ('A' for Active; 'I' for Inactive)
ROOT
ATOM      1  C   UNL d   1      -0.029  -0.870   0.949  0.00  0.00     0.020 A 
ATOM      2  C1  UNL d   1      -0.268  -1.787  -0.074  0.00  0.00     0.020 A 
ATOM      3  C2  UNL d   1       0.187  -1.524  -1.368  0.00  0.00     0.034 A 
ATOM      4  C3  UNL d   1       0.882  -0.341  -1.642  0.00  0.00     0.017 A 
ATOM      5  C4  UNL d   1       1.121   0.579  -0.615  0.00  0.00     0.017 A 
ATOM      6  C5  UNL d   1       0.664   0.310   0.679  0.00  0.00     0.034 A 
ATOM      7 Cl   UNL d   1       1.972   2.060  -0.876  0.00  0.00    -0.070 Cl
ATOM      8 Cl1  UNL d   1       1.416  -0.080  -3.265  0.00  0.00    -0.070 Cl
ENDROOT
TORSDOF 0
ENDMDL
