MODEL 1
REMARK minimizedAffinity -3.32258177
REMARK minimizedRMSD -1
REMARK  0 active torsions:
REMARK  status: ('A' for Active; 'I' for Inactive)
ROOT
ATOM      1  C   UNL d   1       1.297  -1.866  -1.912  0.00  0.00     0.020 A 
ATOM      2  C1  UNL d   1       1.959  -0.813  -2.542  0.00  0.00     0.020 A 
ATOM      3  C2  UNL d   1       1.735   0.501  -2.126  0.00  0.00     0.034 A 
ATOM      4  C3  UNL d   1       0.847   0.765  -1.076  0.00  0.00     0.017 A 
ATOM      5  C4  UNL d   1       0.183  -0.293  -0.445  0.00  0.00     0.017 A 
ATOM      6  C5  UNL d   1       0.411  -1.606  -0.865  0.00  0.00     0.034 A 
ATOM      7 Cl   UNL d   1      -0.927  -0.045   0.857  0.00  0.00    -0.070 Cl
ATOM      8 Cl1  UNL d   1       0.619   2.414  -0.614  0.00  0.00    -0.070 Cl
ENDROOT
TORSDOF 0
ENDMDL
