MODEL 1
REMARK minimizedAffinity -4.25193405
REMARK minimizedRMSD -1
REMARK  0 active torsions:
REMARK  status: ('A' for Active; 'I' for Inactive)
ROOT
ATOM      1  C   UNL d   1       0.702   1.776  -1.113  0.00  0.00     0.020 A 
ATOM      2  C1  UNL d   1       1.666   1.473  -2.074  0.00  0.00     0.020 A 
ATOM      3  C2  UNL d   1       2.197   0.184  -2.149  0.00  0.00     0.034 A 
ATOM      4  C3  UNL d   1       1.764  -0.808  -1.262  0.00  0.00     0.017 A 
ATOM      5  C4  UNL d   1       0.796  -0.504  -0.297  0.00  0.00     0.017 A 
ATOM      6  C5  UNL d   1       0.269   0.789  -0.226  0.00  0.00     0.034 A 
ATOM      7 Cl   UNL d   1       0.213  -1.675   0.832  0.00  0.00    -0.070 Cl
ATOM      8 Cl1  UNL d   1       2.463  -2.381  -1.412  0.00  0.00    -0.070 Cl
ENDROOT
TORSDOF 0
ENDMDL
