MODEL 1
REMARK minimizedAffinity -3.59738994
REMARK minimizedRMSD -1
REMARK  0 active torsions:
REMARK  status: ('A' for Active; 'I' for Inactive)
ROOT
ATOM      1  C   UNL d   1       0.326   0.224   1.106  0.00  0.00     0.020 A 
ATOM      2  C1  UNL d   1       0.805   1.280   0.331  0.00  0.00     0.020 A 
ATOM      3  C2  UNL d   1       1.265   1.042  -0.965  0.00  0.00     0.034 A 
ATOM      4  C3  UNL d   1       1.248  -0.255  -1.491  0.00  0.00     0.017 A 
ATOM      5  C4  UNL d   1       0.768  -1.315  -0.712  0.00  0.00     0.017 A 
ATOM      6  C5  UNL d   1       0.308  -1.070   0.585  0.00  0.00     0.034 A 
ATOM      7 Cl   UNL d   1       0.715  -2.942  -1.292  0.00  0.00    -0.070 Cl
ATOM      8 Cl1  UNL d   1       1.832  -0.477  -3.102  0.00  0.00    -0.070 Cl
ENDROOT
TORSDOF 0
ENDMDL
