MODEL 1
REMARK minimizedAffinity -2.68173313
REMARK minimizedRMSD -1
REMARK  0 active torsions:
REMARK  status: ('A' for Active; 'I' for Inactive)
ROOT
ATOM      1  C   UNL d   1       1.489   0.512  -2.078  0.00  0.00     0.020 A 
ATOM      2  C1  UNL d   1       0.757   1.590  -1.583  0.00  0.00     0.020 A 
ATOM      3  C2  UNL d   1      -0.065   1.422  -0.468  0.00  0.00     0.034 A 
ATOM      4  C3  UNL d   1      -0.159   0.173   0.157  0.00  0.00     0.017 A 
ATOM      5  C4  UNL d   1       0.577  -0.909  -0.341  0.00  0.00     0.017 A 
ATOM      6  C5  UNL d   1       1.399  -0.735  -1.459  0.00  0.00     0.034 A 
ATOM      7 Cl   UNL d   1       0.513  -2.481   0.375  0.00  0.00    -0.070 Cl
ATOM      8 Cl1  UNL d   1      -1.195   0.037   1.532  0.00  0.00    -0.070 Cl
ENDROOT
TORSDOF 0
ENDMDL
