MODEL 1
REMARK minimizedAffinity -3.72254515
REMARK minimizedRMSD -1
REMARK  0 active torsions:
REMARK  status: ('A' for Active; 'I' for Inactive)
ROOT
ATOM      1  C   UNL d   1      -0.267  -1.543  -1.568  0.00  0.00     0.020 A 
ATOM      2  C1  UNL d   1       0.736  -1.534  -2.536  0.00  0.00     0.020 A 
ATOM      3  C2  UNL d   1       1.842  -0.694  -2.388  0.00  0.00     0.034 A 
ATOM      4  C3  UNL d   1       1.947   0.141  -1.270  0.00  0.00     0.017 A 
ATOM      5  C4  UNL d   1       0.940   0.131  -0.298  0.00  0.00     0.017 A 
ATOM      6  C5  UNL d   1      -0.165  -0.712  -0.451  0.00  0.00     0.034 A 
ATOM      7 Cl   UNL d   1       1.000   1.133   1.109  0.00  0.00    -0.070 Cl
ATOM      8 Cl1  UNL d   1       3.342   1.153  -1.151  0.00  0.00    -0.070 Cl
ENDROOT
TORSDOF 0
ENDMDL
