MODEL 1
REMARK minimizedAffinity -4.0025115
REMARK minimizedRMSD -1
REMARK  0 active torsions:
REMARK  status: ('A' for Active; 'I' for Inactive)
ROOT
ATOM      1  C   UNL d   1      -0.035   0.070   1.137  0.00  0.00     0.020 A 
ATOM      2  C1  UNL d   1       0.644   1.091   0.475  0.00  0.00     0.020 A 
ATOM      3  C2  UNL d   1       1.254   0.840  -0.756  0.00  0.00     0.034 A 
ATOM      4  C3  UNL d   1       1.186  -0.435  -1.328  0.00  0.00     0.017 A 
ATOM      5  C4  UNL d   1       0.503  -1.460  -0.662  0.00  0.00     0.017 A 
ATOM      6  C5  UNL d   1      -0.106  -1.203   0.570  0.00  0.00     0.034 A 
ATOM      7 Cl   UNL d   1       0.376  -3.059  -1.305  0.00  0.00    -0.070 Cl
ATOM      8 Cl1  UNL d   1       1.963  -0.675  -2.853  0.00  0.00    -0.070 Cl
ENDROOT
TORSDOF 0
ENDMDL
