MODEL 1
REMARK minimizedAffinity -1.01216793
REMARK minimizedRMSD -1
REMARK  0 active torsions:
REMARK  status: ('A' for Active; 'I' for Inactive)
ROOT
ATOM      1  C   UNL d   1      -2.639   1.341   0.254  0.00  0.00     0.020 A 
ATOM      2  C1  UNL d   1      -2.911   0.640   1.428  0.00  0.00     0.020 A 
ATOM      3  C2  UNL d   1      -2.013  -0.326   1.888  0.00  0.00     0.034 A 
ATOM      4  C3  UNL d   1      -0.839  -0.592   1.175  0.00  0.00     0.017 A 
ATOM      5  C4  UNL d   1      -0.567   0.112  -0.003  0.00  0.00     0.017 A 
ATOM      6  C5  UNL d   1      -1.469   1.078  -0.460  0.00  0.00     0.034 A 
ATOM      7 Cl   UNL d   1       0.861  -0.161  -0.938  0.00  0.00    -0.070 Cl
ATOM      8 Cl1  UNL d   1       0.226  -1.799   1.803  0.00  0.00    -0.070 Cl
ENDROOT
TORSDOF 0
ENDMDL
