MODEL 1
REMARK minimizedAffinity -4.98783875
REMARK minimizedRMSD -1
REMARK  0 active torsions:
REMARK  status: ('A' for Active; 'I' for Inactive)
ROOT
ATOM      1  C   UNL d   1       1.970  -0.210  -2.894  0.00  0.00     0.020 A 
ATOM      2  C1  UNL d   1       1.492   0.900  -2.199  0.00  0.00     0.020 A 
ATOM      3  C2  UNL d   1       0.757   0.724  -1.024  0.00  0.00     0.034 A 
ATOM      4  C3  UNL d   1       0.498  -0.564  -0.542  0.00  0.00     0.017 A 
ATOM      5  C4  UNL d   1       0.979  -1.677  -1.241  0.00  0.00     0.017 A 
ATOM      6  C5  UNL d   1       1.714  -1.496  -2.416  0.00  0.00     0.034 A 
ATOM      7 Cl   UNL d   1       0.700  -3.298  -0.708  0.00  0.00    -0.070 Cl
ATOM      8 Cl1  UNL d   1      -0.417  -0.707   0.917  0.00  0.00    -0.070 Cl
ENDROOT
TORSDOF 0
ENDMDL
