MODEL 1
REMARK minimizedAffinity -3.96520519
REMARK minimizedRMSD -1
REMARK  0 active torsions:
REMARK  status: ('A' for Active; 'I' for Inactive)
ROOT
ATOM      1  C   UNL d   1      -0.389  -1.570   0.186  0.00  0.00     0.020 A 
ATOM      2  C1  UNL d   1      -0.479  -0.588   1.171  0.00  0.00     0.020 A 
ATOM      3  C2  UNL d   1       0.013   0.696   0.925  0.00  0.00     0.034 A 
ATOM      4  C3  UNL d   1       0.597   1.001  -0.310  0.00  0.00     0.017 A 
ATOM      5  C4  UNL d   1       0.687   0.014  -1.298  0.00  0.00     0.017 A 
ATOM      6  C5  UNL d   1       0.193  -1.269  -1.047  0.00  0.00     0.034 A 
ATOM      7 Cl   UNL d   1       1.394   0.316  -2.846  0.00  0.00    -0.070 Cl
ATOM      8 Cl1  UNL d   1       1.184   2.609  -0.546  0.00  0.00    -0.070 Cl
ENDROOT
TORSDOF 0
ENDMDL
