MODEL 1
REMARK minimizedAffinity -5.13906908
REMARK minimizedRMSD -1
REMARK  0 active torsions:
REMARK  status: ('A' for Active; 'I' for Inactive)
ROOT
ATOM      1  C   UNL d   1       1.436  -1.565  -2.622  0.00  0.00     0.020 A 
ATOM      2  C1  UNL d   1       2.220  -0.435  -2.851  0.00  0.00     0.020 A 
ATOM      3  C2  UNL d   1       2.143   0.656  -1.982  0.00  0.00     0.034 A 
ATOM      4  C3  UNL d   1       1.280   0.620  -0.881  0.00  0.00     0.017 A 
ATOM      5  C4  UNL d   1       0.493  -0.515  -0.652  0.00  0.00     0.017 A 
ATOM      6  C5  UNL d   1       0.575  -1.605  -1.525  0.00  0.00     0.034 A 
ATOM      7 Cl   UNL d   1      -0.595  -0.634   0.686  0.00  0.00    -0.070 Cl
ATOM      8 Cl1  UNL d   1       1.236   2.004   0.151  0.00  0.00    -0.070 Cl
ENDROOT
TORSDOF 0
ENDMDL
