MODEL 1
REMARK minimizedAffinity -2.03826022
REMARK minimizedRMSD -1
REMARK  0 active torsions:
REMARK  status: ('A' for Active; 'I' for Inactive)
ROOT
ATOM      1  C   UNL d   1       0.386  -0.319   0.486  0.00  0.00     0.020 A 
ATOM      2  C1  UNL d   1       0.844   0.966   0.776  0.00  0.00     0.020 A 
ATOM      3  C2  UNL d   1       0.040   1.847   1.502  0.00  0.00     0.034 A 
ATOM      4  C3  UNL d   1      -1.227   1.444   1.940  0.00  0.00     0.017 A 
ATOM      5  C4  UNL d   1      -1.686   0.155   1.649  0.00  0.00     0.017 A 
ATOM      6  C5  UNL d   1      -0.876  -0.723   0.922  0.00  0.00     0.034 A 
ATOM      7 Cl   UNL d   1      -3.237  -0.414   2.156  0.00  0.00    -0.070 Cl
ATOM      8 Cl1  UNL d   1      -2.168   2.585   2.833  0.00  0.00    -0.070 Cl
ENDROOT
TORSDOF 0
ENDMDL
