MODEL 1
REMARK minimizedAffinity -3.69524741
REMARK minimizedRMSD -1
REMARK  0 active torsions:
REMARK  status: ('A' for Active; 'I' for Inactive)
ROOT
ATOM      1  C   UNL d   1       2.775  -0.252  -2.341  0.00  0.00     0.020 A 
ATOM      2  C1  UNL d   1       2.189   0.897  -1.812  0.00  0.00     0.020 A 
ATOM      3  C2  UNL d   1       1.185   0.788  -0.848  0.00  0.00     0.034 A 
ATOM      4  C3  UNL d   1       0.764  -0.472  -0.409  0.00  0.00     0.017 A 
ATOM      5  C4  UNL d   1       1.354  -1.625  -0.940  0.00  0.00     0.017 A 
ATOM      6  C5  UNL d   1       2.358  -1.511  -1.905  0.00  0.00     0.034 A 
ATOM      7 Cl   UNL d   1       0.888  -3.215  -0.448  0.00  0.00    -0.070 Cl
ATOM      8 Cl1  UNL d   1      -0.482  -0.532   0.787  0.00  0.00    -0.070 Cl
ENDROOT
TORSDOF 0
ENDMDL
