MODEL 1
REMARK minimizedAffinity -0.0106386868
REMARK minimizedRMSD -1
REMARK  0 active torsions:
REMARK  status: ('A' for Active; 'I' for Inactive)
ROOT
ATOM      1  C   UNL d   1      -1.116   0.525   1.499  0.00  0.00     0.020 A 
ATOM      2  C1  UNL d   1      -0.432   1.681   1.125  0.00  0.00     0.020 A 
ATOM      3  C2  UNL d   1       0.650   1.599   0.246  0.00  0.00     0.034 A 
ATOM      4  C3  UNL d   1       1.051   0.358  -0.261  0.00  0.00     0.017 A 
ATOM      5  C4  UNL d   1       0.364  -0.802   0.115  0.00  0.00     0.017 A 
ATOM      6  C5  UNL d   1      -0.719  -0.714   0.995  0.00  0.00     0.034 A 
ATOM      7 Cl   UNL d   1       0.801  -2.369  -0.469  0.00  0.00    -0.070 Cl
ATOM      8 Cl1  UNL d   1       2.398   0.330  -1.344  0.00  0.00    -0.070 Cl
ENDROOT
TORSDOF 0
ENDMDL
