MODEL 1
REMARK minimizedAffinity -5.16605139
REMARK minimizedRMSD -1
REMARK  0 active torsions:
REMARK  status: ('A' for Active; 'I' for Inactive)
ROOT
ATOM      1  C   UNL d   1       1.866  -0.582  -2.991  0.00  0.00     0.020 A 
ATOM      2  C1  UNL d   1       1.935  -1.923  -2.618  0.00  0.00     0.020 A 
ATOM      3  C2  UNL d   1       1.286  -2.360  -1.461  0.00  0.00     0.034 A 
ATOM      4  C3  UNL d   1       0.565  -1.456  -0.674  0.00  0.00     0.017 A 
ATOM      5  C4  UNL d   1       0.496  -0.109  -1.049  0.00  0.00     0.017 A 
ATOM      6  C5  UNL d   1       1.148   0.323  -2.209  0.00  0.00     0.034 A 
ATOM      7 Cl   UNL d   1      -0.374   1.066  -0.129  0.00  0.00    -0.070 Cl
ATOM      8 Cl1  UNL d   1      -0.213  -2.066   0.743  0.00  0.00    -0.070 Cl
ENDROOT
TORSDOF 0
ENDMDL
