MODEL 1
REMARK minimizedAffinity 4.40208197
REMARK minimizedRMSD -1
REMARK  0 active torsions:
REMARK  status: ('A' for Active; 'I' for Inactive)
ROOT
ATOM      1  C1  BNZ d   1       1.875  -1.276   0.060  0.00  0.00     0.000 A 
ATOM      2  C2  BNZ d   1       2.706  -2.364   0.027  0.00  0.00     0.000 A 
ATOM      3  C3  BNZ d   1       2.745  -3.246   1.071  0.00  0.00     0.000 A 
ATOM      4  C4  BNZ d   1       1.985  -3.018   2.161  0.00  0.00     0.000 A 
ATOM      5  C5  BNZ d   1       1.149  -1.920   2.213  0.00  0.00     0.000 A 
ATOM      6  C6  BNZ d   1       1.084  -1.055   1.144  0.00  0.00     0.000 A 
ENDROOT
TORSDOF 0
ENDMDL
