MODEL 1
REMARK minimizedAffinity 0.17162089
REMARK minimizedRMSD -1
REMARK  0 active torsions:
REMARK  status: ('A' for Active; 'I' for Inactive)
ROOT
ATOM      1  C1  BNZ d   1       4.496  -4.886   4.824  0.00  0.00     0.000 A 
ATOM      2  C2  BNZ d   1       4.864  -4.287   5.999  0.00  0.00     0.000 A 
ATOM      3  C3  BNZ d   1       5.598  -3.134   5.998  0.00  0.00     0.000 A 
ATOM      4  C4  BNZ d   1       5.997  -2.604   4.824  0.00  0.00     0.000 A 
ATOM      5  C5  BNZ d   1       5.642  -3.201   3.631  0.00  0.00     0.000 A 
ATOM      6  C6  BNZ d   1       4.870  -4.340   3.635  0.00  0.00     0.000 A 
ENDROOT
TORSDOF 0
ENDMDL
