MODEL 1
REMARK minimizedAffinity 1.55778897
REMARK minimizedRMSD -1
REMARK  0 active torsions:
REMARK  status: ('A' for Active; 'I' for Inactive)
ROOT
ATOM      1  C1  BNZ d   1       4.102  -0.968  -0.167  0.00  0.00     0.000 A 
ATOM      2  C2  BNZ d   1       2.890  -1.479  -0.547  0.00  0.00     0.000 A 
ATOM      3  C3  BNZ d   1       1.957  -0.689  -1.157  0.00  0.00     0.000 A 
ATOM      4  C4  BNZ d   1       2.221   0.620  -1.350  0.00  0.00     0.000 A 
ATOM      5  C5  BNZ d   1       3.434   1.153  -0.964  0.00  0.00     0.000 A 
ATOM      6  C6  BNZ d   1       4.386   0.345  -0.385  0.00  0.00     0.000 A 
ENDROOT
TORSDOF 0
ENDMDL
