MODEL 1
REMARK minimizedAffinity 2.51245427
REMARK minimizedRMSD -1
REMARK  0 active torsions:
REMARK  status: ('A' for Active; 'I' for Inactive)
ROOT
ATOM      1  C1  BNZ d   1       4.620  -0.917  -0.496  0.00  0.00     0.000 A 
ATOM      2  C2  BNZ d   1       3.369  -1.441  -0.685  0.00  0.00     0.000 A 
ATOM      3  C3  BNZ d   1       2.301  -0.628  -0.942  0.00  0.00     0.000 A 
ATOM      4  C4  BNZ d   1       2.477   0.709  -0.971  0.00  0.00     0.000 A 
ATOM      5  C5  BNZ d   1       3.730   1.253  -0.773  0.00  0.00     0.000 A 
ATOM      6  C6  BNZ d   1       4.810   0.430  -0.553  0.00  0.00     0.000 A 
ENDROOT
TORSDOF 0
ENDMDL
