MODEL 1
REMARK minimizedAffinity 7.75345516
REMARK minimizedRMSD -1
REMARK  0 active torsions:
REMARK  status: ('A' for Active; 'I' for Inactive)
ROOT
ATOM      1  C1  BNZ d   1       3.872  -0.733  -0.517  0.00  0.00     0.000 A 
ATOM      2  C2  BNZ d   1       2.613  -1.141  -0.871  0.00  0.00     0.000 A 
ATOM      3  C3  BNZ d   1       1.654  -0.230  -1.215  0.00  0.00     0.000 A 
ATOM      4  C4  BNZ d   1       1.941   1.087  -1.166  0.00  0.00     0.000 A 
ATOM      5  C5  BNZ d   1       3.202   1.514  -0.802  0.00  0.00     0.000 A 
ATOM      6  C6  BNZ d   1       4.177   0.593  -0.494  0.00  0.00     0.000 A 
ENDROOT
TORSDOF 0
ENDMDL
