MODEL 1
REMARK minimizedAffinity 2.37346983
REMARK minimizedRMSD -1
REMARK  0 active torsions:
REMARK  status: ('A' for Active; 'I' for Inactive)
ROOT
ATOM      1  C1  BNZ d   1       5.265  -3.379   6.000  0.00  0.00     0.000 A 
ATOM      2  C2  BNZ d   1       4.545  -4.502   5.691  0.00  0.00     0.000 A 
ATOM      3  C3  BNZ d   1       4.398  -4.904   4.393  0.00  0.00     0.000 A 
ATOM      4  C4  BNZ d   1       4.935  -4.161   3.404  0.00  0.00     0.000 A 
ATOM      5  C5  BNZ d   1       5.656  -3.021   3.698  0.00  0.00     0.000 A 
ATOM      6  C6  BNZ d   1       5.836  -2.642   5.009  0.00  0.00     0.000 A 
ENDROOT
TORSDOF 0
ENDMDL
