MODEL 1
REMARK minimizedAffinity -1.78501904
REMARK minimizedRMSD -1
REMARK  0 active torsions:
REMARK  status: ('A' for Active; 'I' for Inactive)
ROOT
ATOM      1  C1  BNZ d   1       1.431  -2.654   2.013  0.00  0.00     0.000 A 
ATOM      2  C2  BNZ d   1       1.042  -3.895   2.444  0.00  0.00     0.000 A 
ATOM      3  C3  BNZ d   1      -0.129  -4.063   3.128  0.00  0.00     0.000 A 
ATOM      4  C4  BNZ d   1      -0.889  -2.986   3.416  0.00  0.00     0.000 A 
ATOM      5  C5  BNZ d   1      -0.507  -1.728   2.997  0.00  0.00     0.000 A 
ATOM      6  C6  BNZ d   1       0.653  -1.568   2.274  0.00  0.00     0.000 A 
ENDROOT
TORSDOF 0
ENDMDL
