MODEL 1
REMARK minimizedAffinity 1.12852311
REMARK minimizedRMSD -1
REMARK  0 active torsions:
REMARK  status: ('A' for Active; 'I' for Inactive)
ROOT
ATOM      1  C1  BNZ d   1      -1.192  -0.025  -0.077  0.00  0.00     0.000 A 
ATOM      2  C2  BNZ d   1      -1.956   0.242   1.027  0.00  0.00     0.000 A 
ATOM      3  C3  BNZ d   1      -1.497  -0.045   2.282  0.00  0.00     0.000 A 
ATOM      4  C4  BNZ d   1      -0.294  -0.636   2.429  0.00  0.00     0.000 A 
ATOM      5  C5  BNZ d   1       0.485  -0.921   1.325  0.00  0.00     0.000 A 
ATOM      6  C6  BNZ d   1       0.036  -0.594   0.065  0.00  0.00     0.000 A 
ENDROOT
TORSDOF 0
ENDMDL
