MODEL 1
REMARK minimizedAffinity -5.4863019
REMARK minimizedRMSD -1
REMARK  0 active torsions:
REMARK  status: ('A' for Active; 'I' for Inactive)
ROOT
ATOM      1  C4' PXY d   1      -3.166   0.160   0.016  0.00  0.00     0.077 C 
ATOM      2  C1' PXY d   1       2.234   0.494   2.052  0.00  0.00     0.077 C 
ATOM      3  C1  PXY d   1       0.813   0.410   1.530  0.00  0.00    -0.082 A 
ATOM      4  C2  PXY d   1       0.544  -0.360   0.489  0.00  0.00     0.003 A 
ATOM      5  C3  PXY d   1      -0.729  -0.423  -0.017  0.00  0.00     0.003 A 
ATOM      6  C4  PXY d   1      -1.747   0.268   0.583  0.00  0.00    -0.082 A 
ATOM      7  C5  PXY d   1      -1.483   1.048   1.653  0.00  0.00     0.003 A 
ATOM      8  C6  PXY d   1      -0.176   1.130   2.125  0.00  0.00     0.003 A 
ENDROOT
TORSDOF 0
ENDMDL
