MODEL 1
REMARK minimizedAffinity -1.1905278
REMARK minimizedRMSD -1
REMARK  0 active torsions:
REMARK  status: ('A' for Active; 'I' for Inactive)
ROOT
ATOM      1  C4' PXY d   1       0.137   1.819   2.248  0.00  0.00     0.077 C 
ATOM      2  C1' PXY d   1       0.711  -0.950  -2.793  0.00  0.00     0.077 C 
ATOM      3  C1  PXY d   1       0.558  -0.235  -1.465  0.00  0.00    -0.082 A 
ATOM      4  C2  PXY d   1       0.181   1.033  -1.444  0.00  0.00     0.003 A 
ATOM      5  C3  PXY d   1       0.070   1.704  -0.253  0.00  0.00     0.003 A 
ATOM      6  C4  PXY d   1       0.294   1.055   0.931  0.00  0.00    -0.082 A 
ATOM      7  C5  PXY d   1       0.669  -0.242   0.919  0.00  0.00     0.003 A 
ATOM      8  C6  PXY d   1       0.817  -0.893  -0.303  0.00  0.00     0.003 A 
ENDROOT
TORSDOF 0
ENDMDL
