MODEL 1
REMARK minimizedAffinity -4.77641106
REMARK minimizedRMSD -1
REMARK  0 active torsions:
REMARK  status: ('A' for Active; 'I' for Inactive)
ROOT
ATOM      1  C4' PXY d   1      -1.108   0.808   3.016  0.00  0.00     0.077 C 
ATOM      2  C1' PXY d   1       0.529   0.068  -2.478  0.00  0.00     0.077 C 
ATOM      3  C1  PXY d   1       0.111   0.256  -1.033  0.00  0.00    -0.082 A 
ATOM      4  C2  PXY d   1      -1.173   0.372  -0.734  0.00  0.00     0.003 A 
ATOM      5  C3  PXY d   1      -1.567   0.575   0.564  0.00  0.00     0.003 A 
ATOM      6  C4  PXY d   1      -0.641   0.607   1.572  0.00  0.00    -0.082 A 
ATOM      7  C5  PXY d   1       0.670   0.480   1.276  0.00  0.00     0.003 A 
ATOM      8  C6  PXY d   1       1.052   0.315  -0.053  0.00  0.00     0.003 A 
ENDROOT
TORSDOF 0
ENDMDL
