MODEL 1
REMARK minimizedAffinity -5.33438826
REMARK minimizedRMSD -1
REMARK  0 active torsions:
REMARK  status: ('A' for Active; 'I' for Inactive)
ROOT
ATOM      1  C4' PXY d   1       1.234  -0.127  -3.309  0.00  0.00     0.077 C 
ATOM      2  C1' PXY d   1      -0.136   1.251   2.135  0.00  0.00     0.077 C 
ATOM      3  C1  PXY d   1       0.227   0.878   0.711  0.00  0.00    -0.082 A 
ATOM      4  C2  PXY d   1       0.503   1.830  -0.165  0.00  0.00     0.003 A 
ATOM      5  C3  PXY d   1       0.802   1.512  -1.464  0.00  0.00     0.003 A 
ATOM      6  C4  PXY d   1       0.871   0.203  -1.859  0.00  0.00    -0.082 A 
ATOM      7  C5  PXY d   1       0.602  -0.775  -0.968  0.00  0.00     0.003 A 
ATOM      8  C6  PXY d   1       0.260  -0.430   0.336  0.00  0.00     0.003 A 
ENDROOT
TORSDOF 0
ENDMDL
