MODEL 1
REMARK minimizedAffinity -2.13901424
REMARK minimizedRMSD -1
REMARK  0 active torsions:
REMARK  status: ('A' for Active; 'I' for Inactive)
ROOT
ATOM      1  C4' PXY d   1       0.607   0.504  -2.723  0.00  0.00     0.077 C 
ATOM      2  C1' PXY d   1      -1.444   0.192   2.672  0.00  0.00     0.077 C 
ATOM      3  C1  PXY d   1      -0.894   0.272   1.261  0.00  0.00    -0.082 A 
ATOM      4  C2  PXY d   1      -1.585   0.902   0.325  0.00  0.00     0.003 A 
ATOM      5  C3  PXY d   1      -1.117   0.957  -0.963  0.00  0.00     0.003 A 
ATOM      6  C4  PXY d   1       0.095   0.406  -1.284  0.00  0.00    -0.082 A 
ATOM      7  C5  PXY d   1       0.810  -0.229  -0.332  0.00  0.00     0.003 A 
ATOM      8  C6  PXY d   1       0.299  -0.309   0.961  0.00  0.00     0.003 A 
ENDROOT
TORSDOF 0
ENDMDL
