MODEL 1
REMARK minimizedAffinity -3.26581407
REMARK minimizedRMSD -1
REMARK  0 active torsions:
REMARK  status: ('A' for Active; 'I' for Inactive)
ROOT
ATOM      1  C4' PXY d   1       0.944   0.056  -2.950  0.00  0.00     0.077 C 
ATOM      2  C1' PXY d   1      -1.375  -0.030   2.344  0.00  0.00     0.077 C 
ATOM      3  C1  PXY d   1      -0.779  -0.009   0.951  0.00  0.00    -0.082 A 
ATOM      4  C2  PXY d   1       0.480  -0.376   0.772  0.00  0.00     0.003 A 
ATOM      5  C3  PXY d   1       1.044  -0.331  -0.477  0.00  0.00     0.003 A 
ATOM      6  C4  PXY d   1       0.297   0.041  -1.562  0.00  0.00    -0.082 A 
ATOM      7  C5  PXY d   1      -0.991   0.407  -1.389  0.00  0.00     0.003 A 
ATOM      8  C6  PXY d   1      -1.533   0.395  -0.108  0.00  0.00     0.003 A 
ENDROOT
TORSDOF 0
ENDMDL
