MODEL 1
REMARK minimizedAffinity -1.21854925
REMARK minimizedRMSD -1
REMARK  0 active torsions:
REMARK  status: ('A' for Active; 'I' for Inactive)
ROOT
ATOM      1  C4' PXY d   1      -3.358   0.398  -4.876  0.00  0.00     0.077 C 
ATOM      2  C1' PXY d   1       2.374   0.794  -5.508  0.00  0.00     0.077 C 
ATOM      3  C1  PXY d   1       0.872   0.678  -5.339  0.00  0.00    -0.082 A 
ATOM      4  C2  PXY d   1       0.074   1.500  -6.000  0.00  0.00     0.003 A 
ATOM      5  C3  PXY d   1      -1.286   1.430  -5.834  0.00  0.00     0.003 A 
ATOM      6  C4  PXY d   1      -1.836   0.473  -5.024  0.00  0.00    -0.082 A 
ATOM      7  C5  PXY d   1      -1.029  -0.377  -4.354  0.00  0.00     0.003 A 
ATOM      8  C6  PXY d   1       0.350  -0.262  -4.505  0.00  0.00     0.003 A 
ENDROOT
TORSDOF 0
ENDMDL
