MODEL 1
REMARK minimizedAffinity -4.30450296
REMARK minimizedRMSD -1
REMARK  0 active torsions:
REMARK  status: ('A' for Active; 'I' for Inactive)
ROOT
ATOM      1  C4' PXY d   1       0.522  -0.452  -1.814  0.00  0.00     0.077 C 
ATOM      2  C1' PXY d   1      -0.937   1.629   3.378  0.00  0.00     0.077 C 
ATOM      3  C1  PXY d   1      -0.564   1.075   2.017  0.00  0.00    -0.082 A 
ATOM      4  C2  PXY d   1       0.674   1.212   1.571  0.00  0.00     0.003 A 
ATOM      5  C3  PXY d   1       1.020   0.745   0.329  0.00  0.00     0.003 A 
ATOM      6  C4  PXY d   1       0.103   0.084  -0.442  0.00  0.00    -0.082 A 
ATOM      7  C5  PXY d   1      -1.160  -0.070   0.009  0.00  0.00     0.003 A 
ATOM      8  C6  PXY d   1      -1.502   0.448   1.255  0.00  0.00     0.003 A 
ENDROOT
TORSDOF 0
ENDMDL
