MODEL 1
REMARK minimizedAffinity -4.93184519
REMARK minimizedRMSD -1
REMARK  0 active torsions:
REMARK  status: ('A' for Active; 'I' for Inactive)
ROOT
ATOM      1  C4' PXY d   1      -0.017  -0.627  -1.568  0.00  0.00     0.077 C 
ATOM      2  C1' PXY d   1      -0.682   1.127   3.900  0.00  0.00     0.077 C 
ATOM      3  C1  PXY d   1      -0.520   0.664   2.466  0.00  0.00    -0.082 A 
ATOM      4  C2  PXY d   1       0.663   0.252   2.041  0.00  0.00     0.003 A 
ATOM      5  C3  PXY d   1       0.834  -0.140   0.738  0.00  0.00     0.003 A 
ATOM      6  C4  PXY d   1      -0.229  -0.159  -0.125  0.00  0.00    -0.082 A 
ATOM      7  C5  PXY d   1      -1.441   0.250   0.304  0.00  0.00     0.003 A 
ATOM      8  C6  PXY d   1      -1.585   0.682   1.619  0.00  0.00     0.003 A 
ENDROOT
TORSDOF 0
ENDMDL
