MODEL 1
REMARK minimizedAffinity -4.73298454
REMARK minimizedRMSD -1
REMARK  0 active torsions:
REMARK  status: ('A' for Active; 'I' for Inactive)
ROOT
ATOM      1  C4' PXY d   1       0.773  -0.385  -2.448  0.00  0.00     0.077 C 
ATOM      2  C1' PXY d   1      -1.006  -0.027   3.041  0.00  0.00     0.077 C 
ATOM      3  C1  PXY d   1      -0.527  -0.122   1.605  0.00  0.00    -0.082 A 
ATOM      4  C2  PXY d   1      -1.263   0.395   0.635  0.00  0.00     0.003 A 
ATOM      5  C3  PXY d   1      -0.861   0.290  -0.672  0.00  0.00     0.003 A 
ATOM      6  C4  PXY d   1       0.333  -0.304  -0.983  0.00  0.00    -0.082 A 
ATOM      7  C5  PXY d   1       1.095  -0.824   0.002  0.00  0.00     0.003 A 
ATOM      8  C6  PXY d   1       0.649  -0.743   1.318  0.00  0.00     0.003 A 
ENDROOT
TORSDOF 0
ENDMDL
