MODEL 1
REMARK minimizedAffinity -3.83465791
REMARK minimizedRMSD -1
REMARK  0 active torsions:
REMARK  status: ('A' for Active; 'I' for Inactive)
ROOT
ATOM      1  C4' PXY d   1      -1.434   1.826   2.323  0.00  0.00     0.077 C 
ATOM      2  C1' PXY d   1       1.599  -1.767  -1.039  0.00  0.00     0.077 C 
ATOM      3  C1  PXY d   1       0.797  -0.821  -0.168  0.00  0.00    -0.082 A 
ATOM      4  C2  PXY d   1       1.289  -0.428   0.996  0.00  0.00     0.003 A 
ATOM      5  C3  PXY d   1       0.563   0.402   1.811  0.00  0.00     0.003 A 
ATOM      6  C4  PXY d   1      -0.655   0.878   1.407  0.00  0.00    -0.082 A 
ATOM      7  C5  PXY d   1      -1.159   0.491   0.216  0.00  0.00     0.003 A 
ATOM      8  C6  PXY d   1      -0.425  -0.385  -0.578  0.00  0.00     0.003 A 
ENDROOT
TORSDOF 0
ENDMDL
