MODEL 1
REMARK minimizedAffinity -5.67710209
REMARK minimizedRMSD -1
REMARK  0 active torsions:
REMARK  status: ('A' for Active; 'I' for Inactive)
ROOT
ATOM      1  C4' PXY d   1       0.524  -0.400  -1.917  0.00  0.00     0.077 C 
ATOM      2  C1' PXY d   1      -0.747   1.525   3.383  0.00  0.00     0.077 C 
ATOM      3  C1  PXY d   1      -0.422   1.011   1.995  0.00  0.00    -0.082 A 
ATOM      4  C2  PXY d   1       0.765   1.258   1.466  0.00  0.00     0.003 A 
ATOM      5  C3  PXY d   1       1.064   0.828   0.199  0.00  0.00     0.003 A 
ATOM      6  C4  PXY d   1       0.156   0.092  -0.514  0.00  0.00    -0.082 A 
ATOM      7  C5  PXY d   1      -1.054  -0.174   0.022  0.00  0.00     0.003 A 
ATOM      8  C6  PXY d   1      -1.352   0.307   1.294  0.00  0.00     0.003 A 
ENDROOT
TORSDOF 0
ENDMDL
