MODEL 1
REMARK minimizedAffinity 3.66866565
REMARK minimizedRMSD -1
REMARK  1 active torsions:
REMARK  status: ('A' for Active; 'I' for Inactive)
REMARK    1  A    between atoms: C1_2  and  C2_3 
ROOT
ATOM      1  C2  UNL d   1       0.267  -2.211   0.771  0.00  0.00    -0.076 A 
ATOM      2  C3  UNL d   1       1.053  -3.123   0.046  0.00  0.00     0.004 A 
ATOM      3  C4  UNL d   1       0.672  -3.542  -1.228  0.00  0.00    -0.003 A 
ATOM      4  C5  UNL d   1      -0.499  -3.055  -1.797  0.00  0.00     0.000 A 
ATOM      5  C6  UNL d   1      -1.281  -2.136  -1.099  0.00  0.00     0.000 A 
ATOM      6  C7  UNL d   1      -0.903  -1.690   0.180  0.00  0.00    -0.073 A 
ATOM      7  C8  UNL d   1      -1.787  -0.702   0.890  0.00  0.00     0.078 C 
ENDROOT
BRANCH   1   8
ATOM      8  C1  UNL d   1       0.716  -1.813   2.160  0.00  0.00     0.053 C 
ATOM      9  C   UNL d   1       2.052  -1.086   2.154  0.00  0.00     0.018 C 
ENDBRANCH   1   8
TORSDOF 1
ENDMDL
