MODEL 1
REMARK minimizedAffinity 2.91039872
REMARK minimizedRMSD -1
REMARK  1 active torsions:
REMARK  status: ('A' for Active; 'I' for Inactive)
REMARK    1  A    between atoms: C1_2  and  C2_3 
ROOT
ATOM      1  C2  UNL d   1       3.553  -2.645   4.365  0.00  0.00    -0.076 A 
ATOM      2  C3  UNL d   1       3.138  -1.631   3.485  0.00  0.00     0.004 A 
ATOM      3  C4  UNL d   1       1.846  -1.618   2.962  0.00  0.00    -0.003 A 
ATOM      4  C5  UNL d   1       0.947  -2.619   3.312  0.00  0.00     0.000 A 
ATOM      5  C6  UNL d   1       1.336  -3.624   4.198  0.00  0.00     0.000 A 
ATOM      6  C7  UNL d   1       2.629  -3.642   4.747  0.00  0.00    -0.073 A 
ATOM      7  C8  UNL d   1       2.997  -4.753   5.692  0.00  0.00     0.078 C 
ENDROOT
BRANCH   1   8
ATOM      8  C1  UNL d   1       4.975  -2.623   4.879  0.00  0.00     0.053 C 
ATOM      9  C   UNL d   1       6.000  -2.626   3.755  0.00  0.00     0.018 C 
ENDBRANCH   1   8
TORSDOF 1
ENDMDL
