MODEL 1
REMARK minimizedAffinity 1.86226654
REMARK minimizedRMSD -1
REMARK  1 active torsions:
REMARK  status: ('A' for Active; 'I' for Inactive)
REMARK    1  A    between atoms: C1_2  and  C2_3 
ROOT
ATOM      1  C2  UNL d   1       1.306  -1.181   2.344  0.00  0.00    -0.076 A 
ATOM      2  C3  UNL d   1       2.324  -0.279   2.698  0.00  0.00     0.004 A 
ATOM      3  C4  UNL d   1       2.645   0.800   1.875  0.00  0.00    -0.003 A 
ATOM      4  C5  UNL d   1       1.952   0.994   0.686  0.00  0.00     0.000 A 
ATOM      5  C6  UNL d   1       0.927   0.120   0.328  0.00  0.00     0.000 A 
ATOM      6  C7  UNL d   1       0.580  -0.963   1.154  0.00  0.00    -0.073 A 
ATOM      7  C8  UNL d   1      -0.530  -1.878   0.715  0.00  0.00     0.078 C 
ENDROOT
BRANCH   1   8
ATOM      8  C1  UNL d   1       1.020  -2.347   3.263  0.00  0.00     0.053 C 
ATOM      9  C   UNL d   1       1.561  -2.129   4.667  0.00  0.00     0.018 C 
ENDBRANCH   1   8
TORSDOF 1
ENDMDL
