MODEL 1
REMARK minimizedAffinity 6.15963554
REMARK minimizedRMSD -1
REMARK  1 active torsions:
REMARK  status: ('A' for Active; 'I' for Inactive)
REMARK    1  A    between atoms: C1_2  and  C2_3 
ROOT
ATOM      1  C2  UNL d   1      -0.561  -1.521  -0.098  0.00  0.00    -0.076 A 
ATOM      2  C3  UNL d   1      -0.998  -1.938  -1.367  0.00  0.00     0.004 A 
ATOM      3  C4  UNL d   1      -0.597  -3.164  -1.897  0.00  0.00    -0.003 A 
ATOM      4  C5  UNL d   1       0.247  -3.992  -1.165  0.00  0.00     0.000 A 
ATOM      5  C6  UNL d   1       0.676  -3.602   0.103  0.00  0.00     0.000 A 
ATOM      6  C7  UNL d   1       0.268  -2.377   0.658  0.00  0.00    -0.073 A 
ATOM      7  C8  UNL d   1       0.766  -2.003   2.028  0.00  0.00     0.078 C 
ENDROOT
BRANCH   1   8
ATOM      8  C1  UNL d   1      -1.006  -0.169   0.413  0.00  0.00     0.053 C 
ATOM      9  C   UNL d   1      -0.034   0.941   0.047  0.00  0.00     0.018 C 
ENDBRANCH   1   8
TORSDOF 1
ENDMDL
