MODEL 1
REMARK minimizedAffinity 1.5607841
REMARK minimizedRMSD -1
REMARK  1 active torsions:
REMARK  status: ('A' for Active; 'I' for Inactive)
REMARK    1  A    between atoms: C1_2  and  C2_3 
ROOT
ATOM      1  C2  UNL d   1       1.764  -0.698   3.080  0.00  0.00    -0.076 A 
ATOM      2  C3  UNL d   1       2.383  -0.930   4.321  0.00  0.00     0.004 A 
ATOM      3  C4  UNL d   1       2.194  -2.130   5.004  0.00  0.00    -0.003 A 
ATOM      4  C5  UNL d   1       1.383  -3.119   4.457  0.00  0.00     0.000 A 
ATOM      5  C6  UNL d   1       0.775  -2.913   3.219  0.00  0.00     0.000 A 
ATOM      6  C7  UNL d   1       0.968  -1.715   2.510  0.00  0.00    -0.073 A 
ATOM      7  C8  UNL d   1       0.283  -1.545   1.182  0.00  0.00     0.078 C 
ENDROOT
BRANCH   1   8
ATOM      8  C1  UNL d   1       1.984   0.633   2.398  0.00  0.00     0.053 C 
ATOM      9  C   UNL d   1       2.589   1.672   3.329  0.00  0.00     0.018 C 
ENDBRANCH   1   8
TORSDOF 1
ENDMDL
