MODEL 1
REMARK minimizedAffinity -4.03592491
REMARK minimizedRMSD -1
REMARK  0 active torsions:
REMARK  status: ('A' for Active; 'I' for Inactive)
ROOT
ATOM      1  C   UNL d   1       0.195   0.063  -0.622  0.00  0.00     0.172 C 
ATOM      2  N   UNL d   1      -0.203   0.442   0.713  0.00  0.00    -0.070 N 
ATOM      3  C1  UNL d   1       0.645   0.798   1.728  0.00  0.00    -0.004 A 
ATOM      4  C2  UNL d   1      -0.121   1.087   2.836  0.00  0.00    -0.047 A 
ATOM      5  C3  UNL d   1      -1.476   0.897   2.476  0.00  0.00    -0.047 A 
ATOM      6  C4  UNL d   1      -1.498   0.498   1.156  0.00  0.00    -0.004 A 
ENDROOT
TORSDOF 0
ENDMDL
