MODEL 1
REMARK minimizedAffinity -1.60548115
REMARK minimizedRMSD -1
REMARK  0 active torsions:
REMARK  status: ('A' for Active; 'I' for Inactive)
ROOT
ATOM      1  C   UNL d   1      -0.211  -0.786  -0.236  0.00  0.00     0.172 C 
ATOM      2  N   UNL d   1      -0.882  -0.040   0.803  0.00  0.00    -0.070 N 
ATOM      3  C1  UNL d   1      -1.808   0.949   0.605  0.00  0.00    -0.004 A 
ATOM      4  C2  UNL d   1      -2.206   1.407   1.843  0.00  0.00    -0.047 A 
ATOM      5  C3  UNL d   1      -1.494   0.669   2.817  0.00  0.00    -0.047 A 
ATOM      6  C4  UNL d   1      -0.681  -0.220   2.146  0.00  0.00    -0.004 A 
ENDROOT
TORSDOF 0
ENDMDL
