MODEL 1
REMARK minimizedAffinity -1.75340676
REMARK minimizedRMSD -1
REMARK  0 active torsions:
REMARK  status: ('A' for Active; 'I' for Inactive)
ROOT
ATOM      1  C   UNL d   1      -2.440   0.368   0.798  0.00  0.00     0.172 C 
ATOM      2  N   UNL d   1      -1.144   0.198   0.185  0.00  0.00    -0.070 N 
ATOM      3  C1  UNL d   1      -0.333   1.208  -0.261  0.00  0.00    -0.004 A 
ATOM      4  C2  UNL d   1       0.809   0.635  -0.778  0.00  0.00    -0.047 A 
ATOM      5  C3  UNL d   1       0.680  -0.767  -0.638  0.00  0.00    -0.047 A 
ATOM      6  C4  UNL d   1      -0.538  -1.010  -0.039  0.00  0.00    -0.004 A 
ENDROOT
TORSDOF 0
ENDMDL
