MODEL 1
REMARK minimizedAffinity -1.1019479
REMARK minimizedRMSD -1
REMARK  0 active torsions:
REMARK  status: ('A' for Active; 'I' for Inactive)
ROOT
ATOM      1  C   UNL d   1       1.605  -0.251   1.585  0.00  0.00    -0.002 A 
ATOM      2  C1  UNL d   1       2.372  -0.998   0.703  0.00  0.00     0.010 A 
ATOM      3  C2  UNL d   1       2.019  -1.090  -0.644  0.00  0.00     0.041 A 
ATOM      4  C3  UNL d   1       0.871  -0.409  -1.096  0.00  0.00    -0.075 A 
ATOM      5  S   UNL d   1       0.246  -0.377  -2.702  0.00  0.00     0.015 SA
ATOM      6  C4  UNL d   1      -1.054   0.631  -2.256  0.00  0.00     0.022 A 
ATOM      7  C5  UNL d   1      -1.028   0.944  -0.918  0.00  0.00     0.026 A 
ATOM      8  C6  UNL d   1       0.082   0.350  -0.227  0.00  0.00    -0.082 A 
ATOM      9  C7  UNL d   1       0.466   0.423   1.134  0.00  0.00     0.045 A 
ENDROOT
TORSDOF 0
ENDMDL
