MODEL 1
REMARK minimizedAffinity 0.279592067
REMARK minimizedRMSD -1
REMARK  0 active torsions:
REMARK  status: ('A' for Active; 'I' for Inactive)
ROOT
ATOM      1  C   UNL d   1       1.505  -0.290   1.271  0.00  0.00    -0.002 A 
ATOM      2  C1  UNL d   1       2.150  -1.052   0.306  0.00  0.00     0.010 A 
ATOM      3  C2  UNL d   1       1.721  -1.028  -1.022  0.00  0.00     0.041 A 
ATOM      4  C3  UNL d   1       0.623  -0.216  -1.369  0.00  0.00    -0.075 A 
ATOM      5  S   UNL d   1      -0.077  -0.027  -2.933  0.00  0.00     0.015 SA
ATOM      6  C4  UNL d   1      -1.249   1.069  -2.358  0.00  0.00     0.022 A 
ATOM      7  C5  UNL d   1      -1.123   1.297  -1.008  0.00  0.00     0.026 A 
ATOM      8  C6  UNL d   1      -0.042   0.561  -0.416  0.00  0.00    -0.082 A 
ATOM      9  C7  UNL d   1       0.416   0.514   0.923  0.00  0.00     0.045 A 
ENDROOT
TORSDOF 0
ENDMDL
