MODEL 1
REMARK minimizedAffinity -1.33186114
REMARK minimizedRMSD -1
REMARK  0 active torsions:
REMARK  status: ('A' for Active; 'I' for Inactive)
ROOT
ATOM      1  C   UNL d   1       0.160   0.380  -1.047  0.00  0.00    -0.002 A 
ATOM      2  C1  UNL d   1      -1.173   0.090  -0.792  0.00  0.00     0.010 A 
ATOM      3  C2  UNL d   1      -1.541  -0.605   0.361  0.00  0.00     0.041 A 
ATOM      4  C3  UNL d   1      -0.538  -1.008   1.264  0.00  0.00    -0.075 A 
ATOM      5  S   UNL d   1      -0.753  -1.869   2.741  0.00  0.00     0.015 SA
ATOM      6  C4  UNL d   1       0.919  -1.873   3.070  0.00  0.00     0.022 A 
ATOM      7  C5  UNL d   1       1.639  -1.237   2.087  0.00  0.00     0.026 A 
ATOM      8  C6  UNL d   1       0.811  -0.727   1.030  0.00  0.00    -0.082 A 
ATOM      9  C7  UNL d   1       1.153  -0.021  -0.149  0.00  0.00     0.045 A 
ENDROOT
TORSDOF 0
ENDMDL
