MODEL 1
REMARK minimizedAffinity 3.15493345
REMARK minimizedRMSD -1
REMARK  0 active torsions:
REMARK  status: ('A' for Active; 'I' for Inactive)
ROOT
ATOM      1  C   UNL d   1       1.971  -0.996   3.119  0.00  0.00    -0.002 A 
ATOM      2  C1  UNL d   1       0.607  -0.758   3.031  0.00  0.00     0.010 A 
ATOM      3  C2  UNL d   1      -0.039  -0.772   1.793  0.00  0.00     0.041 A 
ATOM      4  C3  UNL d   1       0.717  -1.034   0.633  0.00  0.00    -0.075 A 
ATOM      5  S   UNL d   1       0.140  -1.103  -0.990  0.00  0.00     0.015 SA
ATOM      6  C4  UNL d   1       1.691  -1.452  -1.605  0.00  0.00     0.022 A 
ATOM      7  C5  UNL d   1       2.637  -1.518  -0.610  0.00  0.00     0.026 A 
ATOM      8  C6  UNL d   1       2.092  -1.279   0.696  0.00  0.00    -0.082 A 
ATOM      9  C7  UNL d   1       2.717  -1.256   1.966  0.00  0.00     0.045 A 
ENDROOT
TORSDOF 0
ENDMDL
