MODEL 1
REMARK minimizedAffinity -1.65135729
REMARK minimizedRMSD -1
REMARK  0 active torsions:
REMARK  status: ('A' for Active; 'I' for Inactive)
ROOT
ATOM      1  C   UNL d   1      -0.583  -1.421   2.802  0.00  0.00    -0.002 A 
ATOM      2  C1  UNL d   1      -1.648  -0.700   2.283  0.00  0.00     0.010 A 
ATOM      3  C2  UNL d   1      -1.624  -0.248   0.962  0.00  0.00     0.041 A 
ATOM      4  C3  UNL d   1      -0.501  -0.539   0.162  0.00  0.00    -0.075 A 
ATOM      5  S   UNL d   1      -0.252  -0.090  -1.483  0.00  0.00     0.015 SA
ATOM      6  C4  UNL d   1       1.274  -0.846  -1.537  0.00  0.00     0.022 A 
ATOM      7  C5  UNL d   1       1.602  -1.432  -0.337  0.00  0.00     0.026 A 
ATOM      8  C6  UNL d   1       0.584  -1.265   0.662  0.00  0.00    -0.082 A 
ATOM      9  C7  UNL d   1       0.530  -1.708   2.006  0.00  0.00     0.045 A 
ENDROOT
TORSDOF 0
ENDMDL
