MODEL 1
REMARK minimizedAffinity -3.00976515
REMARK minimizedRMSD -1
REMARK  2 active torsions:
REMARK  status: ('A' for Active; 'I' for Inactive)
REMARK    1  A    between atoms: C1_2  and  C2_3 
REMARK    2  A    between atoms: C2_3  and  C3_4 
ROOT
ATOM      1  C3  UNL d   1       5.325   1.690  -5.202  0.00  0.00    -0.075 A 
ATOM      2  C4  UNL d   1       6.000   2.903  -5.002  0.00  0.00     0.002 A 
ATOM      3  C5  UNL d   1       5.373   4.117  -5.283  0.00  0.00     0.002 A 
ATOM      4  C6  UNL d   1       4.070   4.134  -5.777  0.00  0.00    -0.004 A 
ATOM      5  C7  UNL d   1       3.396   2.934  -5.995  0.00  0.00     0.002 A 
ATOM      6  C8  UNL d   1       4.020   1.718  -5.711  0.00  0.00     0.002 A 
ENDROOT
BRANCH   1   7
ATOM      7  C2  UNL d   1       5.988   0.374  -4.872  0.00  0.00     0.056 C 
BRANCH   7   8
ATOM      8  C1  UNL d   1       5.907  -0.011  -3.391  0.00  0.00     0.007 C 
ATOM      9  C   UNL d   1       6.000  -1.512  -3.155  0.00  0.00     0.009 C 
ENDBRANCH   7   8
ENDBRANCH   1   7
TORSDOF 2
ENDMDL
