MODEL 1
REMARK minimizedAffinity 1.68042743
REMARK minimizedRMSD -1
REMARK  2 active torsions:
REMARK  status: ('A' for Active; 'I' for Inactive)
REMARK    1  A    between atoms: C1_2  and  C2_3 
REMARK    2  A    between atoms: C2_3  and  C3_4 
ROOT
ATOM      1  C3  UNL d   1      -2.652   2.825   0.597  0.00  0.00    -0.075 A 
ATOM      2  C4  UNL d   1      -2.127   3.904  -0.129  0.00  0.00     0.002 A 
ATOM      3  C5  UNL d   1      -0.794   4.284   0.032  0.00  0.00     0.002 A 
ATOM      4  C6  UNL d   1       0.025   3.599   0.926  0.00  0.00    -0.004 A 
ATOM      5  C7  UNL d   1      -0.490   2.537   1.665  0.00  0.00     0.002 A 
ATOM      6  C8  UNL d   1      -1.822   2.151   1.503  0.00  0.00     0.002 A 
ENDROOT
BRANCH   1   7
ATOM      7  C2  UNL d   1      -4.086   2.390   0.406  0.00  0.00     0.056 C 
BRANCH   7   8
ATOM      8  C1  UNL d   1      -4.382   0.976   0.917  0.00  0.00     0.007 C 
ATOM      9  C   UNL d   1      -5.867   0.710   1.120  0.00  0.00     0.009 C 
ENDBRANCH   7   8
ENDBRANCH   1   7
TORSDOF 2
ENDMDL
