MODEL 1
REMARK minimizedAffinity 9.34284306
REMARK minimizedRMSD -1
REMARK  2 active torsions:
REMARK  status: ('A' for Active; 'I' for Inactive)
REMARK    1  A    between atoms: C1_2  and  C2_3 
REMARK    2  A    between atoms: C2_3  and  C3_4 
ROOT
ATOM      1  C3  UNL d   1       5.168   0.989  -3.885  0.00  0.00    -0.075 A 
ATOM      2  C4  UNL d   1       4.514   1.981  -3.140  0.00  0.00     0.002 A 
ATOM      3  C5  UNL d   1       4.472   1.908  -1.747  0.00  0.00     0.002 A 
ATOM      4  C6  UNL d   1       5.072   0.840  -1.084  0.00  0.00    -0.004 A 
ATOM      5  C7  UNL d   1       5.710  -0.159  -1.815  0.00  0.00     0.002 A 
ATOM      6  C8  UNL d   1       5.758  -0.087  -3.208  0.00  0.00     0.002 A 
ENDROOT
BRANCH   1   7
ATOM      7  C2  UNL d   1       5.244   1.078  -5.391  0.00  0.00     0.056 C 
BRANCH   7   8
ATOM      8  C1  UNL d   1       4.352   2.166  -5.997  0.00  0.00     0.007 C 
ATOM      9  C   UNL d   1       5.002   3.544  -5.997  0.00  0.00     0.009 C 
ENDBRANCH   7   8
ENDBRANCH   1   7
TORSDOF 2
ENDMDL
