MODEL 1
REMARK minimizedAffinity 7.08147144
REMARK minimizedRMSD -1
REMARK  2 active torsions:
REMARK  status: ('A' for Active; 'I' for Inactive)
REMARK    1  A    between atoms: C1_2  and  C2_3 
REMARK    2  A    between atoms: C2_3  and  C3_4 
ROOT
ATOM      1  C3  UNL d   1      -2.420   3.730  -4.317  0.00  0.00    -0.075 A 
ATOM      2  C4  UNL d   1      -1.796   4.985  -4.341  0.00  0.00     0.002 A 
ATOM      3  C5  UNL d   1      -2.273   5.998  -5.174  0.00  0.00     0.002 A 
ATOM      4  C6  UNL d   1      -3.371   5.766  -5.998  0.00  0.00    -0.004 A 
ATOM      5  C7  UNL d   1      -3.989   4.517  -5.995  0.00  0.00     0.002 A 
ATOM      6  C8  UNL d   1      -3.516   3.503  -5.160  0.00  0.00     0.002 A 
ENDROOT
BRANCH   1   7
ATOM      7  C2  UNL d   1      -1.926   2.639  -3.397  0.00  0.00     0.056 C 
BRANCH   7   8
ATOM      8  C1  UNL d   1      -1.111   3.150  -2.205  0.00  0.00     0.007 C 
ATOM      9  C   UNL d   1      -1.792   4.288  -1.456  0.00  0.00     0.009 C 
ENDBRANCH   7   8
ENDBRANCH   1   7
TORSDOF 2
ENDMDL
