MODEL 1
REMARK minimizedAffinity 4.11343622
REMARK minimizedRMSD -1
REMARK  2 active torsions:
REMARK  status: ('A' for Active; 'I' for Inactive)
REMARK    1  A    between atoms: C1_2  and  C2_3 
REMARK    2  A    between atoms: C2_3  and  C3_4 
ROOT
ATOM      1  C3  UNL d   1       0.698   2.657   1.368  0.00  0.00    -0.075 A 
ATOM      2  C4  UNL d   1      -0.118   3.343   0.456  0.00  0.00     0.002 A 
ATOM      3  C5  UNL d   1      -1.503   3.363   0.621  0.00  0.00     0.002 A 
ATOM      4  C6  UNL d   1      -2.090   2.691   1.691  0.00  0.00    -0.004 A 
ATOM      5  C7  UNL d   1      -1.291   1.992   2.593  0.00  0.00     0.002 A 
ATOM      6  C8  UNL d   1       0.096   1.974   2.433  0.00  0.00     0.002 A 
ENDROOT
BRANCH   1   7
ATOM      7  C2  UNL d   1       2.200   2.655   1.212  0.00  0.00     0.056 C 
BRANCH   7   8
ATOM      8  C1  UNL d   1       2.903   1.515   1.955  0.00  0.00     0.007 C 
ATOM      9  C   UNL d   1       3.631   1.977   3.211  0.00  0.00     0.009 C 
ENDBRANCH   7   8
ENDBRANCH   1   7
TORSDOF 2
ENDMDL
