MODEL 1
REMARK minimizedAffinity 8.36415195
REMARK minimizedRMSD -1
REMARK  2 active torsions:
REMARK  status: ('A' for Active; 'I' for Inactive)
REMARK    1  A    between atoms: C1_2  and  C2_3 
REMARK    2  A    between atoms: C2_3  and  C3_4 
ROOT
ATOM      1  C3  UNL d   1      -1.596  -2.534   0.926  0.00  0.00    -0.075 A 
ATOM      2  C4  UNL d   1      -0.490  -1.759   0.548  0.00  0.00     0.002 A 
ATOM      3  C5  UNL d   1       0.079  -1.907  -0.718  0.00  0.00     0.002 A 
ATOM      4  C6  UNL d   1      -0.443  -2.835  -1.616  0.00  0.00    -0.004 A 
ATOM      5  C7  UNL d   1      -1.531  -3.622  -1.244  0.00  0.00     0.002 A 
ATOM      6  C8  UNL d   1      -2.105  -3.474   0.020  0.00  0.00     0.002 A 
ENDROOT
BRANCH   1   7
ATOM      7  C2  UNL d   1      -2.234  -2.359   2.283  0.00  0.00     0.056 C 
BRANCH   7   8
ATOM      8  C1  UNL d   1      -1.769  -3.380   3.327  0.00  0.00     0.007 C 
ATOM      9  C   UNL d   1      -2.644  -4.625   3.381  0.00  0.00     0.009 C 
ENDBRANCH   7   8
ENDBRANCH   1   7
TORSDOF 2
ENDMDL
