MODEL 1
REMARK minimizedAffinity 8.31080341
REMARK minimizedRMSD -1
REMARK  2 active torsions:
REMARK  status: ('A' for Active; 'I' for Inactive)
REMARK    1  A    between atoms: C1_2  and  C2_3 
REMARK    2  A    between atoms: C2_3  and  C3_4 
ROOT
ATOM      1  C3  UNL d   1      -1.014  -2.816  -0.765  0.00  0.00    -0.075 A 
ATOM      2  C4  UNL d   1      -0.193  -1.680  -0.807  0.00  0.00     0.002 A 
ATOM      3  C5  UNL d   1      -0.078  -0.847   0.306  0.00  0.00     0.002 A 
ATOM      4  C6  UNL d   1      -0.788  -1.133   1.470  0.00  0.00    -0.004 A 
ATOM      5  C7  UNL d   1      -1.620  -2.250   1.517  0.00  0.00     0.002 A 
ATOM      6  C8  UNL d   1      -1.733  -3.087   0.406  0.00  0.00     0.002 A 
ENDROOT
BRANCH   1   7
ATOM      7  C2  UNL d   1      -1.119  -3.737  -1.957  0.00  0.00     0.056 C 
BRANCH   7   8
ATOM      8  C1  UNL d   1      -1.667  -5.129  -1.623  0.00  0.00     0.007 C 
ATOM      9  C   UNL d   1      -2.565  -5.698  -2.714  0.00  0.00     0.009 C 
ENDBRANCH   7   8
ENDBRANCH   1   7
TORSDOF 2
ENDMDL
