MODEL 1
REMARK minimizedAffinity 14.2609262
REMARK minimizedRMSD -1
REMARK  2 active torsions:
REMARK  status: ('A' for Active; 'I' for Inactive)
REMARK    1  A    between atoms: C1_2  and  C2_3 
REMARK    2  A    between atoms: C2_3  and  C3_4 
ROOT
ATOM      1  C3  UNL d   1      -1.540   1.306   1.565  0.00  0.00    -0.075 A 
ATOM      2  C4  UNL d   1      -1.633   2.680   1.302  0.00  0.00     0.002 A 
ATOM      3  C5  UNL d   1      -0.489   3.426   1.021  0.00  0.00     0.002 A 
ATOM      4  C6  UNL d   1       0.762   2.812   1.009  0.00  0.00    -0.004 A 
ATOM      5  C7  UNL d   1       0.868   1.451   1.285  0.00  0.00     0.002 A 
ATOM      6  C8  UNL d   1      -0.277   0.701   1.563  0.00  0.00     0.002 A 
ENDROOT
BRANCH   1   7
ATOM      7  C2  UNL d   1      -2.779   0.487   1.841  0.00  0.00     0.056 C 
BRANCH   7   8
ATOM      8  C1  UNL d   1      -4.010   0.929   1.043  0.00  0.00     0.007 C 
ATOM      9  C   UNL d   1      -5.092  -0.139   0.967  0.00  0.00     0.009 C 
ENDBRANCH   7   8
ENDBRANCH   1   7
TORSDOF 2
ENDMDL
