MODEL 1
REMARK minimizedAffinity 7.1506114
REMARK minimizedRMSD -1
REMARK  2 active torsions:
REMARK  status: ('A' for Active; 'I' for Inactive)
REMARK    1  A    between atoms: C1_2  and  C2_3 
REMARK    2  A    between atoms: C2_3  and  C3_4 
ROOT
ATOM      1  C3  UNL d   1      -1.241   2.463   2.303  0.00  0.00    -0.075 A 
ATOM      2  C4  UNL d   1      -2.285   3.210   1.738  0.00  0.00     0.002 A 
ATOM      3  C5  UNL d   1      -2.157   3.750   0.458  0.00  0.00     0.002 A 
ATOM      4  C6  UNL d   1      -0.984   3.559  -0.268  0.00  0.00    -0.004 A 
ATOM      5  C7  UNL d   1       0.066   2.832   0.290  0.00  0.00     0.002 A 
ATOM      6  C8  UNL d   1      -0.061   2.288   1.569  0.00  0.00     0.002 A 
ENDROOT
BRANCH   1   7
ATOM      7  C2  UNL d   1      -1.384   1.852   3.677  0.00  0.00     0.056 C 
BRANCH   7   8
ATOM      8  C1  UNL d   1      -2.160   0.530   3.693  0.00  0.00     0.007 C 
ATOM      9  C   UNL d   1      -1.586  -0.515   2.746  0.00  0.00     0.009 C 
ENDBRANCH   7   8
ENDBRANCH   1   7
TORSDOF 2
ENDMDL
