MODEL 1
REMARK minimizedAffinity 8.64229393
REMARK minimizedRMSD -1
REMARK  2 active torsions:
REMARK  status: ('A' for Active; 'I' for Inactive)
REMARK    1  A    between atoms: C1_2  and  C2_3 
REMARK    2  A    between atoms: C2_3  and  C3_4 
ROOT
ATOM      1  C3  UNL d   1       1.659  -4.819  -3.604  0.00  0.00    -0.075 A 
ATOM      2  C4  UNL d   1       2.728  -5.726  -3.624  0.00  0.00     0.002 A 
ATOM      3  C5  UNL d   1       3.404  -6.000  -4.813  0.00  0.00     0.002 A 
ATOM      4  C6  UNL d   1       3.013  -5.379  -5.998  0.00  0.00    -0.004 A 
ATOM      5  C7  UNL d   1       1.942  -4.489  -5.994  0.00  0.00     0.002 A 
ATOM      6  C8  UNL d   1       1.267  -4.210  -4.804  0.00  0.00     0.002 A 
ENDROOT
BRANCH   1   7
ATOM      7  C2  UNL d   1       0.943  -4.496  -2.314  0.00  0.00     0.056 C 
BRANCH   7   8
ATOM      8  C1  UNL d   1      -0.367  -3.724  -2.505  0.00  0.00     0.007 C 
ATOM      9  C   UNL d   1      -1.071  -3.404  -1.193  0.00  0.00     0.009 C 
ENDBRANCH   7   8
ENDBRANCH   1   7
TORSDOF 2
ENDMDL
