MODEL 1
REMARK minimizedAffinity 4.38225222
REMARK minimizedRMSD -1
REMARK  2 active torsions:
REMARK  status: ('A' for Active; 'I' for Inactive)
REMARK    1  A    between atoms: C1_2  and  C2_3 
REMARK    2  A    between atoms: C2_3  and  C3_4 
ROOT
ATOM      1  C3  UNL d   1       5.692   2.489  -5.207  0.00  0.00    -0.075 A 
ATOM      2  C4  UNL d   1       5.337   2.290  -3.865  0.00  0.00     0.002 A 
ATOM      3  C5  UNL d   1       5.309   1.005  -3.323  0.00  0.00     0.002 A 
ATOM      4  C6  UNL d   1       5.625  -0.096  -4.115  0.00  0.00    -0.004 A 
ATOM      5  C7  UNL d   1       5.963   0.088  -5.454  0.00  0.00     0.002 A 
ATOM      6  C8  UNL d   1       5.996   1.373  -5.999  0.00  0.00     0.002 A 
ENDROOT
BRANCH   1   7
ATOM      7  C2  UNL d   1       5.752   3.880  -5.793  0.00  0.00     0.056 C 
BRANCH   7   8
ATOM      8  C1  UNL d   1       4.490   4.714  -5.550  0.00  0.00     0.007 C 
ATOM      9  C   UNL d   1       3.213   4.015  -6.000  0.00  0.00     0.009 C 
ENDBRANCH   7   8
ENDBRANCH   1   7
TORSDOF 2
ENDMDL
