MODEL 1
REMARK minimizedAffinity 6.16550446
REMARK minimizedRMSD -1
REMARK  2 active torsions:
REMARK  status: ('A' for Active; 'I' for Inactive)
REMARK    1  A    between atoms: C1_2  and  C2_3 
REMARK    2  A    between atoms: C2_3  and  C3_4 
ROOT
ATOM      1  C3  UNL d   1      -3.481   1.872   0.953  0.00  0.00    -0.075 A 
ATOM      2  C4  UNL d   1      -3.919   2.814   0.011  0.00  0.00     0.002 A 
ATOM      3  C5  UNL d   1      -5.171   2.686  -0.591  0.00  0.00     0.002 A 
ATOM      4  C6  UNL d   1      -5.996   1.611  -0.267  0.00  0.00    -0.004 A 
ATOM      5  C7  UNL d   1      -5.565   0.660   0.655  0.00  0.00     0.002 A 
ATOM      6  C8  UNL d   1      -4.314   0.788   1.262  0.00  0.00     0.002 A 
ENDROOT
BRANCH   1   7
ATOM      7  C2  UNL d   1      -2.140   2.021   1.629  0.00  0.00     0.056 C 
BRANCH   7   8
ATOM      8  C1  UNL d   1      -1.153   2.914   0.868  0.00  0.00     0.007 C 
ATOM      9  C   UNL d   1       0.294   2.458   1.000  0.00  0.00     0.009 C 
ENDBRANCH   7   8
ENDBRANCH   1   7
TORSDOF 2
ENDMDL
