MODEL 1
REMARK minimizedAffinity 12.1117811
REMARK minimizedRMSD -1
REMARK  3 active torsions:
REMARK  status: ('A' for Active; 'I' for Inactive)
REMARK    1  A    between atoms: C3'_2  and  C2'_3 
REMARK    2  A    between atoms: C2'_3  and  C1'_4 
REMARK    3  A    between atoms: C1'_4  and  C1_5 
ROOT
ATOM      1  C1  N4B d   1       3.441   1.177  -1.594  0.00  0.00    -0.075 A 
ATOM      2  C2  N4B d   1       2.823   0.732  -0.405  0.00  0.00     0.002 A 
ATOM      3  C3  N4B d   1       2.289  -0.532  -0.339  0.00  0.00     0.002 A 
ATOM      4  C4  N4B d   1       2.345  -1.358  -1.452  0.00  0.00    -0.004 A 
ATOM      5  C5  N4B d   1       2.966  -0.930  -2.588  0.00  0.00     0.002 A 
ATOM      6  C6  N4B d   1       3.510   0.336  -2.667  0.00  0.00     0.002 A 
ENDROOT
BRANCH   1   7
ATOM      7  C1' N4B d   1       3.962   2.580  -1.741  0.00  0.00     0.057 C 
BRANCH   7   8
ATOM      8  C2' N4B d   1       5.482   2.565  -1.612  0.00  0.00     0.009 C 
BRANCH   8   9
ATOM      9  C3' N4B d   1       6.000   3.773  -0.850  0.00  0.00     0.004 C 
ATOM     10  C4' N4B d   1       5.744   5.066  -1.566  0.00  0.00     0.003 C 
ENDBRANCH   8   9
ENDBRANCH   7   8
ENDBRANCH   1   7
TORSDOF 3
ENDMDL
