MODEL 1
REMARK minimizedAffinity 9.15232658
REMARK minimizedRMSD -1
REMARK  3 active torsions:
REMARK  status: ('A' for Active; 'I' for Inactive)
REMARK    1  A    between atoms: C3'_2  and  C2'_3 
REMARK    2  A    between atoms: C2'_3  and  C1'_4 
REMARK    3  A    between atoms: C1'_4  and  C1_5 
ROOT
ATOM      1  C1  N4B d   1       1.170   0.073  -0.729  0.00  0.00    -0.075 A 
ATOM      2  C2  N4B d   1       1.836   0.798   0.284  0.00  0.00     0.002 A 
ATOM      3  C3  N4B d   1       1.578   2.136   0.454  0.00  0.00     0.002 A 
ATOM      4  C4  N4B d   1       0.676   2.773  -0.386  0.00  0.00    -0.004 A 
ATOM      5  C5  N4B d   1       0.018   2.060  -1.345  0.00  0.00     0.002 A 
ATOM      6  C6  N4B d   1       0.264   0.714  -1.524  0.00  0.00     0.002 A 
ENDROOT
BRANCH   1   7
ATOM      7  C1' N4B d   1       1.482  -1.371  -1.009  0.00  0.00     0.057 C 
BRANCH   7   8
ATOM      8  C2' N4B d   1       2.818  -1.729  -0.363  0.00  0.00     0.009 C 
BRANCH   8   9
ATOM      9  C3' N4B d   1       2.657  -2.118   1.097  0.00  0.00     0.004 C 
ATOM     10  C4' N4B d   1       3.896  -1.869   1.904  0.00  0.00     0.003 C 
ENDBRANCH   8   9
ENDBRANCH   7   8
ENDBRANCH   1   7
TORSDOF 3
ENDMDL
