MODEL 1
REMARK minimizedAffinity 3.32818413
REMARK minimizedRMSD -1
REMARK  3 active torsions:
REMARK  status: ('A' for Active; 'I' for Inactive)
REMARK    1  A    between atoms: C3'_2  and  C2'_3 
REMARK    2  A    between atoms: C2'_3  and  C1'_4 
REMARK    3  A    between atoms: C1'_4  and  C1_5 
ROOT
ATOM      1  C1  N4B d   1       2.438  -1.163  -0.166  0.00  0.00    -0.075 A 
ATOM      2  C2  N4B d   1       1.885   0.133  -0.251  0.00  0.00     0.002 A 
ATOM      3  C3  N4B d   1       2.000   0.999   0.809  0.00  0.00     0.002 A 
ATOM      4  C4  N4B d   1       2.644   0.586   1.965  0.00  0.00    -0.004 A 
ATOM      5  C5  N4B d   1       3.198  -0.659   2.029  0.00  0.00     0.002 A 
ATOM      6  C6  N4B d   1       3.094  -1.538   0.971  0.00  0.00     0.002 A 
ENDROOT
BRANCH   1   7
ATOM      7  C1' N4B d   1       2.263  -2.175  -1.266  0.00  0.00     0.057 C 
BRANCH   7   8
ATOM      8  C2' N4B d   1       0.774  -2.386  -1.520  0.00  0.00     0.009 C 
BRANCH   8   9
ATOM      9  C3' N4B d   1       0.242  -3.611  -0.796  0.00  0.00     0.004 C 
ATOM     10  C4' N4B d   1      -1.164  -3.954  -1.192  0.00  0.00     0.003 C 
ENDBRANCH   8   9
ENDBRANCH   7   8
ENDBRANCH   1   7
TORSDOF 3
ENDMDL
