MODEL 1
REMARK minimizedAffinity -3.03496003
REMARK minimizedRMSD -1
REMARK  0 active torsions:
REMARK  status: ('A' for Active; 'I' for Inactive)
ROOT
ATOM      1  C   UNL d   1      -0.899  -1.166   2.320  0.00  0.00     0.124 A 
ATOM      2  C1  UNL d   1      -1.450  -0.384   1.314  0.00  0.00     0.062 A 
ATOM      3  C2  UNL d   1      -0.854  -0.340   0.057  0.00  0.00     0.162 A 
ATOM      4  C3  UNL d   1       0.300  -1.081  -0.202  0.00  0.00    -0.034 A 
ATOM      5  C4  UNL d   1       0.848  -1.864   0.816  0.00  0.00     0.162 A 
ATOM      6  C5  UNL d   1       0.248  -1.905   2.071  0.00  0.00     0.062 A 
ATOM      7  F   UNL d   1       0.781  -2.660   3.042  0.00  0.00    -0.097 F 
ATOM      8  F1  UNL d   1       1.956  -2.589   0.601  0.00  0.00    -0.096 F 
ATOM      9  I   UNL d   1       1.194  -1.018  -2.080  0.00  0.00    -0.060 I 
ATOM     10  F2  UNL d   1      -1.407   0.424  -0.897  0.00  0.00    -0.096 F 
ATOM     11  F3  UNL d   1      -2.558   0.332   1.553  0.00  0.00    -0.097 F 
ATOM     12  F4  UNL d   1      -1.474  -1.205   3.529  0.00  0.00    -0.092 F 
ENDROOT
TORSDOF 0
ENDMDL
