MODEL 1
REMARK minimizedAffinity 0.722719848
REMARK minimizedRMSD -1
REMARK  0 active torsions:
REMARK  status: ('A' for Active; 'I' for Inactive)
ROOT
ATOM      1  C   UNL d   1      -2.171  -0.079   1.926  0.00  0.00     0.124 A 
ATOM      2  C1  UNL d   1      -1.252   0.073   0.897  0.00  0.00     0.062 A 
ATOM      3  C2  UNL d   1      -0.196  -0.823   0.763  0.00  0.00     0.162 A 
ATOM      4  C3  UNL d   1      -0.053  -1.881   1.661  0.00  0.00    -0.034 A 
ATOM      5  C4  UNL d   1      -0.980  -2.027   2.694  0.00  0.00     0.162 A 
ATOM      6  C5  UNL d   1      -2.034  -1.129   2.824  0.00  0.00     0.062 A 
ATOM      7  F   UNL d   1      -2.920  -1.277   3.819  0.00  0.00    -0.097 F 
ATOM      8  F1  UNL d   1      -0.872  -3.033   3.575  0.00  0.00    -0.096 F 
ATOM      9  I   UNL d   1       1.525  -3.224   1.465  0.00  0.00    -0.060 I 
ATOM     10  F2  UNL d   1       0.677  -0.652  -0.241  0.00  0.00    -0.096 F 
ATOM     11  F3  UNL d   1      -1.381   1.087   0.029  0.00  0.00    -0.097 F 
ATOM     12  F4  UNL d   1      -3.185   0.786   2.053  0.00  0.00    -0.092 F 
ENDROOT
TORSDOF 0
ENDMDL
