MODEL 1
REMARK minimizedAffinity 7.65155506
REMARK minimizedRMSD -1
REMARK  0 active torsions:
REMARK  status: ('A' for Active; 'I' for Inactive)
ROOT
ATOM      1  C   UNL d   1      -1.682  -0.234  -1.021  0.00  0.00     0.124 A 
ATOM      2  C1  UNL d   1      -2.512  -0.597   0.030  0.00  0.00     0.062 A 
ATOM      3  C2  UNL d   1      -1.988  -1.246   1.144  0.00  0.00     0.162 A 
ATOM      4  C3  UNL d   1      -0.625  -1.536   1.214  0.00  0.00    -0.034 A 
ATOM      5  C4  UNL d   1       0.204  -1.168   0.152  0.00  0.00     0.162 A 
ATOM      6  C5  UNL d   1      -0.325  -0.519  -0.959  0.00  0.00     0.062 A 
ATOM      7  F   UNL d   1       0.479  -0.169  -1.973  0.00  0.00    -0.097 F 
ATOM      8  F1  UNL d   1       1.519  -1.431   0.187  0.00  0.00    -0.096 F 
ATOM      9  I   UNL d   1       0.162  -2.506   2.878  0.00  0.00    -0.060 I 
ATOM     10  F2  UNL d   1      -2.814  -1.586   2.145  0.00  0.00    -0.096 F 
ATOM     11  F3  UNL d   1      -3.823  -0.323  -0.028  0.00  0.00    -0.097 F 
ATOM     12  F4  UNL d   1      -2.189   0.390  -2.092  0.00  0.00    -0.092 F 
ENDROOT
TORSDOF 0
ENDMDL
