MODEL 1
REMARK minimizedAffinity 8.95768738
REMARK minimizedRMSD -1
REMARK  0 active torsions:
REMARK  status: ('A' for Active; 'I' for Inactive)
ROOT
ATOM      1  C   UNL d   1       1.886  -0.990  -0.945  0.00  0.00     0.124 A 
ATOM      2  C1  UNL d   1       2.966  -0.233  -0.512  0.00  0.00     0.062 A 
ATOM      3  C2  UNL d   1       2.784   0.768   0.437  0.00  0.00     0.162 A 
ATOM      4  C3  UNL d   1       1.515   1.018   0.962  0.00  0.00    -0.034 A 
ATOM      5  C4  UNL d   1       0.434   0.253   0.521  0.00  0.00     0.162 A 
ATOM      6  C5  UNL d   1       0.622  -0.746  -0.428  0.00  0.00     0.062 A 
ATOM      7  F   UNL d   1      -0.423  -1.476  -0.845  0.00  0.00    -0.097 F 
ATOM      8  F1  UNL d   1      -0.799   0.467   1.004  0.00  0.00    -0.096 F 
ATOM      9  I   UNL d   1       1.238   2.514   2.382  0.00  0.00    -0.060 I 
ATOM     10  F2  UNL d   1       3.845   1.484   0.837  0.00  0.00    -0.096 F 
ATOM     11  F3  UNL d   1       4.189  -0.466  -1.010  0.00  0.00    -0.097 F 
ATOM     12  F4  UNL d   1       2.065  -1.952  -1.859  0.00  0.00    -0.092 F 
ENDROOT
TORSDOF 0
ENDMDL
