MODEL 1
REMARK minimizedAffinity 5.72705412
REMARK minimizedRMSD -1
REMARK  0 active torsions:
REMARK  status: ('A' for Active; 'I' for Inactive)
ROOT
ATOM      1  C   UNL d   1      -1.751  -1.269   3.265  0.00  0.00     0.124 A 
ATOM      2  C1  UNL d   1      -2.531  -0.122   3.309  0.00  0.00     0.062 A 
ATOM      3  C2  UNL d   1      -2.545   0.757   2.229  0.00  0.00     0.162 A 
ATOM      4  C3  UNL d   1      -1.777   0.490   1.095  0.00  0.00    -0.034 A 
ATOM      5  C4  UNL d   1      -0.995  -0.665   1.059  0.00  0.00     0.162 A 
ATOM      6  C5  UNL d   1      -0.984  -1.540   2.141  0.00  0.00     0.062 A 
ATOM      7  F   UNL d   1      -0.230  -2.648   2.096  0.00  0.00    -0.097 F 
ATOM      8  F1  UNL d   1      -0.245  -0.952  -0.016  0.00  0.00    -0.096 F 
ATOM      9  I   UNL d   1      -1.796   1.801  -0.521  0.00  0.00    -0.060 I 
ATOM     10  F2  UNL d   1      -3.308   1.858   2.299  0.00  0.00    -0.096 F 
ATOM     11  F3  UNL d   1      -3.272   0.143   4.395  0.00  0.00    -0.097 F 
ATOM     12  F4  UNL d   1      -1.738  -2.112   4.306  0.00  0.00    -0.092 F 
ENDROOT
TORSDOF 0
ENDMDL
