MODEL 1
REMARK minimizedAffinity -0.734804213
REMARK minimizedRMSD -1
REMARK  0 active torsions:
REMARK  status: ('A' for Active; 'I' for Inactive)
ROOT
ATOM      1  C   UNL d   1       2.698  -0.206  -1.229  0.00  0.00     0.124 A 
ATOM      2  C1  UNL d   1       2.399   0.435  -0.034  0.00  0.00     0.062 A 
ATOM      3  C2  UNL d   1       1.112   0.372   0.491  0.00  0.00     0.162 A 
ATOM      4  C3  UNL d   1       0.113  -0.335  -0.178  0.00  0.00    -0.034 A 
ATOM      5  C4  UNL d   1       0.421  -0.976  -1.380  0.00  0.00     0.162 A 
ATOM      6  C5  UNL d   1       1.709  -0.911  -1.900  0.00  0.00     0.062 A 
ATOM      7  F   UNL d   1       1.996  -1.530  -3.054  0.00  0.00    -0.097 F 
ATOM      8  F1  UNL d   1      -0.516  -1.665  -2.049  0.00  0.00    -0.096 F 
ATOM      9  I   UNL d   1      -1.814  -0.431   0.603  0.00  0.00    -0.060 I 
ATOM     10  F2  UNL d   1       0.851   1.001   1.647  0.00  0.00    -0.096 F 
ATOM     11  F3  UNL d   1       3.353   1.117   0.616  0.00  0.00    -0.097 F 
ATOM     12  F4  UNL d   1       3.938  -0.144  -1.732  0.00  0.00    -0.092 F 
ENDROOT
TORSDOF 0
ENDMDL
