MODEL 1
REMARK minimizedAffinity 0.00677257217
REMARK minimizedRMSD -1
REMARK  2 active torsions:
REMARK  status: ('A' for Active; 'I' for Inactive)
REMARK    1  A    between atoms: C1_2  and  C2_3 
REMARK    2  A    between atoms: C2_3  and  C3_4 
ROOT
ATOM      1  C3  UNL d   1       3.969  -4.093   2.243  0.00  0.00    -0.075 A 
ATOM      2  C4  UNL d   1       4.711  -4.501   1.124  0.00  0.00     0.002 A 
ATOM      3  C5  UNL d   1       4.221  -4.293  -0.165  0.00  0.00     0.002 A 
ATOM      4  C6  UNL d   1       2.982  -3.684  -0.353  0.00  0.00    -0.004 A 
ATOM      5  C7  UNL d   1       2.229  -3.290   0.751  0.00  0.00     0.002 A 
ATOM      6  C8  UNL d   1       2.719  -3.493   2.042  0.00  0.00     0.002 A 
ENDROOT
BRANCH   1   7
ATOM      7  C2  UNL d   1       4.507  -4.289   3.640  0.00  0.00     0.056 C 
BRANCH   7   8
ATOM      8  C1  UNL d   1       4.566  -3.004   4.472  0.00  0.00     0.007 C 
ATOM      9  C   UNL d   1       5.983  -2.604   4.859  0.00  0.00     0.009 C 
ENDBRANCH   7   8
ENDBRANCH   1   7
TORSDOF 2
ENDMDL
