MODEL 1
REMARK minimizedAffinity 7.05322361
REMARK minimizedRMSD -1
REMARK  2 active torsions:
REMARK  status: ('A' for Active; 'I' for Inactive)
REMARK    1  A    between atoms: C1_2  and  C2_3 
REMARK    2  A    between atoms: C2_3  and  C3_4 
ROOT
ATOM      1  C3  UNL d   1       1.953   3.842  -5.928  0.00  0.00    -0.075 A 
ATOM      2  C4  UNL d   1       3.209   3.217  -5.920  0.00  0.00     0.002 A 
ATOM      3  C5  UNL d   1       4.378   3.978  -5.939  0.00  0.00     0.002 A 
ATOM      4  C6  UNL d   1       4.307   5.369  -5.975  0.00  0.00    -0.004 A 
ATOM      5  C7  UNL d   1       3.065   5.999  -6.000  0.00  0.00     0.002 A 
ATOM      6  C8  UNL d   1       1.893   5.241  -5.977  0.00  0.00     0.002 A 
ENDROOT
BRANCH   1   7
ATOM      7  C2  UNL d   1       0.684   3.025  -5.878  0.00  0.00     0.056 C 
BRANCH   7   8
ATOM      8  C1  UNL d   1      -0.397   3.606  -4.960  0.00  0.00     0.007 C 
ATOM      9  C   UNL d   1      -1.581   2.670  -4.758  0.00  0.00     0.009 C 
ENDBRANCH   7   8
ENDBRANCH   1   7
TORSDOF 2
ENDMDL
