MODEL 1
REMARK minimizedAffinity 3.7984333
REMARK minimizedRMSD -1
REMARK  2 active torsions:
REMARK  status: ('A' for Active; 'I' for Inactive)
REMARK    1  A    between atoms: C1_2  and  C2_3 
REMARK    2  A    between atoms: C2_3  and  C3_4 
ROOT
ATOM      1  C3  UNL d   1       4.517  -4.184   3.376  0.00  0.00    -0.075 A 
ATOM      2  C4  UNL d   1       4.904  -3.271   4.368  0.00  0.00     0.002 A 
ATOM      3  C5  UNL d   1       5.305  -3.721   5.626  0.00  0.00     0.002 A 
ATOM      4  C6  UNL d   1       5.313  -5.084   5.913  0.00  0.00    -0.004 A 
ATOM      5  C7  UNL d   1       4.915  -5.999   4.940  0.00  0.00     0.002 A 
ATOM      6  C8  UNL d   1       4.518  -5.552   3.679  0.00  0.00     0.002 A 
ENDROOT
BRANCH   1   7
ATOM      7  C2  UNL d   1       4.111  -3.706   2.002  0.00  0.00     0.056 C 
BRANCH   7   8
ATOM      8  C1  UNL d   1       2.673  -3.183   1.924  0.00  0.00     0.007 C 
ATOM      9  C   UNL d   1       2.355  -2.497   0.602  0.00  0.00     0.009 C 
ENDBRANCH   7   8
ENDBRANCH   1   7
TORSDOF 2
ENDMDL
