MODEL 1
REMARK minimizedAffinity 9.13405037
REMARK minimizedRMSD -1
REMARK  2 active torsions:
REMARK  status: ('A' for Active; 'I' for Inactive)
REMARK    1  A    between atoms: C1_2  and  C2_3 
REMARK    2  A    between atoms: C2_3  and  C3_4 
ROOT
ATOM      1  C3  UNL d   1       1.717   2.611  -5.671  0.00  0.00    -0.075 A 
ATOM      2  C4  UNL d   1       2.638   1.554  -5.697  0.00  0.00     0.002 A 
ATOM      3  C5  UNL d   1       4.002   1.807  -5.852  0.00  0.00     0.002 A 
ATOM      4  C6  UNL d   1       4.459   3.115  -5.994  0.00  0.00    -0.004 A 
ATOM      5  C7  UNL d   1       3.551   4.171  -5.986  0.00  0.00     0.002 A 
ATOM      6  C8  UNL d   1       2.187   3.922  -5.827  0.00  0.00     0.002 A 
ENDROOT
BRANCH   1   7
ATOM      7  C2  UNL d   1       0.243   2.346  -5.474  0.00  0.00     0.056 C 
BRANCH   7   8
ATOM      8  C1  UNL d   1      -0.303   2.834  -4.128  0.00  0.00     0.007 C 
ATOM      9  C   UNL d   1      -0.457   1.718  -3.103  0.00  0.00     0.009 C 
ENDBRANCH   7   8
ENDBRANCH   1   7
TORSDOF 2
ENDMDL
