MODEL 1
REMARK minimizedAffinity 6.57486534
REMARK minimizedRMSD -1
REMARK  2 active torsions:
REMARK  status: ('A' for Active; 'I' for Inactive)
REMARK    1  A    between atoms: C1_2  and  C2_3 
REMARK    2  A    between atoms: C2_3  and  C3_4 
ROOT
ATOM      1  C3  UNL d   1       4.204  -3.837   1.934  0.00  0.00    -0.075 A 
ATOM      2  C4  UNL d   1       3.459  -2.663   1.751  0.00  0.00     0.002 A 
ATOM      3  C5  UNL d   1       2.874  -2.381   0.516  0.00  0.00     0.002 A 
ATOM      4  C6  UNL d   1       3.034  -3.261  -0.551  0.00  0.00    -0.004 A 
ATOM      5  C7  UNL d   1       3.786  -4.423  -0.385  0.00  0.00     0.002 A 
ATOM      6  C8  UNL d   1       4.369  -4.710   0.850  0.00  0.00     0.002 A 
ENDROOT
BRANCH   1   7
ATOM      7  C2  UNL d   1       4.815  -4.163   3.276  0.00  0.00     0.056 C 
BRANCH   7   8
ATOM      8  C1  UNL d   1       4.980  -2.950   4.198  0.00  0.00     0.007 C 
ATOM      9  C   UNL d   1       5.240  -3.329   5.649  0.00  0.00     0.009 C 
ENDBRANCH   7   8
ENDBRANCH   1   7
TORSDOF 2
ENDMDL
