MODEL 1
REMARK minimizedAffinity 5.64297009
REMARK minimizedRMSD -1
REMARK  2 active torsions:
REMARK  status: ('A' for Active; 'I' for Inactive)
REMARK    1  A    between atoms: C1_2  and  C2_3 
REMARK    2  A    between atoms: C2_3  and  C3_4 
ROOT
ATOM      1  C3  UNL d   1      -4.088   2.298  -3.486  0.00  0.00    -0.075 A 
ATOM      2  C4  UNL d   1      -4.960   1.424  -4.151  0.00  0.00     0.002 A 
ATOM      3  C5  UNL d   1      -5.905   1.917  -5.051  0.00  0.00     0.002 A 
ATOM      4  C6  UNL d   1      -5.998   3.286  -5.289  0.00  0.00    -0.004 A 
ATOM      5  C7  UNL d   1      -5.147   4.165  -4.621  0.00  0.00     0.002 A 
ATOM      6  C8  UNL d   1      -4.197   3.674  -3.723  0.00  0.00     0.002 A 
ENDROOT
BRANCH   1   7
ATOM      7  C2  UNL d   1      -3.043   1.768  -2.533  0.00  0.00     0.056 C 
BRANCH   7   8
ATOM      8  C1  UNL d   1      -3.427   0.448  -1.857  0.00  0.00     0.007 C 
ATOM      9  C   UNL d   1      -2.231  -0.305  -1.288  0.00  0.00     0.009 C 
ENDBRANCH   7   8
ENDBRANCH   1   7
TORSDOF 2
ENDMDL
