MODEL 1
REMARK minimizedAffinity 0.0315792561
REMARK minimizedRMSD -1
REMARK  1 active torsions:
REMARK  status: ('A' for Active; 'I' for Inactive)
REMARK    1  A    between atoms: C1_2  and  C2_3 
ROOT
ATOM      1  C2  UNL d   1       2.433   1.253  -3.263  0.00  0.00    -0.076 A 
ATOM      2  C3  UNL d   1       3.361   1.367  -4.313  0.00  0.00     0.004 A 
ATOM      3  C4  UNL d   1       2.973   1.844  -5.564  0.00  0.00    -0.003 A 
ATOM      4  C5  UNL d   1       1.651   2.215  -5.786  0.00  0.00     0.000 A 
ATOM      5  C6  UNL d   1       0.721   2.124  -4.751  0.00  0.00     0.000 A 
ATOM      6  C7  UNL d   1       1.099   1.661  -3.479  0.00  0.00    -0.073 A 
ATOM      7  C8  UNL d   1       0.054   1.578  -2.400  0.00  0.00     0.078 C 
ENDROOT
BRANCH   1   8
ATOM      8  C1  UNL d   1       2.905   0.704  -1.936  0.00  0.00     0.053 C 
ATOM      9  C   UNL d   1       2.485  -0.742  -1.721  0.00  0.00     0.018 C 
ENDBRANCH   1   8
TORSDOF 1
ENDMDL
