MODEL 1
REMARK minimizedAffinity 7.51091862
REMARK minimizedRMSD -1
REMARK  1 active torsions:
REMARK  status: ('A' for Active; 'I' for Inactive)
REMARK    1  A    between atoms: C1_2  and  C2_3 
ROOT
ATOM      1  C2  UNL d   1       1.922   1.738  -3.815  0.00  0.00    -0.076 A 
ATOM      2  C3  UNL d   1       3.133   1.974  -3.141  0.00  0.00     0.004 A 
ATOM      3  C4  UNL d   1       4.266   2.404  -3.830  0.00  0.00    -0.003 A 
ATOM      4  C5  UNL d   1       4.205   2.606  -5.204  0.00  0.00     0.000 A 
ATOM      5  C6  UNL d   1       3.008   2.394  -5.886  0.00  0.00     0.000 A 
ATOM      6  C7  UNL d   1       1.853   1.975  -5.204  0.00  0.00    -0.073 A 
ATOM      7  C8  UNL d   1       0.589   1.756  -5.991  0.00  0.00     0.078 C 
ENDROOT
BRANCH   1   8
ATOM      8  C1  UNL d   1       0.735   1.245  -3.019  0.00  0.00     0.053 C 
ATOM      9  C   UNL d   1       1.037  -0.032  -2.251  0.00  0.00     0.018 C 
ENDBRANCH   1   8
TORSDOF 1
ENDMDL
