MODEL 1
REMARK minimizedAffinity 0.399607599
REMARK minimizedRMSD -1
REMARK  1 active torsions:
REMARK  status: ('A' for Active; 'I' for Inactive)
REMARK    1  A    between atoms: C1_2  and  C2_3 
ROOT
ATOM      1  C2  UNL d   1       1.391   1.344  -3.557  0.00  0.00    -0.076 A 
ATOM      2  C3  UNL d   1       2.527   1.651  -2.789  0.00  0.00     0.004 A 
ATOM      3  C4  UNL d   1       3.689   2.134  -3.388  0.00  0.00    -0.003 A 
ATOM      4  C5  UNL d   1       3.733   2.320  -4.766  0.00  0.00     0.000 A 
ATOM      5  C6  UNL d   1       2.608   2.037  -5.541  0.00  0.00     0.000 A 
ATOM      6  C7  UNL d   1       1.424   1.564  -4.950  0.00  0.00    -0.073 A 
ATOM      7  C8  UNL d   1       0.244   1.270  -5.835  0.00  0.00     0.078 C 
ENDROOT
BRANCH   1   8
ATOM      8  C1  UNL d   1       0.168   0.797  -2.854  0.00  0.00     0.053 C 
ATOM      9  C   UNL d   1       0.504  -0.339  -1.900  0.00  0.00     0.018 C 
ENDBRANCH   1   8
TORSDOF 1
ENDMDL
