MODEL 1
REMARK minimizedAffinity -0.323384255
REMARK minimizedRMSD -1
REMARK  1 active torsions:
REMARK  status: ('A' for Active; 'I' for Inactive)
REMARK    1  A    between atoms: C1_2  and  C2_3 
ROOT
ATOM      1  C2  UNL d   1       2.132   1.705  -4.081  0.00  0.00    -0.076 A 
ATOM      2  C3  UNL d   1       2.790   1.564  -2.847  0.00  0.00     0.004 A 
ATOM      3  C4  UNL d   1       2.244   0.785  -1.828  0.00  0.00    -0.003 A 
ATOM      4  C5  UNL d   1       1.031   0.134  -2.027  0.00  0.00     0.000 A 
ATOM      5  C6  UNL d   1       0.374   0.250  -3.252  0.00  0.00     0.000 A 
ATOM      6  C7  UNL d   1       0.919   1.018  -4.295  0.00  0.00    -0.073 A 
ATOM      7  C8  UNL d   1       0.164   1.112  -5.592  0.00  0.00     0.078 C 
ENDROOT
BRANCH   1   8
ATOM      8  C1  UNL d   1       2.759   2.585  -5.139  0.00  0.00     0.053 C 
ATOM      9  C   UNL d   1       3.767   1.836  -5.998  0.00  0.00     0.018 C 
ENDBRANCH   1   8
TORSDOF 1
ENDMDL
