MODEL 1
REMARK minimizedAffinity 0.191128373
REMARK minimizedRMSD -1
REMARK  1 active torsions:
REMARK  status: ('A' for Active; 'I' for Inactive)
REMARK    1  A    between atoms: C1_2  and  C2_3 
ROOT
ATOM      1  C2  UNL d   1       1.542   1.642  -3.553  0.00  0.00    -0.076 A 
ATOM      2  C3  UNL d   1       2.740   1.651  -2.817  0.00  0.00     0.004 A 
ATOM      3  C4  UNL d   1       3.968   1.841  -3.448  0.00  0.00    -0.003 A 
ATOM      4  C5  UNL d   1       4.018   2.025  -4.826  0.00  0.00     0.000 A 
ATOM      5  C6  UNL d   1       2.838   2.037  -5.569  0.00  0.00     0.000 A 
ATOM      6  C7  UNL d   1       1.591   1.863  -4.946  0.00  0.00    -0.073 A 
ATOM      7  C8  UNL d   1       0.351   1.879  -5.797  0.00  0.00     0.078 C 
ENDROOT
BRANCH   1   8
ATOM      8  C1  UNL d   1       0.242   1.405  -2.818  0.00  0.00     0.053 C 
ATOM      9  C   UNL d   1       0.251   0.108  -2.023  0.00  0.00     0.018 C 
ENDBRANCH   1   8
TORSDOF 1
ENDMDL
