MODEL 1
REMARK minimizedAffinity 0.158763945
REMARK minimizedRMSD -1
REMARK  1 active torsions:
REMARK  status: ('A' for Active; 'I' for Inactive)
REMARK    1  A    between atoms: C1_2  and  C2_3 
ROOT
ATOM      1  C2  UNL d   1       1.248   1.522  -3.051  0.00  0.00    -0.076 A 
ATOM      2  C3  UNL d   1       1.108   0.767  -1.873  0.00  0.00     0.004 A 
ATOM      3  C4  UNL d   1       2.188   0.069  -1.335  0.00  0.00    -0.003 A 
ATOM      4  C5  UNL d   1       3.426   0.116  -1.965  0.00  0.00     0.000 A 
ATOM      5  C6  UNL d   1       3.589   0.874  -3.124  0.00  0.00     0.000 A 
ATOM      6  C7  UNL d   1       2.514   1.596  -3.671  0.00  0.00    -0.073 A 
ATOM      7  C8  UNL d   1       2.744   2.392  -4.926  0.00  0.00     0.078 C 
ENDROOT
BRANCH   1   8
ATOM      8  C1  UNL d   1       0.035   2.235  -3.603  0.00  0.00     0.053 C 
ATOM      9  C   UNL d   1      -0.695   3.048  -2.545  0.00  0.00     0.018 C 
ENDBRANCH   1   8
TORSDOF 1
ENDMDL
