MODEL 1
REMARK minimizedAffinity 8.34334373
REMARK minimizedRMSD -1
REMARK  1 active torsions:
REMARK  status: ('A' for Active; 'I' for Inactive)
REMARK    1  A    between atoms: C1_2  and  C2_3 
ROOT
ATOM      1  C2  UNL d   1       3.578   5.434   0.436  0.00  0.00    -0.076 A 
ATOM      2  C3  UNL d   1       4.760   5.865  -0.192  0.00  0.00     0.004 A 
ATOM      3  C4  UNL d   1       5.946   5.998   0.527  0.00  0.00    -0.003 A 
ATOM      4  C5  UNL d   1       5.971   5.700   1.885  0.00  0.00     0.000 A 
ATOM      5  C6  UNL d   1       4.813   5.254   2.520  0.00  0.00     0.000 A 
ATOM      6  C7  UNL d   1       3.612   5.099   1.806  0.00  0.00    -0.073 A 
ATOM      7  C8  UNL d   1       2.391   4.620   2.543  0.00  0.00     0.078 C 
ENDROOT
BRANCH   1   8
ATOM      8  C1  UNL d   1       2.314   5.335  -0.389  0.00  0.00     0.053 C 
ATOM      9  C   UNL d   1       1.109   5.936   0.318  0.00  0.00     0.018 C 
ENDBRANCH   1   8
TORSDOF 1
ENDMDL
