MODEL 1
REMARK minimizedAffinity -0.567439616
REMARK minimizedRMSD -1
REMARK  1 active torsions:
REMARK  status: ('A' for Active; 'I' for Inactive)
REMARK    1  A    between atoms: C1_2  and  C2_3 
ROOT
ATOM      1  C2  UNL d   1       1.425   1.358  -3.057  0.00  0.00    -0.076 A 
ATOM      2  C3  UNL d   1       0.648   0.417  -2.360  0.00  0.00     0.004 A 
ATOM      3  C4  UNL d   1       1.242  -0.667  -1.716  0.00  0.00    -0.003 A 
ATOM      4  C5  UNL d   1       2.622  -0.827  -1.758  0.00  0.00     0.000 A 
ATOM      5  C6  UNL d   1       3.410   0.108  -2.429  0.00  0.00     0.000 A 
ATOM      6  C7  UNL d   1       2.829   1.215  -3.070  0.00  0.00    -0.073 A 
ATOM      7  C8  UNL d   1       3.725   2.188  -3.785  0.00  0.00     0.078 C 
ENDROOT
BRANCH   1   8
ATOM      8  C1  UNL d   1       0.723   2.499  -3.760  0.00  0.00     0.053 C 
ATOM      9  C   UNL d   1       0.208   3.552  -2.791  0.00  0.00     0.018 C 
ENDBRANCH   1   8
TORSDOF 1
ENDMDL
