MODEL 1
REMARK minimizedAffinity 5.91504812
REMARK minimizedRMSD -1
REMARK  1 active torsions:
REMARK  status: ('A' for Active; 'I' for Inactive)
REMARK    1  A    between atoms: C1_2  and  C2_3 
ROOT
ATOM      1  C2  UNL d   1       1.174   1.145  -4.306  0.00  0.00    -0.076 A 
ATOM      2  C3  UNL d   1       0.611   0.605  -3.137  0.00  0.00     0.004 A 
ATOM      3  C4  UNL d   1       1.326   0.581  -1.941  0.00  0.00    -0.003 A 
ATOM      4  C5  UNL d   1       2.616   1.098  -1.895  0.00  0.00     0.000 A 
ATOM      5  C6  UNL d   1       3.184   1.654  -3.041  0.00  0.00     0.000 A 
ATOM      6  C7  UNL d   1       2.470   1.700  -4.251  0.00  0.00    -0.073 A 
ATOM      7  C8  UNL d   1       3.133   2.306  -5.457  0.00  0.00     0.078 C 
ENDROOT
BRANCH   1   8
ATOM      8  C1  UNL d   1       0.361   1.119  -5.581  0.00  0.00     0.053 C 
ATOM      9  C   UNL d   1      -0.020  -0.293  -6.000  0.00  0.00     0.018 C 
ENDBRANCH   1   8
TORSDOF 1
ENDMDL
