MODEL 1
REMARK minimizedAffinity 5.18759489
REMARK minimizedRMSD -1
REMARK  1 active torsions:
REMARK  status: ('A' for Active; 'I' for Inactive)
REMARK    1  A    between atoms: C1_2  and  C2_3 
ROOT
ATOM      1  C2  UNL d   1       1.383   1.791  -3.570  0.00  0.00    -0.076 A 
ATOM      2  C3  UNL d   1       2.519   1.824  -2.742  0.00  0.00     0.004 A 
ATOM      3  C4  UNL d   1       3.795   1.975  -3.281  0.00  0.00    -0.003 A 
ATOM      4  C5  UNL d   1       3.957   2.097  -4.657  0.00  0.00     0.000 A 
ATOM      5  C6  UNL d   1       2.840   2.084  -5.491  0.00  0.00     0.000 A 
ATOM      6  C7  UNL d   1       1.545   1.949  -4.963  0.00  0.00    -0.073 A 
ATOM      7  C8  UNL d   1       0.376   1.936  -5.910  0.00  0.00     0.078 C 
ENDROOT
BRANCH   1   8
ATOM      8  C1  UNL d   1       0.026   1.598  -2.931  0.00  0.00     0.053 C 
ATOM      9  C   UNL d   1      -0.020   0.382  -2.018  0.00  0.00     0.018 C 
ENDBRANCH   1   8
TORSDOF 1
ENDMDL
