MODEL 1
REMARK minimizedAffinity 8.92195511
REMARK minimizedRMSD -1
REMARK  1 active torsions:
REMARK  status: ('A' for Active; 'I' for Inactive)
REMARK    1  A    between atoms: C1_2  and  C2_3 
ROOT
ATOM      1  C2  UNL d   1      -2.466   3.929   4.109  0.00  0.00    -0.076 A 
ATOM      2  C3  UNL d   1      -1.335   3.922   4.944  0.00  0.00     0.004 A 
ATOM      3  C4  UNL d   1      -1.127   4.935   5.879  0.00  0.00    -0.003 A 
ATOM      4  C5  UNL d   1      -2.048   5.971   5.995  0.00  0.00     0.000 A 
ATOM      5  C6  UNL d   1      -3.184   5.984   5.187  0.00  0.00     0.000 A 
ATOM      6  C7  UNL d   1      -3.417   4.963   4.251  0.00  0.00    -0.073 A 
ATOM      7  C8  UNL d   1      -4.656   5.031   3.401  0.00  0.00     0.078 C 
ENDROOT
BRANCH   1   8
ATOM      8  C1  UNL d   1      -2.625   2.819   3.095  0.00  0.00     0.053 C 
ATOM      9  C   UNL d   1      -1.851   1.566   3.477  0.00  0.00     0.018 C 
ENDBRANCH   1   8
TORSDOF 1
ENDMDL
