MODEL 1
REMARK minimizedAffinity 4.17943096
REMARK minimizedRMSD -1
REMARK  1 active torsions:
REMARK  status: ('A' for Active; 'I' for Inactive)
REMARK    1  A    between atoms: C1_2  and  C2_3 
ROOT
ATOM      1  C2  UNL d   1       3.793   5.898   1.319  0.00  0.00    -0.076 A 
ATOM      2  C3  UNL d   1       3.234   5.814   2.606  0.00  0.00     0.004 A 
ATOM      3  C4  UNL d   1       4.044   5.699   3.735  0.00  0.00    -0.003 A 
ATOM      4  C5  UNL d   1       5.427   5.666   3.594  0.00  0.00     0.000 A 
ATOM      5  C6  UNL d   1       6.000   5.765   2.327  0.00  0.00     0.000 A 
ATOM      6  C7  UNL d   1       5.198   5.899   1.180  0.00  0.00    -0.073 A 
ATOM      7  C8  UNL d   1       5.869   5.996  -0.163  0.00  0.00     0.078 C 
ENDROOT
BRANCH   1   8
ATOM      8  C1  UNL d   1       2.864   5.995   0.131  0.00  0.00     0.053 C 
ATOM      9  C   UNL d   1       1.398   6.000   0.536  0.00  0.00     0.018 C 
ENDBRANCH   1   8
TORSDOF 1
ENDMDL
