MODEL 1
REMARK minimizedAffinity -5.73672295
REMARK minimizedRMSD -1
REMARK  1 active torsions:
REMARK  status: ('A' for Active; 'I' for Inactive)
REMARK    1  A    between atoms: C1_2  and  C2_3 
ROOT
ATOM      1  C2  UNL d   1       0.574   0.694  -0.588  0.00  0.00    -0.076 A 
ATOM      2  C3  UNL d   1      -0.694   0.612   0.013  0.00  0.00     0.004 A 
ATOM      3  C4  UNL d   1      -1.190  -0.605   0.479  0.00  0.00    -0.003 A 
ATOM      4  C5  UNL d   1      -0.426  -1.759   0.351  0.00  0.00     0.000 A 
ATOM      5  C6  UNL d   1       0.842  -1.693  -0.227  0.00  0.00     0.000 A 
ATOM      6  C7  UNL d   1       1.363  -0.472  -0.686  0.00  0.00    -0.073 A 
ATOM      7  C8  UNL d   1       2.734  -0.459  -1.307  0.00  0.00     0.078 C 
ENDROOT
BRANCH   1   8
ATOM      8  C1  UNL d   1       1.048   2.036  -1.098  0.00  0.00     0.053 C 
ATOM      9  C   UNL d   1       0.066   3.156  -0.790  0.00  0.00     0.018 C 
ENDBRANCH   1   8
TORSDOF 1
ENDMDL
