MODEL 1
REMARK minimizedAffinity 5.62949324
REMARK minimizedRMSD -1
REMARK  1 active torsions:
REMARK  status: ('A' for Active; 'I' for Inactive)
REMARK    1  A    between atoms: C1_2  and  C2_3 
ROOT
ATOM      1  C2  UNL d   1      -0.042   0.935   2.712  0.00  0.00    -0.073 A 
ATOM      2  C3  UNL d   1      -1.399   1.238   2.867  0.00  0.00    -0.002 A 
ATOM      3  C4  UNL d   1      -2.019   2.152   2.014  0.00  0.00     0.004 A 
ATOM      4  C5  UNL d   1      -1.291   2.767   0.995  0.00  0.00    -0.004 A 
ATOM      5  C6  UNL d   1       0.064   2.468   0.817  0.00  0.00    -0.075 A 
ATOM      6  C7  UNL d   1       0.861   3.122  -0.273  0.00  0.00     0.076 C 
ATOM      7  C8  UNL d   1       0.680   1.551   1.679  0.00  0.00     0.001 A 
ENDROOT
BRANCH   1   8
ATOM      8  C1  UNL d   1       0.630  -0.057   3.627  0.00  0.00     0.053 C 
ATOM      9  C   UNL d   1       1.465  -1.068   2.856  0.00  0.00     0.018 C 
ENDBRANCH   1   8
TORSDOF 1
ENDMDL
