MODEL 1
REMARK minimizedAffinity -0.907159388
REMARK minimizedRMSD -1
REMARK  1 active torsions:
REMARK  status: ('A' for Active; 'I' for Inactive)
REMARK    1  A    between atoms: C1_2  and  C2_3 
ROOT
ATOM      1  C2  UNL d   1       0.062   2.332   1.521  0.00  0.00    -0.073 A 
ATOM      2  C3  UNL d   1      -0.645   1.328   0.850  0.00  0.00    -0.002 A 
ATOM      3  C4  UNL d   1      -0.936   1.459  -0.509  0.00  0.00     0.004 A 
ATOM      4  C5  UNL d   1      -0.518   2.589  -1.211  0.00  0.00    -0.004 A 
ATOM      5  C6  UNL d   1       0.200   3.597  -0.561  0.00  0.00    -0.075 A 
ATOM      6  C7  UNL d   1       0.656   4.821  -1.301  0.00  0.00     0.076 C 
ATOM      7  C8  UNL d   1       0.486   3.460   0.804  0.00  0.00     0.001 A 
ENDROOT
BRANCH   1   8
ATOM      8  C1  UNL d   1       0.384   2.192   2.986  0.00  0.00     0.053 C 
ATOM      9  C   UNL d   1       1.779   2.699   3.314  0.00  0.00     0.018 C 
ENDBRANCH   1   8
TORSDOF 1
ENDMDL
