MODEL 1
REMARK minimizedAffinity 10.8351774
REMARK minimizedRMSD -1
REMARK  1 active torsions:
REMARK  status: ('A' for Active; 'I' for Inactive)
REMARK    1  A    between atoms: C1_2  and  C2_3 
ROOT
ATOM      1  C2  UNL d   1       0.076   3.325   1.873  0.00  0.00    -0.073 A 
ATOM      2  C3  UNL d   1       0.958   3.107   2.938  0.00  0.00    -0.002 A 
ATOM      3  C4  UNL d   1       2.291   3.508   2.842  0.00  0.00     0.004 A 
ATOM      4  C5  UNL d   1       2.754   4.136   1.686  0.00  0.00    -0.004 A 
ATOM      5  C6  UNL d   1       1.885   4.373   0.616  0.00  0.00    -0.075 A 
ATOM      6  C7  UNL d   1       2.368   5.045  -0.636  0.00  0.00     0.076 C 
ATOM      7  C8  UNL d   1       0.548   3.965   0.718  0.00  0.00     0.001 A 
ENDROOT
BRANCH   1   8
ATOM      8  C1  UNL d   1      -1.366   2.900   1.974  0.00  0.00     0.053 C 
ATOM      9  C   UNL d   1      -2.256   4.021   2.486  0.00  0.00     0.018 C 
ENDBRANCH   1   8
TORSDOF 1
ENDMDL
