MODEL 1
REMARK minimizedAffinity 16.8131466
REMARK minimizedRMSD -1
REMARK  1 active torsions:
REMARK  status: ('A' for Active; 'I' for Inactive)
REMARK    1  A    between atoms: C1_2  and  C2_3 
ROOT
ATOM      1  C2  UNL d   1      -3.587  -5.278  -5.542  0.00  0.00    -0.073 A 
ATOM      2  C3  UNL d   1      -2.533  -5.950  -4.913  0.00  0.00    -0.002 A 
ATOM      3  C4  UNL d   1      -1.350  -5.276  -4.606  0.00  0.00     0.004 A 
ATOM      4  C5  UNL d   1      -1.211  -3.924  -4.918  0.00  0.00    -0.004 A 
ATOM      5  C6  UNL d   1      -2.258  -3.232  -5.536  0.00  0.00    -0.075 A 
ATOM      6  C7  UNL d   1      -2.123  -1.777  -5.880  0.00  0.00     0.076 C 
ATOM      7  C8  UNL d   1      -3.441  -3.916  -5.843  0.00  0.00     0.001 A 
ENDROOT
BRANCH   1   8
ATOM      8  C1  UNL d   1      -4.868  -5.999  -5.869  0.00  0.00     0.053 C 
ATOM      9  C   UNL d   1      -5.958  -5.720  -4.846  0.00  0.00     0.018 C 
ENDBRANCH   1   8
TORSDOF 1
ENDMDL
