MODEL 1
REMARK minimizedAffinity 12.2399006
REMARK minimizedRMSD -1
REMARK  0 active torsions:
REMARK  status: ('A' for Active; 'I' for Inactive)
ROOT
ATOM      1  C   UNL d   1      -3.545   2.357  -4.283  0.00  0.00     0.077 C 
ATOM      2  C1  UNL d   1      -2.954   1.588  -3.138  0.00  0.00    -0.074 A 
ATOM      3  C2  UNL d   1      -2.488   0.281  -3.314  0.00  0.00    -0.005 A 
ATOM      4  C3  UNL d   1      -1.933  -0.418  -2.243  0.00  0.00     0.006 A 
ATOM      5  C4  UNL d   1      -1.837   0.182  -0.987  0.00  0.00    -0.005 A 
ATOM      6  C5  UNL d   1      -2.297   1.488  -0.792  0.00  0.00    -0.074 A 
ATOM      7  C6  UNL d   1      -2.193   2.151   0.550  0.00  0.00     0.077 C 
ATOM      8  C7  UNL d   1      -2.848   2.187  -1.875  0.00  0.00    -0.001 A 
ENDROOT
TORSDOF 0
ENDMDL
