MODEL 1
REMARK minimizedAffinity 9.4137392
REMARK minimizedRMSD -1
REMARK  0 active torsions:
REMARK  status: ('A' for Active; 'I' for Inactive)
ROOT
ATOM      1  C   UNL d   1      -2.375   0.760  -1.011  0.00  0.00     0.077 C 
ATOM      2  C1  UNL d   1      -3.072   1.115  -2.290  0.00  0.00    -0.074 A 
ATOM      3  C2  UNL d   1      -2.724   0.497  -3.495  0.00  0.00    -0.005 A 
ATOM      4  C3  UNL d   1      -3.388   0.831  -4.675  0.00  0.00     0.006 A 
ATOM      5  C4  UNL d   1      -4.406   1.785  -4.663  0.00  0.00    -0.005 A 
ATOM      6  C5  UNL d   1      -4.769   2.414  -3.467  0.00  0.00    -0.074 A 
ATOM      7  C6  UNL d   1      -5.867   3.434  -3.435  0.00  0.00     0.077 C 
ATOM      8  C7  UNL d   1      -4.101   2.068  -2.284  0.00  0.00    -0.001 A 
ENDROOT
TORSDOF 0
ENDMDL
