MODEL 1
REMARK minimizedAffinity -1.05808449
REMARK minimizedRMSD -1
REMARK  0 active torsions:
REMARK  status: ('A' for Active; 'I' for Inactive)
ROOT
ATOM      1  C   UNL d   1       1.660  -5.999  -5.999  0.00  0.00     0.077 C 
ATOM      2  C1  UNL d   1       2.527  -6.000  -4.775  0.00  0.00    -0.074 A 
ATOM      3  C2  UNL d   1       3.921  -5.987  -4.882  0.00  0.00    -0.005 A 
ATOM      4  C3  UNL d   1       4.715  -5.978  -3.735  0.00  0.00     0.006 A 
ATOM      5  C4  UNL d   1       4.122  -5.982  -2.471  0.00  0.00    -0.005 A 
ATOM      6  C5  UNL d   1       2.730  -5.994  -2.345  0.00  0.00    -0.074 A 
ATOM      7  C6  UNL d   1       2.077  -5.989  -0.994  0.00  0.00     0.077 C 
ATOM      8  C7  UNL d   1       1.939  -5.996  -3.502  0.00  0.00    -0.001 A 
ENDROOT
TORSDOF 0
ENDMDL
