MODEL 1
REMARK minimizedAffinity 2.68195009
REMARK minimizedRMSD -1
REMARK  0 active torsions:
REMARK  status: ('A' for Active; 'I' for Inactive)
ROOT
ATOM      1  C   UNL d   1       3.387  -6.000   0.773  0.00  0.00     0.077 C 
ATOM      2  C1  UNL d   1       4.046  -4.961   1.631  0.00  0.00    -0.074 A 
ATOM      3  C2  UNL d   1       5.403  -4.657   1.477  0.00  0.00    -0.005 A 
ATOM      4  C3  UNL d   1       6.000  -3.681   2.276  0.00  0.00     0.006 A 
ATOM      5  C4  UNL d   1       5.248  -3.001   3.234  0.00  0.00    -0.005 A 
ATOM      6  C5  UNL d   1       3.890  -3.291   3.402  0.00  0.00    -0.074 A 
ATOM      7  C6  UNL d   1       3.065  -2.563   4.421  0.00  0.00     0.077 C 
ATOM      8  C7  UNL d   1       3.296  -4.268   2.591  0.00  0.00    -0.001 A 
ENDROOT
TORSDOF 0
ENDMDL
