MODEL 1
REMARK minimizedAffinity 4.59618473
REMARK minimizedRMSD -1
REMARK  0 active torsions:
REMARK  status: ('A' for Active; 'I' for Inactive)
ROOT
ATOM      1  C   UNL d   1       2.042  -5.907   2.078  0.00  0.00     0.077 C 
ATOM      2  C1  UNL d   1       1.561  -5.946   0.658  0.00  0.00    -0.074 A 
ATOM      3  C2  UNL d   1       0.194  -5.957   0.363  0.00  0.00    -0.005 A 
ATOM      4  C3  UNL d   1      -0.239  -5.984  -0.963  0.00  0.00     0.006 A 
ATOM      5  C4  UNL d   1       0.688  -5.999  -2.005  0.00  0.00    -0.005 A 
ATOM      6  C5  UNL d   1       2.059  -5.987  -1.729  0.00  0.00    -0.074 A 
ATOM      7  C6  UNL d   1       3.070  -5.993  -2.838  0.00  0.00     0.077 C 
ATOM      8  C7  UNL d   1       2.487  -5.953  -0.395  0.00  0.00    -0.001 A 
ENDROOT
TORSDOF 0
ENDMDL
