MODEL 1
REMARK minimizedAffinity 1.50092006
REMARK minimizedRMSD -1
REMARK  0 active torsions:
REMARK  status: ('A' for Active; 'I' for Inactive)
ROOT
ATOM      1  C   UNL d   1       2.944  -5.931  -2.579  0.00  0.00     0.077 C 
ATOM      2  C1  UNL d   1       2.013  -5.916  -1.403  0.00  0.00    -0.074 A 
ATOM      3  C2  UNL d   1       0.629  -6.000  -1.581  0.00  0.00    -0.005 A 
ATOM      4  C3  UNL d   1      -0.224  -5.994  -0.477  0.00  0.00     0.006 A 
ATOM      5  C4  UNL d   1       0.299  -5.905   0.814  0.00  0.00    -0.005 A 
ATOM      6  C5  UNL d   1       1.680  -5.821   1.011  0.00  0.00    -0.074 A 
ATOM      7  C6  UNL d   1       2.259  -5.734   2.392  0.00  0.00     0.077 C 
ATOM      8  C7  UNL d   1       2.531  -5.834  -0.103  0.00  0.00    -0.001 A 
ENDROOT
TORSDOF 0
ENDMDL
