MODEL 1
REMARK minimizedAffinity -4.48247862
REMARK minimizedRMSD -1
REMARK  0 active torsions:
REMARK  status: ('A' for Active; 'I' for Inactive)
ROOT
ATOM      1  C   UNL d   1       1.874  -5.716  -0.749  0.00  0.00     0.077 C 
ATOM      2  C1  UNL d   1       2.702  -5.771  -1.998  0.00  0.00    -0.074 A 
ATOM      3  C2  UNL d   1       4.089  -5.941  -1.934  0.00  0.00    -0.005 A 
ATOM      4  C3  UNL d   1       4.845  -6.000  -3.105  0.00  0.00     0.006 A 
ATOM      5  C4  UNL d   1       4.223  -5.890  -4.349  0.00  0.00    -0.005 A 
ATOM      6  C5  UNL d   1       2.837  -5.720  -4.433  0.00  0.00    -0.074 A 
ATOM      7  C6  UNL d   1       2.152  -5.610  -5.762  0.00  0.00     0.077 C 
ATOM      8  C7  UNL d   1       2.083  -5.669  -3.252  0.00  0.00    -0.001 A 
ENDROOT
TORSDOF 0
ENDMDL
