MODEL 1
REMARK minimizedAffinity 0.538906515
REMARK minimizedRMSD -1
REMARK  0 active torsions:
REMARK  status: ('A' for Active; 'I' for Inactive)
ROOT
ATOM      1  C   UNL d   1       1.095  -2.923   5.698  0.00  0.00     0.077 C 
ATOM      2  C1  UNL d   1       1.513  -2.643   4.285  0.00  0.00    -0.074 A 
ATOM      3  C2  UNL d   1       1.959  -3.673   3.451  0.00  0.00    -0.005 A 
ATOM      4  C3  UNL d   1       2.336  -3.400   2.136  0.00  0.00     0.006 A 
ATOM      5  C4  UNL d   1       2.271  -2.096   1.643  0.00  0.00    -0.005 A 
ATOM      6  C5  UNL d   1       1.826  -1.053   2.462  0.00  0.00    -0.074 A 
ATOM      7  C6  UNL d   1       1.741   0.352   1.946  0.00  0.00     0.077 C 
ATOM      8  C7  UNL d   1       1.443  -1.337   3.780  0.00  0.00    -0.001 A 
ENDROOT
TORSDOF 0
ENDMDL
