MODEL 1
REMARK minimizedAffinity -1.8530997
REMARK minimizedRMSD -1
REMARK  3 active torsions:
REMARK  status: ('A' for Active; 'I' for Inactive)
REMARK    1  A    between atoms: C3'_2  and  C2'_3 
REMARK    2  A    between atoms: C2'_3  and  C1'_4 
REMARK    3  A    between atoms: C1'_4  and  C1_5 
ROOT
ATOM      1  C1  N4B d   1      -1.303   2.309  -3.809  0.00  0.00    -0.075 A 
ATOM      2  C2  N4B d   1      -0.953   3.223  -4.826  0.00  0.00     0.002 A 
ATOM      3  C3  N4B d   1       0.062   4.125  -4.619  0.00  0.00     0.002 A 
ATOM      4  C4  N4B d   1       0.724   4.145  -3.400  0.00  0.00    -0.004 A 
ATOM      5  C5  N4B d   1       0.396   3.241  -2.432  0.00  0.00     0.002 A 
ATOM      6  C6  N4B d   1      -0.619   2.326  -2.628  0.00  0.00     0.002 A 
ENDROOT
BRANCH   1   7
ATOM      7  C1' N4B d   1      -2.462   1.361  -3.957  0.00  0.00     0.057 C 
BRANCH   7   8
ATOM      8  C2' N4B d   1      -2.887   0.869  -2.577  0.00  0.00     0.009 C 
BRANCH   8   9
ATOM      9  C3' N4B d   1      -4.123   1.593  -2.071  0.00  0.00     0.004 C 
ATOM     10  C4' N4B d   1      -5.378   0.790  -2.242  0.00  0.00     0.003 C 
ENDBRANCH   8   9
ENDBRANCH   7   8
ENDBRANCH   1   7
TORSDOF 3
ENDMDL
