MODEL 1
REMARK minimizedAffinity -2.06945968
REMARK minimizedRMSD -1
REMARK  3 active torsions:
REMARK  status: ('A' for Active; 'I' for Inactive)
REMARK    1  A    between atoms: C3'_2  and  C2'_3 
REMARK    2  A    between atoms: C2'_3  and  C1'_4 
REMARK    3  A    between atoms: C1'_4  and  C1_5 
ROOT
ATOM      1  C1  N4B d   1      -1.399  -4.877  -3.516  0.00  0.00    -0.075 A 
ATOM      2  C2  N4B d   1      -0.091  -4.590  -3.965  0.00  0.00     0.002 A 
ATOM      3  C3  N4B d   1       0.319  -5.018  -5.204  0.00  0.00     0.002 A 
ATOM      4  C4  N4B d   1      -0.551  -5.748  -6.000  0.00  0.00    -0.004 A 
ATOM      5  C5  N4B d   1      -1.821  -5.999  -5.569  0.00  0.00     0.002 A 
ATOM      6  C6  N4B d   1      -2.248  -5.572  -4.328  0.00  0.00     0.002 A 
ENDROOT
BRANCH   1   7
ATOM      7  C1' N4B d   1      -1.864  -4.504  -2.135  0.00  0.00     0.057 C 
BRANCH   7   8
ATOM      8  C2' N4B d   1      -0.738  -3.776  -1.407  0.00  0.00     0.009 C 
BRANCH   8   9
ATOM      9  C3' N4B d   1      -1.263  -2.890  -0.291  0.00  0.00     0.004 C 
ATOM     10  C4' N4B d   1      -0.346  -1.745   0.022  0.00  0.00     0.003 C 
ENDBRANCH   8   9
ENDBRANCH   7   8
ENDBRANCH   1   7
TORSDOF 3
ENDMDL
