MODEL 1
REMARK minimizedAffinity 4.24366999
REMARK minimizedRMSD -1
REMARK  3 active torsions:
REMARK  status: ('A' for Active; 'I' for Inactive)
REMARK    1  A    between atoms: C3'_2  and  C2'_3 
REMARK    2  A    between atoms: C2'_3  and  C1'_4 
REMARK    3  A    between atoms: C1'_4  and  C1_5 
ROOT
ATOM      1  C1  N4B d   1      -1.813  -3.575   0.585  0.00  0.00    -0.075 A 
ATOM      2  C2  N4B d   1      -2.622  -4.586   0.020  0.00  0.00     0.002 A 
ATOM      3  C3  N4B d   1      -3.332  -5.432   0.836  0.00  0.00     0.002 A 
ATOM      4  C4  N4B d   1      -3.236  -5.298   2.213  0.00  0.00    -0.004 A 
ATOM      5  C5  N4B d   1      -2.473  -4.303   2.750  0.00  0.00     0.002 A 
ATOM      6  C6  N4B d   1      -1.756  -3.443   1.942  0.00  0.00     0.002 A 
ENDROOT
BRANCH   1   7
ATOM      7  C1' N4B d   1      -0.951  -2.682  -0.265  0.00  0.00     0.057 C 
BRANCH   7   8
ATOM      8  C2' N4B d   1       0.351  -2.391   0.476  0.00  0.00     0.009 C 
BRANCH   8   9
ATOM      9  C3' N4B d   1       0.511  -0.912   0.784  0.00  0.00     0.004 C 
ATOM     10  C4' N4B d   1       1.695  -0.300   0.095  0.00  0.00     0.003 C 
ENDBRANCH   8   9
ENDBRANCH   7   8
ENDBRANCH   1   7
TORSDOF 3
ENDMDL
