MODEL 1
REMARK minimizedAffinity 3.21851039
REMARK minimizedRMSD -1
REMARK  3 active torsions:
REMARK  status: ('A' for Active; 'I' for Inactive)
REMARK    1  A    between atoms: C3'_2  and  C2'_3 
REMARK    2  A    between atoms: C2'_3  and  C1'_4 
REMARK    3  A    between atoms: C1'_4  and  C1_5 
ROOT
ATOM      1  C1  N4B d   1      -2.382  -5.269  -3.865  0.00  0.00    -0.075 A 
ATOM      2  C2  N4B d   1      -1.077  -4.817  -3.570  0.00  0.00     0.002 A 
ATOM      3  C3  N4B d   1      -0.074  -4.963  -4.497  0.00  0.00     0.002 A 
ATOM      4  C4  N4B d   1      -0.346  -5.572  -5.713  0.00  0.00    -0.004 A 
ATOM      5  C5  N4B d   1      -1.615  -5.983  -6.000  0.00  0.00     0.002 A 
ATOM      6  C6  N4B d   1      -2.634  -5.839  -5.080  0.00  0.00     0.002 A 
ENDROOT
BRANCH   1   7
ATOM      7  C1' N4B d   1      -3.491  -5.210  -2.851  0.00  0.00     0.057 C 
BRANCH   7   8
ATOM      8  C2' N4B d   1      -2.983  -4.512  -1.594  0.00  0.00     0.009 C 
BRANCH   8   9
ATOM      9  C3' N4B d   1      -3.443  -5.215  -0.328  0.00  0.00     0.004 C 
ATOM     10  C4' N4B d   1      -3.021  -4.499   0.920  0.00  0.00     0.003 C 
ENDBRANCH   8   9
ENDBRANCH   7   8
ENDBRANCH   1   7
TORSDOF 3
ENDMDL
