MODEL 1
REMARK minimizedAffinity 4.77529192
REMARK minimizedRMSD -1
REMARK  3 active torsions:
REMARK  status: ('A' for Active; 'I' for Inactive)
REMARK    1  A    between atoms: C3'_2  and  C2'_3 
REMARK    2  A    between atoms: C2'_3  and  C1'_4 
REMARK    3  A    between atoms: C1'_4  and  C1_5 
ROOT
ATOM      1  C1  N4B d   1      -2.000  -0.870   0.435  0.00  0.00    -0.075 A 
ATOM      2  C2  N4B d   1      -0.786  -0.166   0.592  0.00  0.00     0.002 A 
ATOM      3  C3  N4B d   1       0.411  -0.835   0.510  0.00  0.00     0.002 A 
ATOM      4  C4  N4B d   1       0.417  -2.204   0.290  0.00  0.00    -0.004 A 
ATOM      5  C5  N4B d   1      -0.759  -2.872   0.114  0.00  0.00     0.002 A 
ATOM      6  C6  N4B d   1      -1.969  -2.212   0.190  0.00  0.00     0.002 A 
ENDROOT
BRANCH   1   7
ATOM      7  C1' N4B d   1      -3.335  -0.197   0.602  0.00  0.00     0.057 C 
BRANCH   7   8
ATOM      8  C2' N4B d   1      -4.402  -1.016  -0.119  0.00  0.00     0.009 C 
BRANCH   8   9
ATOM      9  C3' N4B d   1      -4.808  -0.383  -1.439  0.00  0.00     0.004 C 
ATOM     10  C4' N4B d   1      -5.237  -1.394  -2.460  0.00  0.00     0.003 C 
ENDBRANCH   8   9
ENDBRANCH   7   8
ENDBRANCH   1   7
TORSDOF 3
ENDMDL
