MODEL 1
REMARK minimizedAffinity 5.21572685
REMARK minimizedRMSD -1
REMARK  3 active torsions:
REMARK  status: ('A' for Active; 'I' for Inactive)
REMARK    1  A    between atoms: C3'_2  and  C2'_3 
REMARK    2  A    between atoms: C2'_3  and  C1'_4 
REMARK    3  A    between atoms: C1'_4  and  C1_5 
ROOT
ATOM      1  C1  N4B d   1      -3.413   1.019  -2.975  0.00  0.00    -0.075 A 
ATOM      2  C2  N4B d   1      -2.827   0.216  -1.973  0.00  0.00     0.002 A 
ATOM      3  C3  N4B d   1      -3.624  -0.497  -1.111  0.00  0.00     0.002 A 
ATOM      4  C4  N4B d   1      -5.003  -0.408  -1.220  0.00  0.00    -0.004 A 
ATOM      5  C5  N4B d   1      -5.561   0.350  -2.207  0.00  0.00     0.002 A 
ATOM      6  C6  N4B d   1      -4.772   1.069  -3.083  0.00  0.00     0.002 A 
ENDROOT
BRANCH   1   7
ATOM      7  C1' N4B d   1      -2.584   1.884  -3.885  0.00  0.00     0.057 C 
BRANCH   7   8
ATOM      8  C2' N4B d   1      -1.164   1.976  -3.333  0.00  0.00     0.009 C 
BRANCH   8   9
ATOM      9  C3' N4B d   1      -0.339   3.024  -4.059  0.00  0.00     0.004 C 
ATOM     10  C4' N4B d   1      -0.058   4.230  -3.214  0.00  0.00     0.003 C 
ENDBRANCH   8   9
ENDBRANCH   7   8
ENDBRANCH   1   7
TORSDOF 3
ENDMDL
