MODEL 1
REMARK minimizedAffinity 4.51780653
REMARK minimizedRMSD -1
REMARK  3 active torsions:
REMARK  status: ('A' for Active; 'I' for Inactive)
REMARK    1  A    between atoms: C3'_2  and  C2'_3 
REMARK    2  A    between atoms: C2'_3  and  C1'_4 
REMARK    3  A    between atoms: C1'_4  and  C1_5 
ROOT
ATOM      1  C1  N4B d   1      -3.613   0.575  -0.259  0.00  0.00    -0.075 A 
ATOM      2  C2  N4B d   1      -3.697   1.177  -1.534  0.00  0.00     0.002 A 
ATOM      3  C3  N4B d   1      -4.721   0.840  -2.385  0.00  0.00     0.002 A 
ATOM      4  C4  N4B d   1      -5.657  -0.105  -1.993  0.00  0.00    -0.004 A 
ATOM      5  C5  N4B d   1      -5.582  -0.662  -0.750  0.00  0.00     0.002 A 
ATOM      6  C6  N4B d   1      -4.561  -0.331   0.118  0.00  0.00     0.002 A 
ENDROOT
BRANCH   1   7
ATOM      7  C1' N4B d   1      -2.463   0.847   0.673  0.00  0.00     0.057 C 
BRANCH   7   8
ATOM      8  C2' N4B d   1      -1.172   0.933  -0.136  0.00  0.00     0.009 C 
BRANCH   8   9
ATOM      9  C3' N4B d   1       0.055   0.688   0.725  0.00  0.00     0.004 C 
ATOM     10  C4' N4B d   1       0.792  -0.561   0.343  0.00  0.00     0.003 C 
ENDBRANCH   8   9
ENDBRANCH   7   8
ENDBRANCH   1   7
TORSDOF 3
ENDMDL
