MODEL 1
REMARK minimizedAffinity 3.03723311
REMARK minimizedRMSD -1
REMARK  3 active torsions:
REMARK  status: ('A' for Active; 'I' for Inactive)
REMARK    1  A    between atoms: C3'_2  and  C2'_3 
REMARK    2  A    between atoms: C2'_3  and  C1'_4 
REMARK    3  A    between atoms: C1'_4  and  C1_5 
ROOT
ATOM      1  C1  N4B d   1       1.791  -1.080   0.841  0.00  0.00    -0.075 A 
ATOM      2  C2  N4B d   1       1.149  -2.238   0.350  0.00  0.00     0.002 A 
ATOM      3  C3  N4B d   1      -0.113  -2.149  -0.184  0.00  0.00     0.002 A 
ATOM      4  C4  N4B d   1      -0.757  -0.921  -0.222  0.00  0.00    -0.004 A 
ATOM      5  C5  N4B d   1      -0.120   0.197   0.231  0.00  0.00     0.002 A 
ATOM      6  C6  N4B d   1       1.150   0.123   0.767  0.00  0.00     0.002 A 
ENDROOT
BRANCH   1   7
ATOM      7  C1' N4B d   1       3.136  -1.142   1.512  0.00  0.00     0.057 C 
BRANCH   7   8
ATOM      8  C2' N4B d   1       2.941  -1.135   3.025  0.00  0.00     0.009 C 
BRANCH   8   9
ATOM      9  C3' N4B d   1       4.218  -0.769   3.761  0.00  0.00     0.004 C 
ATOM     10  C4' N4B d   1       5.347  -0.431   2.833  0.00  0.00     0.003 C 
ENDBRANCH   8   9
ENDBRANCH   7   8
ENDBRANCH   1   7
TORSDOF 3
ENDMDL
