MODEL 1
REMARK minimizedAffinity 3.45024443
REMARK minimizedRMSD -1
REMARK  3 active torsions:
REMARK  status: ('A' for Active; 'I' for Inactive)
REMARK    1  A    between atoms: C3'_2  and  C2'_3 
REMARK    2  A    between atoms: C2'_3  and  C1'_4 
REMARK    3  A    between atoms: C1'_4  and  C1_5 
ROOT
ATOM      1  C1  N4B d   1      -4.234   1.160  -2.532  0.00  0.00    -0.075 A 
ATOM      2  C2  N4B d   1      -5.436   0.438  -2.695  0.00  0.00     0.002 A 
ATOM      3  C3  N4B d   1      -5.999  -0.208  -1.622  0.00  0.00     0.002 A 
ATOM      4  C4  N4B d   1      -5.371  -0.162  -0.386  0.00  0.00    -0.004 A 
ATOM      5  C5  N4B d   1      -4.223   0.559  -0.232  0.00  0.00     0.002 A 
ATOM      6  C6  N4B d   1      -3.648   1.216  -1.300  0.00  0.00     0.002 A 
ENDROOT
BRANCH   1   7
ATOM      7  C1' N4B d   1      -3.535   1.811  -3.694  0.00  0.00     0.057 C 
BRANCH   7   8
ATOM      8  C2' N4B d   1      -2.040   1.892  -3.398  0.00  0.00     0.009 C 
BRANCH   8   9
ATOM      9  C3' N4B d   1      -1.366   3.008  -4.178  0.00  0.00     0.004 C 
ATOM     10  C4' N4B d   1      -0.075   3.452  -3.559  0.00  0.00     0.003 C 
ENDBRANCH   8   9
ENDBRANCH   7   8
ENDBRANCH   1   7
TORSDOF 3
ENDMDL
