MODEL 1
REMARK minimizedAffinity -1.02930892
REMARK minimizedRMSD -1
REMARK  0 active torsions:
REMARK  status: ('A' for Active; 'I' for Inactive)
ROOT
ATOM      1  C   UNL d   1       5.980   1.580   5.698  0.00  0.00     0.078 C 
ATOM      2  C1  UNL d   1       5.993   2.914   5.013  0.00  0.00    -0.077 A 
ATOM      3  C2  UNL d   1       5.997   4.104   5.751  0.00  0.00    -0.001 A 
ATOM      4  C3  UNL d   1       6.000   5.338   5.100  0.00  0.00     0.003 A 
ATOM      5  C4  UNL d   1       5.997   5.395   3.708  0.00  0.00    -0.005 A 
ATOM      6  C5  UNL d   1       5.991   4.217   2.965  0.00  0.00     0.003 A 
ATOM      7  C6  UNL d   1       5.988   2.981   3.614  0.00  0.00    -0.001 A 
ENDROOT
TORSDOF 0
ENDMDL
