MODEL 1
REMARK minimizedAffinity -2.24960899
REMARK minimizedRMSD -1
REMARK  0 active torsions:
REMARK  status: ('A' for Active; 'I' for Inactive)
ROOT
ATOM      1  C   UNL d   1       5.759  -1.906   2.297  0.00  0.00     0.078 C 
ATOM      2  C1  UNL d   1       5.738  -1.148   3.591  0.00  0.00    -0.077 A 
ATOM      3  C2  UNL d   1       5.448  -1.793   4.799  0.00  0.00    -0.001 A 
ATOM      4  C3  UNL d   1       5.423  -1.074   5.995  0.00  0.00     0.003 A 
ATOM      5  C4  UNL d   1       5.686   0.295   5.994  0.00  0.00    -0.005 A 
ATOM      6  C5  UNL d   1       5.974   0.946   4.796  0.00  0.00     0.003 A 
ATOM      7  C6  UNL d   1       5.999   0.228   3.599  0.00  0.00    -0.001 A 
ENDROOT
TORSDOF 0
ENDMDL
