MODEL 1
REMARK minimizedAffinity 6.90711737
REMARK minimizedRMSD -1
REMARK  0 active torsions:
REMARK  status: ('A' for Active; 'I' for Inactive)
ROOT
ATOM      1  C   UNL d   1       2.761   2.121  -5.295  0.00  0.00     0.078 C 
ATOM      2  C1  UNL d   1       3.878   3.011  -4.839  0.00  0.00    -0.077 A 
ATOM      3  C2  UNL d   1       3.879   4.379  -5.139  0.00  0.00    -0.001 A 
ATOM      4  C3  UNL d   1       4.930   5.194  -4.717  0.00  0.00     0.003 A 
ATOM      5  C4  UNL d   1       5.990   4.650  -3.994  0.00  0.00    -0.005 A 
ATOM      6  C5  UNL d   1       6.000   3.289  -3.693  0.00  0.00     0.003 A 
ATOM      7  C6  UNL d   1       4.949   2.473  -4.114  0.00  0.00    -0.001 A 
ENDROOT
TORSDOF 0
ENDMDL
