MODEL 1
REMARK minimizedAffinity -3.99314046
REMARK minimizedRMSD -1
REMARK  0 active torsions:
REMARK  status: ('A' for Active; 'I' for Inactive)
ROOT
ATOM      1  C   UNL d   1       5.778  -0.207   4.853  0.00  0.00     0.078 C 
ATOM      2  C1  UNL d   1       5.647   1.197   4.341  0.00  0.00    -0.077 A 
ATOM      3  C2  UNL d   1       5.987   1.517   3.021  0.00  0.00    -0.001 A 
ATOM      4  C3  UNL d   1       5.870   2.830   2.561  0.00  0.00     0.003 A 
ATOM      5  C4  UNL d   1       5.413   3.832   3.414  0.00  0.00    -0.005 A 
ATOM      6  C5  UNL d   1       5.075   3.523   4.730  0.00  0.00     0.003 A 
ATOM      7  C6  UNL d   1       5.192   2.211   5.192  0.00  0.00    -0.001 A 
ENDROOT
TORSDOF 0
ENDMDL
