MODEL 1
REMARK minimizedAffinity -0.757417381
REMARK minimizedRMSD -1
REMARK  0 active torsions:
REMARK  status: ('A' for Active; 'I' for Inactive)
ROOT
ATOM      1  C   UNL d   1       5.626  -2.975   5.416  0.00  0.00     0.078 C 
ATOM      2  C1  UNL d   1       5.612  -1.520   5.053  0.00  0.00    -0.077 A 
ATOM      3  C2  UNL d   1       5.205  -0.550   5.977  0.00  0.00    -0.001 A 
ATOM      4  C3  UNL d   1       5.188   0.800   5.622  0.00  0.00     0.003 A 
ATOM      5  C4  UNL d   1       5.576   1.191   4.342  0.00  0.00    -0.005 A 
ATOM      6  C5  UNL d   1       5.981   0.233   3.415  0.00  0.00     0.003 A 
ATOM      7  C6  UNL d   1       5.999  -1.117   3.769  0.00  0.00    -0.001 A 
ENDROOT
TORSDOF 0
ENDMDL
