MODEL 1
REMARK minimizedAffinity -1.4728806
REMARK minimizedRMSD -1
REMARK  0 active torsions:
REMARK  status: ('A' for Active; 'I' for Inactive)
ROOT
ATOM      1  C   UNL d   1       5.260  -1.538   5.712  0.00  0.00     0.078 C 
ATOM      2  C1  UNL d   1       5.263  -0.207   5.021  0.00  0.00    -0.077 A 
ATOM      3  C2  UNL d   1       5.998  -0.005   3.847  0.00  0.00    -0.001 A 
ATOM      4  C3  UNL d   1       5.999   1.242   3.220  0.00  0.00     0.003 A 
ATOM      5  C4  UNL d   1       5.267   2.297   3.761  0.00  0.00    -0.005 A 
ATOM      6  C5  UNL d   1       4.534   2.107   4.930  0.00  0.00     0.003 A 
ATOM      7  C6  UNL d   1       4.532   0.860   5.559  0.00  0.00    -0.001 A 
ENDROOT
TORSDOF 0
ENDMDL
