MODEL 1
REMARK minimizedAffinity -0.909416437
REMARK minimizedRMSD -1
REMARK  0 active torsions:
REMARK  status: ('A' for Active; 'I' for Inactive)
ROOT
ATOM      1  C   UNL d   1       5.982   5.824   0.546  0.00  0.00     0.078 C 
ATOM      2  C1  UNL d   1       5.994   5.175   1.897  0.00  0.00    -0.077 A 
ATOM      3  C2  UNL d   1       5.990   3.780   2.027  0.00  0.00    -0.001 A 
ATOM      4  C3  UNL d   1       5.992   3.189   3.292  0.00  0.00     0.003 A 
ATOM      5  C4  UNL d   1       5.997   3.985   4.436  0.00  0.00    -0.005 A 
ATOM      6  C5  UNL d   1       5.999   5.373   4.316  0.00  0.00     0.003 A 
ATOM      7  C6  UNL d   1       5.997   5.966   3.053  0.00  0.00    -0.001 A 
ENDROOT
TORSDOF 0
ENDMDL
