MODEL 1
REMARK minimizedAffinity -4.41303205
REMARK minimizedRMSD -1
REMARK  0 active torsions:
REMARK  status: ('A' for Active; 'I' for Inactive)
ROOT
ATOM      1  C   UNL d   1       6.000   1.982   3.174  0.00  0.00     0.078 C 
ATOM      2  C1  UNL d   1       5.875   0.587   3.710  0.00  0.00    -0.077 A 
ATOM      3  C2  UNL d   1       5.630  -0.495   2.856  0.00  0.00    -0.001 A 
ATOM      4  C3  UNL d   1       5.507  -1.787   3.370  0.00  0.00     0.003 A 
ATOM      5  C4  UNL d   1       5.626  -2.008   4.741  0.00  0.00    -0.005 A 
ATOM      6  C5  UNL d   1       5.868  -0.937   5.599  0.00  0.00     0.003 A 
ATOM      7  C6  UNL d   1       5.991   0.355   5.086  0.00  0.00    -0.001 A 
ENDROOT
TORSDOF 0
ENDMDL
