MODEL 1
REMARK minimizedAffinity -4.18254137
REMARK minimizedRMSD -1
REMARK  0 active torsions:
REMARK  status: ('A' for Active; 'I' for Inactive)
ROOT
ATOM      1  C   UNL d   1       5.239  -3.301   5.492  0.00  0.00     0.078 C 
ATOM      2  C1  UNL d   1       5.402  -1.931   4.906  0.00  0.00    -0.077 A 
ATOM      3  C2  UNL d   1       5.683  -0.827   5.721  0.00  0.00    -0.001 A 
ATOM      4  C3  UNL d   1       5.823   0.445   5.163  0.00  0.00     0.003 A 
ATOM      5  C4  UNL d   1       5.682   0.625   3.789  0.00  0.00    -0.005 A 
ATOM      6  C5  UNL d   1       5.400  -0.466   2.970  0.00  0.00     0.003 A 
ATOM      7  C6  UNL d   1       5.260  -1.739   3.526  0.00  0.00    -0.001 A 
ENDROOT
TORSDOF 0
ENDMDL
