MODEL 1
REMARK minimizedAffinity -3.46825266
REMARK minimizedRMSD -1
REMARK  0 active torsions:
REMARK  status: ('A' for Active; 'I' for Inactive)
ROOT
ATOM      1  C   UNL d   1       5.461   4.211   3.772  0.00  0.00     0.078 C 
ATOM      2  C1  UNL d   1       5.448   2.796   4.271  0.00  0.00    -0.077 A 
ATOM      3  C2  UNL d   1       4.876   1.769   3.510  0.00  0.00    -0.001 A 
ATOM      4  C3  UNL d   1       4.862   0.459   3.990  0.00  0.00     0.003 A 
ATOM      5  C4  UNL d   1       5.416   0.164   5.234  0.00  0.00    -0.005 A 
ATOM      6  C5  UNL d   1       5.985   1.180   6.000  0.00  0.00     0.003 A 
ATOM      7  C6  UNL d   1       6.000   2.491   5.521  0.00  0.00    -0.001 A 
ENDROOT
TORSDOF 0
ENDMDL
