MODEL 1
REMARK minimizedAffinity -2.16238308
REMARK minimizedRMSD -1
REMARK  0 active torsions:
REMARK  status: ('A' for Active; 'I' for Inactive)
ROOT
ATOM      1  C   UNL d   1       5.999  -0.493   4.388  0.00  0.00     0.078 C 
ATOM      2  C1  UNL d   1       5.992   1.000   4.252  0.00  0.00    -0.077 A 
ATOM      3  C2  UNL d   1       5.995   1.609   2.991  0.00  0.00    -0.001 A 
ATOM      4  C3  UNL d   1       5.998   3.001   2.880  0.00  0.00     0.003 A 
ATOM      5  C4  UNL d   1       5.999   3.794   4.025  0.00  0.00    -0.005 A 
ATOM      6  C5  UNL d   1       5.999   3.197   5.284  0.00  0.00     0.003 A 
ATOM      7  C6  UNL d   1       5.996   1.806   5.397  0.00  0.00    -0.001 A 
ENDROOT
TORSDOF 0
ENDMDL
