MODEL 1
REMARK minimizedAffinity -3.81712866
REMARK minimizedRMSD -1
REMARK  0 active torsions:
REMARK  status: ('A' for Active; 'I' for Inactive)
ROOT
ATOM      1  C   UNL d   1       5.370  -0.749   5.253  0.00  0.00     0.078 C 
ATOM      2  C1  UNL d   1       5.579   0.520   4.482  0.00  0.00    -0.077 A 
ATOM      3  C2  UNL d   1       5.797   0.496   3.099  0.00  0.00    -0.001 A 
ATOM      4  C3  UNL d   1       6.000   1.685   2.396  0.00  0.00     0.003 A 
ATOM      5  C4  UNL d   1       5.987   2.906   3.067  0.00  0.00    -0.005 A 
ATOM      6  C5  UNL d   1       5.772   2.939   4.444  0.00  0.00     0.003 A 
ATOM      7  C6  UNL d   1       5.570   1.752   5.148  0.00  0.00    -0.001 A 
ENDROOT
TORSDOF 0
ENDMDL
