MODEL 1
REMARK minimizedAffinity -2.06483173
REMARK minimizedRMSD -1
REMARK  0 active torsions:
REMARK  status: ('A' for Active; 'I' for Inactive)
ROOT
ATOM      1  C   UNL d   1       5.983   3.734   4.714  0.00  0.00     0.078 C 
ATOM      2  C1  UNL d   1       5.964   2.235   4.756  0.00  0.00    -0.077 A 
ATOM      3  C2  UNL d   1       5.936   1.548   5.976  0.00  0.00    -0.001 A 
ATOM      4  C3  UNL d   1       5.928   0.152   6.000  0.00  0.00     0.003 A 
ATOM      5  C4  UNL d   1       5.951  -0.568   4.807  0.00  0.00    -0.005 A 
ATOM      6  C5  UNL d   1       5.982   0.107   3.589  0.00  0.00     0.003 A 
ATOM      7  C6  UNL d   1       5.989   1.502   3.563  0.00  0.00    -0.001 A 
ENDROOT
TORSDOF 0
ENDMDL
