MODEL 1
REMARK minimizedAffinity -3.39186406
REMARK minimizedRMSD -1
REMARK  0 active torsions:
REMARK  status: ('A' for Active; 'I' for Inactive)
ROOT
ATOM      1  C   UNL d   1       5.252   1.499   3.664  0.00  0.00     0.078 C 
ATOM      2  C1  UNL d   1       5.251   2.967   3.356  0.00  0.00    -0.077 A 
ATOM      3  C2  UNL d   1       4.499   3.864   4.124  0.00  0.00    -0.001 A 
ATOM      4  C3  UNL d   1       4.499   5.226   3.819  0.00  0.00     0.003 A 
ATOM      5  C4  UNL d   1       5.249   5.703   2.746  0.00  0.00    -0.005 A 
ATOM      6  C5  UNL d   1       5.999   4.817   1.975  0.00  0.00     0.003 A 
ATOM      7  C6  UNL d   1       6.000   3.455   2.278  0.00  0.00    -0.001 A 
ENDROOT
TORSDOF 0
ENDMDL
