MODEL 1
REMARK minimizedAffinity -2.03624606
REMARK minimizedRMSD -1
REMARK  0 active torsions:
REMARK  status: ('A' for Active; 'I' for Inactive)
ROOT
ATOM      1  C   UNL d   1       5.786   1.156   4.214  0.00  0.00     0.078 C 
ATOM      2  C1  UNL d   1       5.774   2.566   3.704  0.00  0.00    -0.077 A 
ATOM      3  C2  UNL d   1       5.552   2.842   2.350  0.00  0.00    -0.001 A 
ATOM      4  C3  UNL d   1       5.553   4.159   1.888  0.00  0.00     0.003 A 
ATOM      5  C4  UNL d   1       5.776   5.211   2.774  0.00  0.00    -0.005 A 
ATOM      6  C5  UNL d   1       6.000   4.947   4.123  0.00  0.00     0.003 A 
ATOM      7  C6  UNL d   1       5.999   3.630   4.587  0.00  0.00    -0.001 A 
ENDROOT
TORSDOF 0
ENDMDL
