MODEL 1
REMARK minimizedAffinity -0.846888781
REMARK minimizedRMSD -1
REMARK  1 active torsions:
REMARK  status: ('A' for Active; 'I' for Inactive)
REMARK    1  A    between atoms: C1_2  and  C2_3 
ROOT
ATOM      1  C2  UNL d   1      -3.197   1.160  -3.562  0.00  0.00    -0.076 A 
ATOM      2  C3  UNL d   1      -3.655   1.466  -4.855  0.00  0.00     0.004 A 
ATOM      3  C4  UNL d   1      -4.151   0.470  -5.695  0.00  0.00    -0.003 A 
ATOM      4  C5  UNL d   1      -4.199  -0.848  -5.254  0.00  0.00     0.000 A 
ATOM      5  C6  UNL d   1      -3.765  -1.167  -3.968  0.00  0.00     0.000 A 
ATOM      6  C7  UNL d   1      -3.277  -0.172  -3.103  0.00  0.00    -0.073 A 
ATOM      7  C8  UNL d   1      -2.817  -0.574  -1.728  0.00  0.00     0.078 C 
ENDROOT
BRANCH   1   8
ATOM      8  C1  UNL d   1      -2.644   2.277  -2.706  0.00  0.00     0.053 C 
ATOM      9  C   UNL d   1      -2.887   3.650  -3.312  0.00  0.00     0.018 C 
ENDBRANCH   1   8
TORSDOF 1
ENDMDL
