MODEL 1
REMARK minimizedAffinity -3.62453055
REMARK minimizedRMSD -1
REMARK  1 active torsions:
REMARK  status: ('A' for Active; 'I' for Inactive)
REMARK    1  A    between atoms: C1_2  and  C2_3 
ROOT
ATOM      1  C2  UNL d   1      -0.196   0.723   1.148  0.00  0.00    -0.077 A 
ATOM      2  C3  UNL d   1       0.328  -0.525   0.781  0.00  0.00     0.002 A 
ATOM      3  C4  UNL d   1       1.391  -1.082   1.494  0.00  0.00     0.002 A 
ATOM      4  C5  UNL d   1       1.936  -0.401   2.581  0.00  0.00    -0.004 A 
ATOM      5  C6  UNL d   1       1.423   0.841   2.952  0.00  0.00     0.002 A 
ATOM      6  C7  UNL d   1       0.361   1.400   2.240  0.00  0.00     0.002 A 
ENDROOT
BRANCH   1   7
ATOM      7  C1  UNL d   1      -1.375   1.303   0.410  0.00  0.00     0.055 C 
ATOM      8  C   UNL d   1      -2.357   1.961   1.368  0.00  0.00     0.019 C 
ENDBRANCH   1   7
TORSDOF 1
ENDMDL
