MODEL 1
REMARK minimizedAffinity -3.36205602
REMARK minimizedRMSD -1
REMARK  1 active torsions:
REMARK  status: ('A' for Active; 'I' for Inactive)
REMARK    1  A    between atoms: C1_2  and  C2_3 
ROOT
ATOM      1  C2  UNL d   1      -0.232  -1.056  -0.222  0.00  0.00    -0.077 A 
ATOM      2  C3  UNL d   1      -1.149  -2.103  -0.391  0.00  0.00     0.002 A 
ATOM      3  C4  UNL d   1      -0.952  -3.059  -1.389  0.00  0.00     0.002 A 
ATOM      4  C5  UNL d   1       0.162  -2.980  -2.222  0.00  0.00    -0.004 A 
ATOM      5  C6  UNL d   1       1.079  -1.942  -2.063  0.00  0.00     0.002 A 
ATOM      6  C7  UNL d   1       0.883  -0.984  -1.066  0.00  0.00     0.002 A 
ENDROOT
BRANCH   1   7
ATOM      7  C1  UNL d   1      -0.416  -0.051   0.886  0.00  0.00     0.055 C 
ATOM      8  C   UNL d   1       0.714  -0.134   1.902  0.00  0.00     0.019 C 
ENDBRANCH   1   7
TORSDOF 1
ENDMDL
