MODEL 1
REMARK minimizedAffinity -5.87014341
REMARK minimizedRMSD -1
REMARK  1 active torsions:
REMARK  status: ('A' for Active; 'I' for Inactive)
REMARK    1  A    between atoms: C1_2  and  C2_3 
ROOT
ATOM      1  C2  UNL d   1      -0.172  -0.137  -0.081  0.00  0.00    -0.077 A 
ATOM      2  C3  UNL d   1      -0.872   0.875  -0.754  0.00  0.00     0.002 A 
ATOM      3  C4  UNL d   1      -1.310   2.008  -0.066  0.00  0.00     0.002 A 
ATOM      4  C5  UNL d   1      -1.049   2.143   1.296  0.00  0.00    -0.004 A 
ATOM      5  C6  UNL d   1      -0.356   1.141   1.975  0.00  0.00     0.002 A 
ATOM      6  C7  UNL d   1       0.081   0.007   1.289  0.00  0.00     0.002 A 
ENDROOT
BRANCH   1   7
ATOM      7  C1  UNL d   1       0.344  -1.337  -0.831  0.00  0.00     0.055 C 
ATOM      8  C   UNL d   1       0.801  -0.959  -2.232  0.00  0.00     0.019 C 
ENDBRANCH   1   7
TORSDOF 1
ENDMDL
