MODEL 1
REMARK minimizedAffinity 8.91483307
REMARK minimizedRMSD -1
REMARK  1 active torsions:
REMARK  status: ('A' for Active; 'I' for Inactive)
REMARK    1  A    between atoms: C1_2  and  C2_3 
ROOT
ATOM      1  C2  UNL d   1       0.612   1.480   2.249  0.00  0.00    -0.081 A 
ATOM      2  C3  UNL d   1      -0.500   2.224   1.837  0.00  0.00     0.006 A 
ATOM      3  C4  UNL d   1      -1.794   1.746   2.059  0.00  0.00     0.002 A 
ATOM      4  C5  UNL d   1      -1.997   0.521   2.704  0.00  0.00    -0.080 A 
ATOM      5  C6  UNL d   1      -3.381   0.010   2.976  0.00  0.00     0.076 C 
ATOM      6  C7  UNL d   1      -0.885  -0.231   3.100  0.00  0.00     0.002 A 
ATOM      7  C8  UNL d   1       0.408   0.246   2.877  0.00  0.00     0.006 A 
ENDROOT
BRANCH   1   8
ATOM      8  C1  UNL d   1       2.007   2.023   2.069  0.00  0.00     0.054 C 
ATOM      9  C   UNL d   1       2.388   2.959   3.207  0.00  0.00     0.018 C 
ENDBRANCH   1   8
TORSDOF 1
ENDMDL
