MODEL 1
REMARK minimizedAffinity 15.1774406
REMARK minimizedRMSD -1
REMARK  1 active torsions:
REMARK  status: ('A' for Active; 'I' for Inactive)
REMARK    1  A    between atoms: C1_2  and  C2_3 
ROOT
ATOM      1  C2  UNL d   1       2.277  -1.121  -0.665  0.00  0.00    -0.081 A 
ATOM      2  C3  UNL d   1       1.706  -1.064  -1.942  0.00  0.00     0.006 A 
ATOM      3  C4  UNL d   1       1.417   0.168  -2.534  0.00  0.00     0.002 A 
ATOM      4  C5  UNL d   1       1.701   1.362  -1.864  0.00  0.00    -0.080 A 
ATOM      5  C6  UNL d   1       1.424   2.691  -2.501  0.00  0.00     0.076 C 
ATOM      6  C7  UNL d   1       2.256   1.305  -0.581  0.00  0.00     0.002 A 
ATOM      7  C8  UNL d   1       2.544   0.074   0.013  0.00  0.00     0.006 A 
ENDROOT
BRANCH   1   8
ATOM      8  C1  UNL d   1       2.649  -2.445  -0.049  0.00  0.00     0.054 C 
ATOM      9  C   UNL d   1       4.150  -2.687  -0.123  0.00  0.00     0.018 C 
ENDBRANCH   1   8
TORSDOF 1
ENDMDL
