MODEL 1
REMARK minimizedAffinity 6.23462534
REMARK minimizedRMSD -1
REMARK  1 active torsions:
REMARK  status: ('A' for Active; 'I' for Inactive)
REMARK    1  A    between atoms: C1_2  and  C2_3 
ROOT
ATOM      1  C2  UNL d   1       2.784  -3.807  -2.183  0.00  0.00    -0.081 A 
ATOM      2  C3  UNL d   1       3.140  -3.382  -0.897  0.00  0.00     0.006 A 
ATOM      3  C4  UNL d   1       4.082  -4.095  -0.151  0.00  0.00     0.002 A 
ATOM      4  C5  UNL d   1       4.688  -5.239  -0.681  0.00  0.00    -0.080 A 
ATOM      5  C6  UNL d   1       5.723  -5.996   0.097  0.00  0.00     0.076 C 
ATOM      6  C7  UNL d   1       4.319  -5.674  -1.958  0.00  0.00     0.002 A 
ATOM      7  C8  UNL d   1       3.378  -4.962  -2.704  0.00  0.00     0.006 A 
ENDROOT
BRANCH   1   8
ATOM      8  C1  UNL d   1       1.817  -3.004  -3.015  0.00  0.00     0.054 C 
ATOM      9  C   UNL d   1       2.342  -2.797  -4.428  0.00  0.00     0.018 C 
ENDBRANCH   1   8
TORSDOF 1
ENDMDL
