MODEL 1
REMARK minimizedAffinity 18.6788101
REMARK minimizedRMSD -1
REMARK  1 active torsions:
REMARK  status: ('A' for Active; 'I' for Inactive)
REMARK    1  A    between atoms: C1_2  and  C2_3 
ROOT
ATOM      1  C2  UNL d   1      -0.216  -2.930  -2.036  0.00  0.00    -0.081 A 
ATOM      2  C3  UNL d   1       0.500  -3.370  -0.916  0.00  0.00     0.006 A 
ATOM      3  C4  UNL d   1       1.412  -2.524  -0.282  0.00  0.00     0.002 A 
ATOM      4  C5  UNL d   1       1.618  -1.222  -0.751  0.00  0.00    -0.080 A 
ATOM      5  C6  UNL d   1       2.573  -0.294  -0.061  0.00  0.00     0.076 C 
ATOM      6  C7  UNL d   1       0.916  -0.789  -1.881  0.00  0.00     0.002 A 
ATOM      7  C8  UNL d   1       0.003  -1.635  -2.516  0.00  0.00     0.006 A 
ENDROOT
BRANCH   1   8
ATOM      8  C1  UNL d   1      -1.249  -3.818  -2.683  0.00  0.00     0.054 C 
ATOM      9  C   UNL d   1      -1.972  -4.669  -1.649  0.00  0.00     0.018 C 
ENDBRANCH   1   8
TORSDOF 1
ENDMDL
