MODEL 1
REMARK minimizedAffinity 18.6210938
REMARK minimizedRMSD -1
REMARK  1 active torsions:
REMARK  status: ('A' for Active; 'I' for Inactive)
REMARK    1  A    between atoms: C1_2  and  C2_3 
ROOT
ATOM      1  C2  UNL d   1       2.803   3.021   3.765  0.00  0.00    -0.081 A 
ATOM      2  C3  UNL d   1       2.571   1.658   3.547  0.00  0.00     0.006 A 
ATOM      3  C4  UNL d   1       2.791   1.095   2.288  0.00  0.00     0.002 A 
ATOM      4  C5  UNL d   1       3.253   1.883   1.229  0.00  0.00    -0.080 A 
ATOM      5  C6  UNL d   1       3.521   1.285  -0.120  0.00  0.00     0.076 C 
ATOM      6  C7  UNL d   1       3.468   3.249   1.442  0.00  0.00     0.002 A 
ATOM      7  C8  UNL d   1       3.248   3.813   2.700  0.00  0.00     0.006 A 
ENDROOT
BRANCH   1   8
ATOM      8  C1  UNL d   1       2.630   3.619   5.139  0.00  0.00     0.054 C 
ATOM      9  C   UNL d   1       3.868   3.403   5.996  0.00  0.00     0.018 C 
ENDBRANCH   1   8
TORSDOF 1
ENDMDL
