MODEL 1
REMARK minimizedAffinity 12.6425838
REMARK minimizedRMSD -1
REMARK  1 active torsions:
REMARK  status: ('A' for Active; 'I' for Inactive)
REMARK    1  A    between atoms: C1_2  and  C2_3 
ROOT
ATOM      1  C2  UNL d   1      -1.144  -4.413  -2.659  0.00  0.00    -0.081 A 
ATOM      2  C3  UNL d   1      -2.451  -4.003  -2.948  0.00  0.00     0.006 A 
ATOM      3  C4  UNL d   1      -2.849  -2.685  -2.708  0.00  0.00     0.002 A 
ATOM      4  C5  UNL d   1      -1.945  -1.755  -2.184  0.00  0.00    -0.080 A 
ATOM      5  C6  UNL d   1      -2.351  -0.330  -1.950  0.00  0.00     0.076 C 
ATOM      6  C7  UNL d   1      -0.644  -2.170  -1.879  0.00  0.00     0.002 A 
ATOM      7  C8  UNL d   1      -0.246  -3.487  -2.117  0.00  0.00     0.006 A 
ENDROOT
BRANCH   1   8
ATOM      8  C1  UNL d   1      -0.693  -5.816  -2.977  0.00  0.00     0.054 C 
ATOM      9  C   UNL d   1      -0.468  -6.000  -4.471  0.00  0.00     0.018 C 
ENDBRANCH   1   8
TORSDOF 1
ENDMDL
