MODEL 1
REMARK minimizedAffinity 13.716321
REMARK minimizedRMSD -1
REMARK  1 active torsions:
REMARK  status: ('A' for Active; 'I' for Inactive)
REMARK    1  A    between atoms: C1_2  and  C2_3 
ROOT
ATOM      1  C2  UNL d   1       1.752   0.903   4.180  0.00  0.00    -0.081 A 
ATOM      2  C3  UNL d   1       2.079   1.089   5.529  0.00  0.00     0.006 A 
ATOM      3  C4  UNL d   1       2.580   2.315   5.973  0.00  0.00     0.002 A 
ATOM      4  C5  UNL d   1       2.755   3.376   5.079  0.00  0.00    -0.080 A 
ATOM      5  C6  UNL d   1       3.264   4.707   5.549  0.00  0.00     0.076 C 
ATOM      6  C7  UNL d   1       2.446   3.184   3.728  0.00  0.00     0.002 A 
ATOM      7  C8  UNL d   1       1.945   1.959   3.283  0.00  0.00     0.006 A 
ENDROOT
BRANCH   1   8
ATOM      8  C1  UNL d   1       1.151  -0.397   3.709  0.00  0.00     0.054 C 
ATOM      9  C   UNL d   1       0.343  -1.064   4.813  0.00  0.00     0.018 C 
ENDBRANCH   1   8
TORSDOF 1
ENDMDL
