MODEL 1
REMARK minimizedAffinity 8.26915932
REMARK minimizedRMSD -1
REMARK  1 active torsions:
REMARK  status: ('A' for Active; 'I' for Inactive)
REMARK    1  A    between atoms: C1_2  and  C2_3 
ROOT
ATOM      1  C2  UNL d   1       1.353  -3.525  -1.088  0.00  0.00    -0.081 A 
ATOM      2  C3  UNL d   1       0.985  -2.176  -1.157  0.00  0.00     0.006 A 
ATOM      3  C4  UNL d   1      -0.256  -1.805  -1.681  0.00  0.00     0.002 A 
ATOM      4  C5  UNL d   1      -1.153  -2.778  -2.136  0.00  0.00    -0.080 A 
ATOM      5  C6  UNL d   1      -2.500  -2.395  -2.672  0.00  0.00     0.076 C 
ATOM      6  C7  UNL d   1      -0.779  -4.125  -2.083  0.00  0.00     0.002 A 
ATOM      7  C8  UNL d   1       0.462  -4.496  -1.560  0.00  0.00     0.006 A 
ENDROOT
BRANCH   1   8
ATOM      8  C1  UNL d   1       2.663  -3.932  -0.464  0.00  0.00     0.054 C 
ATOM      9  C   UNL d   1       3.510  -2.717  -0.114  0.00  0.00     0.018 C 
ENDBRANCH   1   8
TORSDOF 1
ENDMDL
