MODEL 1
REMARK minimizedAffinity 16.911705
REMARK minimizedRMSD -1
REMARK  1 active torsions:
REMARK  status: ('A' for Active; 'I' for Inactive)
REMARK    1  A    between atoms: C1_2  and  C2_3 
ROOT
ATOM      1  C2  UNL d   1      -5.882  -3.006   3.122  0.00  0.00    -0.081 A 
ATOM      2  C3  UNL d   1      -5.857  -1.855   3.919  0.00  0.00     0.006 A 
ATOM      3  C4  UNL d   1      -5.882  -0.587   3.333  0.00  0.00     0.002 A 
ATOM      4  C5  UNL d   1      -5.940  -0.449   1.942  0.00  0.00    -0.080 A 
ATOM      5  C6  UNL d   1      -5.998   0.906   1.301  0.00  0.00     0.076 C 
ATOM      6  C7  UNL d   1      -5.948  -1.599   1.145  0.00  0.00     0.002 A 
ATOM      7  C8  UNL d   1      -5.922  -2.867   1.730  0.00  0.00     0.006 A 
ENDROOT
BRANCH   1   8
ATOM      8  C1  UNL d   1      -5.921  -4.374   3.753  0.00  0.00     0.054 C 
ATOM      9  C   UNL d   1      -5.674  -4.299   5.253  0.00  0.00     0.018 C 
ENDBRANCH   1   8
TORSDOF 1
ENDMDL
