MODEL 1
REMARK minimizedAffinity 2.33242583
REMARK minimizedRMSD -1
REMARK  1 active torsions:
REMARK  status: ('A' for Active; 'I' for Inactive)
REMARK    1  A    between atoms: C1_2  and  C2_3 
ROOT
ATOM      1  C2  UNL d   1       0.589  -2.669  -1.914  0.00  0.00    -0.081 A 
ATOM      2  C3  UNL d   1       1.358  -2.736  -0.746  0.00  0.00     0.006 A 
ATOM      3  C4  UNL d   1       2.287  -1.736  -0.451  0.00  0.00     0.002 A 
ATOM      4  C5  UNL d   1       2.458  -0.648  -1.315  0.00  0.00    -0.080 A 
ATOM      5  C6  UNL d   1       3.430   0.448  -0.996  0.00  0.00     0.076 C 
ATOM      6  C7  UNL d   1       1.702  -0.590  -2.491  0.00  0.00     0.002 A 
ATOM      7  C8  UNL d   1       0.773  -1.590  -2.786  0.00  0.00     0.006 A 
ENDROOT
BRANCH   1   8
ATOM      8  C1  UNL d   1      -0.460  -3.712  -2.202  0.00  0.00     0.054 C 
ATOM      9  C   UNL d   1      -1.858  -3.109  -2.191  0.00  0.00     0.018 C 
ENDBRANCH   1   8
TORSDOF 1
ENDMDL
