MODEL 1
REMARK minimizedAffinity 17.5454788
REMARK minimizedRMSD -1
REMARK  1 active torsions:
REMARK  status: ('A' for Active; 'I' for Inactive)
REMARK    1  A    between atoms: C1_2  and  C2_3 
ROOT
ATOM      1  C2  UNL d   1       2.157  -0.903  -1.287  0.00  0.00    -0.081 A 
ATOM      2  C3  UNL d   1       2.689   0.182  -0.581  0.00  0.00     0.006 A 
ATOM      3  C4  UNL d   1       2.502   1.488  -1.043  0.00  0.00     0.002 A 
ATOM      4  C5  UNL d   1       1.773   1.729  -2.212  0.00  0.00    -0.080 A 
ATOM      5  C6  UNL d   1       1.539   3.127  -2.702  0.00  0.00     0.076 C 
ATOM      6  C7  UNL d   1       1.256   0.643  -2.927  0.00  0.00     0.002 A 
ATOM      7  C8  UNL d   1       1.443  -0.662  -2.466  0.00  0.00     0.006 A 
ENDROOT
BRANCH   1   8
ATOM      8  C1  UNL d   1       2.302  -2.307  -0.757  0.00  0.00     0.054 C 
ATOM      9  C   UNL d   1       0.958  -3.018  -0.699  0.00  0.00     0.018 C 
ENDBRANCH   1   8
TORSDOF 1
ENDMDL
