MODEL 1
REMARK minimizedAffinity -3.68600392
REMARK minimizedRMSD -1
REMARK  1 active torsions:
REMARK  status: ('A' for Active; 'I' for Inactive)
REMARK    1  A    between atoms: C1_2  and  C2_3 
ROOT
ATOM      1  C2  UNL d   1       0.736  -1.169  -0.495  0.00  0.00    -0.081 A 
ATOM      2  C3  UNL d   1       1.543  -0.297  -1.235  0.00  0.00     0.006 A 
ATOM      3  C4  UNL d   1       1.730   1.023  -0.817  0.00  0.00     0.002 A 
ATOM      4  C5  UNL d   1       1.119   1.491   0.351  0.00  0.00    -0.080 A 
ATOM      5  C6  UNL d   1       1.335   2.896   0.827  0.00  0.00     0.076 C 
ATOM      6  C7  UNL d   1       0.297   0.625   1.081  0.00  0.00     0.002 A 
ATOM      7  C8  UNL d   1       0.110  -0.695   0.664  0.00  0.00     0.006 A 
ENDROOT
BRANCH   1   8
ATOM      8  C1  UNL d   1       0.585  -2.611  -0.907  0.00  0.00     0.054 C 
ATOM      9  C   UNL d   1      -0.881  -3.015  -0.979  0.00  0.00     0.018 C 
ENDBRANCH   1   8
TORSDOF 1
ENDMDL
