MODEL 1
REMARK minimizedAffinity -1.82186627
REMARK minimizedRMSD -1
REMARK  1 active torsions:
REMARK  status: ('A' for Active; 'I' for Inactive)
REMARK    1  A    between atoms: C1_2  and  C2_3 
ROOT
ATOM      1  C2  UNL d   1      -0.395   0.026  -0.077  0.00  0.00    -0.073 A 
ATOM      2  C3  UNL d   1       0.730   0.365  -0.838  0.00  0.00    -0.002 A 
ATOM      3  C4  UNL d   1       1.623  -0.622  -1.254  0.00  0.00     0.004 A 
ATOM      4  C5  UNL d   1       1.399  -1.958  -0.920  0.00  0.00    -0.004 A 
ATOM      5  C6  UNL d   1       0.275  -2.318  -0.170  0.00  0.00    -0.075 A 
ATOM      6  C7  UNL d   1       0.020  -3.750   0.199  0.00  0.00     0.076 C 
ATOM      7  C8  UNL d   1      -0.616  -1.320   0.246  0.00  0.00     0.001 A 
ENDROOT
BRANCH   1   8
ATOM      8  C1  UNL d   1      -1.366   1.088   0.370  0.00  0.00     0.053 C 
ATOM      9  C   UNL d   1      -1.969   0.774   1.730  0.00  0.00     0.018 C 
ENDBRANCH   1   8
TORSDOF 1
ENDMDL
