MODEL 1
REMARK minimizedAffinity -4.05370712
REMARK minimizedRMSD -1
REMARK  1 active torsions:
REMARK  status: ('A' for Active; 'I' for Inactive)
REMARK    1  A    between atoms: C1_2  and  C2_3 
ROOT
ATOM      1  C2  UNL d   1      -0.478   0.460   1.052  0.00  0.00    -0.073 A 
ATOM      2  C3  UNL d   1      -1.524  -0.438   0.814  0.00  0.00    -0.002 A 
ATOM      3  C4  UNL d   1      -1.352  -1.502  -0.072  0.00  0.00     0.004 A 
ATOM      4  C5  UNL d   1      -0.132  -1.684  -0.722  0.00  0.00    -0.004 A 
ATOM      5  C6  UNL d   1       0.930  -0.804  -0.489  0.00  0.00    -0.075 A 
ATOM      6  C7  UNL d   1       2.248  -0.985  -1.182  0.00  0.00     0.076 C 
ATOM      7  C8  UNL d   1       0.748   0.264   0.400  0.00  0.00     0.001 A 
ENDROOT
BRANCH   1   8
ATOM      8  C1  UNL d   1      -0.657   1.607   2.012  0.00  0.00     0.053 C 
ATOM      9  C   UNL d   1      -1.505   1.219   3.212  0.00  0.00     0.018 C 
ENDBRANCH   1   8
TORSDOF 1
ENDMDL
