MODEL 1
REMARK minimizedAffinity -4.03972578
REMARK minimizedRMSD -1
REMARK  1 active torsions:
REMARK  status: ('A' for Active; 'I' for Inactive)
REMARK    1  A    between atoms: C1_2  and  C2_3 
ROOT
ATOM      1  C2  UNL d   1       0.507  -0.306  -0.631  0.00  0.00    -0.073 A 
ATOM      2  C3  UNL d   1       0.178   0.656  -1.592  0.00  0.00    -0.002 A 
ATOM      3  C4  UNL d   1      -0.925   1.491  -1.405  0.00  0.00     0.004 A 
ATOM      4  C5  UNL d   1      -1.705   1.377  -0.254  0.00  0.00    -0.004 A 
ATOM      5  C6  UNL d   1      -1.385   0.429   0.723  0.00  0.00    -0.075 A 
ATOM      6  C7  UNL d   1      -2.215   0.291   1.966  0.00  0.00     0.076 C 
ATOM      7  C8  UNL d   1      -0.278  -0.408   0.527  0.00  0.00     0.001 A 
ENDROOT
BRANCH   1   8
ATOM      8  C1  UNL d   1       1.700  -1.206  -0.825  0.00  0.00     0.053 C 
ATOM      9  C   UNL d   1       3.009  -0.485  -0.543  0.00  0.00     0.018 C 
ENDBRANCH   1   8
TORSDOF 1
ENDMDL
