MODEL 1
REMARK minimizedAffinity -5.68714857
REMARK minimizedRMSD -1
REMARK  1 active torsions:
REMARK  status: ('A' for Active; 'I' for Inactive)
REMARK    1  A    between atoms: C1_2  and  C2_3 
ROOT
ATOM      1  C2  UNL d   1      -0.222  -0.030  -0.206  0.00  0.00    -0.073 A 
ATOM      2  C3  UNL d   1      -0.412  -1.408  -0.055  0.00  0.00    -0.002 A 
ATOM      3  C4  UNL d   1       0.551  -2.307  -0.516  0.00  0.00     0.004 A 
ATOM      4  C5  UNL d   1       1.714  -1.838  -1.126  0.00  0.00    -0.004 A 
ATOM      5  C6  UNL d   1       1.927  -0.464  -1.276  0.00  0.00    -0.075 A 
ATOM      6  C7  UNL d   1       3.172   0.057  -1.932  0.00  0.00     0.076 C 
ATOM      7  C8  UNL d   1       0.955   0.432  -0.812  0.00  0.00     0.001 A 
ENDROOT
BRANCH   1   8
ATOM      8  C1  UNL d   1      -1.256   0.945   0.296  0.00  0.00     0.053 C 
ATOM      9  C   UNL d   1      -1.643   0.671   1.741  0.00  0.00     0.018 C 
ENDBRANCH   1   8
TORSDOF 1
ENDMDL
