MODEL 1
REMARK minimizedAffinity 4.53146505
REMARK minimizedRMSD -1
REMARK  1 active torsions:
REMARK  status: ('A' for Active; 'I' for Inactive)
REMARK    1  A    between atoms: C1_2  and  C2_3 
ROOT
ATOM      1  C2  UNL d   1       0.310  -0.848  -1.166  0.00  0.00    -0.073 A 
ATOM      2  C3  UNL d   1       1.237  -1.226  -2.144  0.00  0.00    -0.002 A 
ATOM      3  C4  UNL d   1       1.625  -0.322  -3.134  0.00  0.00     0.004 A 
ATOM      4  C5  UNL d   1       1.097   0.969  -3.152  0.00  0.00    -0.004 A 
ATOM      5  C6  UNL d   1       0.179   1.369  -2.176  0.00  0.00    -0.075 A 
ATOM      6  C7  UNL d   1      -0.400   2.753  -2.182  0.00  0.00     0.076 C 
ATOM      7  C8  UNL d   1      -0.208   0.455  -1.187  0.00  0.00     0.001 A 
ENDROOT
BRANCH   1   8
ATOM      8  C1  UNL d   1      -0.108  -1.818  -0.091  0.00  0.00     0.053 C 
ATOM      9  C   UNL d   1      -0.434  -1.115   1.217  0.00  0.00     0.018 C 
ENDBRANCH   1   8
TORSDOF 1
ENDMDL
