MODEL 1
REMARK minimizedAffinity -0.817051411
REMARK minimizedRMSD -1
REMARK  1 active torsions:
REMARK  status: ('A' for Active; 'I' for Inactive)
REMARK    1  A    between atoms: C1_2  and  C2_3 
ROOT
ATOM      1  C2  UNL d   1      -0.070  -0.869   0.376  0.00  0.00    -0.073 A 
ATOM      2  C3  UNL d   1      -0.379   0.135  -0.549  0.00  0.00    -0.002 A 
ATOM      3  C4  UNL d   1      -1.144   1.237  -0.163  0.00  0.00     0.004 A 
ATOM      4  C5  UNL d   1      -1.600   1.350   1.150  0.00  0.00    -0.004 A 
ATOM      5  C6  UNL d   1      -1.291   0.363   2.091  0.00  0.00    -0.075 A 
ATOM      6  C7  UNL d   1      -1.776   0.469   3.507  0.00  0.00     0.076 C 
ATOM      7  C8  UNL d   1      -0.525  -0.742   1.696  0.00  0.00     0.001 A 
ENDROOT
BRANCH   1   8
ATOM      8  C1  UNL d   1       0.760  -2.058  -0.034  0.00  0.00     0.053 C 
ATOM      9  C   UNL d   1       1.600  -1.768  -1.268  0.00  0.00     0.018 C 
ENDBRANCH   1   8
TORSDOF 1
ENDMDL
