MODEL 1
REMARK minimizedAffinity 9.57354259
REMARK minimizedRMSD -1
REMARK  1 active torsions:
REMARK  status: ('A' for Active; 'I' for Inactive)
REMARK    1  A    between atoms: C1_2  and  C2_3 
ROOT
ATOM      1  C2  UNL d   1      -1.353  -0.511   1.193  0.00  0.00    -0.073 A 
ATOM      2  C3  UNL d   1      -0.969   0.672   1.833  0.00  0.00    -0.002 A 
ATOM      3  C4  UNL d   1      -1.513   1.011   3.073  0.00  0.00     0.004 A 
ATOM      4  C5  UNL d   1      -2.440   0.168   3.687  0.00  0.00    -0.004 A 
ATOM      5  C6  UNL d   1      -2.827  -1.025   3.068  0.00  0.00    -0.075 A 
ATOM      6  C7  UNL d   1      -3.824  -1.941   3.715  0.00  0.00     0.076 C 
ATOM      7  C8  UNL d   1      -2.278  -1.357   1.822  0.00  0.00     0.001 A 
ENDROOT
BRANCH   1   8
ATOM      8  C1  UNL d   1      -0.764  -0.885  -0.143  0.00  0.00     0.053 C 
ATOM      9  C   UNL d   1      -0.047  -2.225  -0.095  0.00  0.00     0.018 C 
ENDBRANCH   1   8
TORSDOF 1
ENDMDL
