MODEL 1
REMARK minimizedAffinity 6.8529315
REMARK minimizedRMSD -1
REMARK  1 active torsions:
REMARK  status: ('A' for Active; 'I' for Inactive)
REMARK    1  A    between atoms: C1_2  and  C2_3 
ROOT
ATOM      1  C2  UNL d   1       4.533   3.719   0.324  0.00  0.00    -0.073 A 
ATOM      2  C3  UNL d   1       4.452   3.981  -1.049  0.00  0.00    -0.002 A 
ATOM      3  C4  UNL d   1       3.947   3.017  -1.922  0.00  0.00     0.004 A 
ATOM      4  C5  UNL d   1       3.512   1.786  -1.433  0.00  0.00    -0.004 A 
ATOM      5  C6  UNL d   1       3.573   1.509  -0.063  0.00  0.00    -0.075 A 
ATOM      6  C7  UNL d   1       3.111   0.188   0.479  0.00  0.00     0.076 C 
ATOM      7  C8  UNL d   1       4.084   2.481   0.807  0.00  0.00     0.001 A 
ENDROOT
BRANCH   1   8
ATOM      8  C1  UNL d   1       5.071   4.759   1.271  0.00  0.00     0.053 C 
ATOM      9  C   UNL d   1       5.592   5.984   0.537  0.00  0.00     0.018 C 
ENDBRANCH   1   8
TORSDOF 1
ENDMDL
