MODEL 1
REMARK minimizedAffinity 13.7565813
REMARK minimizedRMSD -1
REMARK  1 active torsions:
REMARK  status: ('A' for Active; 'I' for Inactive)
REMARK    1  A    between atoms: C1_2  and  C2_3 
ROOT
ATOM      1  C2  UNL d   1       3.167   0.681  -0.277  0.00  0.00    -0.073 A 
ATOM      2  C3  UNL d   1       3.478   0.997  -1.604  0.00  0.00    -0.002 A 
ATOM      3  C4  UNL d   1       4.314   2.075  -1.895  0.00  0.00     0.004 A 
ATOM      4  C5  UNL d   1       4.854   2.843  -0.863  0.00  0.00    -0.004 A 
ATOM      5  C6  UNL d   1       4.565   2.535   0.470  0.00  0.00    -0.075 A 
ATOM      6  C7  UNL d   1       5.136   3.353   1.591  0.00  0.00     0.076 C 
ATOM      7  C8  UNL d   1       3.722   1.453   0.754  0.00  0.00     0.001 A 
ENDROOT
BRANCH   1   8
ATOM      8  C1  UNL d   1       2.270  -0.487   0.042  0.00  0.00     0.053 C 
ATOM      9  C   UNL d   1       1.890  -1.271  -1.204  0.00  0.00     0.018 C 
ENDBRANCH   1   8
TORSDOF 1
ENDMDL
