MODEL 1
REMARK minimizedAffinity 3.43861413
REMARK minimizedRMSD -1
REMARK  1 active torsions:
REMARK  status: ('A' for Active; 'I' for Inactive)
REMARK    1  A    between atoms: C1_2  and  C2_3 
ROOT
ATOM      1  C2  UNL d   1       3.185   0.871   0.050  0.00  0.00    -0.073 A 
ATOM      2  C3  UNL d   1       2.134  -0.025   0.277  0.00  0.00    -0.002 A 
ATOM      3  C4  UNL d   1       2.335  -1.164   1.057  0.00  0.00     0.004 A 
ATOM      4  C5  UNL d   1       3.585  -1.416   1.623  0.00  0.00    -0.004 A 
ATOM      5  C6  UNL d   1       4.644  -0.527   1.418  0.00  0.00    -0.075 A 
ATOM      6  C7  UNL d   1       5.995  -0.784   2.018  0.00  0.00     0.076 C 
ATOM      7  C8  UNL d   1       4.436   0.614   0.631  0.00  0.00     0.001 A 
ENDROOT
BRANCH   1   8
ATOM      8  C1  UNL d   1       2.972   2.106  -0.787  0.00  0.00     0.053 C 
ATOM      9  C   UNL d   1       4.093   2.314  -1.793  0.00  0.00     0.018 C 
ENDBRANCH   1   8
TORSDOF 1
ENDMDL
