MODEL 1
REMARK minimizedAffinity 3.6117878
REMARK minimizedRMSD -1
REMARK  1 active torsions:
REMARK  status: ('A' for Active; 'I' for Inactive)
REMARK    1  A    between atoms: C1_2  and  C2_3 
ROOT
ATOM      1  C2  UNL d   1       2.081  -1.501  -0.825  0.00  0.00    -0.073 A 
ATOM      2  C3  UNL d   1       2.472  -1.766   0.493  0.00  0.00    -0.002 A 
ATOM      3  C4  UNL d   1       3.245  -0.842   1.198  0.00  0.00     0.004 A 
ATOM      4  C5  UNL d   1       3.628   0.357   0.597  0.00  0.00    -0.004 A 
ATOM      5  C6  UNL d   1       3.237   0.645  -0.715  0.00  0.00    -0.075 A 
ATOM      6  C7  UNL d   1       3.642   1.929  -1.376  0.00  0.00     0.076 C 
ATOM      7  C8  UNL d   1       2.463  -0.289  -1.417  0.00  0.00     0.001 A 
ENDROOT
BRANCH   1   8
ATOM      8  C1  UNL d   1       1.241  -2.492  -1.588  0.00  0.00     0.053 C 
ATOM      9  C   UNL d   1       0.970  -3.751  -0.780  0.00  0.00     0.018 C 
ENDBRANCH   1   8
TORSDOF 1
ENDMDL
