MODEL 1
REMARK minimizedAffinity 7.6100378
REMARK minimizedRMSD -1
REMARK  1 active torsions:
REMARK  status: ('A' for Active; 'I' for Inactive)
REMARK    1  A    between atoms: C1_2  and  C2_3 
ROOT
ATOM      1  C2  UNL d   1      -4.552   4.109   2.543  0.00  0.00    -0.073 A 
ATOM      2  C3  UNL d   1      -3.311   4.748   2.640  0.00  0.00    -0.002 A 
ATOM      3  C4  UNL d   1      -2.946   5.404   3.816  0.00  0.00     0.004 A 
ATOM      4  C5  UNL d   1      -3.813   5.421   4.908  0.00  0.00    -0.004 A 
ATOM      5  C6  UNL d   1      -5.053   4.778   4.835  0.00  0.00    -0.075 A 
ATOM      6  C7  UNL d   1      -5.998   4.790   6.000  0.00  0.00     0.076 C 
ATOM      7  C8  UNL d   1      -5.414   4.124   3.649  0.00  0.00     0.001 A 
ENDROOT
BRANCH   1   8
ATOM      8  C1  UNL d   1      -4.948   3.394   1.277  0.00  0.00     0.053 C 
ATOM      9  C   UNL d   1      -3.770   2.679   0.634  0.00  0.00     0.018 C 
ENDBRANCH   1   8
TORSDOF 1
ENDMDL
