MODEL 1
REMARK minimizedAffinity 18.502676
REMARK minimizedRMSD -1
REMARK  3 active torsions:
REMARK  status: ('A' for Active; 'I' for Inactive)
REMARK    1  A    between atoms: C3'_2  and  C2'_3 
REMARK    2  A    between atoms: C2'_3  and  C1'_4 
REMARK    3  A    between atoms: C1'_4  and  C1_5 
ROOT
ATOM      1  C1  N4B d   1      -2.419   3.637   0.745  0.00  0.00    -0.075 A 
ATOM      2  C2  N4B d   1      -3.768   3.525   1.148  0.00  0.00     0.002 A 
ATOM      3  C3  N4B d   1      -4.533   4.655   1.306  0.00  0.00     0.002 A 
ATOM      4  C4  N4B d   1      -3.968   5.902   1.085  0.00  0.00    -0.004 A 
ATOM      5  C5  N4B d   1      -2.672   6.000   0.671  0.00  0.00     0.002 A 
ATOM      6  C6  N4B d   1      -1.893   4.873   0.504  0.00  0.00     0.002 A 
ENDROOT
BRANCH   1   7
ATOM      7  C1' N4B d   1      -1.519   2.436   0.642  0.00  0.00     0.057 C 
BRANCH   7   8
ATOM      8  C2' N4B d   1      -0.286   2.659   1.513  0.00  0.00     0.009 C 
BRANCH   8   9
ATOM      9  C3' N4B d   1      -0.407   1.963   2.858  0.00  0.00     0.004 C 
ATOM     10  C4' N4B d   1       0.808   2.147   3.718  0.00  0.00     0.003 C 
ENDBRANCH   8   9
ENDBRANCH   7   8
ENDBRANCH   1   7
TORSDOF 3
ENDMDL
