MODEL 1
REMARK minimizedAffinity 15.605422
REMARK minimizedRMSD -1
REMARK  3 active torsions:
REMARK  status: ('A' for Active; 'I' for Inactive)
REMARK    1  A    between atoms: C3'_2  and  C2'_3 
REMARK    2  A    between atoms: C2'_3  and  C1'_4 
REMARK    3  A    between atoms: C1'_4  and  C1_5 
ROOT
ATOM      1  C1  N4B d   1      -3.591   3.330   0.801  0.00  0.00    -0.075 A 
ATOM      2  C2  N4B d   1      -2.626   4.338   0.587  0.00  0.00     0.002 A 
ATOM      3  C3  N4B d   1      -2.977   5.661   0.700  0.00  0.00     0.002 A 
ATOM      4  C4  N4B d   1      -4.287   5.999   1.006  0.00  0.00    -0.004 A 
ATOM      5  C5  N4B d   1      -5.208   5.019   1.236  0.00  0.00     0.002 A 
ATOM      6  C6  N4B d   1      -4.867   3.685   1.130  0.00  0.00     0.002 A 
ENDROOT
BRANCH   1   7
ATOM      7  C1' N4B d   1      -3.275   1.873   0.605  0.00  0.00     0.057 C 
BRANCH   7   8
ATOM      8  C2' N4B d   1      -2.493   1.701  -0.694  0.00  0.00     0.009 C 
BRANCH   8   9
ATOM      9  C3' N4B d   1      -3.064   0.588  -1.558  0.00  0.00     0.004 C 
ATOM     10  C4' N4B d   1      -3.411   1.048  -2.942  0.00  0.00     0.003 C 
ENDBRANCH   8   9
ENDBRANCH   7   8
ENDBRANCH   1   7
TORSDOF 3
ENDMDL
