MODEL 1
REMARK minimizedAffinity 23.3004398
REMARK minimizedRMSD -1
REMARK  3 active torsions:
REMARK  status: ('A' for Active; 'I' for Inactive)
REMARK    1  A    between atoms: C3'_2  and  C2'_3 
REMARK    2  A    between atoms: C2'_3  and  C1'_4 
REMARK    3  A    between atoms: C1'_4  and  C1_5 
ROOT
ATOM      1  C1  N4B d   1       3.444  -5.132  -0.956  0.00  0.00    -0.075 A 
ATOM      2  C2  N4B d   1       3.197  -3.874  -0.363  0.00  0.00     0.002 A 
ATOM      3  C3  N4B d   1       2.005  -3.231  -0.590  0.00  0.00     0.002 A 
ATOM      4  C4  N4B d   1       1.057  -3.815  -1.416  0.00  0.00    -0.004 A 
ATOM      5  C5  N4B d   1       1.293  -5.041  -1.964  0.00  0.00     0.002 A 
ATOM      6  C6  N4B d   1       2.485  -5.701  -1.742  0.00  0.00     0.002 A 
ENDROOT
BRANCH   1   7
ATOM      7  C1' N4B d   1       4.766  -5.834  -0.806  0.00  0.00     0.057 C 
BRANCH   7   8
ATOM      8  C2' N4B d   1       5.839  -4.810  -0.448  0.00  0.00     0.009 C 
BRANCH   8   9
ATOM      9  C3' N4B d   1       5.998  -4.656   1.055  0.00  0.00     0.004 C 
ATOM     10  C4' N4B d   1       5.997  -5.971   1.777  0.00  0.00     0.003 C 
ENDBRANCH   8   9
ENDBRANCH   7   8
ENDBRANCH   1   7
TORSDOF 3
ENDMDL
