MODEL 1
REMARK minimizedAffinity 0.791924775
REMARK minimizedRMSD -1
REMARK  3 active torsions:
REMARK  status: ('A' for Active; 'I' for Inactive)
REMARK    1  A    between atoms: C3'_2  and  C2'_3 
REMARK    2  A    between atoms: C2'_3  and  C1'_4 
REMARK    3  A    between atoms: C1'_4  and  C1_5 
ROOT
ATOM      1  C1  N4B d   1      -3.227   3.422  -4.569  0.00  0.00    -0.075 A 
ATOM      2  C2  N4B d   1      -3.873   4.581  -5.051  0.00  0.00     0.002 A 
ATOM      3  C3  N4B d   1      -3.200   5.778  -5.088  0.00  0.00     0.002 A 
ATOM      4  C4  N4B d   1      -1.893   5.844  -4.631  0.00  0.00    -0.004 A 
ATOM      5  C5  N4B d   1      -1.267   4.714  -4.190  0.00  0.00     0.002 A 
ATOM      6  C6  N4B d   1      -1.930   3.504  -4.151  0.00  0.00     0.002 A 
ENDROOT
BRANCH   1   7
ATOM      7  C1' N4B d   1      -3.949   2.110  -4.429  0.00  0.00     0.057 C 
BRANCH   7   8
ATOM      8  C2' N4B d   1      -5.449   2.346  -4.573  0.00  0.00     0.009 C 
BRANCH   8   9
ATOM      9  C3' N4B d   1      -5.999   1.743  -5.854  0.00  0.00     0.004 C 
ATOM     10  C4' N4B d   1      -5.733   0.271  -5.964  0.00  0.00     0.003 C 
ENDBRANCH   8   9
ENDBRANCH   7   8
ENDBRANCH   1   7
TORSDOF 3
ENDMDL
