MODEL 1
REMARK minimizedAffinity -0.698089182
REMARK minimizedRMSD -1
REMARK  3 active torsions:
REMARK  status: ('A' for Active; 'I' for Inactive)
REMARK    1  A    between atoms: C3'_2  and  C2'_3 
REMARK    2  A    between atoms: C2'_3  and  C1'_4 
REMARK    3  A    between atoms: C1'_4  and  C1_5 
ROOT
ATOM      1  C1  N4B d   1      -3.314   3.426  -4.614  0.00  0.00    -0.075 A 
ATOM      2  C2  N4B d   1      -4.036   4.296  -5.459  0.00  0.00     0.002 A 
ATOM      3  C3  N4B d   1      -3.520   5.529  -5.778  0.00  0.00     0.002 A 
ATOM      4  C4  N4B d   1      -2.298   5.918  -5.250  0.00  0.00    -0.004 A 
ATOM      5  C5  N4B d   1      -1.595   5.061  -4.454  0.00  0.00     0.002 A 
ATOM      6  C6  N4B d   1      -2.099   3.818  -4.129  0.00  0.00     0.002 A 
ENDROOT
BRANCH   1   7
ATOM      7  C1' N4B d   1      -3.876   2.103  -4.168  0.00  0.00     0.057 C 
BRANCH   7   8
ATOM      8  C2' N4B d   1      -5.383   2.095  -4.405  0.00  0.00     0.009 C 
BRANCH   8   9
ATOM      9  C3' N4B d   1      -5.737   1.602  -5.798  0.00  0.00     0.004 C 
ATOM     10  C4' N4B d   1      -5.988   0.125  -5.845  0.00  0.00     0.003 C 
ENDBRANCH   8   9
ENDBRANCH   7   8
ENDBRANCH   1   7
TORSDOF 3
ENDMDL
