MODEL 1
REMARK minimizedAffinity 13.75105
REMARK minimizedRMSD -1
REMARK  3 active torsions:
REMARK  status: ('A' for Active; 'I' for Inactive)
REMARK    1  A    between atoms: C3'_2  and  C2'_3 
REMARK    2  A    between atoms: C2'_3  and  C1'_4 
REMARK    3  A    between atoms: C1'_4  and  C1_5 
ROOT
ATOM      1  C1  N4B d   1      -2.487   3.894  -4.272  0.00  0.00    -0.075 A 
ATOM      2  C2  N4B d   1      -1.150   4.259  -3.997  0.00  0.00     0.002 A 
ATOM      3  C3  N4B d   1      -0.574   5.311  -4.665  0.00  0.00     0.002 A 
ATOM      4  C4  N4B d   1      -1.305   5.998  -5.623  0.00  0.00    -0.004 A 
ATOM      5  C5  N4B d   1      -2.603   5.655  -5.866  0.00  0.00     0.002 A 
ATOM      6  C6  N4B d   1      -3.196   4.602  -5.198  0.00  0.00     0.002 A 
ENDROOT
BRANCH   1   7
ATOM      7  C1' N4B d   1      -3.132   2.697  -3.629  0.00  0.00     0.057 C 
BRANCH   7   8
ATOM      8  C2' N4B d   1      -3.610   1.740  -4.717  0.00  0.00     0.009 C 
BRANCH   8   9
ATOM      9  C3' N4B d   1      -4.885   1.018  -4.318  0.00  0.00     0.004 C 
ATOM     10  C4' N4B d   1      -5.778   0.727  -5.487  0.00  0.00     0.003 C 
ENDBRANCH   8   9
ENDBRANCH   7   8
ENDBRANCH   1   7
TORSDOF 3
ENDMDL
