MODEL 1
REMARK minimizedAffinity 12.0098457
REMARK minimizedRMSD -1
REMARK  3 active torsions:
REMARK  status: ('A' for Active; 'I' for Inactive)
REMARK    1  A    between atoms: C3'_2  and  C2'_3 
REMARK    2  A    between atoms: C2'_3  and  C1'_4 
REMARK    3  A    between atoms: C1'_4  and  C1_5 
ROOT
ATOM      1  C1  N4B d   1      -0.835   0.979   1.927  0.00  0.00    -0.075 A 
ATOM      2  C2  N4B d   1      -1.571   1.565   0.874  0.00  0.00     0.002 A 
ATOM      3  C3  N4B d   1      -2.944   1.544   0.902  0.00  0.00     0.002 A 
ATOM      4  C4  N4B d   1      -3.600   0.930   1.958  0.00  0.00    -0.004 A 
ATOM      5  C5  N4B d   1      -2.882   0.389   2.984  0.00  0.00     0.002 A 
ATOM      6  C6  N4B d   1      -1.502   0.406   2.972  0.00  0.00     0.002 A 
ENDROOT
BRANCH   1   7
ATOM      7  C1' N4B d   1       0.667   0.900   1.899  0.00  0.00     0.057 C 
BRANCH   7   8
ATOM      8  C2' N4B d   1       1.111  -0.426   2.509  0.00  0.00     0.009 C 
BRANCH   8   9
ATOM      9  C3' N4B d   1       1.304  -1.501   1.453  0.00  0.00     0.004 C 
ATOM     10  C4' N4B d   1       2.736  -1.651   1.033  0.00  0.00     0.003 C 
ENDBRANCH   8   9
ENDBRANCH   7   8
ENDBRANCH   1   7
TORSDOF 3
ENDMDL
