MODEL 1
REMARK minimizedAffinity 16.1880779
REMARK minimizedRMSD -1
REMARK  3 active torsions:
REMARK  status: ('A' for Active; 'I' for Inactive)
REMARK    1  A    between atoms: C3'_2  and  C2'_3 
REMARK    2  A    between atoms: C2'_3  and  C1'_4 
REMARK    3  A    between atoms: C1'_4  and  C1_5 
ROOT
ATOM      1  C1  N4B d   1      -0.435   2.044   0.308  0.00  0.00    -0.075 A 
ATOM      2  C2  N4B d   1       0.741   2.479  -0.342  0.00  0.00     0.002 A 
ATOM      3  C3  N4B d   1       0.732   2.711  -1.696  0.00  0.00     0.002 A 
ATOM      4  C4  N4B d   1      -0.431   2.499  -2.420  0.00  0.00    -0.004 A 
ATOM      5  C5  N4B d   1      -1.570   2.104  -1.781  0.00  0.00     0.002 A 
ATOM      6  C6  N4B d   1      -1.576   1.870  -0.420  0.00  0.00     0.002 A 
ENDROOT
BRANCH   1   7
ATOM      7  C1' N4B d   1      -0.451   1.695   1.771  0.00  0.00     0.057 C 
BRANCH   7   8
ATOM      8  C2' N4B d   1       0.759   0.823   2.091  0.00  0.00     0.009 C 
BRANCH   8   9
ATOM      9  C3' N4B d   1       1.103   0.848   3.570  0.00  0.00     0.004 C 
ATOM     10  C4' N4B d   1       0.966   2.214   4.175  0.00  0.00     0.003 C 
ENDBRANCH   8   9
ENDBRANCH   7   8
ENDBRANCH   1   7
TORSDOF 3
ENDMDL
