MODEL 1
REMARK minimizedAffinity 15.6725397
REMARK minimizedRMSD -1
REMARK  3 active torsions:
REMARK  status: ('A' for Active; 'I' for Inactive)
REMARK    1  A    between atoms: C3'_2  and  C2'_3 
REMARK    2  A    between atoms: C2'_3  and  C1'_4 
REMARK    3  A    between atoms: C1'_4  and  C1_5 
ROOT
ATOM      1  C1  N4B d   1      -3.665  -3.189   5.309  0.00  0.00    -0.075 A 
ATOM      2  C2  N4B d   1      -3.704  -4.392   4.570  0.00  0.00     0.002 A 
ATOM      3  C3  N4B d   1      -4.863  -5.126   4.513  0.00  0.00     0.002 A 
ATOM      4  C4  N4B d   1      -5.986  -4.688   5.199  0.00  0.00    -0.004 A 
ATOM      5  C5  N4B d   1      -5.948  -3.512   5.889  0.00  0.00     0.002 A 
ATOM      6  C6  N4B d   1      -4.791  -2.762   5.952  0.00  0.00     0.002 A 
ENDROOT
BRANCH   1   7
ATOM      7  C1' N4B d   1      -2.397  -2.396   5.471  0.00  0.00     0.057 C 
BRANCH   7   8
ATOM      8  C2' N4B d   1      -1.507  -2.621   4.253  0.00  0.00     0.009 C 
BRANCH   8   9
ATOM      9  C3' N4B d   1      -0.252  -3.403   4.603  0.00  0.00     0.004 C 
ATOM     10  C4' N4B d   1      -0.294  -3.980   5.986  0.00  0.00     0.003 C 
ENDBRANCH   8   9
ENDBRANCH   7   8
ENDBRANCH   1   7
TORSDOF 3
ENDMDL
