MODEL 1
REMARK minimizedAffinity 16.6991463
REMARK minimizedRMSD -1
REMARK  3 active torsions:
REMARK  status: ('A' for Active; 'I' for Inactive)
REMARK    1  A    between atoms: C3'_2  and  C2'_3 
REMARK    2  A    between atoms: C2'_3  and  C1'_4 
REMARK    3  A    between atoms: C1'_4  and  C1_5 
ROOT
ATOM      1  C1  N4B d   1      -0.665   3.747  -1.331  0.00  0.00    -0.075 A 
ATOM      2  C2  N4B d   1      -1.959   3.732  -0.765  0.00  0.00     0.002 A 
ATOM      3  C3  N4B d   1      -2.224   2.934   0.320  0.00  0.00     0.002 A 
ATOM      4  C4  N4B d   1      -1.222   2.131   0.843  0.00  0.00    -0.004 A 
ATOM      5  C5  N4B d   1       0.032   2.171   0.307  0.00  0.00     0.002 A 
ATOM      6  C6  N4B d   1       0.315   2.971  -0.781  0.00  0.00     0.002 A 
ENDROOT
BRANCH   1   7
ATOM      7  C1' N4B d   1      -0.349   4.538  -2.571  0.00  0.00     0.057 C 
BRANCH   7   8
ATOM      8  C2' N4B d   1      -1.611   4.664  -3.420  0.00  0.00     0.009 C 
BRANCH   8   9
ATOM      9  C3' N4B d   1      -1.652   5.974  -4.186  0.00  0.00     0.004 C 
ATOM     10  C4' N4B d   1      -0.730   5.984  -5.369  0.00  0.00     0.003 C 
ENDBRANCH   8   9
ENDBRANCH   7   8
ENDBRANCH   1   7
TORSDOF 3
ENDMDL
