MODEL 1
REMARK minimizedAffinity -4.0119524
REMARK minimizedRMSD -1
REMARK  1 active torsions:
REMARK  status: ('A' for Active; 'I' for Inactive)
REMARK    1  A    between atoms: C3_4  and  O_7 
ROOT
ATOM      1  C   UNL d   1       1.820  -1.260   0.822  0.00  0.00    -0.033 A 
ATOM      2  C1  UNL d   1       3.102  -1.146   1.364  0.00  0.00     0.039 A 
ATOM      3  C2  UNL d   1       3.448  -1.877   2.502  0.00  0.00    -0.080 A 
ATOM      4  C3  UNL d   1       2.506  -2.718   3.086  0.00  0.00     0.150 A 
ATOM      5  C4  UNL d   1       1.228  -2.840   2.549  0.00  0.00    -0.007 A 
ATOM      6  C5  UNL d   1       0.884  -2.108   1.414  0.00  0.00     0.039 A 
ENDROOT
BRANCH   4   7
ATOM      7  O   UNL d   1       2.796  -3.449   4.200  0.00  0.00    -0.526 OA
ATOM      8  H5  UNL d   1       3.705  -3.242   4.475  0.00  0.00     0.418 HD
ENDBRANCH   4   7
TORSDOF 1
ENDMDL
