MODEL 1
REMARK minimizedAffinity -0.159545109
REMARK minimizedRMSD -1
REMARK  1 active torsions:
REMARK  status: ('A' for Active; 'I' for Inactive)
REMARK    1  A    between atoms: C3_4  and  O_7 
ROOT
ATOM      1  C   UNL d   1       1.496  -2.322   2.145  0.00  0.00    -0.033 A 
ATOM      2  C1  UNL d   1       2.847  -2.044   2.363  0.00  0.00     0.039 A 
ATOM      3  C2  UNL d   1       3.407  -0.864   1.870  0.00  0.00    -0.080 A 
ATOM      4  C3  UNL d   1       2.607   0.029   1.163  0.00  0.00     0.150 A 
ATOM      5  C4  UNL d   1       1.260  -0.240   0.946  0.00  0.00    -0.007 A 
ATOM      6  C5  UNL d   1       0.702  -1.419   1.437  0.00  0.00     0.039 A 
ENDROOT
BRANCH   4   7
ATOM      7  O   UNL d   1       3.111   1.191   0.659  0.00  0.00    -0.526 OA
ATOM      8  H5  UNL d   1       4.060   1.229   0.862  0.00  0.00     0.418 HD
ENDBRANCH   4   7
TORSDOF 1
ENDMDL
