MODEL 1
REMARK minimizedAffinity 1.27703023
REMARK minimizedRMSD -1
REMARK  1 active torsions:
REMARK  status: ('A' for Active; 'I' for Inactive)
REMARK    1  A    between atoms: C3_4  and  O_7 
ROOT
ATOM      1  C   UNL d   1       2.997  -1.425   1.792  0.00  0.00    -0.033 A 
ATOM      2  C1  UNL d   1       2.420  -1.975   0.646  0.00  0.00     0.039 A 
ATOM      3  C2  UNL d   1       1.133  -2.514   0.699  0.00  0.00    -0.080 A 
ATOM      4  C3  UNL d   1       0.434  -2.497   1.903  0.00  0.00     0.150 A 
ATOM      5  C4  UNL d   1       1.001  -1.947   3.048  0.00  0.00    -0.007 A 
ATOM      6  C5  UNL d   1       2.287  -1.410   2.993  0.00  0.00     0.039 A 
ENDROOT
BRANCH   4   7
ATOM      7  O   UNL d   1      -0.822  -3.016   2.005  0.00  0.00    -0.526 OA
ATOM      8  H5  UNL d   1      -1.073  -3.386   1.142  0.00  0.00     0.418 HD
ENDBRANCH   4   7
TORSDOF 1
ENDMDL
