MODEL 1
REMARK minimizedAffinity 3.01021719
REMARK minimizedRMSD -1
REMARK  1 active torsions:
REMARK  status: ('A' for Active; 'I' for Inactive)
REMARK    1  A    between atoms: C3_4  and  O_7 
ROOT
ATOM      1  C   UNL d   1       4.095   0.534  -4.764  0.00  0.00    -0.033 A 
ATOM      2  C1  UNL d   1       5.229   0.628  -5.573  0.00  0.00     0.039 A 
ATOM      3  C2  UNL d   1       5.882  -0.530  -6.000  0.00  0.00    -0.080 A 
ATOM      4  C3  UNL d   1       5.392  -1.773  -5.612  0.00  0.00     0.150 A 
ATOM      5  C4  UNL d   1       4.261  -1.875  -4.809  0.00  0.00    -0.007 A 
ATOM      6  C5  UNL d   1       3.610  -0.718  -4.383  0.00  0.00     0.039 A 
ENDROOT
BRANCH   4   7
ATOM      7  O   UNL d   1       5.999  -2.931  -5.999  0.00  0.00    -0.526 OA
ATOM      8  H5  UNL d   1       6.784  -2.706  -6.526  0.00  0.00     0.418 HD
ENDBRANCH   4   7
TORSDOF 1
ENDMDL
