MODEL 1
REMARK minimizedAffinity 0.548281193
REMARK minimizedRMSD -1
REMARK  1 active torsions:
REMARK  status: ('A' for Active; 'I' for Inactive)
REMARK    1  A    between atoms: C3_4  and  O_7 
ROOT
ATOM      1  C   UNL d   1       1.626   1.093   0.714  0.00  0.00    -0.033 A 
ATOM      2  C1  UNL d   1       2.711   0.224   0.849  0.00  0.00     0.039 A 
ATOM      3  C2  UNL d   1       2.502  -1.101   1.238  0.00  0.00    -0.080 A 
ATOM      4  C3  UNL d   1       1.206  -1.544   1.486  0.00  0.00     0.150 A 
ATOM      5  C4  UNL d   1       0.120  -0.685   1.350  0.00  0.00    -0.007 A 
ATOM      6  C5  UNL d   1       0.331   0.638   0.963  0.00  0.00     0.039 A 
ENDROOT
BRANCH   4   7
ATOM      7  O   UNL d   1       0.953  -2.827   1.872  0.00  0.00    -0.526 OA
ATOM      8  H5  UNL d   1       1.800  -3.296   1.953  0.00  0.00     0.418 HD
ENDBRANCH   4   7
TORSDOF 1
ENDMDL
