MODEL 1
REMARK minimizedAffinity -0.575733244
REMARK minimizedRMSD -1
REMARK  1 active torsions:
REMARK  status: ('A' for Active; 'I' for Inactive)
REMARK    1  A    between atoms: C3_4  and  O_7 
ROOT
ATOM      1  C   UNL d   1      -0.404  -0.472  -0.233  0.00  0.00    -0.033 A 
ATOM      2  C1  UNL d   1      -0.684  -1.074  -1.461  0.00  0.00     0.039 A 
ATOM      3  C2  UNL d   1       0.252  -1.926  -2.052  0.00  0.00    -0.080 A 
ATOM      4  C3  UNL d   1       1.461  -2.167  -1.406  0.00  0.00     0.150 A 
ATOM      5  C4  UNL d   1       1.745  -1.573  -0.180  0.00  0.00    -0.007 A 
ATOM      6  C5  UNL d   1       0.810  -0.722   0.408  0.00  0.00     0.039 A 
ENDROOT
BRANCH   4   7
ATOM      7  O   UNL d   1       2.407  -2.986  -1.946  0.00  0.00    -0.526 OA
ATOM      8  H5  UNL d   1       2.085  -3.302  -2.807  0.00  0.00     0.418 HD
ENDBRANCH   4   7
TORSDOF 1
ENDMDL
