MODEL 1
REMARK minimizedAffinity -0.454436868
REMARK minimizedRMSD -1
REMARK  1 active torsions:
REMARK  status: ('A' for Active; 'I' for Inactive)
REMARK    1  A    between atoms: C3_4  and  O_7 
ROOT
ATOM      1  C   UNL d   1       1.614  -1.038   0.781  0.00  0.00    -0.033 A 
ATOM      2  C1  UNL d   1       2.503  -1.770   1.571  0.00  0.00     0.039 A 
ATOM      3  C2  UNL d   1       2.027  -2.521   2.648  0.00  0.00    -0.080 A 
ATOM      4  C3  UNL d   1       0.663  -2.534   2.922  0.00  0.00     0.150 A 
ATOM      5  C4  UNL d   1      -0.229  -1.811   2.137  0.00  0.00    -0.007 A 
ATOM      6  C5  UNL d   1       0.248  -1.060   1.063  0.00  0.00     0.039 A 
ENDROOT
BRANCH   4   7
ATOM      7  O   UNL d   1       0.152  -3.249   3.964  0.00  0.00    -0.526 OA
ATOM      8  H5  UNL d   1       0.888  -3.675   4.435  0.00  0.00     0.418 HD
ENDBRANCH   4   7
TORSDOF 1
ENDMDL
