MODEL 1
REMARK minimizedAffinity 2.41358876
REMARK minimizedRMSD -1
REMARK  0 active torsions:
REMARK  status: ('A' for Active; 'I' for Inactive)
ROOT
ATOM      1  C1  DEN d   1       0.541   1.169   0.418  0.00  0.00     0.130 A 
ATOM      2  C2  DEN d   1       0.114   0.915   1.791  0.00  0.00    -0.031 A 
ATOM      3  C3  DEN d   1      -0.214  -0.520   1.909  0.00  0.00     0.027 A 
ATOM      4  C4  DEN d   1      -0.097  -2.364   0.109  0.00  0.00     0.027 A 
ATOM      5  C5  DEN d   1       0.197  -2.628  -1.210  0.00  0.00    -0.003 A 
ATOM      6  C6  DEN d   1       0.591  -1.646  -2.081  0.00  0.00     0.001 A 
ATOM      7  C7  DEN d   1       0.745  -0.362  -1.631  0.00  0.00     0.017 A 
ATOM      8  C8  DEN d   1       0.442  -0.086  -0.303  0.00  0.00    -0.094 A 
ATOM      9  C9  DEN d   1       0.058  -1.095   0.564  0.00  0.00    -0.072 A 
ENDROOT
TORSDOF 0
ENDMDL
