MODEL 1
REMARK minimizedAffinity -3.06529737
REMARK minimizedRMSD -1
REMARK  0 active torsions:
REMARK  status: ('A' for Active; 'I' for Inactive)
ROOT
ATOM      1  C1  DEN d   1      -0.492  -0.747   0.393  0.00  0.00     0.130 A 
ATOM      2  C2  DEN d   1       0.628   0.178   0.245  0.00  0.00    -0.031 A 
ATOM      3  C3  DEN d   1       0.138   1.539   0.543  0.00  0.00     0.027 A 
ATOM      4  C4  DEN d   1      -2.232   2.299   1.220  0.00  0.00     0.027 A 
ATOM      5  C5  DEN d   1      -3.520   1.875   1.463  0.00  0.00    -0.003 A 
ATOM      6  C6  DEN d   1      -3.894   0.563   1.335  0.00  0.00     0.001 A 
ATOM      7  C7  DEN d   1      -2.959  -0.379   0.997  0.00  0.00     0.017 A 
ATOM      8  C8  DEN d   1      -1.660   0.042   0.742  0.00  0.00    -0.094 A 
ATOM      9  C9  DEN d   1      -1.299   1.370   0.890  0.00  0.00    -0.072 A 
ENDROOT
TORSDOF 0
ENDMDL
