MODEL 1
REMARK minimizedAffinity 1.62812388
REMARK minimizedRMSD -1
REMARK  0 active torsions:
REMARK  status: ('A' for Active; 'I' for Inactive)
ROOT
ATOM      1  C1  DEN d   1      -3.884   0.967   2.526  0.00  0.00     0.130 A 
ATOM      2  C2  DEN d   1      -2.995   0.287   1.587  0.00  0.00    -0.031 A 
ATOM      3  C3  DEN d   1      -1.748   1.072   1.489  0.00  0.00     0.027 A 
ATOM      4  C4  DEN d   1      -1.108   3.259   2.698  0.00  0.00     0.027 A 
ATOM      5  C5  DEN d   1      -1.542   4.220   3.583  0.00  0.00    -0.003 A 
ATOM      6  C6  DEN d   1      -2.789   4.183   4.148  0.00  0.00     0.001 A 
ATOM      7  C7  DEN d   1      -3.630   3.139   3.867  0.00  0.00     0.017 A 
ATOM      8  C8  DEN d   1      -3.203   2.170   2.970  0.00  0.00    -0.094 A 
ATOM      9  C9  DEN d   1      -1.933   2.218   2.419  0.00  0.00    -0.072 A 
ENDROOT
TORSDOF 0
ENDMDL
