MODEL 1
REMARK minimizedAffinity -5.28324413
REMARK minimizedRMSD -1
REMARK  0 active torsions:
REMARK  status: ('A' for Active; 'I' for Inactive)
ROOT
ATOM      1  C1  DEN d   1      -0.778  -0.374   0.381  0.00  0.00     0.130 A 
ATOM      2  C2  DEN d   1      -0.237   0.594   1.331  0.00  0.00    -0.031 A 
ATOM      3  C3  DEN d   1       0.943   1.231   0.711  0.00  0.00     0.027 A 
ATOM      4  C4  DEN d   1       1.975   0.818  -1.616  0.00  0.00     0.027 A 
ATOM      5  C5  DEN d   1       1.871   0.082  -2.776  0.00  0.00    -0.003 A 
ATOM      6  C6  DEN d   1       0.905  -0.874  -2.950  0.00  0.00     0.001 A 
ATOM      7  C7  DEN d   1      -0.023  -1.088  -1.966  0.00  0.00     0.017 A 
ATOM      8  C8  DEN d   1       0.080  -0.355  -0.791  0.00  0.00    -0.094 A 
ATOM      9  C9  DEN d   1       1.056   0.616  -0.639  0.00  0.00    -0.072 A 
ENDROOT
TORSDOF 0
ENDMDL
