MODEL 1
REMARK minimizedAffinity -1.02779877
REMARK minimizedRMSD -1
REMARK  0 active torsions:
REMARK  status: ('A' for Active; 'I' for Inactive)
ROOT
ATOM      1  C1  DEN d   1       0.760   0.090   1.232  0.00  0.00     0.130 A 
ATOM      2  C2  DEN d   1       0.795   1.256   0.352  0.00  0.00    -0.031 A 
ATOM      3  C3  DEN d   1       0.432   0.812  -1.009  0.00  0.00     0.027 A 
ATOM      4  C4  DEN d   1      -0.181  -1.553  -1.834  0.00  0.00     0.027 A 
ATOM      5  C5  DEN d   1      -0.336  -2.869  -1.457  0.00  0.00    -0.003 A 
ATOM      6  C6  DEN d   1      -0.105  -3.293  -0.175  0.00  0.00     0.001 A 
ATOM      7  C7  DEN d   1       0.250  -2.384   0.787  0.00  0.00     0.017 A 
ATOM      8  C8  DEN d   1       0.415  -1.057   0.412  0.00  0.00    -0.094 A 
ATOM      9  C9  DEN d   1       0.165  -0.646  -0.886  0.00  0.00    -0.072 A 
ENDROOT
TORSDOF 0
ENDMDL
