MODEL 1
REMARK minimizedAffinity -2.2492559
REMARK minimizedRMSD -1
REMARK  0 active torsions:
REMARK  status: ('A' for Active; 'I' for Inactive)
ROOT
ATOM      1  C1  DEN d   1      -3.771   0.674   0.123  0.00  0.00     0.130 A 
ATOM      2  C2  DEN d   1      -4.275   0.364   1.458  0.00  0.00    -0.031 A 
ATOM      3  C3  DEN d   1      -3.144  -0.130   2.269  0.00  0.00     0.027 A 
ATOM      4  C4  DEN d   1      -0.674  -0.437   1.592  0.00  0.00     0.027 A 
ATOM      5  C5  DEN d   1       0.230  -0.319   0.560  0.00  0.00    -0.003 A 
ATOM      6  C6  DEN d   1      -0.139   0.103  -0.690  0.00  0.00     0.001 A 
ATOM      7  C7  DEN d   1      -1.439   0.465  -0.927  0.00  0.00     0.017 A 
ATOM      8  C8  DEN d   1      -2.358   0.341   0.107  0.00  0.00    -0.094 A 
ATOM      9  C9  DEN d   1      -1.962  -0.075   1.367  0.00  0.00    -0.072 A 
ENDROOT
TORSDOF 0
ENDMDL
