MODEL 1
REMARK minimizedAffinity -3.41002107
REMARK minimizedRMSD -1
REMARK  0 active torsions:
REMARK  status: ('A' for Active; 'I' for Inactive)
ROOT
ATOM      1  C1  DEN d   1      -3.610   4.430  -5.833  0.00  0.00     0.130 A 
ATOM      2  C2  DEN d   1      -4.824   5.224  -6.000  0.00  0.00    -0.031 A 
ATOM      3  C3  DEN d   1      -5.977   4.300  -5.999  0.00  0.00     0.027 A 
ATOM      4  C4  DEN d   1      -5.998   1.733  -5.752  0.00  0.00     0.027 A 
ATOM      5  C5  DEN d   1      -5.211   0.613  -5.597  0.00  0.00    -0.003 A 
ATOM      6  C6  DEN d   1      -3.844   0.683  -5.545  0.00  0.00     0.001 A 
ATOM      7  C7  DEN d   1      -3.224   1.904  -5.603  0.00  0.00     0.017 A 
ATOM      8  C8  DEN d   1      -4.011   3.036  -5.766  0.00  0.00    -0.094 A 
ATOM      9  C9  DEN d   1      -5.392   2.946  -5.805  0.00  0.00    -0.072 A 
ENDROOT
TORSDOF 0
ENDMDL
