MODEL 1
REMARK minimizedAffinity -5.34622669
REMARK minimizedRMSD -1
REMARK  0 active torsions:
REMARK  status: ('A' for Active; 'I' for Inactive)
ROOT
ATOM      1  C1  DEN d   1      -0.038  -1.565   0.299  0.00  0.00     0.130 A 
ATOM      2  C2  DEN d   1      -0.484  -0.566   1.267  0.00  0.00    -0.031 A 
ATOM      3  C3  DEN d   1      -0.039   0.760   0.793  0.00  0.00     0.027 A 
ATOM      4  C4  DEN d   1       1.287   1.360  -1.336  0.00  0.00     0.027 A 
ATOM      5  C5  DEN d   1       1.898   0.849  -2.459  0.00  0.00    -0.003 A 
ATOM      6  C6  DEN d   1       1.937  -0.495  -2.722  0.00  0.00     0.001 A 
ATOM      7  C7  DEN d   1       1.313  -1.370  -1.873  0.00  0.00     0.017 A 
ATOM      8  C8  DEN d   1       0.701  -0.863  -0.735  0.00  0.00    -0.094 A 
ATOM      9  C9  DEN d   1       0.662   0.500  -0.493  0.00  0.00    -0.072 A 
ENDROOT
TORSDOF 0
ENDMDL
