MODEL 1
REMARK minimizedAffinity -5.76000786
REMARK minimizedRMSD -1
REMARK  0 active torsions:
REMARK  status: ('A' for Active; 'I' for Inactive)
ROOT
ATOM      1  C1  DEN d   1      -0.186  -1.029   0.390  0.00  0.00     0.130 A 
ATOM      2  C2  DEN d   1      -0.280   0.396   0.696  0.00  0.00    -0.031 A 
ATOM      3  C3  DEN d   1       0.580   1.125  -0.259  0.00  0.00     0.027 A 
ATOM      4  C4  DEN d   1       2.035   0.191  -2.173  0.00  0.00     0.027 A 
ATOM      5  C5  DEN d   1       2.446  -0.958  -2.812  0.00  0.00    -0.003 A 
ATOM      6  C6  DEN d   1       2.039  -2.202  -2.411  0.00  0.00     0.001 A 
ATOM      7  C7  DEN d   1       1.159  -2.325  -1.369  0.00  0.00     0.017 A 
ATOM      8  C8  DEN d   1       0.746  -1.173  -0.714  0.00  0.00    -0.094 A 
ATOM      9  C9  DEN d   1       1.159   0.077  -1.142  0.00  0.00    -0.072 A 
ENDROOT
TORSDOF 0
ENDMDL
