MODEL 1
REMARK minimizedAffinity -4.40389252
REMARK minimizedRMSD -1
REMARK  0 active torsions:
REMARK  status: ('A' for Active; 'I' for Inactive)
ROOT
ATOM      1  C1  DEN d   1      -0.516  -0.297   0.310  0.00  0.00     0.130 A 
ATOM      2  C2  DEN d   1      -0.199   0.875   1.121  0.00  0.00    -0.031 A 
ATOM      3  C3  DEN d   1       0.922   1.587   0.475  0.00  0.00     0.027 A 
ATOM      4  C4  DEN d   1       2.186   0.995  -1.694  0.00  0.00     0.027 A 
ATOM      5  C5  DEN d   1       2.283   0.086  -2.724  0.00  0.00    -0.003 A 
ATOM      6  C6  DEN d   1       1.483  -1.024  -2.797  0.00  0.00     0.001 A 
ATOM      7  C7  DEN d   1       0.520  -1.229  -1.845  0.00  0.00     0.017 A 
ATOM      8  C8  DEN d   1       0.421  -0.321  -0.799  0.00  0.00    -0.094 A 
ATOM      9  C9  DEN d   1       1.230   0.801  -0.750  0.00  0.00    -0.072 A 
ENDROOT
TORSDOF 0
ENDMDL
