MODEL 1
REMARK minimizedAffinity -4.14061022
REMARK minimizedRMSD -1
REMARK  0 active torsions:
REMARK  status: ('A' for Active; 'I' for Inactive)
ROOT
ATOM      1  C1  DEN d   1       0.594   0.825   0.631  0.00  0.00     0.130 A 
ATOM      2  C2  DEN d   1      -0.361   0.088   1.454  0.00  0.00    -0.031 A 
ATOM      3  C3  DEN d   1      -0.896  -1.026   0.646  0.00  0.00     0.027 A 
ATOM      4  C4  DEN d   1      -0.339  -1.680  -1.786  0.00  0.00     0.027 A 
ATOM      5  C5  DEN d   1       0.404  -1.346  -2.896  0.00  0.00    -0.003 A 
ATOM      6  C6  DEN d   1       1.231  -0.255  -2.919  0.00  0.00     0.001 A 
ATOM      7  C7  DEN d   1       1.369   0.517  -1.796  0.00  0.00     0.017 A 
ATOM      8  C8  DEN d   1       0.616   0.191  -0.675  0.00  0.00    -0.094 A 
ATOM      9  C9  DEN d   1      -0.205  -0.924  -0.667  0.00  0.00    -0.072 A 
ENDROOT
TORSDOF 0
ENDMDL
