MODEL 1
REMARK minimizedAffinity -1.69472575
REMARK minimizedRMSD -1
REMARK  0 active torsions:
REMARK  status: ('A' for Active; 'I' for Inactive)
ROOT
ATOM      1  C1  DEN d   1       2.103   1.673  -0.886  0.00  0.00     0.130 A 
ATOM      2  C2  DEN d   1       2.969   1.020  -1.865  0.00  0.00    -0.031 A 
ATOM      3  C3  DEN d   1       2.557  -0.394  -1.967  0.00  0.00     0.027 A 
ATOM      4  C4  DEN d   1       0.669  -1.629  -0.716  0.00  0.00     0.027 A 
ATOM      5  C5  DEN d   1      -0.329  -1.496   0.224  0.00  0.00    -0.003 A 
ATOM      6  C6  DEN d   1      -0.563  -0.315   0.878  0.00  0.00     0.001 A 
ATOM      7  C7  DEN d   1       0.183   0.791   0.570  0.00  0.00     0.017 A 
ATOM      8  C8  DEN d   1       1.197   0.663  -0.371  0.00  0.00    -0.094 A 
ATOM      9  C9  DEN d   1       1.409  -0.536  -1.031  0.00  0.00    -0.072 A 
ENDROOT
TORSDOF 0
ENDMDL
