MODEL 1
REMARK minimizedAffinity -0.843223631
REMARK minimizedRMSD -1
REMARK  0 active torsions:
REMARK  status: ('A' for Active; 'I' for Inactive)
ROOT
ATOM      1  C1  DEN d   1      -0.748  -1.435  -0.160  0.00  0.00     0.130 A 
ATOM      2  C2  DEN d   1       0.441  -0.589  -0.120  0.00  0.00    -0.031 A 
ATOM      3  C3  DEN d   1       0.129   0.598   0.700  0.00  0.00     0.027 A 
ATOM      4  C4  DEN d   1      -2.068   1.204   1.909  0.00  0.00     0.027 A 
ATOM      5  C5  DEN d   1      -3.361   0.800   2.156  0.00  0.00    -0.003 A 
ATOM      6  C6  DEN d   1      -3.881  -0.351   1.624  0.00  0.00     0.001 A 
ATOM      7  C7  DEN d   1      -3.089  -1.161   0.855  0.00  0.00     0.017 A 
ATOM      8  C8  DEN d   1      -1.786  -0.757   0.596  0.00  0.00    -0.094 A 
ATOM      9  C9  DEN d   1      -1.275   0.403   1.152  0.00  0.00    -0.072 A 
ENDROOT
TORSDOF 0
ENDMDL
