MODEL 1
REMARK minimizedAffinity -4.73513269
REMARK minimizedRMSD -1
REMARK  0 active torsions:
REMARK  status: ('A' for Active; 'I' for Inactive)
ROOT
ATOM      1  C1  DEN d   1       2.227  -1.933  -2.516  0.00  0.00     0.130 A 
ATOM      2  C2  DEN d   1       1.786  -3.132  -1.807  0.00  0.00    -0.031 A 
ATOM      3  C3  DEN d   1       0.821  -2.718  -0.769  0.00  0.00     0.027 A 
ATOM      4  C4  DEN d   1      -0.032  -0.353  -0.195  0.00  0.00     0.027 A 
ATOM      5  C5  DEN d   1       0.065   0.984  -0.515  0.00  0.00    -0.003 A 
ATOM      6  C6  DEN d   1       0.908   1.441  -1.493  0.00  0.00     0.001 A 
ATOM      7  C7  DEN d   1       1.654   0.550  -2.217  0.00  0.00     0.017 A 
ATOM      8  C8  DEN d   1       1.567  -0.798  -1.896  0.00  0.00    -0.094 A 
ATOM      9  C9  DEN d   1       0.700  -1.242  -0.912  0.00  0.00    -0.072 A 
ENDROOT
TORSDOF 0
ENDMDL
