MODEL 1
REMARK minimizedAffinity -4.34199905
REMARK minimizedRMSD -1
REMARK  0 active torsions:
REMARK  status: ('A' for Active; 'I' for Inactive)
ROOT
ATOM      1  C1  DEN d   1      -0.333  -1.574  -0.298  0.00  0.00     0.130 A 
ATOM      2  C2  DEN d   1      -0.576  -0.885   0.966  0.00  0.00    -0.031 A 
ATOM      3  C3  DEN d   1       0.052   0.449   0.888  0.00  0.00     0.027 A 
ATOM      4  C4  DEN d   1       1.366   1.512  -1.061  0.00  0.00     0.027 A 
ATOM      5  C5  DEN d   1       1.843   1.307  -2.337  0.00  0.00    -0.003 A 
ATOM      6  C6  DEN d   1       1.659   0.125  -3.004  0.00  0.00     0.001 A 
ATOM      7  C7  DEN d   1       0.941  -0.882  -2.416  0.00  0.00     0.017 A 
ATOM      8  C8  DEN d   1       0.463  -0.686  -1.126  0.00  0.00    -0.094 A 
ATOM      9  C9  DEN d   1       0.650   0.520  -0.473  0.00  0.00    -0.072 A 
ENDROOT
TORSDOF 0
ENDMDL
