MODEL 1
REMARK minimizedAffinity -4.37645912
REMARK minimizedRMSD -1
REMARK  0 active torsions:
REMARK  status: ('A' for Active; 'I' for Inactive)
ROOT
ATOM      1  C   UNL d   1      -0.851   1.269  -0.457  0.00  0.00     0.078 C 
ATOM      2  C1  UNL d   1       0.214   0.261  -0.138  0.00  0.00    -0.077 A 
ATOM      3  C2  UNL d   1      -0.089  -0.907   0.573  0.00  0.00    -0.001 A 
ATOM      4  C3  UNL d   1       0.914  -1.831   0.871  0.00  0.00     0.003 A 
ATOM      5  C4  UNL d   1       2.226  -1.596   0.463  0.00  0.00    -0.005 A 
ATOM      6  C5  UNL d   1       2.536  -0.435  -0.243  0.00  0.00     0.003 A 
ATOM      7  C6  UNL d   1       1.535   0.490  -0.542  0.00  0.00    -0.001 A 
ENDROOT
TORSDOF 0
ENDMDL
