MODEL 1
REMARK minimizedAffinity -3.67901206
REMARK minimizedRMSD -1
REMARK  0 active torsions:
REMARK  status: ('A' for Active; 'I' for Inactive)
ROOT
ATOM      1  C   UNL d   1      -0.976   0.296   0.319  0.00  0.00     0.078 C 
ATOM      2  C1  UNL d   1       0.471  -0.005   0.066  0.00  0.00    -0.077 A 
ATOM      3  C2  UNL d   1       1.209   0.735  -0.865  0.00  0.00    -0.001 A 
ATOM      4  C3  UNL d   1       2.553   0.438  -1.097  0.00  0.00     0.003 A 
ATOM      5  C4  UNL d   1       3.170  -0.601  -0.403  0.00  0.00    -0.005 A 
ATOM      6  C5  UNL d   1       2.443  -1.345   0.524  0.00  0.00     0.003 A 
ATOM      7  C6  UNL d   1       1.099  -1.049   0.757  0.00  0.00    -0.001 A 
ENDROOT
TORSDOF 0
ENDMDL
