MODEL 1
REMARK minimizedAffinity -2.95440817
REMARK minimizedRMSD -1
REMARK  0 active torsions:
REMARK  status: ('A' for Active; 'I' for Inactive)
ROOT
ATOM      1  C   UNL d   1      -0.479   1.556  -0.827  0.00  0.00     0.078 C 
ATOM      2  C1  UNL d   1       0.397   0.548  -0.144  0.00  0.00    -0.077 A 
ATOM      3  C2  UNL d   1       1.793   0.638  -0.218  0.00  0.00    -0.001 A 
ATOM      4  C3  UNL d   1       2.596  -0.312   0.414  0.00  0.00     0.003 A 
ATOM      5  C4  UNL d   1       2.013  -1.360   1.123  0.00  0.00    -0.005 A 
ATOM      6  C5  UNL d   1       0.626  -1.460   1.201  0.00  0.00     0.003 A 
ATOM      7  C6  UNL d   1      -0.179  -0.510   0.569  0.00  0.00    -0.001 A 
ENDROOT
TORSDOF 0
ENDMDL
