MODEL 1
REMARK minimizedAffinity -3.52895951
REMARK minimizedRMSD -1
REMARK  0 active torsions:
REMARK  status: ('A' for Active; 'I' for Inactive)
ROOT
ATOM      1  C   UNL d   1       1.880  -1.945   1.493  0.00  0.00     0.078 C 
ATOM      2  C1  UNL d   1       0.954  -0.868   1.013  0.00  0.00    -0.077 A 
ATOM      3  C2  UNL d   1       1.351   0.034   0.019  0.00  0.00    -0.001 A 
ATOM      4  C3  UNL d   1       0.482   1.038  -0.411  0.00  0.00     0.003 A 
ATOM      5  C4  UNL d   1      -0.789   1.150   0.148  0.00  0.00    -0.005 A 
ATOM      6  C5  UNL d   1      -1.192   0.259   1.140  0.00  0.00     0.003 A 
ATOM      7  C6  UNL d   1      -0.325  -0.746   1.571  0.00  0.00    -0.001 A 
ENDROOT
TORSDOF 0
ENDMDL
