MODEL 1
REMARK minimizedAffinity -3.77432108
REMARK minimizedRMSD -1
REMARK  0 active torsions:
REMARK  status: ('A' for Active; 'I' for Inactive)
ROOT
ATOM      1  C   UNL d   1      -2.041   0.826  -3.966  0.00  0.00     0.078 C 
ATOM      2  C1  UNL d   1      -1.758   0.812  -2.494  0.00  0.00    -0.077 A 
ATOM      3  C2  UNL d   1      -2.494   1.611  -1.610  0.00  0.00    -0.001 A 
ATOM      4  C3  UNL d   1      -2.213   1.595  -0.243  0.00  0.00     0.003 A 
ATOM      5  C4  UNL d   1      -1.195   0.783   0.253  0.00  0.00    -0.005 A 
ATOM      6  C5  UNL d   1      -0.456  -0.013  -0.619  0.00  0.00     0.003 A 
ATOM      7  C6  UNL d   1      -0.735   0.001  -1.987  0.00  0.00    -0.001 A 
ENDROOT
TORSDOF 0
ENDMDL
