MODEL 1
REMARK minimizedAffinity -4.63567019
REMARK minimizedRMSD -1
REMARK  0 active torsions:
REMARK  status: ('A' for Active; 'I' for Inactive)
ROOT
ATOM      1  C   UNL d   1       2.157  -0.656  -0.587  0.00  0.00     0.078 C 
ATOM      2  C1  UNL d   1       1.340  -0.830   0.658  0.00  0.00    -0.077 A 
ATOM      3  C2  UNL d   1       0.057  -0.280   0.762  0.00  0.00    -0.001 A 
ATOM      4  C3  UNL d   1      -0.688  -0.441   1.931  0.00  0.00     0.003 A 
ATOM      5  C4  UNL d   1      -0.158  -1.151   3.006  0.00  0.00    -0.005 A 
ATOM      6  C5  UNL d   1       1.120  -1.700   2.913  0.00  0.00     0.003 A 
ATOM      7  C6  UNL d   1       1.866  -1.540   1.745  0.00  0.00    -0.001 A 
ENDROOT
TORSDOF 0
ENDMDL
