MODEL 1
REMARK minimizedAffinity -2.52889442
REMARK minimizedRMSD -1
REMARK  0 active torsions:
REMARK  status: ('A' for Active; 'I' for Inactive)
ROOT
ATOM      1  C   UNL d   1      -1.144   0.065   1.464  0.00  0.00     0.078 C 
ATOM      2  C1  UNL d   1       0.216   0.006   0.833  0.00  0.00    -0.077 A 
ATOM      3  C2  UNL d   1       1.165  -0.934   1.253  0.00  0.00    -0.001 A 
ATOM      4  C3  UNL d   1       2.430  -0.972   0.664  0.00  0.00     0.003 A 
ATOM      5  C4  UNL d   1       2.757  -0.071  -0.348  0.00  0.00    -0.005 A 
ATOM      6  C5  UNL d   1       1.820   0.869  -0.771  0.00  0.00     0.003 A 
ATOM      7  C6  UNL d   1       0.554   0.908  -0.183  0.00  0.00    -0.001 A 
ENDROOT
TORSDOF 0
ENDMDL
