MODEL 1
REMARK minimizedAffinity -4.10420036
REMARK minimizedRMSD -1
REMARK  0 active torsions:
REMARK  status: ('A' for Active; 'I' for Inactive)
ROOT
ATOM      1  C   UNL d   1      -0.867  -0.222   0.222  0.00  0.00     0.078 C 
ATOM      2  C1  UNL d   1      -1.281   0.766  -0.827  0.00  0.00    -0.077 A 
ATOM      3  C2  UNL d   1      -2.308   0.470  -1.732  0.00  0.00    -0.001 A 
ATOM      4  C3  UNL d   1      -2.676   1.396  -2.710  0.00  0.00     0.003 A 
ATOM      5  C4  UNL d   1      -2.021   2.624  -2.793  0.00  0.00    -0.005 A 
ATOM      6  C5  UNL d   1      -0.997   2.926  -1.898  0.00  0.00     0.003 A 
ATOM      7  C6  UNL d   1      -0.628   2.002  -0.920  0.00  0.00    -0.001 A 
ENDROOT
TORSDOF 0
ENDMDL
