MODEL 1
REMARK minimizedAffinity -1.99667692
REMARK minimizedRMSD -1
REMARK  0 active torsions:
REMARK  status: ('A' for Active; 'I' for Inactive)
ROOT
ATOM      1  C   UNL d   1       0.440   0.498   0.104  0.00  0.00     0.078 C 
ATOM      2  C1  UNL d   1      -0.709   0.584  -0.856  0.00  0.00    -0.077 A 
ATOM      3  C2  UNL d   1      -1.745  -0.357  -0.827  0.00  0.00    -0.001 A 
ATOM      4  C3  UNL d   1      -2.804  -0.269  -1.732  0.00  0.00     0.003 A 
ATOM      5  C4  UNL d   1      -2.836   0.757  -2.674  0.00  0.00    -0.005 A 
ATOM      6  C5  UNL d   1      -1.808   1.697  -2.712  0.00  0.00     0.003 A 
ATOM      7  C6  UNL d   1      -0.748   1.611  -1.808  0.00  0.00    -0.001 A 
ENDROOT
TORSDOF 0
ENDMDL
