MODEL 1
REMARK minimizedAffinity -2.85986924
REMARK minimizedRMSD -1
REMARK  0 active torsions:
REMARK  status: ('A' for Active; 'I' for Inactive)
ROOT
ATOM      1  C   UNL d   1      -2.217   1.256  -3.282  0.00  0.00     0.078 C 
ATOM      2  C1  UNL d   1      -1.940   0.779  -1.887  0.00  0.00    -0.077 A 
ATOM      3  C2  UNL d   1      -2.867  -0.013  -1.198  0.00  0.00    -0.001 A 
ATOM      4  C3  UNL d   1      -2.600  -0.442   0.103  0.00  0.00     0.003 A 
ATOM      5  C4  UNL d   1      -1.407  -0.084   0.726  0.00  0.00    -0.005 A 
ATOM      6  C5  UNL d   1      -0.479   0.705   0.049  0.00  0.00     0.003 A 
ATOM      7  C6  UNL d   1      -0.744   1.135  -1.252  0.00  0.00    -0.001 A 
ENDROOT
TORSDOF 0
ENDMDL
