MODEL 1
REMARK minimizedAffinity -5.14040756
REMARK minimizedRMSD -1
REMARK  0 active torsions:
REMARK  status: ('A' for Active; 'I' for Inactive)
ROOT
ATOM      1  C   UNL d   1      -0.936   1.127  -0.224  0.00  0.00     0.078 C 
ATOM      2  C1  UNL d   1      -0.086  -0.008   0.262  0.00  0.00    -0.077 A 
ATOM      3  C2  UNL d   1      -0.555  -0.892   1.241  0.00  0.00    -0.001 A 
ATOM      4  C3  UNL d   1       0.252  -1.939   1.692  0.00  0.00     0.003 A 
ATOM      5  C4  UNL d   1       1.532  -2.110   1.169  0.00  0.00    -0.005 A 
ATOM      6  C5  UNL d   1       2.008  -1.234   0.196  0.00  0.00     0.003 A 
ATOM      7  C6  UNL d   1       1.203  -0.187  -0.255  0.00  0.00    -0.001 A 
ENDROOT
TORSDOF 0
ENDMDL
