MODEL 1
REMARK minimizedAffinity 0.423962355
REMARK minimizedRMSD -1
REMARK  3 active torsions:
REMARK  status: ('A' for Active; 'I' for Inactive)
REMARK    1  A    between atoms: C3'_2  and  C2'_3 
REMARK    2  A    between atoms: C2'_3  and  C1'_4 
REMARK    3  A    between atoms: C1'_4  and  C1_5 
ROOT
ATOM      1  C1  N4B d   1      -0.213  -0.185  -0.107  0.00  0.00    -0.075 A 
ATOM      2  C2  N4B d   1      -1.586  -0.208   0.223  0.00  0.00     0.002 A 
ATOM      3  C3  N4B d   1      -2.026   0.399   1.373  0.00  0.00     0.002 A 
ATOM      4  C4  N4B d   1      -1.114   1.017   2.215  0.00  0.00    -0.004 A 
ATOM      5  C5  N4B d   1       0.207   1.057   1.877  0.00  0.00     0.002 A 
ATOM      6  C6  N4B d   1       0.663   0.454   0.722  0.00  0.00     0.002 A 
ENDROOT
BRANCH   1   7
ATOM      7  C1' N4B d   1       0.328  -0.909  -1.310  0.00  0.00     0.057 C 
BRANCH   7   8
ATOM      8  C2' N4B d   1       0.969   0.102  -2.256  0.00  0.00     0.009 C 
BRANCH   8   9
ATOM      9  C3' N4B d   1       0.805  -0.299  -3.712  0.00  0.00     0.004 C 
ATOM     10  C4' N4B d   1      -0.582  -0.055  -4.228  0.00  0.00     0.003 C 
ENDBRANCH   8   9
ENDBRANCH   7   8
ENDBRANCH   1   7
TORSDOF 3
ENDMDL
