MODEL 1
REMARK minimizedAffinity 7.15380955
REMARK minimizedRMSD -1
REMARK  3 active torsions:
REMARK  status: ('A' for Active; 'I' for Inactive)
REMARK    1  A    between atoms: C3'_2  and  C2'_3 
REMARK    2  A    between atoms: C2'_3  and  C1'_4 
REMARK    3  A    between atoms: C1'_4  and  C1_5 
ROOT
ATOM      1  C1  N4B d   1       0.046   0.801   2.829  0.00  0.00    -0.075 A 
ATOM      2  C2  N4B d   1      -0.540  -0.483   2.796  0.00  0.00     0.002 A 
ATOM      3  C3  N4B d   1       0.257  -1.599   2.719  0.00  0.00     0.002 A 
ATOM      4  C4  N4B d   1       1.635  -1.455   2.656  0.00  0.00    -0.004 A 
ATOM      5  C5  N4B d   1       2.194  -0.212   2.714  0.00  0.00     0.002 A 
ATOM      6  C6  N4B d   1       1.405   0.918   2.795  0.00  0.00     0.002 A 
ENDROOT
BRANCH   1   7
ATOM      7  C1' N4B d   1      -0.787   2.054   2.826  0.00  0.00     0.057 C 
BRANCH   7   8
ATOM      8  C2' N4B d   1      -1.579   2.126   1.523  0.00  0.00     0.009 C 
BRANCH   8   9
ATOM      9  C3' N4B d   1      -2.562   0.975   1.392  0.00  0.00     0.004 C 
ATOM     10  C4' N4B d   1      -3.471   1.120   0.208  0.00  0.00     0.003 C 
ENDBRANCH   8   9
ENDBRANCH   7   8
ENDBRANCH   1   7
TORSDOF 3
ENDMDL
