MODEL 1
REMARK minimizedAffinity 3.70234394
REMARK minimizedRMSD -1
REMARK  3 active torsions:
REMARK  status: ('A' for Active; 'I' for Inactive)
REMARK    1  A    between atoms: C3'_2  and  C2'_3 
REMARK    2  A    between atoms: C2'_3  and  C1'_4 
REMARK    3  A    between atoms: C1'_4  and  C1_5 
ROOT
ATOM      1  C1  N4B d   1      -1.014  -0.137   2.689  0.00  0.00    -0.075 A 
ATOM      2  C2  N4B d   1       0.229  -0.052   2.026  0.00  0.00     0.002 A 
ATOM      3  C3  N4B d   1       1.357  -0.573   2.611  0.00  0.00     0.002 A 
ATOM      4  C4  N4B d   1       1.269  -1.163   3.863  0.00  0.00    -0.004 A 
ATOM      5  C5  N4B d   1       0.060  -1.264   4.486  0.00  0.00     0.002 A 
ATOM      6  C6  N4B d   1      -1.082  -0.749   3.907  0.00  0.00     0.002 A 
ENDROOT
BRANCH   1   7
ATOM      7  C1' N4B d   1      -2.259   0.493   2.127  0.00  0.00     0.057 C 
BRANCH   7   8
ATOM      8  C2' N4B d   1      -2.065   0.741   0.634  0.00  0.00     0.009 C 
BRANCH   8   9
ATOM      9  C3' N4B d   1      -2.700  -0.350  -0.210  0.00  0.00     0.004 C 
ATOM     10  C4' N4B d   1      -1.691  -1.153  -0.976  0.00  0.00     0.003 C 
ENDBRANCH   8   9
ENDBRANCH   7   8
ENDBRANCH   1   7
TORSDOF 3
ENDMDL
