MODEL 1
REMARK minimizedAffinity -3.04678082
REMARK minimizedRMSD -1
REMARK  3 active torsions:
REMARK  status: ('A' for Active; 'I' for Inactive)
REMARK    1  A    between atoms: C3'_2  and  C2'_3 
REMARK    2  A    between atoms: C2'_3  and  C1'_4 
REMARK    3  A    between atoms: C1'_4  and  C1_5 
ROOT
ATOM      1  C1  N4B d   1       0.111  -0.828   0.099  0.00  0.00    -0.075 A 
ATOM      2  C2  N4B d   1      -0.819   0.143   0.530  0.00  0.00     0.002 A 
ATOM      3  C3  N4B d   1      -2.030   0.264  -0.107  0.00  0.00     0.002 A 
ATOM      4  C4  N4B d   1      -2.324  -0.558  -1.184  0.00  0.00    -0.004 A 
ATOM      5  C5  N4B d   1      -1.430  -1.510  -1.578  0.00  0.00     0.002 A 
ATOM      6  C6  N4B d   1      -0.211  -1.646  -0.945  0.00  0.00     0.002 A 
ENDROOT
BRANCH   1   7
ATOM      7  C1' N4B d   1       1.482  -0.941   0.708  0.00  0.00     0.057 C 
BRANCH   7   8
ATOM      8  C2' N4B d   1       2.425  -1.596  -0.297  0.00  0.00     0.009 C 
BRANCH   8   9
ATOM      9  C3' N4B d   1       3.488  -0.630  -0.791  0.00  0.00     0.004 C 
ATOM     10  C4' N4B d   1       3.402   0.715  -0.133  0.00  0.00     0.003 C 
ENDBRANCH   8   9
ENDBRANCH   7   8
ENDBRANCH   1   7
TORSDOF 3
ENDMDL
