MODEL 1
REMARK minimizedAffinity 0.791259885
REMARK minimizedRMSD -1
REMARK  3 active torsions:
REMARK  status: ('A' for Active; 'I' for Inactive)
REMARK    1  A    between atoms: C3'_2  and  C2'_3 
REMARK    2  A    between atoms: C2'_3  and  C1'_4 
REMARK    3  A    between atoms: C1'_4  and  C1_5 
ROOT
ATOM      1  C1  N4B d   1       1.273   0.009   2.999  0.00  0.00    -0.075 A 
ATOM      2  C2  N4B d   1       1.189   0.089   1.591  0.00  0.00     0.002 A 
ATOM      3  C3  N4B d   1      -0.033  -0.005   0.971  0.00  0.00     0.002 A 
ATOM      4  C4  N4B d   1      -1.176  -0.196   1.732  0.00  0.00    -0.004 A 
ATOM      5  C5  N4B d   1      -1.089  -0.246   3.093  0.00  0.00     0.002 A 
ATOM      6  C6  N4B d   1       0.132  -0.150   3.730  0.00  0.00     0.002 A 
ENDROOT
BRANCH   1   7
ATOM      7  C1' N4B d   1       2.595   0.020   3.717  0.00  0.00     0.057 C 
BRANCH   7   8
ATOM      8  C2' N4B d   1       2.348   0.001   5.222  0.00  0.00     0.009 C 
BRANCH   8   9
ATOM      9  C3' N4B d   1       3.602  -0.357   6.000  0.00  0.00     0.004 C 
ATOM     10  C4' N4B d   1       3.904  -1.825   5.972  0.00  0.00     0.003 C 
ENDBRANCH   8   9
ENDBRANCH   7   8
ENDBRANCH   1   7
TORSDOF 3
ENDMDL
