MODEL 1
REMARK minimizedAffinity 1.91805565
REMARK minimizedRMSD -1
REMARK  3 active torsions:
REMARK  status: ('A' for Active; 'I' for Inactive)
REMARK    1  A    between atoms: C3'_2  and  C2'_3 
REMARK    2  A    between atoms: C2'_3  and  C1'_4 
REMARK    3  A    between atoms: C1'_4  and  C1_5 
ROOT
ATOM      1  C1  N4B d   1       0.296   0.214   2.121  0.00  0.00    -0.075 A 
ATOM      2  C2  N4B d   1      -0.892   0.958   1.948  0.00  0.00     0.002 A 
ATOM      3  C3  N4B d   1      -2.037   0.586   2.610  0.00  0.00     0.002 A 
ATOM      4  C4  N4B d   1      -2.022  -0.531   3.431  0.00  0.00    -0.004 A 
ATOM      5  C5  N4B d   1      -0.864  -1.229   3.613  0.00  0.00     0.002 A 
ATOM      6  C6  N4B d   1       0.295  -0.864   2.957  0.00  0.00     0.002 A 
ENDROOT
BRANCH   1   7
ATOM      7  C1' N4B d   1       1.550   0.531   1.353  0.00  0.00     0.057 C 
BRANCH   7   8
ATOM      8  C2' N4B d   1       1.861   2.018   1.492  0.00  0.00     0.009 C 
BRANCH   8   9
ATOM      9  C3' N4B d   1       3.349   2.275   1.663  0.00  0.00     0.004 C 
ATOM     10  C4' N4B d   1       3.819   3.485   0.913  0.00  0.00     0.003 C 
ENDBRANCH   8   9
ENDBRANCH   7   8
ENDBRANCH   1   7
TORSDOF 3
ENDMDL
