MODEL 1
REMARK minimizedAffinity -4.529181
REMARK minimizedRMSD -1
REMARK  1 active torsions:
REMARK  status: ('A' for Active; 'I' for Inactive)
REMARK    1  A    between atoms: C3_4  and  O_7 
ROOT
ATOM      1  C   UNL d   1      -0.250  -1.077   0.179  0.00  0.00    -0.033 A 
ATOM      2  C1  UNL d   1      -0.214   0.307  -0.006  0.00  0.00     0.039 A 
ATOM      3  C2  UNL d   1       0.347   0.843  -1.167  0.00  0.00    -0.080 A 
ATOM      4  C3  UNL d   1       0.867  -0.013  -2.134  0.00  0.00     0.150 A 
ATOM      5  C4  UNL d   1       0.831  -1.392  -1.958  0.00  0.00    -0.007 A 
ATOM      6  C5  UNL d   1       0.271  -1.926  -0.798  0.00  0.00     0.039 A 
ENDROOT
BRANCH   4   7
ATOM      7  O   UNL d   1       1.429   0.464  -3.280  0.00  0.00    -0.526 OA
ATOM      8  H5  UNL d   1       1.410   1.435  -3.251  0.00  0.00     0.418 HD
ENDBRANCH   4   7
TORSDOF 1
ENDMDL
