MODEL 1
REMARK minimizedAffinity -4.26451206
REMARK minimizedRMSD -1
REMARK  1 active torsions:
REMARK  status: ('A' for Active; 'I' for Inactive)
REMARK    1  A    between atoms: C3_4  and  O_7 
ROOT
ATOM      1  C   UNL d   1      -0.204  -1.335   0.969  0.00  0.00    -0.033 A 
ATOM      2  C1  UNL d   1       0.180  -2.375   0.120  0.00  0.00     0.039 A 
ATOM      3  C2  UNL d   1       0.627  -2.094  -1.172  0.00  0.00    -0.080 A 
ATOM      4  C3  UNL d   1       0.688  -0.771  -1.602  0.00  0.00     0.150 A 
ATOM      5  C4  UNL d   1       0.311   0.270  -0.760  0.00  0.00    -0.007 A 
ATOM      6  C5  UNL d   1      -0.137  -0.012   0.530  0.00  0.00     0.039 A 
ENDROOT
BRANCH   4   7
ATOM      7  O   UNL d   1       1.113  -0.448  -2.856  0.00  0.00    -0.526 OA
ATOM      8  H5  UNL d   1       1.313  -1.269  -3.334  0.00  0.00     0.418 HD
ENDBRANCH   4   7
TORSDOF 1
ENDMDL
