MODEL 1
REMARK minimizedAffinity -2.79007244
REMARK minimizedRMSD -1
REMARK  1 active torsions:
REMARK  status: ('A' for Active; 'I' for Inactive)
REMARK    1  A    between atoms: C3_4  and  O_7 
ROOT
ATOM      1  C   UNL d   1      -2.336   0.104   2.064  0.00  0.00    -0.033 A 
ATOM      2  C1  UNL d   1      -3.649   0.567   1.959  0.00  0.00     0.039 A 
ATOM      3  C2  UNL d   1      -4.050   1.703   2.665  0.00  0.00    -0.080 A 
ATOM      4  C3  UNL d   1      -3.130   2.366   3.471  0.00  0.00     0.150 A 
ATOM      5  C4  UNL d   1      -1.819   1.914   3.578  0.00  0.00    -0.007 A 
ATOM      6  C5  UNL d   1      -1.421   0.779   2.873  0.00  0.00     0.039 A 
ENDROOT
BRANCH   4   7
ATOM      7  O   UNL d   1      -3.476   3.476   4.183  0.00  0.00    -0.526 OA
ATOM      8  H5  UNL d   1      -4.420   3.656   4.034  0.00  0.00     0.418 HD
ENDBRANCH   4   7
TORSDOF 1
ENDMDL
