MODEL 1
REMARK minimizedAffinity -1.32393312
REMARK minimizedRMSD -1
REMARK  1 active torsions:
REMARK  status: ('A' for Active; 'I' for Inactive)
REMARK    1  A    between atoms: C3_4  and  O_7 
ROOT
ATOM      1  C   UNL d   1      -3.808   5.713  -5.986  0.00  0.00    -0.033 A 
ATOM      2  C1  UNL d   1      -5.203   5.774  -6.000  0.00  0.00     0.039 A 
ATOM      3  C2  UNL d   1      -5.955   4.598  -5.966  0.00  0.00    -0.080 A 
ATOM      4  C3  UNL d   1      -5.302   3.370  -5.918  0.00  0.00     0.150 A 
ATOM      5  C4  UNL d   1      -3.912   3.302  -5.901  0.00  0.00    -0.007 A 
ATOM      6  C5  UNL d   1      -3.163   4.477  -5.935  0.00  0.00     0.039 A 
ENDROOT
BRANCH   4   7
ATOM      7  O   UNL d   1      -5.993   2.195  -5.889  0.00  0.00    -0.526 OA
ATOM      8  H5  UNL d   1      -6.943   2.396  -5.935  0.00  0.00     0.418 HD
ENDBRANCH   4   7
TORSDOF 1
ENDMDL
