MODEL 1
REMARK minimizedAffinity -2.73856711
REMARK minimizedRMSD -1
REMARK  1 active torsions:
REMARK  status: ('A' for Active; 'I' for Inactive)
REMARK    1  A    between atoms: C3_4  and  O_7 
ROOT
ATOM      1  C   UNL d   1       2.189   0.217  -1.968  0.00  0.00    -0.033 A 
ATOM      2  C1  UNL d   1       2.079   1.093  -0.887  0.00  0.00     0.039 A 
ATOM      3  C2  UNL d   1       0.968   1.029  -0.044  0.00  0.00    -0.080 A 
ATOM      4  C3  UNL d   1      -0.024   0.085  -0.292  0.00  0.00     0.150 A 
ATOM      5  C4  UNL d   1       0.080  -0.794  -1.365  0.00  0.00    -0.007 A 
ATOM      6  C5  UNL d   1       1.190  -0.728  -2.207  0.00  0.00     0.039 A 
ENDROOT
BRANCH   4   7
ATOM      7  O   UNL d   1      -1.129  -0.013   0.501  0.00  0.00    -0.526 OA
ATOM      8  H5  UNL d   1      -1.079   0.676   1.184  0.00  0.00     0.418 HD
ENDBRANCH   4   7
TORSDOF 1
ENDMDL
