MODEL 1
REMARK minimizedAffinity -1.59784663
REMARK minimizedRMSD -1
REMARK  1 active torsions:
REMARK  status: ('A' for Active; 'I' for Inactive)
REMARK    1  A    between atoms: C3_4  and  O_7 
ROOT
ATOM      1  C   UNL d   1       2.020   2.185   2.361  0.00  0.00    -0.033 A 
ATOM      2  C1  UNL d   1       1.414   1.374   3.322  0.00  0.00     0.039 A 
ATOM      3  C2  UNL d   1       0.392   0.497   2.954  0.00  0.00    -0.080 A 
ATOM      4  C3  UNL d   1      -0.013   0.440   1.623  0.00  0.00     0.150 A 
ATOM      5  C4  UNL d   1       0.589   1.243   0.660  0.00  0.00    -0.007 A 
ATOM      6  C5  UNL d   1       1.609   2.118   1.030  0.00  0.00     0.039 A 
ENDROOT
BRANCH   4   7
ATOM      7  O   UNL d   1      -1.010  -0.397   1.217  0.00  0.00    -0.526 OA
ATOM      8  H5  UNL d   1      -1.352  -0.868   1.994  0.00  0.00     0.418 HD
ENDBRANCH   4   7
TORSDOF 1
ENDMDL
