MODEL 1
REMARK minimizedAffinity -1.15080535
REMARK minimizedRMSD -1
REMARK  1 active torsions:
REMARK  status: ('A' for Active; 'I' for Inactive)
REMARK    1  A    between atoms: C3_4  and  O_7 
ROOT
ATOM      1  C   UNL d   1      -4.871   0.080   1.631  0.00  0.00    -0.033 A 
ATOM      2  C1  UNL d   1      -4.254  -1.172   1.596  0.00  0.00     0.039 A 
ATOM      3  C2  UNL d   1      -2.872  -1.266   1.415  0.00  0.00    -0.080 A 
ATOM      4  C3  UNL d   1      -2.121  -0.103   1.272  0.00  0.00     0.150 A 
ATOM      5  C4  UNL d   1      -2.729   1.148   1.310  0.00  0.00    -0.007 A 
ATOM      6  C5  UNL d   1      -4.109   1.240   1.490  0.00  0.00     0.039 A 
ENDROOT
BRANCH   4   7
ATOM      7  O   UNL d   1      -0.771  -0.144   1.089  0.00  0.00    -0.526 OA
ATOM      8  H5  UNL d   1      -0.494  -1.075   1.055  0.00  0.00     0.418 HD
ENDBRANCH   4   7
TORSDOF 1
ENDMDL
