MODEL 1
REMARK minimizedAffinity -2.51403165
REMARK minimizedRMSD -1
REMARK  1 active torsions:
REMARK  status: ('A' for Active; 'I' for Inactive)
REMARK    1  A    between atoms: C3_4  and  O_7 
ROOT
ATOM      1  C   UNL d   1       0.325   0.877   0.213  0.00  0.00    -0.033 A 
ATOM      2  C1  UNL d   1      -0.016   0.316   1.445  0.00  0.00     0.039 A 
ATOM      3  C2  UNL d   1       0.787   0.544   2.564  0.00  0.00    -0.080 A 
ATOM      4  C3  UNL d   1       1.926   1.335   2.438  0.00  0.00     0.150 A 
ATOM      5  C4  UNL d   1       2.270   1.900   1.214  0.00  0.00    -0.007 A 
ATOM      6  C5  UNL d   1       1.467   1.670   0.097  0.00  0.00     0.039 A 
ENDROOT
BRANCH   4   7
ATOM      7  O   UNL d   1       2.744   1.582   3.500  0.00  0.00    -0.526 OA
ATOM      8  H5  UNL d   1       2.398   1.103   4.272  0.00  0.00     0.418 HD
ENDBRANCH   4   7
TORSDOF 1
ENDMDL
