MODEL 1
REMARK minimizedAffinity -4.74460697
REMARK minimizedRMSD -1
REMARK  1 active torsions:
REMARK  status: ('A' for Active; 'I' for Inactive)
REMARK    1  A    between atoms: C3_4  and  O_7 
ROOT
ATOM      1  C   UNL d   1       1.989   0.329  -2.322  0.00  0.00    -0.033 A 
ATOM      2  C1  UNL d   1       1.939   1.370  -1.393  0.00  0.00     0.039 A 
ATOM      3  C2  UNL d   1       1.065   1.296  -0.306  0.00  0.00    -0.080 A 
ATOM      4  C3  UNL d   1       0.250   0.177  -0.159  0.00  0.00     0.150 A 
ATOM      5  C4  UNL d   1       0.299  -0.866  -1.079  0.00  0.00    -0.007 A 
ATOM      6  C5  UNL d   1       1.171  -0.790  -2.164  0.00  0.00     0.039 A 
ENDROOT
BRANCH   4   7
ATOM      7  O   UNL d   1      -0.621   0.062   0.883  0.00  0.00    -0.526 OA
ATOM      8  H5  UNL d   1      -0.566   0.869   1.421  0.00  0.00     0.418 HD
ENDBRANCH   4   7
TORSDOF 1
ENDMDL
