MODEL 1
REMARK minimizedAffinity -3.68134022
REMARK minimizedRMSD -1
REMARK  1 active torsions:
REMARK  status: ('A' for Active; 'I' for Inactive)
REMARK    1  A    between atoms: C3_4  and  O_7 
ROOT
ATOM      1  C   UNL d   1       2.374   4.057   1.507  0.00  0.00    -0.033 A 
ATOM      2  C1  UNL d   1       2.719   4.050   2.859  0.00  0.00     0.039 A 
ATOM      3  C2  UNL d   1       2.461   2.923   3.642  0.00  0.00    -0.080 A 
ATOM      4  C3  UNL d   1       1.860   1.810   3.060  0.00  0.00     0.150 A 
ATOM      5  C4  UNL d   1       1.517   1.809   1.712  0.00  0.00    -0.007 A 
ATOM      6  C5  UNL d   1       1.774   2.936   0.933  0.00  0.00     0.039 A 
ENDROOT
BRANCH   4   7
ATOM      7  O   UNL d   1       1.584   0.689   3.785  0.00  0.00    -0.526 OA
ATOM      8  H5  UNL d   1       1.850   0.845   4.707  0.00  0.00     0.418 HD
ENDBRANCH   4   7
TORSDOF 1
ENDMDL
