MODEL 1
REMARK minimizedAffinity -3.00119114
REMARK minimizedRMSD -1
REMARK  1 active torsions:
REMARK  status: ('A' for Active; 'I' for Inactive)
REMARK    1  A    between atoms: C3_4  and  O_7 
ROOT
ATOM      1  C   UNL d   1      -0.017  -1.381  -0.926  0.00  0.00    -0.033 A 
ATOM      2  C1  UNL d   1       1.010  -1.432  -1.871  0.00  0.00     0.039 A 
ATOM      3  C2  UNL d   1       1.903  -0.366  -1.992  0.00  0.00    -0.080 A 
ATOM      4  C3  UNL d   1       1.760   0.742  -1.163  0.00  0.00     0.150 A 
ATOM      5  C4  UNL d   1       0.743   0.798  -0.216  0.00  0.00    -0.007 A 
ATOM      6  C5  UNL d   1      -0.149  -0.267  -0.097  0.00  0.00     0.039 A 
ENDROOT
BRANCH   4   7
ATOM      7  O   UNL d   1       2.605   1.809  -1.247  0.00  0.00    -0.526 OA
ATOM      8  H5  UNL d   1       3.240   1.643  -1.963  0.00  0.00     0.418 HD
ENDBRANCH   4   7
TORSDOF 1
ENDMDL
