MODEL 1
REMARK minimizedAffinity -2.67641425
REMARK minimizedRMSD -1
REMARK  1 active torsions:
REMARK  status: ('A' for Active; 'I' for Inactive)
REMARK    1  A    between atoms: C3_4  and  O_7 
ROOT
ATOM      1  C   UNL d   1      -5.935   3.646  -6.000  0.00  0.00    -0.033 A 
ATOM      2  C1  UNL d   1      -5.592   4.999  -5.997  0.00  0.00     0.039 A 
ATOM      3  C2  UNL d   1      -4.249   5.381  -5.986  0.00  0.00    -0.080 A 
ATOM      4  C3  UNL d   1      -3.260   4.402  -5.980  0.00  0.00     0.150 A 
ATOM      5  C4  UNL d   1      -3.594   3.051  -5.987  0.00  0.00    -0.007 A 
ATOM      6  C5  UNL d   1      -4.936   2.672  -5.996  0.00  0.00     0.039 A 
ENDROOT
BRANCH   4   7
ATOM      7  O   UNL d   1      -1.936   4.726  -5.964  0.00  0.00    -0.526 OA
ATOM      8  H5  UNL d   1      -1.856   5.694  -5.932  0.00  0.00     0.418 HD
ENDBRANCH   4   7
TORSDOF 1
ENDMDL
