MODEL 1
REMARK minimizedAffinity 4.82318592
REMARK minimizedRMSD -1
REMARK  0 active torsions:
REMARK  status: ('A' for Active; 'I' for Inactive)
ROOT
ATOM      1  C   UNL d   1       1.762  -0.455  -1.033  0.00  0.00     0.020 A 
ATOM      2  C1  UNL d   1       1.969  -0.259   0.332  0.00  0.00     0.020 A 
ATOM      3  C2  UNL d   1       1.610   0.952   0.927  0.00  0.00     0.034 A 
ATOM      4  C3  UNL d   1       1.041   1.973   0.156  0.00  0.00     0.017 A 
ATOM      5  C4  UNL d   1       0.833   1.776  -1.214  0.00  0.00     0.017 A 
ATOM      6  C5  UNL d   1       1.195   0.561  -1.804  0.00  0.00     0.034 A 
ATOM      7 Cl   UNL d   1       0.136   2.988  -2.229  0.00  0.00    -0.070 Cl
ATOM      8 Cl1  UNL d   1       0.620   3.444   0.958  0.00  0.00    -0.070 Cl
ENDROOT
TORSDOF 0
ENDMDL
