MODEL 1
REMARK minimizedAffinity -3.57505584
REMARK minimizedRMSD -1
REMARK  0 active torsions:
REMARK  status: ('A' for Active; 'I' for Inactive)
ROOT
ATOM      1  C   UNL d   1       1.632   0.573  -0.003  0.00  0.00     0.020 A 
ATOM      2  C1  UNL d   1       1.458   0.752  -1.374  0.00  0.00     0.020 A 
ATOM      3  C2  UNL d   1       1.091   2.003  -1.874  0.00  0.00     0.034 A 
ATOM      4  C3  UNL d   1       0.897   3.080  -1.002  0.00  0.00     0.017 A 
ATOM      5  C4  UNL d   1       1.071   2.899   0.375  0.00  0.00     0.017 A 
ATOM      6  C5  UNL d   1       1.439   1.644   0.870  0.00  0.00     0.034 A 
ATOM      7 Cl   UNL d   1       0.849   4.181   1.513  0.00  0.00    -0.070 Cl
ATOM      8 Cl1  UNL d   1       0.444   4.599  -1.689  0.00  0.00    -0.070 Cl
ENDROOT
TORSDOF 0
ENDMDL
