MODEL 1
REMARK minimizedAffinity 0.527134538
REMARK minimizedRMSD -1
REMARK  0 active torsions:
REMARK  status: ('A' for Active; 'I' for Inactive)
ROOT
ATOM      1  C   UNL d   1       0.955  -1.975  -1.396  0.00  0.00     0.020 A 
ATOM      2  C1  UNL d   1       1.452  -2.018  -0.094  0.00  0.00     0.020 A 
ATOM      3  C2  UNL d   1       1.573  -0.839   0.645  0.00  0.00     0.034 A 
ATOM      4  C3  UNL d   1       1.199   0.387   0.083  0.00  0.00     0.017 A 
ATOM      5  C4  UNL d   1       0.701   0.428  -1.224  0.00  0.00     0.017 A 
ATOM      6  C5  UNL d   1       0.581  -0.755  -1.960  0.00  0.00     0.034 A 
ATOM      7 Cl   UNL d   1       0.218   1.903  -1.986  0.00  0.00    -0.070 Cl
ATOM      8 Cl1  UNL d   1       1.376   1.804   1.055  0.00  0.00    -0.070 Cl
ENDROOT
TORSDOF 0
ENDMDL
