MODEL 1
REMARK minimizedAffinity 2.90709424
REMARK minimizedRMSD -1
REMARK  0 active torsions:
REMARK  status: ('A' for Active; 'I' for Inactive)
ROOT
ATOM      1  C   UNL d   1      -4.132   2.661   0.732  0.00  0.00     0.020 A 
ATOM      2  C1  UNL d   1      -4.526   1.580   1.520  0.00  0.00     0.020 A 
ATOM      3  C2  UNL d   1      -4.173   1.537   2.871  0.00  0.00     0.034 A 
ATOM      4  C3  UNL d   1      -3.425   2.575   3.437  0.00  0.00     0.017 A 
ATOM      5  C4  UNL d   1      -3.030   3.659   2.644  0.00  0.00     0.017 A 
ATOM      6  C5  UNL d   1      -3.386   3.698   1.293  0.00  0.00     0.034 A 
ATOM      7 Cl   UNL d   1      -2.105   4.978   3.271  0.00  0.00    -0.070 Cl
ATOM      8 Cl1  UNL d   1      -3.024   2.456   5.113  0.00  0.00    -0.070 Cl
ENDROOT
TORSDOF 0
ENDMDL
