MODEL 1
REMARK minimizedAffinity -1.09379017
REMARK minimizedRMSD -1
REMARK  0 active torsions:
REMARK  status: ('A' for Active; 'I' for Inactive)
ROOT
ATOM      1  C   UNL d   1       1.268   2.025   1.401  0.00  0.00     0.020 A 
ATOM      2  C1  UNL d   1       0.257   1.740   0.484  0.00  0.00     0.020 A 
ATOM      3  C2  UNL d   1       0.435   0.726  -0.459  0.00  0.00     0.034 A 
ATOM      4  C3  UNL d   1       1.627  -0.007  -0.488  0.00  0.00     0.017 A 
ATOM      5  C4  UNL d   1       2.641   0.280   0.433  0.00  0.00     0.017 A 
ATOM      6  C5  UNL d   1       2.457   1.296   1.375  0.00  0.00     0.034 A 
ATOM      7 Cl   UNL d   1       4.140  -0.581   0.459  0.00  0.00    -0.070 Cl
ATOM      8 Cl1  UNL d   1       1.779  -1.247  -1.682  0.00  0.00    -0.070 Cl
ENDROOT
TORSDOF 0
ENDMDL
