MODEL 1
REMARK minimizedAffinity -2.71639609
REMARK minimizedRMSD -1
REMARK  0 active torsions:
REMARK  status: ('A' for Active; 'I' for Inactive)
ROOT
ATOM      1  C   UNL d   1       0.995  -0.714  -1.887  0.00  0.00     0.020 A 
ATOM      2  C1  UNL d   1       1.121  -1.053  -0.541  0.00  0.00     0.020 A 
ATOM      3  C2  UNL d   1       1.273  -0.052   0.421  0.00  0.00     0.034 A 
ATOM      4  C3  UNL d   1       1.298   1.294   0.037  0.00  0.00     0.017 A 
ATOM      5  C4  UNL d   1       1.171   1.634  -1.315  0.00  0.00     0.017 A 
ATOM      6  C5  UNL d   1       1.020   0.627  -2.273  0.00  0.00     0.034 A 
ATOM      7 Cl   UNL d   1       1.193   3.272  -1.864  0.00  0.00    -0.070 Cl
ATOM      8 Cl1  UNL d   1       1.488   2.480   1.279  0.00  0.00    -0.070 Cl
ENDROOT
TORSDOF 0
ENDMDL
