MODEL 1
REMARK minimizedAffinity 0.205608383
REMARK minimizedRMSD -1
REMARK  0 active torsions:
REMARK  status: ('A' for Active; 'I' for Inactive)
ROOT
ATOM      1  C   UNL d   1       0.633   3.166  -1.939  0.00  0.00     0.020 A 
ATOM      2  C1  UNL d   1       0.828   3.839  -0.733  0.00  0.00     0.020 A 
ATOM      3  C2  UNL d   1       1.164   3.125   0.419  0.00  0.00     0.034 A 
ATOM      4  C3  UNL d   1       1.305   1.733   0.368  0.00  0.00     0.017 A 
ATOM      5  C4  UNL d   1       1.108   1.059  -0.843  0.00  0.00     0.017 A 
ATOM      6  C5  UNL d   1       0.772   1.779  -1.993  0.00  0.00     0.034 A 
ATOM      7 Cl   UNL d   1       1.264  -0.657  -0.984  0.00  0.00    -0.070 Cl
ATOM      8 Cl1  UNL d   1       1.722   0.914   1.831  0.00  0.00    -0.070 Cl
ENDROOT
TORSDOF 0
ENDMDL
