MODEL 1
REMARK minimizedAffinity 2.27434659
REMARK minimizedRMSD -1
REMARK  0 active torsions:
REMARK  status: ('A' for Active; 'I' for Inactive)
ROOT
ATOM      1  C   UNL d   1       0.992   0.109  -1.335  0.00  0.00     0.020 A 
ATOM      2  C1  UNL d   1       0.722   1.250  -2.089  0.00  0.00     0.020 A 
ATOM      3  C2  UNL d   1       0.809   2.513  -1.499  0.00  0.00     0.034 A 
ATOM      4  C3  UNL d   1       1.168   2.637  -0.152  0.00  0.00     0.017 A 
ATOM      5  C4  UNL d   1       1.439   1.491   0.604  0.00  0.00     0.017 A 
ATOM      6  C5  UNL d   1       1.350   0.229   0.009  0.00  0.00     0.034 A 
ATOM      7 Cl   UNL d   1       1.887   1.565   2.272  0.00  0.00    -0.070 Cl
ATOM      8 Cl1  UNL d   1       1.256   4.230   0.512  0.00  0.00    -0.070 Cl
ENDROOT
TORSDOF 0
ENDMDL
