MODEL 1
REMARK minimizedAffinity 7.10664606
REMARK minimizedRMSD -1
REMARK  0 active torsions:
REMARK  status: ('A' for Active; 'I' for Inactive)
ROOT
ATOM      1  C   UNL d   1       1.084   1.365  -2.588  0.00  0.00     0.020 A 
ATOM      2  C1  UNL d   1       0.930   2.594  -1.948  0.00  0.00     0.020 A 
ATOM      3  C2  UNL d   1       1.273   2.727  -0.601  0.00  0.00     0.034 A 
ATOM      4  C3  UNL d   1       1.771   1.630   0.111  0.00  0.00     0.017 A 
ATOM      5  C4  UNL d   1       1.926   0.397  -0.533  0.00  0.00     0.017 A 
ATOM      6  C5  UNL d   1       1.581   0.269  -1.882  0.00  0.00     0.034 A 
ATOM      7 Cl   UNL d   1       2.535  -1.002   0.278  0.00  0.00    -0.070 Cl
ATOM      8 Cl1  UNL d   1       2.175   1.867   1.774  0.00  0.00    -0.070 Cl
ENDROOT
TORSDOF 0
ENDMDL
