MODEL 1
REMARK minimizedAffinity 3.51152802
REMARK minimizedRMSD -1
REMARK  0 active torsions:
REMARK  status: ('A' for Active; 'I' for Inactive)
ROOT
ATOM      1  C   UNL d   1       0.766  -0.949  -1.244  0.00  0.00     0.020 A 
ATOM      2  C1  UNL d   1       0.952  -1.098   0.130  0.00  0.00     0.020 A 
ATOM      3  C2  UNL d   1       1.151   0.026   0.933  0.00  0.00     0.034 A 
ATOM      4  C3  UNL d   1       1.166   1.305   0.364  0.00  0.00     0.017 A 
ATOM      5  C4  UNL d   1       0.979   1.453  -1.015  0.00  0.00     0.017 A 
ATOM      6  C5  UNL d   1       0.780   0.324  -1.815  0.00  0.00     0.034 A 
ATOM      7 Cl   UNL d   1       0.984   2.998  -1.790  0.00  0.00    -0.070 Cl
ATOM      8 Cl1  UNL d   1       1.417   2.651   1.418  0.00  0.00    -0.070 Cl
ENDROOT
TORSDOF 0
ENDMDL
