MODEL 1
REMARK minimizedAffinity -0.81532526
REMARK minimizedRMSD -1
REMARK  0 active torsions:
REMARK  status: ('A' for Active; 'I' for Inactive)
ROOT
ATOM      1  C   UNL d   1       0.936  -0.040  -0.024  0.00  0.00     0.020 A 
ATOM      2  C1  UNL d   1       1.074   0.174  -1.394  0.00  0.00     0.020 A 
ATOM      3  C2  UNL d   1       1.203   1.474  -1.888  0.00  0.00     0.034 A 
ATOM      4  C3  UNL d   1       1.193   2.565  -1.011  0.00  0.00     0.017 A 
ATOM      5  C4  UNL d   1       1.054   2.348   0.365  0.00  0.00     0.017 A 
ATOM      6  C5  UNL d   1       0.926   1.044   0.854  0.00  0.00     0.034 A 
ATOM      7 Cl   UNL d   1       1.033   3.643   1.510  0.00  0.00    -0.070 Cl
ATOM      8 Cl1  UNL d   1       1.356   4.145  -1.690  0.00  0.00    -0.070 Cl
ENDROOT
TORSDOF 0
ENDMDL
