MODEL 1
REMARK minimizedAffinity -1.01305652
REMARK minimizedRMSD -1
REMARK  0 active torsions:
REMARK  status: ('A' for Active; 'I' for Inactive)
ROOT
ATOM      1  C   UNL d   1       1.263   2.446   2.069  0.00  0.00     0.020 A 
ATOM      2  C1  UNL d   1       1.106   1.067   2.196  0.00  0.00     0.020 A 
ATOM      3  C2  UNL d   1       0.899   0.281   1.060  0.00  0.00     0.034 A 
ATOM      4  C3  UNL d   1       0.848   0.874  -0.207  0.00  0.00     0.017 A 
ATOM      5  C4  UNL d   1       1.005   2.259  -0.332  0.00  0.00     0.017 A 
ATOM      6  C5  UNL d   1       1.213   3.041   0.808  0.00  0.00     0.034 A 
ATOM      7 Cl   UNL d   1       0.955   3.063  -1.862  0.00  0.00    -0.070 Cl
ATOM      8 Cl1  UNL d   1       0.588  -0.158  -1.568  0.00  0.00    -0.070 Cl
ENDROOT
TORSDOF 0
ENDMDL
