MODEL 1
REMARK minimizedAffinity 2.886729
REMARK minimizedRMSD -1
REMARK  0 active torsions:
REMARK  status: ('A' for Active; 'I' for Inactive)
ROOT
ATOM      1  C   UNL d   1       0.953  -0.624   0.231  0.00  0.00     0.020 A 
ATOM      2  C1  UNL d   1       0.897  -0.493  -1.156  0.00  0.00     0.020 A 
ATOM      3  C2  UNL d   1       0.981   0.772  -1.741  0.00  0.00     0.034 A 
ATOM      4  C3  UNL d   1       1.122   1.911  -0.940  0.00  0.00     0.017 A 
ATOM      5  C4  UNL d   1       1.178   1.778   0.453  0.00  0.00     0.017 A 
ATOM      6  C5  UNL d   1       1.093   0.509   1.033  0.00  0.00     0.034 A 
ATOM      7 Cl   UNL d   1       1.350   3.136   1.507  0.00  0.00    -0.070 Cl
ATOM      8 Cl1  UNL d   1       1.220   3.444  -1.731  0.00  0.00    -0.070 Cl
ENDROOT
TORSDOF 0
ENDMDL
