MODEL 1
REMARK minimizedAffinity 4.89034128
REMARK minimizedRMSD -1
REMARK  0 active torsions:
REMARK  status: ('A' for Active; 'I' for Inactive)
ROOT
ATOM      1  C   UNL d   1      -3.344   2.550   1.243  0.00  0.00     0.020 A 
ATOM      2  C1  UNL d   1      -2.221   2.723   2.051  0.00  0.00     0.020 A 
ATOM      3  C2  UNL d   1      -2.254   2.315   3.387  0.00  0.00     0.034 A 
ATOM      4  C3  UNL d   1      -3.410   1.732   3.917  0.00  0.00     0.017 A 
ATOM      5  C4  UNL d   1      -4.537   1.559   3.104  0.00  0.00     0.017 A 
ATOM      6  C5  UNL d   1      -4.499   1.969   1.768  0.00  0.00     0.034 A 
ATOM      7 Cl   UNL d   1      -6.000   0.848   3.687  0.00  0.00    -0.070 Cl
ATOM      8 Cl1  UNL d   1      -3.380   1.251   5.576  0.00  0.00    -0.070 Cl
ENDROOT
TORSDOF 0
ENDMDL
