MODEL 1
REMARK minimizedAffinity 3.92409158
REMARK minimizedRMSD -1
REMARK  0 active torsions:
REMARK  status: ('A' for Active; 'I' for Inactive)
ROOT
ATOM      1  C   UNL d   1       2.297   0.237  -0.846  0.00  0.00     0.020 A 
ATOM      2  C1  UNL d   1       1.306   0.363  -1.818  0.00  0.00     0.020 A 
ATOM      3  C2  UNL d   1       0.521  -0.740  -2.162  0.00  0.00     0.034 A 
ATOM      4  C3  UNL d   1       0.727  -1.973  -1.533  0.00  0.00     0.017 A 
ATOM      5  C4  UNL d   1       1.723  -2.099  -0.558  0.00  0.00     0.017 A 
ATOM      6  C5  UNL d   1       2.505  -0.991  -0.217  0.00  0.00     0.034 A 
ATOM      7 Cl   UNL d   1       2.036  -3.589   0.261  0.00  0.00    -0.070 Cl
ATOM      8 Cl1  UNL d   1      -0.280  -3.295  -2.008  0.00  0.00    -0.070 Cl
ENDROOT
TORSDOF 0
ENDMDL
