MODEL 1
REMARK minimizedAffinity -2.81998253
REMARK minimizedRMSD -1
REMARK  0 active torsions:
REMARK  status: ('A' for Active; 'I' for Inactive)
ROOT
ATOM      1  C   UNL d   1       0.491  -0.050   0.217  0.00  0.00     0.020 A 
ATOM      2  C1  UNL d   1       0.474   0.173  -1.160  0.00  0.00     0.020 A 
ATOM      3  C2  UNL d   1       0.814   1.429  -1.668  0.00  0.00     0.034 A 
ATOM      4  C3  UNL d   1       1.172   2.466  -0.799  0.00  0.00     0.017 A 
ATOM      5  C4  UNL d   1       1.188   2.242   0.582  0.00  0.00     0.017 A 
ATOM      6  C5  UNL d   1       0.847   0.983   1.085  0.00  0.00     0.034 A 
ATOM      7 Cl   UNL d   1       1.619   3.473   1.716  0.00  0.00    -0.070 Cl
ATOM      8 Cl1  UNL d   1       1.581   3.993  -1.497  0.00  0.00    -0.070 Cl
ENDROOT
TORSDOF 0
ENDMDL
