MODEL 1
REMARK minimizedAffinity -0.381674677
REMARK minimizedRMSD -1
REMARK  0 active torsions:
REMARK  status: ('A' for Active; 'I' for Inactive)
ROOT
ATOM      1  C   UNL d   1       1.694  -0.402   0.122  0.00  0.00     0.020 A 
ATOM      2  C1  UNL d   1       1.221  -0.576  -1.178  0.00  0.00     0.020 A 
ATOM      3  C2  UNL d   1       0.667   0.503  -1.870  0.00  0.00     0.034 A 
ATOM      4  C3  UNL d   1       0.584   1.761  -1.263  0.00  0.00     0.017 A 
ATOM      5  C4  UNL d   1       1.059   1.935   0.042  0.00  0.00     0.017 A 
ATOM      6  C5  UNL d   1       1.613   0.851   0.731  0.00  0.00     0.034 A 
ATOM      7 Cl   UNL d   1       0.991   3.457   0.858  0.00  0.00    -0.070 Cl
ATOM      8 Cl1  UNL d   1      -0.113   3.050  -2.177  0.00  0.00    -0.070 Cl
ENDROOT
TORSDOF 0
ENDMDL
