MODEL 1
REMARK minimizedAffinity 7.83851814
REMARK minimizedRMSD -1
REMARK  0 active torsions:
REMARK  status: ('A' for Active; 'I' for Inactive)
ROOT
ATOM      1  C   UNL d   1       1.030   2.776  -3.044  0.00  0.00     0.020 A 
ATOM      2  C1  UNL d   1       0.770   1.737  -2.151  0.00  0.00     0.020 A 
ATOM      3  C2  UNL d   1       0.788   1.977  -0.776  0.00  0.00     0.034 A 
ATOM      4  C3  UNL d   1       1.066   3.260  -0.289  0.00  0.00     0.017 A 
ATOM      5  C4  UNL d   1       1.327   4.302  -1.186  0.00  0.00     0.017 A 
ATOM      6  C5  UNL d   1       1.307   4.056  -2.562  0.00  0.00     0.034 A 
ATOM      7 Cl   UNL d   1       1.678   5.911  -0.661  0.00  0.00    -0.070 Cl
ATOM      8 Cl1  UNL d   1       1.072   3.485   1.424  0.00  0.00    -0.070 Cl
ENDROOT
TORSDOF 0
ENDMDL
