MODEL 1
REMARK minimizedAffinity 17.6276093
REMARK minimizedRMSD -1
REMARK  0 active torsions:
REMARK  status: ('A' for Active; 'I' for Inactive)
ROOT
ATOM      1  C   UNL d   1       0.776  -1.490   2.950  0.00  0.00     0.124 A 
ATOM      2  C1  UNL d   1       0.442  -0.281   3.545  0.00  0.00     0.062 A 
ATOM      3  C2  UNL d   1      -0.804   0.294   3.311  0.00  0.00     0.162 A 
ATOM      4  C3  UNL d   1      -1.726  -0.340   2.478  0.00  0.00    -0.034 A 
ATOM      5  C4  UNL d   1      -1.383  -1.555   1.883  0.00  0.00     0.162 A 
ATOM      6  C5  UNL d   1      -0.137  -2.126   2.121  0.00  0.00     0.062 A 
ATOM      7  F   UNL d   1       0.183  -3.294   1.545  0.00  0.00    -0.097 F 
ATOM      8  F1  UNL d   1      -2.246  -2.192   1.078  0.00  0.00    -0.096 F 
ATOM      9  I   UNL d   1      -3.590   0.517   2.126  0.00  0.00    -0.060 I 
ATOM     10  F2  UNL d   1      -1.099   1.463   3.898  0.00  0.00    -0.096 F 
ATOM     11  F3  UNL d   1       1.322   0.336   4.346  0.00  0.00    -0.097 F 
ATOM     12  F4  UNL d   1       1.975  -2.041   3.177  0.00  0.00    -0.092 F 
ENDROOT
TORSDOF 0
ENDMDL
