MODEL 1
REMARK minimizedAffinity 15.1863499
REMARK minimizedRMSD -1
REMARK  0 active torsions:
REMARK  status: ('A' for Active; 'I' for Inactive)
ROOT
ATOM      1  C   UNL d   1       3.586   3.964   2.837  0.00  0.00     0.124 A 
ATOM      2  C1  UNL d   1       4.064   4.575   3.988  0.00  0.00     0.062 A 
ATOM      3  C2  UNL d   1       3.180   5.156   4.892  0.00  0.00     0.162 A 
ATOM      4  C3  UNL d   1       1.806   5.128   4.649  0.00  0.00    -0.034 A 
ATOM      5  C4  UNL d   1       1.332   4.514   3.489  0.00  0.00     0.162 A 
ATOM      6  C5  UNL d   1       2.221   3.934   2.588  0.00  0.00     0.062 A 
ATOM      7  F   UNL d   1       1.756   3.345   1.477  0.00  0.00    -0.097 F 
ATOM      8  F1  UNL d   1       0.018   4.469   3.224  0.00  0.00    -0.096 F 
ATOM      9  I   UNL d   1       0.480   5.996   5.998  0.00  0.00    -0.060 I 
ATOM     10  F2  UNL d   1       3.670   5.739   5.996  0.00  0.00    -0.096 F 
ATOM     11  F3  UNL d   1       5.383   4.606   4.230  0.00  0.00    -0.097 F 
ATOM     12  F4  UNL d   1       4.439   3.407   1.968  0.00  0.00    -0.092 F 
ENDROOT
TORSDOF 0
ENDMDL
