MODEL 1
REMARK minimizedAffinity 15.6597261
REMARK minimizedRMSD -1
REMARK  0 active torsions:
REMARK  status: ('A' for Active; 'I' for Inactive)
ROOT
ATOM      1  C   UNL d   1      -1.913   1.787   3.583  0.00  0.00     0.124 A 
ATOM      2  C1  UNL d   1      -0.669   1.226   3.328  0.00  0.00     0.062 A 
ATOM      3  C2  UNL d   1      -0.574   0.009   2.660  0.00  0.00     0.162 A 
ATOM      4  C3  UNL d   1      -1.726  -0.656   2.240  0.00  0.00    -0.034 A 
ATOM      5  C4  UNL d   1      -2.974  -0.086   2.500  0.00  0.00     0.162 A 
ATOM      6  C5  UNL d   1      -3.064   1.131   3.169  0.00  0.00     0.062 A 
ATOM      7  F   UNL d   1      -4.266   1.671   3.414  0.00  0.00    -0.097 F 
ATOM      8  F1  UNL d   1      -4.102  -0.698   2.111  0.00  0.00    -0.096 F 
ATOM      9  I   UNL d   1      -1.588  -2.476   1.240  0.00  0.00    -0.060 I 
ATOM     10  F2  UNL d   1       0.641  -0.510   2.427  0.00  0.00    -0.096 F 
ATOM     11  F3  UNL d   1       0.444   1.857   3.728  0.00  0.00    -0.097 F 
ATOM     12  F4  UNL d   1      -2.002   2.957   4.227  0.00  0.00    -0.092 F 
ENDROOT
TORSDOF 0
ENDMDL
