MODEL 1
REMARK minimizedAffinity 15.9085016
REMARK minimizedRMSD -1
REMARK  0 active torsions:
REMARK  status: ('A' for Active; 'I' for Inactive)
ROOT
ATOM      1  C   UNL d   1       2.284   0.645  -0.648  0.00  0.00     0.124 A 
ATOM      2  C1  UNL d   1       1.961   1.969  -0.911  0.00  0.00     0.062 A 
ATOM      3  C2  UNL d   1       0.735   2.290  -1.487  0.00  0.00     0.162 A 
ATOM      4  C3  UNL d   1      -0.178   1.284  -1.804  0.00  0.00    -0.034 A 
ATOM      5  C4  UNL d   1       0.154  -0.046  -1.538  0.00  0.00     0.162 A 
ATOM      6  C5  UNL d   1       1.380  -0.361  -0.962  0.00  0.00     0.062 A 
ATOM      7  F   UNL d   1       1.691  -1.641  -0.709  0.00  0.00    -0.097 F 
ATOM      8  F1  UNL d   1      -0.701  -1.037  -1.830  0.00  0.00    -0.096 F 
ATOM      9  I   UNL d   1      -2.012   1.759  -2.666  0.00  0.00    -0.060 I 
ATOM     10  F2  UNL d   1       0.450   3.578  -1.729  0.00  0.00    -0.096 F 
ATOM     11  F3  UNL d   1       2.832   2.942  -0.609  0.00  0.00    -0.097 F 
ATOM     12  F4  UNL d   1       3.464   0.339  -0.095  0.00  0.00    -0.092 F 
ENDROOT
TORSDOF 0
ENDMDL
