MODEL 1
REMARK minimizedAffinity 20.5596256
REMARK minimizedRMSD -1
REMARK  0 active torsions:
REMARK  status: ('A' for Active; 'I' for Inactive)
ROOT
ATOM      1  C   UNL d   1       1.856   1.932  -0.112  0.00  0.00     0.124 A 
ATOM      2  C1  UNL d   1       1.994   0.769  -0.857  0.00  0.00     0.062 A 
ATOM      3  C2  UNL d   1       1.731  -0.468  -0.277  0.00  0.00     0.162 A 
ATOM      4  C3  UNL d   1       1.327  -0.550   1.056  0.00  0.00    -0.034 A 
ATOM      5  C4  UNL d   1       1.191   0.624   1.799  0.00  0.00     0.162 A 
ATOM      6  C5  UNL d   1       1.455   1.859   1.215  0.00  0.00     0.062 A 
ATOM      7  F   UNL d   1       1.321   2.982   1.936  0.00  0.00    -0.097 F 
ATOM      8  F1  UNL d   1       0.804   0.582   3.082  0.00  0.00    -0.096 F 
ATOM      9  I   UNL d   1       0.933  -2.399   1.926  0.00  0.00    -0.060 I 
ATOM     10  F2  UNL d   1       1.873  -1.576  -1.020  0.00  0.00    -0.096 F 
ATOM     11  F3  UNL d   1       2.382   0.838  -2.138  0.00  0.00    -0.097 F 
ATOM     12  F4  UNL d   1       2.110   3.122  -0.672  0.00  0.00    -0.092 F 
ENDROOT
TORSDOF 0
ENDMDL
