MODEL 1
REMARK minimizedAffinity 6.14822435
REMARK minimizedRMSD -1
REMARK  0 active torsions:
REMARK  status: ('A' for Active; 'I' for Inactive)
ROOT
ATOM      1  C   UNL d   1      -0.181  -1.340   2.036  0.00  0.00     0.124 A 
ATOM      2  C1  UNL d   1      -1.401  -0.942   1.508  0.00  0.00     0.062 A 
ATOM      3  C2  UNL d   1      -2.153   0.040   2.147  0.00  0.00     0.162 A 
ATOM      4  C3  UNL d   1      -1.687   0.631   3.321  0.00  0.00    -0.034 A 
ATOM      5  C4  UNL d   1      -0.459   0.224   3.846  0.00  0.00     0.162 A 
ATOM      6  C5  UNL d   1       0.289  -0.757   3.204  0.00  0.00     0.062 A 
ATOM      7  F   UNL d   1       1.468  -1.141   3.715  0.00  0.00    -0.097 F 
ATOM      8  F1  UNL d   1       0.020   0.772   4.973  0.00  0.00    -0.096 F 
ATOM      9  I   UNL d   1      -2.808   2.099   4.279  0.00  0.00    -0.060 I 
ATOM     10  F2  UNL d   1      -3.329   0.405   1.614  0.00  0.00    -0.096 F 
ATOM     11  F3  UNL d   1      -1.858  -1.505   0.380  0.00  0.00    -0.097 F 
ATOM     12  F4  UNL d   1       0.540  -2.286   1.420  0.00  0.00    -0.092 F 
ENDROOT
TORSDOF 0
ENDMDL
