MODEL 1
REMARK minimizedAffinity -2.59718132
REMARK minimizedRMSD -1
REMARK  0 active torsions:
REMARK  status: ('A' for Active; 'I' for Inactive)
ROOT
ATOM      1  C4' PXY d   1       0.409  -1.725  -2.475  0.00  0.00     0.077 C 
ATOM      2  C1' PXY d   1      -1.310   0.332   2.647  0.00  0.00     0.077 C 
ATOM      3  C1  PXY d   1      -0.847  -0.202   1.306  0.00  0.00    -0.082 A 
ATOM      4  C2  PXY d   1      -1.742  -0.509   0.380  0.00  0.00     0.003 A 
ATOM      5  C3  PXY d   1      -1.343  -1.023  -0.827  0.00  0.00     0.003 A 
ATOM      6  C4  PXY d   1      -0.012  -1.174  -1.109  0.00  0.00    -0.082 A 
ATOM      7  C5  PXY d   1       0.907  -0.853  -0.175  0.00  0.00     0.003 A 
ATOM      8  C6  PXY d   1       0.480  -0.372   1.060  0.00  0.00     0.003 A 
ENDROOT
TORSDOF 0
ENDMDL
