MODEL 1
REMARK minimizedAffinity -0.0796455517
REMARK minimizedRMSD -1
REMARK  0 active torsions:
REMARK  status: ('A' for Active; 'I' for Inactive)
ROOT
ATOM      1  C4' PXY d   1       0.643  -0.694   4.397  0.00  0.00     0.077 C 
ATOM      2  C1' PXY d   1      -1.935   0.160  -0.706  0.00  0.00     0.077 C 
ATOM      3  C1  PXY d   1      -1.266  -0.054   0.637  0.00  0.00    -0.082 A 
ATOM      4  C2  PXY d   1      -0.053  -0.580   0.688  0.00  0.00     0.003 A 
ATOM      5  C3  PXY d   1       0.554  -0.810   1.896  0.00  0.00     0.003 A 
ATOM      6  C4  PXY d   1      -0.067  -0.450   3.062  0.00  0.00    -0.082 A 
ATOM      7  C5  PXY d   1      -1.300   0.096   3.019  0.00  0.00     0.003 A 
ATOM      8  C6  PXY d   1      -1.916   0.284   1.784  0.00  0.00     0.003 A 
ENDROOT
TORSDOF 0
ENDMDL
