MODEL 1
REMARK minimizedAffinity 7.91883373
REMARK minimizedRMSD -1
REMARK  0 active torsions:
REMARK  status: ('A' for Active; 'I' for Inactive)
ROOT
ATOM      1  C4' PXY d   1      -4.511  -1.919  -1.328  0.00  0.00     0.077 C 
ATOM      2  C1' PXY d   1      -0.226   1.105   1.103  0.00  0.00     0.077 C 
ATOM      3  C1  PXY d   1      -1.343   0.311   0.454  0.00  0.00    -0.082 A 
ATOM      4  C2  PXY d   1      -2.569   0.385   0.946  0.00  0.00     0.003 A 
ATOM      5  C3  PXY d   1      -3.585  -0.350   0.392  0.00  0.00     0.003 A 
ATOM      6  C4  PXY d   1      -3.354  -1.129  -0.711  0.00  0.00    -0.082 A 
ATOM      7  C5  PXY d   1      -2.108  -1.201  -1.226  0.00  0.00     0.003 A 
ATOM      8  C6  PXY d   1      -1.083  -0.478  -0.623  0.00  0.00     0.003 A 
ENDROOT
TORSDOF 0
ENDMDL
