MODEL 1
REMARK minimizedAffinity 9.03399467
REMARK minimizedRMSD -1
REMARK  0 active torsions:
REMARK  status: ('A' for Active; 'I' for Inactive)
ROOT
ATOM      1  C4' PXY d   1      -3.088  -0.710  -0.304  0.00  0.00     0.077 C 
ATOM      2  C1' PXY d   1       2.189   0.378   1.791  0.00  0.00     0.077 C 
ATOM      3  C1  PXY d   1       0.800   0.101   1.250  0.00  0.00    -0.082 A 
ATOM      4  C2  PXY d   1       0.566  -1.023   0.592  0.00  0.00     0.003 A 
ATOM      5  C3  PXY d   1      -0.676  -1.275   0.069  0.00  0.00     0.003 A 
ATOM      6  C4  PXY d   1      -1.703  -0.393   0.268  0.00  0.00    -0.082 A 
ATOM      7  C5  PXY d   1      -1.476   0.751   0.947  0.00  0.00     0.003 A 
ATOM      8  C6  PXY d   1      -0.198   1.008   1.435  0.00  0.00     0.003 A 
ENDROOT
TORSDOF 0
ENDMDL
