MODEL 1
REMARK minimizedAffinity 4.68182898
REMARK minimizedRMSD -1
REMARK  0 active torsions:
REMARK  status: ('A' for Active; 'I' for Inactive)
ROOT
ATOM      1  C4' PXY d   1      -3.394  -0.755  -0.316  0.00  0.00     0.077 C 
ATOM      2  C1' PXY d   1       2.237  -0.111   0.823  0.00  0.00     0.077 C 
ATOM      3  C1  PXY d   1       0.757  -0.275   0.536  0.00  0.00    -0.082 A 
ATOM      4  C2  PXY d   1       0.360  -1.149  -0.374  0.00  0.00     0.003 A 
ATOM      5  C3  PXY d   1      -0.971  -1.288  -0.669  0.00  0.00     0.003 A 
ATOM      6  C4  PXY d   1      -1.911  -0.562   0.013  0.00  0.00    -0.082 A 
ATOM      7  C5  PXY d   1      -1.515   0.324   0.951  0.00  0.00     0.003 A 
ATOM      8  C6  PXY d   1      -0.155   0.479   1.206  0.00  0.00     0.003 A 
ENDROOT
TORSDOF 0
ENDMDL
