MODEL 1
REMARK minimizedAffinity 10.0079813
REMARK minimizedRMSD -1
REMARK  0 active torsions:
REMARK  status: ('A' for Active; 'I' for Inactive)
ROOT
ATOM      1  C4' PXY d   1       2.151   0.212   1.066  0.00  0.00     0.077 C 
ATOM      2  C1' PXY d   1      -3.505   0.083  -0.123  0.00  0.00     0.077 C 
ATOM      3  C1  PXY d   1      -2.020   0.106   0.182  0.00  0.00    -0.082 A 
ATOM      4  C2  PXY d   1      -1.584   0.732   1.263  0.00  0.00     0.003 A 
ATOM      5  C3  PXY d   1      -0.241   0.789   1.537  0.00  0.00     0.003 A 
ATOM      6  C4  PXY d   1       0.659   0.155   0.724  0.00  0.00    -0.082 A 
ATOM      7  C5  PXY d   1       0.221  -0.494  -0.376  0.00  0.00     0.003 A 
ATOM      8  C6  PXY d   1      -1.142  -0.506  -0.658  0.00  0.00     0.003 A 
ENDROOT
TORSDOF 0
ENDMDL
