MODEL 1
REMARK minimizedAffinity 5.94922638
REMARK minimizedRMSD -1
REMARK  0 active torsions:
REMARK  status: ('A' for Active; 'I' for Inactive)
ROOT
ATOM      1  C4' PXY d   1      -3.509  -0.012   0.002  0.00  0.00     0.077 C 
ATOM      2  C1' PXY d   1       2.215  -0.546   0.605  0.00  0.00     0.077 C 
ATOM      3  C1  PXY d   1       0.713  -0.403   0.459  0.00  0.00    -0.082 A 
ATOM      4  C2  PXY d   1       0.088  -1.030  -0.524  0.00  0.00     0.003 A 
ATOM      5  C3  PXY d   1      -1.265  -0.886  -0.690  0.00  0.00     0.003 A 
ATOM      6  C4  PXY d   1      -1.995  -0.135   0.193  0.00  0.00    -0.082 A 
ATOM      7  C5  PXY d   1      -1.367   0.499   1.205  0.00  0.00     0.003 A 
ATOM      8  C6  PXY d   1       0.014   0.373   1.331  0.00  0.00     0.003 A 
ENDROOT
TORSDOF 0
ENDMDL
