MODEL 1
REMARK minimizedAffinity 8.94025993
REMARK minimizedRMSD -1
REMARK  0 active torsions:
REMARK  status: ('A' for Active; 'I' for Inactive)
ROOT
ATOM      1  C4' PXY d   1      -0.703  -0.790  -0.225  0.00  0.00     0.077 C 
ATOM      2  C1' PXY d   1       4.499   1.604   0.567  0.00  0.00     0.077 C 
ATOM      3  C1  PXY d   1       3.136   0.971   0.371  0.00  0.00    -0.082 A 
ATOM      4  C2  PXY d   1       2.690   0.744  -0.854  0.00  0.00     0.003 A 
ATOM      5  C3  PXY d   1       1.445   0.201  -1.049  0.00  0.00     0.003 A 
ATOM      6  C4  PXY d   1       0.672  -0.161   0.021  0.00  0.00    -0.082 A 
ATOM      7  C5  PXY d   1       1.124   0.057   1.273  0.00  0.00     0.003 A 
ATOM      8  C6  PXY d   1       2.373   0.647   1.450  0.00  0.00     0.003 A 
ENDROOT
TORSDOF 0
ENDMDL
