MODEL 1
REMARK minimizedAffinity 1.36442554
REMARK minimizedRMSD -1
REMARK  0 active torsions:
REMARK  status: ('A' for Active; 'I' for Inactive)
ROOT
ATOM      1  C4' PXY d   1      -2.556  -0.571   0.881  0.00  0.00     0.077 C 
ATOM      2  C1' PXY d   1       2.905   1.286   0.507  0.00  0.00     0.077 C 
ATOM      3  C1  PXY d   1       1.475   0.791   0.595  0.00  0.00    -0.082 A 
ATOM      4  C2  PXY d   1       0.559   1.540   1.186  0.00  0.00     0.003 A 
ATOM      5  C3  PXY d   1      -0.733   1.094   1.302  0.00  0.00     0.003 A 
ATOM      6  C4  PXY d   1      -1.102  -0.108   0.761  0.00  0.00    -0.082 A 
ATOM      7  C5  PXY d   1      -0.175  -0.874   0.147  0.00  0.00     0.003 A 
ATOM      8  C6  PXY d   1       1.139  -0.421   0.075  0.00  0.00     0.003 A 
ENDROOT
TORSDOF 0
ENDMDL
