MODEL 1
REMARK minimizedAffinity 8.42640686
REMARK minimizedRMSD -1
REMARK  0 active torsions:
REMARK  status: ('A' for Active; 'I' for Inactive)
ROOT
ATOM      1  C4' PXY d   1      -1.932  -0.335  -0.042  0.00  0.00     0.077 C 
ATOM      2  C1' PXY d   1       3.405   1.875   0.167  0.00  0.00     0.077 C 
ATOM      3  C1  PXY d   1       2.007   1.290   0.124  0.00  0.00    -0.082 A 
ATOM      4  C2  PXY d   1       1.409   1.111  -1.042  0.00  0.00     0.003 A 
ATOM      5  C3  PXY d   1       0.133   0.613  -1.098  0.00  0.00     0.003 A 
ATOM      6  C4  PXY d   1      -0.518   0.244   0.049  0.00  0.00    -0.082 A 
ATOM      7  C5  PXY d   1       0.091   0.413   1.242  0.00  0.00     0.003 A 
ATOM      8  C6  PXY d   1       1.370   0.959   1.280  0.00  0.00     0.003 A 
ENDROOT
TORSDOF 0
ENDMDL
