MODEL 1
REMARK minimizedAffinity 3.83880973
REMARK minimizedRMSD -1
REMARK  0 active torsions:
REMARK  status: ('A' for Active; 'I' for Inactive)
ROOT
ATOM      1  N1  IND d   1      -3.758  -1.465  -3.146  0.00  0.00    -0.196 N 
ATOM      2  C2  IND d   1      -3.730  -0.978  -1.869  0.00  0.00     0.054 A 
ATOM      3  C3  IND d   1      -3.659   0.372  -1.882  0.00  0.00    -0.031 A 
ATOM      4  C4  IND d   1      -3.678   1.991  -3.883  0.00  0.00     0.051 A 
ATOM      5  C5  IND d   1      -3.657   2.016  -5.250  0.00  0.00    -0.031 A 
ATOM      6  C6  IND d   1      -3.672   0.858  -6.000  0.00  0.00     0.015 A 
ATOM      7  C7  IND d   1      -3.719  -0.373  -5.409  0.00  0.00    -0.016 A 
ATOM      8  C8  IND d   1      -3.734  -0.402  -4.022  0.00  0.00    -0.047 A 
ATOM      9  C9  IND d   1      -3.677   0.769  -3.255  0.00  0.00    -0.096 A 
ATOM     10  HN1 IND d   1      -3.786  -2.296  -3.366  0.00  0.00     0.298 HD
ENDROOT
TORSDOF 0
ENDMDL
