MODEL 1
REMARK minimizedAffinity 3.5230484
REMARK minimizedRMSD -1
REMARK  0 active torsions:
REMARK  status: ('A' for Active; 'I' for Inactive)
ROOT
ATOM      1  N1  IND d   1      -3.302  -1.751  -4.642  0.00  0.00    -0.196 N 
ATOM      2  C2  IND d   1      -2.109  -1.502  -5.261  0.00  0.00     0.054 A 
ATOM      3  C3  IND d   1      -2.138  -0.295  -5.869  0.00  0.00    -0.031 A 
ATOM      4  C4  IND d   1      -4.001   1.481  -5.893  0.00  0.00     0.051 A 
ATOM      5  C5  IND d   1      -5.292   1.693  -5.498  0.00  0.00    -0.031 A 
ATOM      6  C6  IND d   1      -5.999   0.749  -4.780  0.00  0.00     0.015 A 
ATOM      7  C7  IND d   1      -5.435  -0.442  -4.420  0.00  0.00    -0.016 A 
ATOM      8  C8  IND d   1      -4.127  -0.663  -4.826  0.00  0.00    -0.047 A 
ATOM      9  C9  IND d   1      -3.419   0.273  -5.591  0.00  0.00    -0.096 A 
ATOM     10  HN1 IND d   1      -3.504  -2.468  -4.211  0.00  0.00     0.298 HD
ENDROOT
TORSDOF 0
ENDMDL
