MODEL 1
REMARK minimizedAffinity 6.17399025
REMARK minimizedRMSD -1
REMARK  0 active torsions:
REMARK  status: ('A' for Active; 'I' for Inactive)
ROOT
ATOM      1  N1  IND d   1      -3.882  -0.406  -4.819  0.00  0.00    -0.196 N 
ATOM      2  C2  IND d   1      -4.463   0.014  -5.983  0.00  0.00     0.054 A 
ATOM      3  C3  IND d   1      -4.563   1.362  -5.999  0.00  0.00    -0.031 A 
ATOM      4  C4  IND d   1      -3.746   3.084  -4.269  0.00  0.00     0.051 A 
ATOM      5  C5  IND d   1      -3.186   3.180  -3.026  0.00  0.00    -0.031 A 
ATOM      6  C6  IND d   1      -2.820   2.062  -2.303  0.00  0.00     0.015 A 
ATOM      7  C7  IND d   1      -2.990   0.803  -2.804  0.00  0.00    -0.016 A 
ATOM      8  C8  IND d   1      -3.565   0.702  -4.063  0.00  0.00    -0.047 A 
ATOM      9  C9  IND d   1      -3.977   1.830  -4.783  0.00  0.00    -0.096 A 
ATOM     10  HN1 IND d   1      -3.738  -1.224  -4.596  0.00  0.00     0.298 HD
ENDROOT
TORSDOF 0
ENDMDL
