MODEL 1
REMARK minimizedAffinity 6.44078922
REMARK minimizedRMSD -1
REMARK  0 active torsions:
REMARK  status: ('A' for Active; 'I' for Inactive)
ROOT
ATOM      1  N1  IND d   1      -2.143  -1.949  -4.742  0.00  0.00    -0.196 N 
ATOM      2  C2  IND d   1      -2.778  -2.041  -5.949  0.00  0.00     0.054 A 
ATOM      3  C3  IND d   1      -3.952  -1.371  -5.916  0.00  0.00    -0.031 A 
ATOM      4  C4  IND d   1      -4.980   0.033  -4.019  0.00  0.00     0.051 A 
ATOM      5  C5  IND d   1      -4.788   0.383  -2.712  0.00  0.00    -0.031 A 
ATOM      6  C6  IND d   1      -3.680  -0.031  -2.002  0.00  0.00     0.015 A 
ATOM      7  C7  IND d   1      -2.714  -0.807  -2.578  0.00  0.00    -0.016 A 
ATOM      8  C8  IND d   1      -2.910  -1.171  -3.902  0.00  0.00    -0.047 A 
ATOM      9  C9  IND d   1      -4.053  -0.788  -4.616  0.00  0.00    -0.096 A 
ATOM     10  HN1 IND d   1      -1.392  -2.315  -4.541  0.00  0.00     0.298 HD
ENDROOT
TORSDOF 0
ENDMDL
