MODEL 1
REMARK minimizedAffinity 3.96531558
REMARK minimizedRMSD -1
REMARK  0 active torsions:
REMARK  status: ('A' for Active; 'I' for Inactive)
ROOT
ATOM      1  N1  IND d   1      -3.724   1.722  -3.859  0.00  0.00    -0.196 N 
ATOM      2  C2  IND d   1      -3.365   2.192  -5.092  0.00  0.00     0.054 A 
ATOM      3  C3  IND d   1      -3.377   1.190  -5.999  0.00  0.00    -0.031 A 
ATOM      4  C4  IND d   1      -4.053  -1.277  -5.702  0.00  0.00     0.051 A 
ATOM      5  C5  IND d   1      -4.420  -2.186  -4.750  0.00  0.00    -0.031 A 
ATOM      6  C6  IND d   1      -4.579  -1.831  -3.426  0.00  0.00     0.015 A 
ATOM      7  C7  IND d   1      -4.388  -0.546  -3.005  0.00  0.00    -0.016 A 
ATOM      8  C8  IND d   1      -4.009   0.379  -3.968  0.00  0.00    -0.047 A 
ATOM      9  C9  IND d   1      -3.804   0.016  -5.305  0.00  0.00    -0.096 A 
ATOM     10  HN1 IND d   1      -3.765   2.188  -3.138  0.00  0.00     0.298 HD
ENDROOT
TORSDOF 0
ENDMDL
