MODEL 1
REMARK minimizedAffinity 2.7118814
REMARK minimizedRMSD -1
REMARK  0 active torsions:
REMARK  status: ('A' for Active; 'I' for Inactive)
ROOT
ATOM      1  N1  IND d   1      -3.454   5.312  -6.000  0.00  0.00    -0.196 N 
ATOM      2  C2  IND d   1      -4.238   5.998  -5.115  0.00  0.00     0.054 A 
ATOM      3  C3  IND d   1      -4.522   5.227  -4.042  0.00  0.00    -0.031 A 
ATOM      4  C4  IND d   1      -3.723   2.845  -3.482  0.00  0.00     0.051 A 
ATOM      5  C5  IND d   1      -3.020   1.794  -4.002  0.00  0.00    -0.031 A 
ATOM      6  C6  IND d   1      -2.412   1.865  -5.239  0.00  0.00     0.015 A 
ATOM      7  C7  IND d   1      -2.474   2.998  -6.000  0.00  0.00    -0.016 A 
ATOM      8  C8  IND d   1      -3.192   4.064  -5.478  0.00  0.00    -0.047 A 
ATOM      9  C9  IND d   1      -3.848   3.983  -4.242  0.00  0.00    -0.096 A 
ATOM     10  HN1 IND d   1      -3.172   5.609  -6.756  0.00  0.00     0.298 HD
ENDROOT
TORSDOF 0
ENDMDL
