MODEL 1
REMARK minimizedAffinity 1.14767289
REMARK minimizedRMSD -1
REMARK  0 active torsions:
REMARK  status: ('A' for Active; 'I' for Inactive)
ROOT
ATOM      1  N1  IND d   1      -4.815   1.031  -6.000  0.00  0.00    -0.196 N 
ATOM      2  C2  IND d   1      -5.910   1.168  -5.193  0.00  0.00     0.054 A 
ATOM      3  C3  IND d   1      -5.778   0.405  -4.085  0.00  0.00    -0.031 A 
ATOM      4  C4  IND d   1      -3.802  -1.069  -3.342  0.00  0.00     0.051 A 
ATOM      5  C5  IND d   1      -2.591  -1.541  -3.765  0.00  0.00    -0.031 A 
ATOM      6  C6  IND d   1      -2.047  -1.170  -4.977  0.00  0.00     0.015 A 
ATOM      7  C7  IND d   1      -2.692  -0.300  -5.811  0.00  0.00    -0.016 A 
ATOM      8  C8  IND d   1      -3.925   0.175  -5.388  0.00  0.00    -0.047 A 
ATOM      9  C9  IND d   1      -4.502  -0.231  -4.178  0.00  0.00    -0.096 A 
ATOM     10  HN1 IND d   1      -4.701   1.414  -6.761  0.00  0.00     0.298 HD
ENDROOT
TORSDOF 0
ENDMDL
