MODEL 1
REMARK minimizedAffinity -1.06988871
REMARK minimizedRMSD -1
REMARK  0 active torsions:
REMARK  status: ('A' for Active; 'I' for Inactive)
ROOT
ATOM      1  N1  IND d   1       5.252  -2.684   2.198  0.00  0.00    -0.196 N 
ATOM      2  C2  IND d   1       4.706  -3.758   1.551  0.00  0.00     0.054 A 
ATOM      3  C3  IND d   1       4.494  -4.772   2.420  0.00  0.00    -0.031 A 
ATOM      4  C4  IND d   1       4.875  -4.852   4.965  0.00  0.00     0.051 A 
ATOM      5  C5  IND d   1       5.392  -4.125   6.000  0.00  0.00    -0.031 A 
ATOM      6  C6  IND d   1       5.897  -2.854   5.817  0.00  0.00     0.015 A 
ATOM      7  C7  IND d   1       5.893  -2.255   4.589  0.00  0.00    -0.016 A 
ATOM      8  C8  IND d   1       5.375  -2.993   3.535  0.00  0.00    -0.047 A 
ATOM      9  C9  IND d   1       4.900  -4.300   3.706  0.00  0.00    -0.096 A 
ATOM     10  HN1 IND d   1       5.481  -1.941   1.831  0.00  0.00     0.298 HD
ENDROOT
TORSDOF 0
ENDMDL
