MODEL 1
REMARK minimizedAffinity 11.000001
REMARK minimizedRMSD -1
REMARK  0 active torsions:
REMARK  status: ('A' for Active; 'I' for Inactive)
ROOT
ATOM      1  N1  IND d   1      -2.380   0.052  -5.850  0.00  0.00    -0.196 N 
ATOM      2  C2  IND d   1      -2.446  -1.170  -5.241  0.00  0.00     0.054 A 
ATOM      3  C3  IND d   1      -3.616  -1.301  -4.575  0.00  0.00    -0.031 A 
ATOM      4  C4  IND d   1      -5.608   0.323  -4.435  0.00  0.00     0.051 A 
ATOM      5  C5  IND d   1      -6.000   1.581  -4.797  0.00  0.00    -0.031 A 
ATOM      6  C6  IND d   1      -5.190   2.410  -5.546  0.00  0.00     0.015 A 
ATOM      7  C7  IND d   1      -3.957   2.005  -5.972  0.00  0.00    -0.016 A 
ATOM      8  C8  IND d   1      -3.553   0.730  -5.600  0.00  0.00    -0.047 A 
ATOM      9  C9  IND d   1      -4.353  -0.099  -4.804  0.00  0.00    -0.096 A 
ATOM     10  HN1 IND d   1      -1.717   0.347  -6.311  0.00  0.00     0.298 HD
ENDROOT
TORSDOF 0
ENDMDL
