MODEL 1
REMARK minimizedAffinity 1.00183344
REMARK minimizedRMSD -1
REMARK  1 active torsions:
REMARK  status: ('A' for Active; 'I' for Inactive)
REMARK    1  A    between atoms: C1_2  and  C2_3 
ROOT
ATOM      1  C2  UNL d   1       0.514  -1.336   1.161  0.00  0.00    -0.073 A 
ATOM      2  C3  UNL d   1       1.482  -2.314   0.905  0.00  0.00    -0.002 A 
ATOM      3  C4  UNL d   1       1.490  -3.506   1.630  0.00  0.00     0.004 A 
ATOM      4  C5  UNL d   1       0.527  -3.736   2.613  0.00  0.00    -0.004 A 
ATOM      5  C6  UNL d   1      -0.456  -2.776   2.875  0.00  0.00    -0.075 A 
ATOM      6  C7  UNL d   1      -1.497  -3.008   3.931  0.00  0.00     0.076 C 
ATOM      7  C8  UNL d   1      -0.455  -1.580   2.145  0.00  0.00     0.001 A 
ENDROOT
BRANCH   1   8
ATOM      8  C1  UNL d   1       0.498  -0.050   0.377  0.00  0.00     0.053 C 
ATOM      9  C   UNL d   1       1.143  -0.209  -0.991  0.00  0.00     0.018 C 
ENDBRANCH   1   8
TORSDOF 1
ENDMDL
