MODEL 1
REMARK minimizedAffinity -0.771608829
REMARK minimizedRMSD -1
REMARK  1 active torsions:
REMARK  status: ('A' for Active; 'I' for Inactive)
REMARK    1  A    between atoms: C1_2  and  C2_3 
ROOT
ATOM      1  C2  UNL d   1       0.099  -1.537   1.732  0.00  0.00    -0.073 A 
ATOM      2  C3  UNL d   1       1.211  -2.184   1.181  0.00  0.00    -0.002 A 
ATOM      3  C4  UNL d   1       1.450  -3.531   1.455  0.00  0.00     0.004 A 
ATOM      4  C5  UNL d   1       0.578  -4.246   2.275  0.00  0.00    -0.004 A 
ATOM      5  C6  UNL d   1      -0.545  -3.621   2.826  0.00  0.00    -0.075 A 
ATOM      6  C7  UNL d   1      -1.492  -4.375   3.713  0.00  0.00     0.076 C 
ATOM      7  C8  UNL d   1      -0.777  -2.267   2.549  0.00  0.00     0.001 A 
ENDROOT
BRANCH   1   8
ATOM      8  C1  UNL d   1      -0.167  -0.084   1.434  0.00  0.00     0.053 C 
ATOM      9  C   UNL d   1      -1.646   0.192   1.215  0.00  0.00     0.018 C 
ENDBRANCH   1   8
TORSDOF 1
ENDMDL
