MODEL 1
REMARK minimizedAffinity -1.84311569
REMARK minimizedRMSD -1
REMARK  1 active torsions:
REMARK  status: ('A' for Active; 'I' for Inactive)
REMARK    1  A    between atoms: C1_2  and  C2_3 
ROOT
ATOM      1  C2  UNL d   1       4.395  -4.138   3.530  0.00  0.00    -0.073 A 
ATOM      2  C3  UNL d   1       5.026  -5.042   2.668  0.00  0.00    -0.002 A 
ATOM      3  C4  UNL d   1       4.722  -5.047   1.306  0.00  0.00     0.004 A 
ATOM      4  C5  UNL d   1       3.792  -4.144   0.791  0.00  0.00    -0.004 A 
ATOM      5  C6  UNL d   1       3.159  -3.225   1.635  0.00  0.00    -0.075 A 
ATOM      6  C7  UNL d   1       2.154  -2.249   1.097  0.00  0.00     0.076 C 
ATOM      7  C8  UNL d   1       3.467  -3.229   3.002  0.00  0.00     0.001 A 
ENDROOT
BRANCH   1   8
ATOM      8  C1  UNL d   1       4.724  -4.125   5.001  0.00  0.00     0.053 C 
ATOM      9  C   UNL d   1       4.323  -2.817   5.663  0.00  0.00     0.018 C 
ENDBRANCH   1   8
TORSDOF 1
ENDMDL
