MODEL 1
REMARK minimizedAffinity 5.35061598
REMARK minimizedRMSD -1
REMARK  1 active torsions:
REMARK  status: ('A' for Active; 'I' for Inactive)
REMARK    1  A    between atoms: C1_2  and  C2_3 
ROOT
ATOM      1  C2  UNL d   1       3.573   3.660   1.052  0.00  0.00    -0.073 A 
ATOM      2  C3  UNL d   1       4.449   2.601   0.789  0.00  0.00    -0.002 A 
ATOM      3  C4  UNL d   1       3.964   1.297   0.674  0.00  0.00     0.004 A 
ATOM      4  C5  UNL d   1       2.600   1.041   0.814  0.00  0.00    -0.004 A 
ATOM      5  C6  UNL d   1       1.707   2.087   1.065  0.00  0.00    -0.075 A 
ATOM      6  C7  UNL d   1       0.238   1.828   1.220  0.00  0.00     0.076 C 
ATOM      7  C8  UNL d   1       2.202   3.393   1.181  0.00  0.00     0.001 A 
ENDROOT
BRANCH   1   8
ATOM      8  C1  UNL d   1       4.090   5.070   1.170  0.00  0.00     0.053 C 
ATOM      9  C   UNL d   1       3.453   5.999   0.148  0.00  0.00     0.018 C 
ENDBRANCH   1   8
TORSDOF 1
ENDMDL
