MODEL 1
REMARK minimizedAffinity 1.5020417
REMARK minimizedRMSD -1
REMARK  1 active torsions:
REMARK  status: ('A' for Active; 'I' for Inactive)
REMARK    1  A    between atoms: C1_2  and  C2_3 
ROOT
ATOM      1  C2  UNL d   1       3.209   2.574   1.166  0.00  0.00    -0.073 A 
ATOM      2  C3  UNL d   1       3.971   2.368   0.011  0.00  0.00    -0.002 A 
ATOM      3  C4  UNL d   1       5.161   3.072  -0.183  0.00  0.00     0.004 A 
ATOM      4  C5  UNL d   1       5.603   3.981   0.778  0.00  0.00    -0.004 A 
ATOM      5  C6  UNL d   1       4.861   4.192   1.944  0.00  0.00    -0.075 A 
ATOM      6  C7  UNL d   1       5.322   5.168   2.986  0.00  0.00     0.076 C 
ATOM      7  C8  UNL d   1       3.666   3.484   2.130  0.00  0.00     0.001 A 
ENDROOT
BRANCH   1   8
ATOM      8  C1  UNL d   1       1.927   1.812   1.382  0.00  0.00     0.053 C 
ATOM      9  C   UNL d   1       0.747   2.473   0.688  0.00  0.00     0.018 C 
ENDBRANCH   1   8
TORSDOF 1
ENDMDL
