MODEL 1
REMARK minimizedAffinity -0.131193966
REMARK minimizedRMSD -1
REMARK  1 active torsions:
REMARK  status: ('A' for Active; 'I' for Inactive)
REMARK    1  A    between atoms: C1_2  and  C2_3 
ROOT
ATOM      1  C2  UNL d   1       5.081  -4.019  -4.286  0.00  0.00    -0.073 A 
ATOM      2  C3  UNL d   1       5.929  -4.741  -5.134  0.00  0.00    -0.002 A 
ATOM      3  C4  UNL d   1       5.411  -5.727  -5.975  0.00  0.00     0.004 A 
ATOM      4  C5  UNL d   1       4.043  -5.996  -5.983  0.00  0.00    -0.004 A 
ATOM      5  C6  UNL d   1       3.178  -5.277  -5.151  0.00  0.00    -0.075 A 
ATOM      6  C7  UNL d   1       1.704  -5.555  -5.146  0.00  0.00     0.076 C 
ATOM      7  C8  UNL d   1       3.706  -4.290  -4.307  0.00  0.00     0.001 A 
ENDROOT
BRANCH   1   8
ATOM      8  C1  UNL d   1       5.635  -2.950  -3.380  0.00  0.00     0.053 C 
ATOM      9  C   UNL d   1       5.071  -3.048  -1.971  0.00  0.00     0.018 C 
ENDBRANCH   1   8
TORSDOF 1
ENDMDL
