MODEL 1
REMARK minimizedAffinity 17.2891121
REMARK minimizedRMSD -1
REMARK  1 active torsions:
REMARK  status: ('A' for Active; 'I' for Inactive)
REMARK    1  A    between atoms: C1_2  and  C2_3 
ROOT
ATOM      1  C2  UNL d   1      -1.510  -0.350   1.152  0.00  0.00    -0.073 A 
ATOM      2  C3  UNL d   1      -1.973   0.134   2.380  0.00  0.00    -0.002 A 
ATOM      3  C4  UNL d   1      -1.553   1.379   2.851  0.00  0.00     0.004 A 
ATOM      4  C5  UNL d   1      -0.672   2.154   2.096  0.00  0.00    -0.004 A 
ATOM      5  C6  UNL d   1      -0.208   1.692   0.860  0.00  0.00    -0.075 A 
ATOM      6  C7  UNL d   1       0.742   2.513   0.037  0.00  0.00     0.076 C 
ATOM      7  C8  UNL d   1      -0.632   0.440   0.396  0.00  0.00     0.001 A 
ENDROOT
BRANCH   1   8
ATOM      8  C1  UNL d   1      -1.966  -1.691   0.636  0.00  0.00     0.053 C 
ATOM      9  C   UNL d   1      -1.390  -2.840   1.449  0.00  0.00     0.018 C 
ENDBRANCH   1   8
TORSDOF 1
ENDMDL
