MODEL 1
REMARK minimizedAffinity 17.5326977
REMARK minimizedRMSD -1
REMARK  1 active torsions:
REMARK  status: ('A' for Active; 'I' for Inactive)
REMARK    1  A    between atoms: C1_2  and  C2_3 
ROOT
ATOM      1  C2  UNL d   1      -0.646   1.549   2.042  0.00  0.00    -0.073 A 
ATOM      2  C3  UNL d   1      -0.403   1.839   0.694  0.00  0.00    -0.002 A 
ATOM      3  C4  UNL d   1       0.868   2.237   0.277  0.00  0.00     0.004 A 
ATOM      4  C5  UNL d   1       1.909   2.343   1.200  0.00  0.00    -0.004 A 
ATOM      5  C6  UNL d   1       1.688   2.047   2.549  0.00  0.00    -0.075 A 
ATOM      6  C7  UNL d   1       2.796   2.159   3.555  0.00  0.00     0.076 C 
ATOM      7  C8  UNL d   1       0.408   1.650   2.961  0.00  0.00     0.001 A 
ENDROOT
BRANCH   1   8
ATOM      8  C1  UNL d   1      -2.015   1.113   2.496  0.00  0.00     0.053 C 
ATOM      9  C   UNL d   1      -2.133  -0.401   2.577  0.00  0.00     0.018 C 
ENDBRANCH   1   8
TORSDOF 1
ENDMDL
