MODEL 1
REMARK minimizedAffinity 11.4433594
REMARK minimizedRMSD -1
REMARK  1 active torsions:
REMARK  status: ('A' for Active; 'I' for Inactive)
REMARK    1  A    between atoms: C1_2  and  C2_3 
ROOT
ATOM      1  C2  UNL d   1      -1.895  -3.647   0.685  0.00  0.00    -0.073 A 
ATOM      2  C3  UNL d   1      -1.074  -2.699   1.306  0.00  0.00    -0.002 A 
ATOM      3  C4  UNL d   1      -0.877  -2.735   2.687  0.00  0.00     0.004 A 
ATOM      4  C5  UNL d   1      -1.491  -3.721   3.459  0.00  0.00    -0.004 A 
ATOM      5  C6  UNL d   1      -2.305  -4.684   2.855  0.00  0.00    -0.075 A 
ATOM      6  C7  UNL d   1      -2.975  -5.750   3.672  0.00  0.00     0.076 C 
ATOM      7  C8  UNL d   1      -2.501  -4.640   1.468  0.00  0.00     0.001 A 
ENDROOT
BRANCH   1   8
ATOM      8  C1  UNL d   1      -2.107  -3.617  -0.806  0.00  0.00     0.053 C 
ATOM      9  C   UNL d   1      -2.093  -5.011  -1.413  0.00  0.00     0.018 C 
ENDBRANCH   1   8
TORSDOF 1
ENDMDL
