MODEL 1
REMARK minimizedAffinity 11.3179703
REMARK minimizedRMSD -1
REMARK  1 active torsions:
REMARK  status: ('A' for Active; 'I' for Inactive)
REMARK    1  A    between atoms: C1_2  and  C2_3 
ROOT
ATOM      1  C2  UNL d   1       2.258  -5.370  -4.075  0.00  0.00    -0.073 A 
ATOM      2  C3  UNL d   1       3.376  -5.659  -3.285  0.00  0.00    -0.002 A 
ATOM      3  C4  UNL d   1       3.251  -5.766  -1.899  0.00  0.00     0.004 A 
ATOM      4  C5  UNL d   1       2.008  -5.592  -1.291  0.00  0.00    -0.004 A 
ATOM      5  C6  UNL d   1       0.876  -5.314  -2.065  0.00  0.00    -0.075 A 
ATOM      6  C7  UNL d   1      -0.468  -5.122  -1.427  0.00  0.00     0.076 C 
ATOM      7  C8  UNL d   1       1.011  -5.205  -3.456  0.00  0.00     0.001 A 
ENDROOT
BRANCH   1   8
ATOM      8  C1  UNL d   1       2.388  -5.260  -5.573  0.00  0.00     0.053 C 
ATOM      9  C   UNL d   1       3.807  -4.921  -5.999  0.00  0.00     0.018 C 
ENDBRANCH   1   8
TORSDOF 1
ENDMDL
