MODEL 1
REMARK minimizedAffinity -0.368348181
REMARK minimizedRMSD -1
REMARK  1 active torsions:
REMARK  status: ('A' for Active; 'I' for Inactive)
REMARK    1  A    between atoms: C1_2  and  C2_3 
ROOT
ATOM      1  C2  UNL d   1       3.055  -5.339  -2.262  0.00  0.00    -0.073 A 
ATOM      2  C3  UNL d   1       4.254  -4.670  -1.990  0.00  0.00    -0.002 A 
ATOM      3  C4  UNL d   1       5.177  -4.435  -3.010  0.00  0.00     0.004 A 
ATOM      4  C5  UNL d   1       4.908  -4.860  -4.312  0.00  0.00    -0.004 A 
ATOM      5  C6  UNL d   1       3.711  -5.519  -4.606  0.00  0.00    -0.075 A 
ATOM      6  C7  UNL d   1       3.408  -5.984  -6.000  0.00  0.00     0.076 C 
ATOM      7  C8  UNL d   1       2.790  -5.754  -3.576  0.00  0.00     0.001 A 
ENDROOT
BRANCH   1   8
ATOM      8  C1  UNL d   1       2.052  -5.590  -1.166  0.00  0.00     0.053 C 
ATOM      9  C   UNL d   1       0.633  -5.265  -1.606  0.00  0.00     0.018 C 
ENDBRANCH   1   8
TORSDOF 1
ENDMDL
