MODEL 1
REMARK minimizedAffinity 7.92181873
REMARK minimizedRMSD -1
REMARK  1 active torsions:
REMARK  status: ('A' for Active; 'I' for Inactive)
REMARK    1  A    between atoms: C1_2  and  C2_3 
ROOT
ATOM      1  C2  UNL d   1      -5.293   3.576  -5.242  0.00  0.00    -0.073 A 
ATOM      2  C3  UNL d   1      -4.127   2.995  -5.754  0.00  0.00    -0.002 A 
ATOM      3  C4  UNL d   1      -3.481   1.976  -5.052  0.00  0.00     0.004 A 
ATOM      4  C5  UNL d   1      -3.996   1.525  -3.837  0.00  0.00    -0.004 A 
ATOM      5  C6  UNL d   1      -5.166   2.086  -3.315  0.00  0.00    -0.075 A 
ATOM      6  C7  UNL d   1      -5.732   1.613  -2.008  0.00  0.00     0.076 C 
ATOM      7  C8  UNL d   1      -5.808   3.110  -4.024  0.00  0.00     0.001 A 
ENDROOT
BRANCH   1   8
ATOM      8  C1  UNL d   1      -5.998   4.672  -5.999  0.00  0.00     0.053 C 
ATOM      9  C   UNL d   1      -5.960   5.996  -5.253  0.00  0.00     0.018 C 
ENDBRANCH   1   8
TORSDOF 1
ENDMDL
