MODEL 1
REMARK minimizedAffinity 13.7434559
REMARK minimizedRMSD -1
REMARK  1 active torsions:
REMARK  status: ('A' for Active; 'I' for Inactive)
REMARK    1  A    between atoms: C1_2  and  C2_3 
ROOT
ATOM      1  C2  UNL d   1      -2.095  -3.908  -1.673  0.00  0.00    -0.073 A 
ATOM      2  C3  UNL d   1      -0.960  -3.969  -0.855  0.00  0.00    -0.002 A 
ATOM      3  C4  UNL d   1      -1.074  -4.357   0.480  0.00  0.00     0.004 A 
ATOM      4  C5  UNL d   1      -2.320  -4.693   1.010  0.00  0.00    -0.004 A 
ATOM      5  C6  UNL d   1      -3.463  -4.650   0.206  0.00  0.00    -0.075 A 
ATOM      6  C7  UNL d   1      -4.811  -5.007   0.761  0.00  0.00     0.076 C 
ATOM      7  C8  UNL d   1      -3.341  -4.257  -1.134  0.00  0.00     0.001 A 
ENDROOT
BRANCH   1   8
ATOM      8  C1  UNL d   1      -1.976  -3.496  -3.117  0.00  0.00     0.053 C 
ATOM      9  C   UNL d   1      -2.028  -1.985  -3.285  0.00  0.00     0.018 C 
ENDBRANCH   1   8
TORSDOF 1
ENDMDL
