MODEL 1
REMARK minimizedAffinity 11.1465464
REMARK minimizedRMSD -1
REMARK  1 active torsions:
REMARK  status: ('A' for Active; 'I' for Inactive)
REMARK    1  A    between atoms: C1_2  and  C2_3 
ROOT
ATOM      1  C2  UNL d   1      -0.445  -4.362   1.687  0.00  0.00    -0.073 A 
ATOM      2  C3  UNL d   1      -1.096  -5.480   2.222  0.00  0.00    -0.002 A 
ATOM      3  C4  UNL d   1      -2.335  -5.880   1.721  0.00  0.00     0.004 A 
ATOM      4  C5  UNL d   1      -2.933  -5.173   0.678  0.00  0.00    -0.004 A 
ATOM      5  C6  UNL d   1      -2.293  -4.061   0.123  0.00  0.00    -0.075 A 
ATOM      6  C7  UNL d   1      -2.924  -3.288  -0.998  0.00  0.00     0.076 C 
ATOM      7  C8  UNL d   1      -1.050  -3.663   0.633  0.00  0.00     0.001 A 
ENDROOT
BRANCH   1   8
ATOM      8  C1  UNL d   1       0.896  -3.929   2.220  0.00  0.00     0.053 C 
ATOM      9  C   UNL d   1       2.008  -4.144   1.206  0.00  0.00     0.018 C 
ENDBRANCH   1   8
TORSDOF 1
ENDMDL
