MODEL 1
REMARK minimizedAffinity 4.44443083
REMARK minimizedRMSD -1
REMARK  1 active torsions:
REMARK  status: ('A' for Active; 'I' for Inactive)
REMARK    1  A    between atoms: C1_2  and  C2_3 
ROOT
ATOM      1  C2  UNL d   1       2.385   0.933  -0.189  0.00  0.00    -0.073 A 
ATOM      2  C3  UNL d   1       2.582  -0.441  -0.009  0.00  0.00    -0.002 A 
ATOM      3  C4  UNL d   1       2.414  -1.323  -1.077  0.00  0.00     0.004 A 
ATOM      4  C5  UNL d   1       2.055  -0.842  -2.335  0.00  0.00    -0.004 A 
ATOM      5  C6  UNL d   1       1.865   0.529  -2.538  0.00  0.00    -0.075 A 
ATOM      6  C7  UNL d   1       1.476   1.063  -3.886  0.00  0.00     0.076 C 
ATOM      7  C8  UNL d   1       2.033   1.409  -1.460  0.00  0.00     0.001 A 
ENDROOT
BRANCH   1   8
ATOM      8  C1  UNL d   1       2.572   1.890   0.960  0.00  0.00     0.053 C 
ATOM      9  C   UNL d   1       1.363   2.792   1.153  0.00  0.00     0.018 C 
ENDBRANCH   1   8
TORSDOF 1
ENDMDL
