MODEL 1
REMARK minimizedAffinity 0.849361658
REMARK minimizedRMSD -1
REMARK  0 active torsions:
REMARK  status: ('A' for Active; 'I' for Inactive)
ROOT
ATOM      1  O1  BZF d   1      -3.686   1.903   2.034  0.00  0.00    -0.204 OA
ATOM      2  C2  BZF d   1      -4.105   0.708   1.482  0.00  0.00     0.174 A 
ATOM      3  C3  BZF d   1      -3.097  -0.187   1.456  0.00  0.00    -0.012 A 
ATOM      4  C3A BZF d   1      -2.002   0.460   2.112  0.00  0.00    -0.107 A 
ATOM      5  C4  BZF d   1      -0.727   0.075   2.412  0.00  0.00     0.055 A 
ATOM      6  C5  BZF d   1       0.114   0.970   2.993  0.00  0.00    -0.016 A 
ATOM      7  C6  BZF d   1      -0.285   2.259   3.283  0.00  0.00     0.022 A 
ATOM      8  C7  BZF d   1      -1.542   2.685   3.010  0.00  0.00     0.029 A 
ATOM      9  C7A BZF d   1      -2.404   1.773   2.452  0.00  0.00     0.058 A 
ENDROOT
TORSDOF 0
ENDMDL
