MODEL 1
REMARK minimizedAffinity 11.7655258
REMARK minimizedRMSD -1
REMARK  0 active torsions:
REMARK  status: ('A' for Active; 'I' for Inactive)
ROOT
ATOM      1  O1  BZF d   1       1.691  -5.957   3.946  0.00  0.00    -0.204 OA
ATOM      2  C2  BZF d   1       0.671  -5.914   3.014  0.00  0.00     0.174 A 
ATOM      3  C3  BZF d   1       1.170  -5.848   1.763  0.00  0.00    -0.012 A 
ATOM      4  C3A BZF d   1       2.589  -5.942   1.918  0.00  0.00    -0.107 A 
ATOM      5  C4  BZF d   1       3.631  -5.951   1.035  0.00  0.00     0.055 A 
ATOM      6  C5  BZF d   1       4.902  -5.982   1.514  0.00  0.00    -0.016 A 
ATOM      7  C6  BZF d   1       5.168  -5.999   2.868  0.00  0.00     0.022 A 
ATOM      8  C7  BZF d   1       4.167  -5.997   3.782  0.00  0.00     0.029 A 
ATOM      9  C7A BZF d   1       2.881  -5.999   3.300  0.00  0.00     0.058 A 
ENDROOT
TORSDOF 0
ENDMDL
