MODEL 1
REMARK minimizedAffinity 5.10220671
REMARK minimizedRMSD -1
REMARK  0 active torsions:
REMARK  status: ('A' for Active; 'I' for Inactive)
ROOT
ATOM      1  O1  BZF d   1       0.204   0.507   4.283  0.00  0.00    -0.204 OA
ATOM      2  C2  BZF d   1       1.240   0.235   3.410  0.00  0.00     0.174 A 
ATOM      3  C3  BZF d   1       0.787   0.145   2.143  0.00  0.00    -0.012 A 
ATOM      4  C3A BZF d   1      -0.605   0.467   2.217  0.00  0.00    -0.107 A 
ATOM      5  C4  BZF d   1      -1.598   0.562   1.284  0.00  0.00     0.055 A 
ATOM      6  C5  BZF d   1      -2.867   0.825   1.694  0.00  0.00    -0.016 A 
ATOM      7  C6  BZF d   1      -3.179   0.991   3.028  0.00  0.00     0.022 A 
ATOM      8  C7  BZF d   1      -2.228   0.910   3.989  0.00  0.00     0.029 A 
ATOM      9  C7A BZF d   1      -0.939   0.678   3.575  0.00  0.00     0.058 A 
ENDROOT
TORSDOF 0
ENDMDL
