MODEL 1
REMARK minimizedAffinity 10.8735762
REMARK minimizedRMSD -1
REMARK  0 active torsions:
REMARK  status: ('A' for Active; 'I' for Inactive)
ROOT
ATOM      1  O1  BZF d   1      -1.809   0.339   3.481  0.00  0.00    -0.204 OA
ATOM      2  C2  BZF d   1      -0.812   0.215   2.533  0.00  0.00     0.174 A 
ATOM      3  C3  BZF d   1      -1.321   0.305   1.288  0.00  0.00    -0.012 A 
ATOM      4  C3A BZF d   1      -2.712   0.589   1.470  0.00  0.00    -0.107 A 
ATOM      5  C4  BZF d   1      -3.747   0.805   0.606  0.00  0.00     0.055 A 
ATOM      6  C5  BZF d   1      -4.998   0.983   1.105  0.00  0.00    -0.016 A 
ATOM      7  C6  BZF d   1      -5.251   0.947   2.461  0.00  0.00     0.022 A 
ATOM      8  C7  BZF d   1      -4.255   0.741   3.357  0.00  0.00     0.029 A 
ATOM      9  C7A BZF d   1      -2.985   0.593   2.857  0.00  0.00     0.058 A 
ENDROOT
TORSDOF 0
ENDMDL
