MODEL 1
REMARK minimizedAffinity 6.65698671
REMARK minimizedRMSD -1
REMARK  0 active torsions:
REMARK  status: ('A' for Active; 'I' for Inactive)
ROOT
ATOM      1  O1  BZF d   1      -1.775  -3.022  -5.993  0.00  0.00    -0.204 OA
ATOM      2  C2  BZF d   1      -1.264  -1.738  -5.975  0.00  0.00     0.174 A 
ATOM      3  C3  BZF d   1      -2.258  -0.827  -6.000  0.00  0.00    -0.012 A 
ATOM      4  C3A BZF d   1      -3.468  -1.589  -5.942  0.00  0.00    -0.107 A 
ATOM      5  C4  BZF d   1      -4.791  -1.250  -5.920  0.00  0.00     0.055 A 
ATOM      6  C5  BZF d   1      -5.726  -2.237  -5.936  0.00  0.00    -0.016 A 
ATOM      7  C6  BZF d   1      -5.374  -3.570  -5.981  0.00  0.00     0.022 A 
ATOM      8  C7  BZF d   1      -4.075  -3.955  -6.000  0.00  0.00     0.029 A 
ATOM      9  C7A BZF d   1      -3.127  -2.961  -5.950  0.00  0.00     0.058 A 
ENDROOT
TORSDOF 0
ENDMDL
