MODEL 1
REMARK minimizedAffinity 4.07742834
REMARK minimizedRMSD -1
REMARK  0 active torsions:
REMARK  status: ('A' for Active; 'I' for Inactive)
ROOT
ATOM      1  O1  BZF d   1      -0.706   0.180   1.086  0.00  0.00    -0.204 OA
ATOM      2  C2  BZF d   1       0.004   0.350   2.259  0.00  0.00     0.174 A 
ATOM      3  C3  BZF d   1      -0.832   0.535   3.301  0.00  0.00    -0.012 A 
ATOM      4  C3A BZF d   1      -2.148   0.385   2.760  0.00  0.00    -0.107 A 
ATOM      5  C4  BZF d   1      -3.399   0.442   3.304  0.00  0.00     0.055 A 
ATOM      6  C5  BZF d   1      -4.480   0.325   2.489  0.00  0.00    -0.016 A 
ATOM      7  C6  BZF d   1      -4.346   0.156   1.126  0.00  0.00     0.022 A 
ATOM      8  C7  BZF d   1      -3.126   0.088   0.541  0.00  0.00     0.029 A 
ATOM      9  C7A BZF d   1      -2.031   0.173   1.366  0.00  0.00     0.058 A 
ENDROOT
TORSDOF 0
ENDMDL
