MODEL 1
REMARK minimizedAffinity 9.66079617
REMARK minimizedRMSD -1
REMARK  0 active torsions:
REMARK  status: ('A' for Active; 'I' for Inactive)
ROOT
ATOM      1  O1  BZF d   1      -2.522  -0.450  -5.976  0.00  0.00    -0.204 OA
ATOM      2  C2  BZF d   1      -1.322  -1.134  -5.999  0.00  0.00     0.174 A 
ATOM      3  C3  BZF d   1      -1.530  -2.466  -5.957  0.00  0.00    -0.012 A 
ATOM      4  C3A BZF d   1      -2.951  -2.626  -5.997  0.00  0.00    -0.107 A 
ATOM      5  C4  BZF d   1      -3.773  -3.717  -5.998  0.00  0.00     0.055 A 
ATOM      6  C5  BZF d   1      -5.119  -3.530  -5.969  0.00  0.00    -0.016 A 
ATOM      7  C6  BZF d   1      -5.676  -2.268  -5.933  0.00  0.00     0.022 A 
ATOM      8  C7  BZF d   1      -4.901  -1.156  -5.936  0.00  0.00     0.029 A 
ATOM      9  C7A BZF d   1      -3.542  -1.341  -5.998  0.00  0.00     0.058 A 
ENDROOT
TORSDOF 0
ENDMDL
