MODEL 1
REMARK minimizedAffinity 11.9102345
REMARK minimizedRMSD -1
REMARK  0 active torsions:
REMARK  status: ('A' for Active; 'I' for Inactive)
ROOT
ATOM      1  O1  BZF d   1      -2.646   1.226   2.094  0.00  0.00    -0.204 OA
ATOM      2  C2  BZF d   1      -2.501   0.029   1.421  0.00  0.00     0.174 A 
ATOM      3  C3  BZF d   1      -1.262  -0.473   1.597  0.00  0.00    -0.012 A 
ATOM      4  C3A BZF d   1      -0.620   0.424   2.509  0.00  0.00    -0.107 A 
ATOM      5  C4  BZF d   1       0.620   0.452   3.081  0.00  0.00     0.055 A 
ATOM      6  C5  BZF d   1       0.959   1.505   3.870  0.00  0.00    -0.016 A 
ATOM      7  C6  BZF d   1       0.087   2.548   4.104  0.00  0.00     0.022 A 
ATOM      8  C7  BZF d   1      -1.156   2.562   3.563  0.00  0.00     0.029 A 
ATOM      9  C7A BZF d   1      -1.513   1.483   2.791  0.00  0.00     0.058 A 
ENDROOT
TORSDOF 0
ENDMDL
