MODEL 1
REMARK minimizedAffinity 5.76066065
REMARK minimizedRMSD -1
REMARK  0 active torsions:
REMARK  status: ('A' for Active; 'I' for Inactive)
ROOT
ATOM      1  O1  BZF d   1      -2.853  -0.665   3.245  0.00  0.00    -0.204 OA
ATOM      2  C2  BZF d   1      -4.029   0.030   3.040  0.00  0.00     0.174 A 
ATOM      3  C3  BZF d   1      -3.774   1.287   2.622  0.00  0.00    -0.012 A 
ATOM      4  C3A BZF d   1      -2.353   1.354   2.473  0.00  0.00    -0.107 A 
ATOM      5  C4  BZF d   1      -1.496   2.339   2.071  0.00  0.00     0.055 A 
ATOM      6  C5  BZF d   1      -0.158   2.106   2.108  0.00  0.00    -0.016 A 
ATOM      7  C6  BZF d   1       0.358   0.903   2.546  0.00  0.00     0.022 A 
ATOM      8  C7  BZF d   1      -0.453  -0.105   2.950  0.00  0.00     0.029 A 
ATOM      9  C7A BZF d   1      -1.807   0.116   2.883  0.00  0.00     0.058 A 
ENDROOT
TORSDOF 0
ENDMDL
