MODEL 1
REMARK minimizedAffinity 4.5068531
REMARK minimizedRMSD -1
REMARK  0 active torsions:
REMARK  status: ('A' for Active; 'I' for Inactive)
ROOT
ATOM      1  O1  BZF d   1      -2.466  -0.379   3.694  0.00  0.00    -0.204 OA
ATOM      2  C2  BZF d   1      -1.437   0.129   2.924  0.00  0.00     0.174 A 
ATOM      3  C3  BZF d   1      -1.911   0.646   1.773  0.00  0.00    -0.012 A 
ATOM      4  C3A BZF d   1      -3.335   0.532   1.867  0.00  0.00    -0.107 A 
ATOM      5  C4  BZF d   1      -4.362   0.886   1.040  0.00  0.00     0.055 A 
ATOM      6  C5  BZF d   1      -5.635   0.570   1.395  0.00  0.00    -0.016 A 
ATOM      7  C6  BZF d   1      -5.916  -0.104   2.566  0.00  0.00     0.022 A 
ATOM      8  C7  BZF d   1      -4.931  -0.472   3.421  0.00  0.00     0.029 A 
ATOM      9  C7A BZF d   1      -3.646  -0.124   3.081  0.00  0.00     0.058 A 
ENDROOT
TORSDOF 0
ENDMDL
