MODEL 1
REMARK minimizedAffinity 8.89439678
REMARK minimizedRMSD -1
REMARK  0 active torsions:
REMARK  status: ('A' for Active; 'I' for Inactive)
ROOT
ATOM      1  O1  BZF d   1      -1.511  -2.061   1.149  0.00  0.00    -0.204 OA
ATOM      2  C2  BZF d   1      -2.526  -2.985   0.991  0.00  0.00     0.174 A 
ATOM      3  C3  BZF d   1      -3.733  -2.394   1.101  0.00  0.00    -0.012 A 
ATOM      4  C3A BZF d   1      -3.456  -0.998   1.250  0.00  0.00    -0.107 A 
ATOM      5  C4  BZF d   1      -4.247   0.107   1.388  0.00  0.00     0.055 A 
ATOM      6  C5  BZF d   1      -3.662   1.317   1.586  0.00  0.00    -0.016 A 
ATOM      7  C6  BZF d   1      -2.292   1.459   1.655  0.00  0.00     0.022 A 
ATOM      8  C7  BZF d   1      -1.466   0.393   1.519  0.00  0.00     0.029 A 
ATOM      9  C7A BZF d   1      -2.053  -0.827   1.286  0.00  0.00     0.058 A 
ENDROOT
TORSDOF 0
ENDMDL
