MODEL 1
REMARK minimizedAffinity 2.17931962
REMARK minimizedRMSD -1
REMARK  0 active torsions:
REMARK  status: ('A' for Active; 'I' for Inactive)
ROOT
ATOM      1  O1  BZF d   1      -3.034   1.771   2.118  0.00  0.00    -0.204 OA
ATOM      2  C2  BZF d   1      -3.229   0.512   1.582  0.00  0.00     0.174 A 
ATOM      3  C3  BZF d   1      -2.154  -0.273   1.802  0.00  0.00    -0.012 A 
ATOM      4  C3A BZF d   1      -1.269   0.517   2.602  0.00  0.00    -0.107 A 
ATOM      5  C4  BZF d   1      -0.042   0.283   3.155  0.00  0.00     0.055 A 
ATOM      6  C5  BZF d   1       0.586   1.289   3.818  0.00  0.00    -0.016 A 
ATOM      7  C6  BZF d   1       0.021   2.541   3.941  0.00  0.00     0.022 A 
ATOM      8  C7  BZF d   1      -1.195   2.820   3.414  0.00  0.00     0.029 A 
ATOM      9  C7A BZF d   1      -1.848   1.796   2.772  0.00  0.00     0.058 A 
ENDROOT
TORSDOF 0
ENDMDL
