MODEL 1
REMARK minimizedAffinity 5.16468191
REMARK minimizedRMSD -1
REMARK  0 active torsions:
REMARK  status: ('A' for Active; 'I' for Inactive)
ROOT
ATOM      1  O1  BZF d   1      -2.685  -0.010   0.793  0.00  0.00    -0.204 OA
ATOM      2  C2  BZF d   1      -1.561   0.285   1.540  0.00  0.00     0.174 A 
ATOM      3  C3  BZF d   1      -1.878   1.065   2.594  0.00  0.00    -0.012 A 
ATOM      4  C3A BZF d   1      -3.303   1.193   2.552  0.00  0.00    -0.107 A 
ATOM      5  C4  BZF d   1      -4.211   1.835   3.343  0.00  0.00     0.055 A 
ATOM      6  C5  BZF d   1      -5.522   1.826   2.985  0.00  0.00    -0.016 A 
ATOM      7  C6  BZF d   1      -5.958   1.190   1.841  0.00  0.00     0.022 A 
ATOM      8  C7  BZF d   1      -5.095   0.535   1.027  0.00  0.00     0.029 A 
ATOM      9  C7A BZF d   1      -3.774   0.515   1.404  0.00  0.00     0.058 A 
ENDROOT
TORSDOF 0
ENDMDL
