MODEL 1
REMARK minimizedAffinity 1.84793758
REMARK minimizedRMSD -1
REMARK  0 active torsions:
REMARK  status: ('A' for Active; 'I' for Inactive)
ROOT
ATOM      1  O1  BZF d   1      -1.117  -4.275   1.926  0.00  0.00    -0.204 OA
ATOM      2  C2  BZF d   1      -1.665  -4.523   0.682  0.00  0.00     0.174 A 
ATOM      3  C3  BZF d   1      -0.778  -5.155  -0.114  0.00  0.00    -0.012 A 
ATOM      4  C3A BZF d   1       0.366  -5.393   0.712  0.00  0.00    -0.107 A 
ATOM      5  C4  BZF d   1       1.571  -5.998   0.495  0.00  0.00     0.055 A 
ATOM      6  C5  BZF d   1       2.497  -6.000   1.488  0.00  0.00    -0.016 A 
ATOM      7  C6  BZF d   1       2.256  -5.402   2.708  0.00  0.00     0.022 A 
ATOM      8  C7  BZF d   1       1.074  -4.793   2.972  0.00  0.00     0.029 A 
ATOM      9  C7A BZF d   1       0.123  -4.819   1.981  0.00  0.00     0.058 A 
ENDROOT
TORSDOF 0
ENDMDL
