MODEL 1
REMARK minimizedAffinity 4.44560862
REMARK minimizedRMSD -1
REMARK  0 active torsions:
REMARK  status: ('A' for Active; 'I' for Inactive)
ROOT
ATOM      1  O1  BZF d   1       2.069   0.057   3.627  0.00  0.00    -0.204 OA
ATOM      2  C2  BZF d   1       0.775   0.340   3.234  0.00  0.00     0.174 A 
ATOM      3  C3  BZF d   1       0.697   0.458   1.893  0.00  0.00    -0.012 A 
ATOM      4  C3A BZF d   1       2.006   0.144   1.411  0.00  0.00    -0.107 A 
ATOM      5  C4  BZF d   1       2.555   0.072   0.162  0.00  0.00     0.055 A 
ATOM      6  C5  BZF d   1       3.883  -0.190   0.038  0.00  0.00    -0.016 A 
ATOM      7  C6  BZF d   1       4.691  -0.381   1.140  0.00  0.00     0.022 A 
ATOM      8  C7  BZF d   1       4.191  -0.325   2.398  0.00  0.00     0.029 A 
ATOM      9  C7A BZF d   1       2.843  -0.093   2.525  0.00  0.00     0.058 A 
ENDROOT
TORSDOF 0
ENDMDL
