MODEL 1
REMARK minimizedAffinity 13.550396
REMARK minimizedRMSD -1
REMARK  0 active torsions:
REMARK  status: ('A' for Active; 'I' for Inactive)
ROOT
ATOM      1  O1  BZF d   1      -3.528   2.190   1.966  0.00  0.00    -0.204 OA
ATOM      2  C2  BZF d   1      -4.796   2.630   1.638  0.00  0.00     0.174 A 
ATOM      3  C3  BZF d   1      -5.434   1.721   0.873  0.00  0.00    -0.012 A 
ATOM      4  C3A BZF d   1      -4.541   0.606   0.789  0.00  0.00    -0.107 A 
ATOM      5  C4  BZF d   1      -4.617  -0.613   0.179  0.00  0.00     0.055 A 
ATOM      6  C5  BZF d   1      -3.543  -1.444   0.229  0.00  0.00    -0.016 A 
ATOM      7  C6  BZF d   1      -2.377  -1.086   0.874  0.00  0.00     0.022 A 
ATOM      8  C7  BZF d   1      -2.257   0.111   1.498  0.00  0.00     0.029 A 
ATOM      9  C7A BZF d   1      -3.352   0.939   1.478  0.00  0.00     0.058 A 
ENDROOT
TORSDOF 0
ENDMDL
