MODEL 1
REMARK minimizedAffinity 6.40128565
REMARK minimizedRMSD -1
REMARK  0 active torsions:
REMARK  status: ('A' for Active; 'I' for Inactive)
ROOT
ATOM      1  O1  BZF d   1      -2.692  -1.829   0.475  0.00  0.00    -0.204 OA
ATOM      2  C2  BZF d   1      -3.937  -2.281   0.083  0.00  0.00     0.174 A 
ATOM      3  C3  BZF d   1      -4.912  -1.511   0.608  0.00  0.00    -0.012 A 
ATOM      4  C3A BZF d   1      -4.231  -0.461   1.301  0.00  0.00    -0.107 A 
ATOM      5  C4  BZF d   1      -4.656   0.625   2.012  0.00  0.00     0.055 A 
ATOM      6  C5  BZF d   1      -3.735   1.415   2.625  0.00  0.00    -0.016 A 
ATOM      7  C6  BZF d   1      -2.384   1.146   2.551  0.00  0.00     0.022 A 
ATOM      8  C7  BZF d   1      -1.914   0.084   1.853  0.00  0.00     0.029 A 
ATOM      9  C7A BZF d   1      -2.840  -0.698   1.205  0.00  0.00     0.058 A 
ENDROOT
TORSDOF 0
ENDMDL
