MODEL 1
REMARK minimizedAffinity -1.13783026
REMARK minimizedRMSD -1
REMARK  0 active torsions:
REMARK  status: ('A' for Active; 'I' for Inactive)
ROOT
ATOM      1  O1  BZF d   1      -0.686  -2.128   1.697  0.00  0.00    -0.204 OA
ATOM      2  C2  BZF d   1      -1.203  -2.762   2.811  0.00  0.00     0.174 A 
ATOM      3  C3  BZF d   1      -0.394  -3.765   3.208  0.00  0.00    -0.012 A 
ATOM      4  C3A BZF d   1       0.741  -3.700   2.340  0.00  0.00    -0.107 A 
ATOM      5  C4  BZF d   1       1.894  -4.425   2.247  0.00  0.00     0.055 A 
ATOM      6  C5  BZF d   1       2.767  -4.153   1.241  0.00  0.00    -0.016 A 
ATOM      7  C6  BZF d   1       2.515  -3.167   0.309  0.00  0.00     0.022 A 
ATOM      8  C7  BZF d   1       1.387  -2.417   0.364  0.00  0.00     0.029 A 
ATOM      9  C7A BZF d   1       0.520  -2.668   1.398  0.00  0.00     0.058 A 
ENDROOT
TORSDOF 0
ENDMDL
