MODEL 1
REMARK minimizedAffinity 4.06216097
REMARK minimizedRMSD -1
REMARK  0 active torsions:
REMARK  status: ('A' for Active; 'I' for Inactive)
ROOT
ATOM      1  O1  BZF d   1       0.101   0.355   2.067  0.00  0.00    -0.204 OA
ATOM      2  C2  BZF d   1      -0.726  -0.744   1.936  0.00  0.00     0.174 A 
ATOM      3  C3  BZF d   1      -0.239  -1.603   1.018  0.00  0.00    -0.012 A 
ATOM      4  C3A BZF d   1       1.016  -1.048   0.612  0.00  0.00    -0.107 A 
ATOM      5  C4  BZF d   1       1.980  -1.451  -0.268  0.00  0.00     0.055 A 
ATOM      6  C5  BZF d   1       3.051  -0.644  -0.488  0.00  0.00    -0.016 A 
ATOM      7  C6  BZF d   1       3.187   0.572   0.148  0.00  0.00     0.022 A 
ATOM      8  C7  BZF d   1       2.259   1.012   1.032  0.00  0.00     0.029 A 
ATOM      9  C7A BZF d   1       1.192   0.185   1.282  0.00  0.00     0.058 A 
ENDROOT
TORSDOF 0
ENDMDL
