MODEL 1
REMARK minimizedAffinity -3.2997942
REMARK minimizedRMSD -1
REMARK  0 active torsions:
REMARK  status: ('A' for Active; 'I' for Inactive)
ROOT
ATOM      1  O1  BZF d   1       3.229  -3.130  -0.632  0.00  0.00    -0.204 OA
ATOM      2  C2  BZF d   1       3.281  -4.361  -0.007  0.00  0.00     0.174 A 
ATOM      3  C3  BZF d   1       2.407  -4.413   1.020  0.00  0.00    -0.012 A 
ATOM      4  C3A BZF d   1       1.704  -3.167   0.979  0.00  0.00    -0.107 A 
ATOM      5  C4  BZF d   1       0.700  -2.631   1.733  0.00  0.00     0.055 A 
ATOM      6  C5  BZF d   1       0.288  -1.362   1.477  0.00  0.00    -0.016 A 
ATOM      7  C6  BZF d   1       0.860  -0.599   0.480  0.00  0.00     0.022 A 
ATOM      8  C7  BZF d   1       1.856  -1.090  -0.298  0.00  0.00     0.029 A 
ATOM      9  C7A BZF d   1       2.252  -2.384  -0.063  0.00  0.00     0.058 A 
ENDROOT
TORSDOF 0
ENDMDL
