MODEL 1
REMARK minimizedAffinity 5.38658094
REMARK minimizedRMSD -1
REMARK  0 active torsions:
REMARK  status: ('A' for Active; 'I' for Inactive)
ROOT
ATOM      1  O1  BZF d   1       1.172  -5.137   1.110  0.00  0.00    -0.204 OA
ATOM      2  C2  BZF d   1       2.408  -4.668   0.709  0.00  0.00     0.174 A 
ATOM      3  C3  BZF d   1       2.470  -3.326   0.822  0.00  0.00    -0.012 A 
ATOM      4  C3A BZF d   1       1.225  -2.940   1.411  0.00  0.00    -0.107 A 
ATOM      5  C4  BZF d   1       0.696  -1.738   1.786  0.00  0.00     0.055 A 
ATOM      6  C5  BZF d   1      -0.576  -1.696   2.264  0.00  0.00    -0.016 A 
ATOM      7  C6  BZF d   1      -1.348  -2.834   2.375  0.00  0.00     0.022 A 
ATOM      8  C7  BZF d   1      -0.865  -4.050   2.021  0.00  0.00     0.029 A 
ATOM      9  C7A BZF d   1       0.431  -4.100   1.569  0.00  0.00     0.058 A 
ENDROOT
TORSDOF 0
ENDMDL
