MODEL 1
REMARK minimizedAffinity -0.427236944
REMARK minimizedRMSD -1
REMARK  0 active torsions:
REMARK  status: ('A' for Active; 'I' for Inactive)
ROOT
ATOM      1  O1  BZF d   1      -3.824   0.838  -3.770  0.00  0.00    -0.204 OA
ATOM      2  C2  BZF d   1      -4.647   1.469  -4.683  0.00  0.00     0.174 A 
ATOM      3  C3  BZF d   1      -4.938   0.646  -5.712  0.00  0.00    -0.012 A 
ATOM      4  C3A BZF d   1      -4.329  -0.605  -5.378  0.00  0.00    -0.107 A 
ATOM      5  C4  BZF d   1      -4.279  -1.820  -5.998  0.00  0.00     0.055 A 
ATOM      6  C5  BZF d   1      -3.539  -2.815  -5.443  0.00  0.00    -0.016 A 
ATOM      7  C6  BZF d   1      -2.834  -2.629  -4.272  0.00  0.00     0.022 A 
ATOM      8  C7  BZF d   1      -2.857  -1.443  -3.617  0.00  0.00     0.029 A 
ATOM      9  C7A BZF d   1      -3.630  -0.445  -4.159  0.00  0.00     0.058 A 
ENDROOT
TORSDOF 0
ENDMDL
