MODEL 1
REMARK minimizedAffinity 2.88533258
REMARK minimizedRMSD -1
REMARK  0 active torsions:
REMARK  status: ('A' for Active; 'I' for Inactive)
ROOT
ATOM      1  O1  BZF d   1      -4.551   5.114   6.000  0.00  0.00    -0.204 OA
ATOM      2  C2  BZF d   1      -3.379   5.476   5.364  0.00  0.00     0.174 A 
ATOM      3  C3  BZF d   1      -2.903   4.456   4.622  0.00  0.00    -0.012 A 
ATOM      4  C3A BZF d   1      -3.884   3.421   4.731  0.00  0.00    -0.107 A 
ATOM      5  C4  BZF d   1      -3.988   2.165   4.204  0.00  0.00     0.055 A 
ATOM      6  C5  BZF d   1      -5.037   1.381   4.566  0.00  0.00    -0.016 A 
ATOM      7  C6  BZF d   1      -5.997   1.818   5.455  0.00  0.00     0.022 A 
ATOM      8  C7  BZF d   1      -5.940   3.057   6.000  0.00  0.00     0.029 A 
ATOM      9  C7A BZF d   1      -4.899   3.864   5.611  0.00  0.00     0.058 A 
ENDROOT
TORSDOF 0
ENDMDL
