MODEL 1
REMARK minimizedAffinity 5.54199648
REMARK minimizedRMSD -1
REMARK  0 active torsions:
REMARK  status: ('A' for Active; 'I' for Inactive)
ROOT
ATOM      1  O1  BZF d   1       3.575  -3.085   0.380  0.00  0.00    -0.204 OA
ATOM      2  C2  BZF d   1       3.188  -4.258   1.000  0.00  0.00     0.174 A 
ATOM      3  C3  BZF d   1       2.060  -4.071   1.715  0.00  0.00    -0.012 A 
ATOM      4  C3A BZF d   1       1.670  -2.719   1.456  0.00  0.00    -0.107 A 
ATOM      5  C4  BZF d   1       0.620  -1.949   1.868  0.00  0.00     0.055 A 
ATOM      6  C5  BZF d   1       0.569  -0.644   1.492  0.00  0.00    -0.016 A 
ATOM      7  C6  BZF d   1       1.553  -0.076   0.710  0.00  0.00     0.022 A 
ATOM      8  C7  BZF d   1       2.611  -0.801   0.272  0.00  0.00     0.029 A 
ATOM      9  C7A BZF d   1       2.648  -2.128   0.623  0.00  0.00     0.058 A 
ENDROOT
TORSDOF 0
ENDMDL
