MODEL 1
REMARK minimizedAffinity -1.77933478
REMARK minimizedRMSD -1
REMARK  0 active torsions:
REMARK  status: ('A' for Active; 'I' for Inactive)
ROOT
ATOM      1  O1  BZF d   1       2.208  -3.563  -0.142  0.00  0.00    -0.204 OA
ATOM      2  C2  BZF d   1       2.460  -4.538   0.804  0.00  0.00     0.174 A 
ATOM      3  C3  BZF d   1       1.850  -4.243   1.970  0.00  0.00    -0.012 A 
ATOM      4  C3A BZF d   1       1.099  -3.053   1.711  0.00  0.00    -0.107 A 
ATOM      5  C4  BZF d   1       0.272  -2.280   2.475  0.00  0.00     0.055 A 
ATOM      6  C5  BZF d   1      -0.248  -1.143   1.943  0.00  0.00    -0.016 A 
ATOM      7  C6  BZF d   1       0.043  -0.745   0.654  0.00  0.00     0.022 A 
ATOM      8  C7  BZF d   1       0.855  -1.482  -0.143  0.00  0.00     0.029 A 
ATOM      9  C7A BZF d   1       1.355  -2.649   0.380  0.00  0.00     0.058 A 
ENDROOT
TORSDOF 0
ENDMDL
