MODEL 1
REMARK minimizedAffinity -3.00044203
REMARK minimizedRMSD -1
REMARK  0 active torsions:
REMARK  status: ('A' for Active; 'I' for Inactive)
ROOT
ATOM      1  C   UNL d   1       0.253   0.450  -1.527  0.00  0.00     0.023 A 
ATOM      2  C1  UNL d   1       1.118   0.257  -0.450  0.00  0.00     0.003 A 
ATOM      3  C2  UNL d   1       0.627   0.293   0.856  0.00  0.00     0.048 A 
ATOM      4  C3  UNL d   1      -0.730   0.522   1.079  0.00  0.00     0.023 A 
ATOM      5  C4  UNL d   1      -1.600   0.715   0.004  0.00  0.00     0.048 A 
ATOM      6  C5  UNL d   1      -1.104   0.679  -1.300  0.00  0.00     0.003 A 
ATOM      7  I   UNL d   1      -1.463   0.576   3.023  0.00  0.00    -0.146 I 
ENDROOT
TORSDOF 0
ENDMDL
