MODEL 1
REMARK minimizedAffinity -1.15030551
REMARK minimizedRMSD -1
REMARK  0 active torsions:
REMARK  status: ('A' for Active; 'I' for Inactive)
ROOT
ATOM      1  C   UNL d   1      -0.528   0.345   2.942  0.00  0.00     0.023 A 
ATOM      2  C1  UNL d   1       0.754   0.133   2.435  0.00  0.00     0.003 A 
ATOM      3  C2  UNL d   1       0.972   0.148   1.056  0.00  0.00     0.048 A 
ATOM      4  C3  UNL d   1      -0.096   0.379   0.189  0.00  0.00     0.023 A 
ATOM      5  C4  UNL d   1      -1.380   0.593   0.692  0.00  0.00     0.048 A 
ATOM      6  C5  UNL d   1      -1.594   0.575   2.072  0.00  0.00     0.003 A 
ATOM      7  I   UNL d   1       0.226   0.403  -1.864  0.00  0.00    -0.146 I 
ENDROOT
TORSDOF 0
ENDMDL
