MODEL 1
REMARK minimizedAffinity -1.11207366
REMARK minimizedRMSD -1
REMARK  0 active torsions:
REMARK  status: ('A' for Active; 'I' for Inactive)
ROOT
ATOM      1  C   UNL d   1      -0.193   0.655   1.123  0.00  0.00     0.023 A 
ATOM      2  C1  UNL d   1       1.098   0.195   0.861  0.00  0.00     0.003 A 
ATOM      3  C2  UNL d   1       1.459  -0.173  -0.437  0.00  0.00     0.048 A 
ATOM      4  C3  UNL d   1       0.525  -0.078  -1.468  0.00  0.00     0.023 A 
ATOM      5  C4  UNL d   1      -0.767   0.383  -1.210  0.00  0.00     0.048 A 
ATOM      6  C5  UNL d   1      -1.124   0.749   0.089  0.00  0.00     0.003 A 
ATOM      7  I   UNL d   1       1.061  -0.625  -3.400  0.00  0.00    -0.146 I 
ENDROOT
TORSDOF 0
ENDMDL
