MODEL 1
REMARK minimizedAffinity 0.137395158
REMARK minimizedRMSD -1
REMARK  0 active torsions:
REMARK  status: ('A' for Active; 'I' for Inactive)
ROOT
ATOM      1  C   UNL d   1       1.846  -1.857  -4.255  0.00  0.00     0.023 A 
ATOM      2  C1  UNL d   1       0.542  -2.129  -3.839  0.00  0.00     0.003 A 
ATOM      3  C2  UNL d   1      -0.046  -1.360  -2.833  0.00  0.00     0.048 A 
ATOM      4  C3  UNL d   1       0.675  -0.320  -2.247  0.00  0.00     0.023 A 
ATOM      5  C4  UNL d   1       1.979  -0.044  -2.661  0.00  0.00     0.048 A 
ATOM      6  C5  UNL d   1       2.563  -0.816  -3.666  0.00  0.00     0.003 A 
ATOM      7  I   UNL d   1      -0.199   0.826  -0.749  0.00  0.00    -0.146 I 
ENDROOT
TORSDOF 0
ENDMDL
