MODEL 1
REMARK minimizedAffinity -2.33838153
REMARK minimizedRMSD -1
REMARK  0 active torsions:
REMARK  status: ('A' for Active; 'I' for Inactive)
ROOT
ATOM      1  C   UNL d   1      -1.026   0.725   2.460  0.00  0.00     0.023 A 
ATOM      2  C1  UNL d   1       0.325   0.436   2.268  0.00  0.00     0.003 A 
ATOM      3  C2  UNL d   1       0.812   0.186   0.983  0.00  0.00     0.048 A 
ATOM      4  C3  UNL d   1      -0.058   0.227  -0.106  0.00  0.00     0.023 A 
ATOM      5  C4  UNL d   1      -1.411   0.516   0.081  0.00  0.00     0.048 A 
ATOM      6  C5  UNL d   1      -1.893   0.765   1.368  0.00  0.00     0.003 A 
ATOM      7  I   UNL d   1       0.663  -0.145  -2.019  0.00  0.00    -0.146 I 
ENDROOT
TORSDOF 0
ENDMDL
