MODEL 1
REMARK minimizedAffinity 0.612493753
REMARK minimizedRMSD -1
REMARK  0 active torsions:
REMARK  status: ('A' for Active; 'I' for Inactive)
ROOT
ATOM      1  C   UNL d   1       0.789   1.096   2.935  0.00  0.00     0.023 A 
ATOM      2  C1  UNL d   1       1.462   1.842   1.967  0.00  0.00     0.003 A 
ATOM      3  C2  UNL d   1       1.361   1.492   0.619  0.00  0.00     0.048 A 
ATOM      4  C3  UNL d   1       0.585   0.396   0.245  0.00  0.00     0.023 A 
ATOM      5  C4  UNL d   1      -0.091  -0.353   1.210  0.00  0.00     0.048 A 
ATOM      6  C5  UNL d   1       0.013  -0.000   2.556  0.00  0.00     0.003 A 
ATOM      7  I   UNL d   1       0.433  -0.125  -1.761  0.00  0.00    -0.146 I 
ENDROOT
TORSDOF 0
ENDMDL
