MODEL 1
REMARK minimizedAffinity -1.04166973
REMARK minimizedRMSD -1
REMARK  0 active torsions:
REMARK  status: ('A' for Active; 'I' for Inactive)
ROOT
ATOM      1  C   UNL d   1       0.612   0.161   2.184  0.00  0.00     0.023 A 
ATOM      2  C1  UNL d   1      -0.603  -0.114   1.557  0.00  0.00     0.003 A 
ATOM      3  C2  UNL d   1      -0.677  -0.156   0.163  0.00  0.00     0.048 A 
ATOM      4  C3  UNL d   1       0.468   0.078  -0.597  0.00  0.00     0.023 A 
ATOM      5  C4  UNL d   1       1.687   0.353   0.026  0.00  0.00     0.048 A 
ATOM      6  C5  UNL d   1       1.756   0.394   1.420  0.00  0.00     0.003 A 
ATOM      7  I   UNL d   1       0.360   0.016  -2.672  0.00  0.00    -0.146 I 
ENDROOT
TORSDOF 0
ENDMDL
