MODEL 1
REMARK minimizedAffinity -2.29620934
REMARK minimizedRMSD -1
REMARK  0 active torsions:
REMARK  status: ('A' for Active; 'I' for Inactive)
ROOT
ATOM      1  C   UNL d   1      -0.547   0.096   2.827  0.00  0.00     0.023 A 
ATOM      2  C1  UNL d   1      -1.570   0.294   1.900  0.00  0.00     0.003 A 
ATOM      3  C2  UNL d   1      -1.276   0.352   0.536  0.00  0.00     0.048 A 
ATOM      4  C3  UNL d   1       0.043   0.211   0.106  0.00  0.00     0.023 A 
ATOM      5  C4  UNL d   1       1.070   0.012   1.030  0.00  0.00     0.048 A 
ATOM      6  C5  UNL d   1       0.771  -0.045   2.393  0.00  0.00     0.003 A 
ATOM      7  I   UNL d   1       0.482   0.296  -1.923  0.00  0.00    -0.146 I 
ENDROOT
TORSDOF 0
ENDMDL
