MODEL 1
REMARK minimizedAffinity -1.49066389
REMARK minimizedRMSD -1
REMARK  0 active torsions:
REMARK  status: ('A' for Active; 'I' for Inactive)
ROOT
ATOM      1  C   UNL d   1       0.400  -0.132  -1.621  0.00  0.00     0.023 A 
ATOM      2  C1  UNL d   1      -0.921  -0.003  -1.190  0.00  0.00     0.003 A 
ATOM      3  C2  UNL d   1      -1.202   0.132   0.171  0.00  0.00     0.048 A 
ATOM      4  C3  UNL d   1      -0.158   0.139   1.095  0.00  0.00     0.023 A 
ATOM      5  C4  UNL d   1       1.165   0.011   0.669  0.00  0.00     0.048 A 
ATOM      6  C5  UNL d   1       1.441  -0.125  -0.693  0.00  0.00     0.003 A 
ATOM      7  I   UNL d   1      -0.574   0.340   3.122  0.00  0.00    -0.146 I 
ENDROOT
TORSDOF 0
ENDMDL
