MODEL 1
REMARK minimizedAffinity -1.67613363
REMARK minimizedRMSD -1
REMARK  0 active torsions:
REMARK  status: ('A' for Active; 'I' for Inactive)
ROOT
ATOM      1  C   UNL d   1       0.401   0.244   1.287  0.00  0.00     0.023 A 
ATOM      2  C1  UNL d   1       0.292  -1.120   1.014  0.00  0.00     0.003 A 
ATOM      3  C2  UNL d   1       0.374  -1.579  -0.302  0.00  0.00     0.048 A 
ATOM      4  C3  UNL d   1       0.566  -0.668  -1.341  0.00  0.00     0.023 A 
ATOM      5  C4  UNL d   1       0.676   0.697  -1.072  0.00  0.00     0.048 A 
ATOM      6  C5  UNL d   1       0.592   1.151   0.246  0.00  0.00     0.003 A 
ATOM      7  I   UNL d   1       0.688  -1.348  -3.301  0.00  0.00    -0.146 I 
ENDROOT
TORSDOF 0
ENDMDL
