MODEL 1
REMARK minimizedAffinity -2.24519634
REMARK minimizedRMSD -1
REMARK  0 active torsions:
REMARK  status: ('A' for Active; 'I' for Inactive)
ROOT
ATOM      1  C   UNL d   1       0.008   0.345   2.850  0.00  0.00     0.023 A 
ATOM      2  C1  UNL d   1      -1.067   0.481   1.971  0.00  0.00     0.003 A 
ATOM      3  C2  UNL d   1      -0.883   0.267   0.603  0.00  0.00     0.048 A 
ATOM      4  C3  UNL d   1       0.378  -0.082   0.121  0.00  0.00     0.023 A 
ATOM      5  C4  UNL d   1       1.456  -0.220   0.997  0.00  0.00     0.048 A 
ATOM      6  C5  UNL d   1       1.268  -0.005   2.363  0.00  0.00     0.003 A 
ATOM      7  I   UNL d   1       0.654  -0.401  -1.914  0.00  0.00    -0.146 I 
ENDROOT
TORSDOF 0
ENDMDL
