MODEL 1
REMARK minimizedAffinity -5.86708403
REMARK minimizedRMSD -1
REMARK  0 active torsions:
REMARK  status: ('A' for Active; 'I' for Inactive)
ROOT
ATOM      1  C   UNL d   1      -2.215   2.290   0.637  0.00  0.00    -0.002 A 
ATOM      2  C1  UNL d   1      -1.880   2.283  -0.709  0.00  0.00     0.010 A 
ATOM      3  C2  UNL d   1      -0.947   1.370  -1.204  0.00  0.00     0.041 A 
ATOM      4  C3  UNL d   1      -0.352   0.453  -0.315  0.00  0.00    -0.075 A 
ATOM      5  S   UNL d   1       0.816  -0.757  -0.696  0.00  0.00     0.015 SA
ATOM      6  C4  UNL d   1       0.896  -1.294   0.919  0.00  0.00     0.022 A 
ATOM      7  C5  UNL d   1       0.060  -0.578   1.743  0.00  0.00     0.026 A 
ATOM      8  C6  UNL d   1      -0.674   0.440   1.045  0.00  0.00    -0.082 A 
ATOM      9  C7  UNL d   1      -1.623   1.379   1.516  0.00  0.00     0.045 A 
ENDROOT
TORSDOF 0
ENDMDL
