MODEL 1
REMARK minimizedAffinity -3.38438487
REMARK minimizedRMSD -1
REMARK  0 active torsions:
REMARK  status: ('A' for Active; 'I' for Inactive)
ROOT
ATOM      1  C   UNL d   1       0.246  -5.109  -1.732  0.00  0.00    -0.002 A 
ATOM      2  C1  UNL d   1      -0.262  -4.422  -2.826  0.00  0.00     0.010 A 
ATOM      3  C2  UNL d   1      -0.105  -3.039  -2.931  0.00  0.00     0.041 A 
ATOM      4  C3  UNL d   1       0.578  -2.351  -1.909  0.00  0.00    -0.075 A 
ATOM      5  S   UNL d   1       0.891  -0.658  -1.824  0.00  0.00     0.015 SA
ATOM      6  C4  UNL d   1       1.706  -0.807  -0.335  0.00  0.00     0.022 A 
ATOM      7  C5  UNL d   1       1.747  -2.109   0.102  0.00  0.00     0.026 A 
ATOM      8  C6  UNL d   1       1.099  -3.021  -0.798  0.00  0.00    -0.082 A 
ATOM      9  C7  UNL d   1       0.923  -4.424  -0.720  0.00  0.00     0.045 A 
ENDROOT
TORSDOF 0
ENDMDL
