MODEL 1
REMARK minimizedAffinity -0.112453878
REMARK minimizedRMSD -1
REMARK  0 active torsions:
REMARK  status: ('A' for Active; 'I' for Inactive)
ROOT
ATOM      1  C   UNL d   1      -1.467   1.709   2.236  0.00  0.00    -0.002 A 
ATOM      2  C1  UNL d   1      -1.056   0.390   2.370  0.00  0.00     0.010 A 
ATOM      3  C2  UNL d   1      -0.336  -0.236   1.350  0.00  0.00     0.041 A 
ATOM      4  C3  UNL d   1      -0.031   0.493   0.184  0.00  0.00    -0.075 A 
ATOM      5  S   UNL d   1       0.841  -0.067  -1.194  0.00  0.00     0.015 SA
ATOM      6  C4  UNL d   1       0.689   1.432  -1.992  0.00  0.00     0.022 A 
ATOM      7  C5  UNL d   1      -0.007   2.348  -1.239  0.00  0.00     0.026 A 
ATOM      8  C6  UNL d   1      -0.433   1.823   0.027  0.00  0.00    -0.082 A 
ATOM      9  C7  UNL d   1      -1.162   2.429   1.078  0.00  0.00     0.045 A 
ENDROOT
TORSDOF 0
ENDMDL
