MODEL 1
REMARK minimizedAffinity -3.13937593
REMARK minimizedRMSD -1
REMARK  0 active torsions:
REMARK  status: ('A' for Active; 'I' for Inactive)
ROOT
ATOM      1  C   UNL d   1      -2.112   1.678   1.542  0.00  0.00    -0.002 A 
ATOM      2  C1  UNL d   1      -1.883   0.373   1.954  0.00  0.00     0.010 A 
ATOM      3  C2  UNL d   1      -0.903  -0.406   1.336  0.00  0.00     0.041 A 
ATOM      4  C3  UNL d   1      -0.148   0.156   0.287  0.00  0.00    -0.075 A 
ATOM      5  S   UNL d   1       1.106  -0.609  -0.616  0.00  0.00     0.015 SA
ATOM      6  C4  UNL d   1       1.367   0.779  -1.570  0.00  0.00     0.022 A 
ATOM      7  C5  UNL d   1       0.527   1.810  -1.221  0.00  0.00     0.026 A 
ATOM      8  C6  UNL d   1      -0.360   1.468  -0.145  0.00  0.00    -0.082 A 
ATOM      9  C7  UNL d   1      -1.361   2.232   0.502  0.00  0.00     0.045 A 
ENDROOT
TORSDOF 0
ENDMDL
