MODEL 1
REMARK minimizedAffinity -0.541347921
REMARK minimizedRMSD -1
REMARK  0 active torsions:
REMARK  status: ('A' for Active; 'I' for Inactive)
ROOT
ATOM      1  C   UNL d   1      -0.914   1.707   1.786  0.00  0.00    -0.002 A 
ATOM      2  C1  UNL d   1      -0.538   2.494   0.707  0.00  0.00     0.010 A 
ATOM      3  C2  UNL d   1       0.114   1.928  -0.391  0.00  0.00     0.041 A 
ATOM      4  C3  UNL d   1       0.380   0.545  -0.387  0.00  0.00    -0.075 A 
ATOM      5  S   UNL d   1       1.165  -0.366  -1.622  0.00  0.00     0.015 SA
ATOM      6  C4  UNL d   1       1.018  -1.821  -0.747  0.00  0.00     0.022 A 
ATOM      7  C5  UNL d   1       0.388  -1.635   0.461  0.00  0.00     0.026 A 
ATOM      8  C6  UNL d   1       0.010  -0.268   0.688  0.00  0.00    -0.082 A 
ATOM      9  C7  UNL d   1      -0.648   0.336   1.787  0.00  0.00     0.045 A 
ENDROOT
TORSDOF 0
ENDMDL
