MODEL 1
REMARK minimizedAffinity -2.93871903
REMARK minimizedRMSD -1
REMARK  0 active torsions:
REMARK  status: ('A' for Active; 'I' for Inactive)
ROOT
ATOM      1  C   UNL d   1       0.636   0.027   0.442  0.00  0.00    -0.002 A 
ATOM      2  C1  UNL d   1       0.418   0.878  -0.632  0.00  0.00     0.010 A 
ATOM      3  C2  UNL d   1       0.151   0.364  -1.903  0.00  0.00     0.041 A 
ATOM      4  C3  UNL d   1       0.103  -1.033  -2.077  0.00  0.00    -0.075 A 
ATOM      5  S   UNL d   1      -0.208  -1.888  -3.541  0.00  0.00     0.015 SA
ATOM      6  C4  UNL d   1      -0.061  -3.404  -2.775  0.00  0.00     0.022 A 
ATOM      7  C5  UNL d   1       0.219  -3.279  -1.435  0.00  0.00     0.026 A 
ATOM      8  C6  UNL d   1       0.318  -1.911  -1.010  0.00  0.00    -0.082 A 
ATOM      9  C7  UNL d   1       0.587  -1.359   0.265  0.00  0.00     0.045 A 
ENDROOT
TORSDOF 0
ENDMDL
