MODEL 1
REMARK minimizedAffinity -5.41191101
REMARK minimizedRMSD -1
REMARK  0 active torsions:
REMARK  status: ('A' for Active; 'I' for Inactive)
ROOT
ATOM      1  C   UNL d   1      -2.281   2.523   1.928  0.00  0.00    -0.002 A 
ATOM      2  C1  UNL d   1      -2.378   2.770   0.566  0.00  0.00     0.010 A 
ATOM      3  C2  UNL d   1      -1.613   2.039  -0.345  0.00  0.00     0.041 A 
ATOM      4  C3  UNL d   1      -0.742   1.044   0.141  0.00  0.00    -0.075 A 
ATOM      5  S   UNL d   1       0.290   0.023  -0.788  0.00  0.00     0.015 SA
ATOM      6  C4  UNL d   1       0.884  -0.766   0.601  0.00  0.00     0.022 A 
ATOM      7  C5  UNL d   1       0.319  -0.275   1.754  0.00  0.00     0.026 A 
ATOM      8  C6  UNL d   1      -0.628   0.776   1.508  0.00  0.00    -0.082 A 
ATOM      9  C7  UNL d   1      -1.416   1.535   2.406  0.00  0.00     0.045 A 
ENDROOT
TORSDOF 0
ENDMDL
