MODEL 1
REMARK minimizedAffinity -6.39138126
REMARK minimizedRMSD -1
REMARK  0 active torsions:
REMARK  status: ('A' for Active; 'I' for Inactive)
ROOT
ATOM      1  C   UNL d   1      -2.024   2.678   0.792  0.00  0.00    -0.002 A 
ATOM      2  C1  UNL d   1      -2.143   1.429   1.386  0.00  0.00     0.010 A 
ATOM      3  C2  UNL d   1      -1.267   0.396   1.049  0.00  0.00     0.041 A 
ATOM      4  C3  UNL d   1      -0.258   0.641   0.096  0.00  0.00    -0.075 A 
ATOM      5  S   UNL d   1       0.929  -0.474  -0.471  0.00  0.00     0.015 SA
ATOM      6  C4  UNL d   1       1.622   0.681  -1.515  0.00  0.00     0.022 A 
ATOM      7  C5  UNL d   1       0.976   1.893  -1.445  0.00  0.00     0.026 A 
ATOM      8  C6  UNL d   1      -0.118   1.890  -0.515  0.00  0.00    -0.082 A 
ATOM      9  C7  UNL d   1      -1.022   2.917  -0.153  0.00  0.00     0.045 A 
ENDROOT
TORSDOF 0
ENDMDL
