MODEL 1
REMARK minimizedAffinity -2.06984353
REMARK minimizedRMSD -1
REMARK  0 active torsions:
REMARK  status: ('A' for Active; 'I' for Inactive)
ROOT
ATOM      1  C   UNL d   1      -1.157   0.756   2.816  0.00  0.00    -0.002 A 
ATOM      2  C1  UNL d   1      -1.829   1.697   2.049  0.00  0.00     0.010 A 
ATOM      3  C2  UNL d   1      -1.659   1.738   0.664  0.00  0.00     0.041 A 
ATOM      4  C3  UNL d   1      -0.794   0.807   0.056  0.00  0.00    -0.075 A 
ATOM      5  S   UNL d   1      -0.431   0.667  -1.623  0.00  0.00     0.015 SA
ATOM      6  C4  UNL d   1       0.624  -0.645  -1.363  0.00  0.00     0.022 A 
ATOM      7  C5  UNL d   1       0.710  -0.982  -0.033  0.00  0.00     0.026 A 
ATOM      8  C6  UNL d   1      -0.106  -0.151   0.807  0.00  0.00    -0.082 A 
ATOM      9  C7  UNL d   1      -0.300  -0.166   2.209  0.00  0.00     0.045 A 
ENDROOT
TORSDOF 0
ENDMDL
