MODEL 1
REMARK minimizedAffinity -2.47313929
REMARK minimizedRMSD -1
REMARK  0 active torsions:
REMARK  status: ('A' for Active; 'I' for Inactive)
ROOT
ATOM      1  C   UNL d   1      -0.777   2.384   1.505  0.00  0.00    -0.002 A 
ATOM      2  C1  UNL d   1      -1.441   1.482   2.325  0.00  0.00     0.010 A 
ATOM      3  C2  UNL d   1      -1.408   0.114   2.048  0.00  0.00     0.041 A 
ATOM      4  C3  UNL d   1      -0.688  -0.337   0.924  0.00  0.00    -0.075 A 
ATOM      5  S   UNL d   1      -0.508  -1.967   0.391  0.00  0.00     0.015 SA
ATOM      6  C4  UNL d   1       0.455  -1.504  -0.937  0.00  0.00     0.022 A 
ATOM      7  C5  UNL d   1       0.644  -0.143  -0.988  0.00  0.00     0.026 A 
ATOM      8  C6  UNL d   1      -0.011   0.552   0.085  0.00  0.00    -0.082 A 
ATOM      9  C7  UNL d   1      -0.065   1.933   0.391  0.00  0.00     0.045 A 
ENDROOT
TORSDOF 0
ENDMDL
