MODEL 1
REMARK minimizedAffinity -2.66257977
REMARK minimizedRMSD -1
REMARK  0 active torsions:
REMARK  status: ('A' for Active; 'I' for Inactive)
ROOT
ATOM      1  C   UNL d   1      -0.367  -3.685  -1.918  0.00  0.00    -0.002 A 
ATOM      2  C1  UNL d   1      -0.464  -2.771  -2.957  0.00  0.00     0.010 A 
ATOM      3  C2  UNL d   1      -0.279  -1.407  -2.723  0.00  0.00     0.041 A 
ATOM      4  C3  UNL d   1       0.010  -0.973  -1.414  0.00  0.00    -0.075 A 
ATOM      5  S   UNL d   1       0.277   0.648  -0.891  0.00  0.00     0.015 SA
ATOM      6  C4  UNL d   1       0.528   0.164   0.724  0.00  0.00     0.022 A 
ATOM      7  C5  UNL d   1       0.414  -1.197   0.878  0.00  0.00     0.026 A 
ATOM      8  C6  UNL d   1       0.115  -1.875  -0.351  0.00  0.00    -0.082 A 
ATOM      9  C7  UNL d   1      -0.079  -3.251  -0.621  0.00  0.00     0.045 A 
ENDROOT
TORSDOF 0
ENDMDL
