MODEL 1
REMARK minimizedAffinity 3.90866566
REMARK minimizedRMSD -1
REMARK  0 active torsions:
REMARK  status: ('A' for Active; 'I' for Inactive)
ROOT
ATOM      1  C   UNL d   1      -4.015   1.557  -2.463  0.00  0.00    -0.002 A 
ATOM      2  C1  UNL d   1      -3.074   2.489  -2.878  0.00  0.00     0.010 A 
ATOM      3  C2  UNL d   1      -1.825   2.562  -2.257  0.00  0.00     0.041 A 
ATOM      4  C3  UNL d   1      -1.535   1.674  -1.203  0.00  0.00    -0.075 A 
ATOM      5  S   UNL d   1      -0.072   1.580  -0.295  0.00  0.00     0.015 SA
ATOM      6  C4  UNL d   1      -0.662   0.301   0.664  0.00  0.00     0.022 A 
ATOM      7  C5  UNL d   1      -1.942  -0.059   0.314  0.00  0.00     0.026 A 
ATOM      8  C6  UNL d   1      -2.466   0.727  -0.768  0.00  0.00    -0.082 A 
ATOM      9  C7  UNL d   1      -3.723   0.678  -1.417  0.00  0.00     0.045 A 
ENDROOT
TORSDOF 0
ENDMDL
