MODEL 1
REMARK minimizedAffinity -2.30595446
REMARK minimizedRMSD -1
REMARK  0 active torsions:
REMARK  status: ('A' for Active; 'I' for Inactive)
ROOT
ATOM      1  C   UNL d   1      -0.716   0.558   2.757  0.00  0.00    -0.002 A 
ATOM      2  C1  UNL d   1       0.060  -0.401   2.121  0.00  0.00     0.010 A 
ATOM      3  C2  UNL d   1       0.305  -0.320   0.749  0.00  0.00     0.041 A 
ATOM      4  C3  UNL d   1      -0.245   0.752   0.020  0.00  0.00    -0.075 A 
ATOM      5  S   UNL d   1      -0.077   1.056  -1.669  0.00  0.00     0.015 SA
ATOM      6  C4  UNL d   1      -1.030   2.466  -1.586  0.00  0.00     0.022 A 
ATOM      7  C5  UNL d   1      -1.474   2.714  -0.309  0.00  0.00     0.026 A 
ATOM      8  C6  UNL d   1      -1.029   1.731   0.638  0.00  0.00    -0.082 A 
ATOM      9  C7  UNL d   1      -1.260   1.620   2.030  0.00  0.00     0.045 A 
ENDROOT
TORSDOF 0
ENDMDL
