MODEL 1
REMARK minimizedAffinity -4.38083172
REMARK minimizedRMSD -1
REMARK  0 active torsions:
REMARK  status: ('A' for Active; 'I' for Inactive)
ROOT
ATOM      1  C1  BNZ d   1      -0.564  -0.057   0.497  0.00  0.00     0.000 A 
ATOM      2  C2  BNZ d   1      -1.826  -0.189   1.012  0.00  0.00     0.000 A 
ATOM      3  C3  BNZ d   1      -2.041  -0.135   2.361  0.00  0.00     0.000 A 
ATOM      4  C4  BNZ d   1      -0.990   0.010   3.194  0.00  0.00     0.000 A 
ATOM      5  C5  BNZ d   1       0.289   0.136   2.690  0.00  0.00     0.000 A 
ATOM      6  C6  BNZ d   1       0.497   0.120   1.330  0.00  0.00     0.000 A 
ENDROOT
TORSDOF 0
ENDMDL
