MODEL 1
REMARK minimizedAffinity -5.26247549
REMARK minimizedRMSD -1
REMARK  0 active torsions:
REMARK  status: ('A' for Active; 'I' for Inactive)
ROOT
ATOM      1  C1  BNZ d   1      -1.068  -0.362   0.444  0.00  0.00     0.000 A 
ATOM      2  C2  BNZ d   1      -2.374  -0.134   0.787  0.00  0.00     0.000 A 
ATOM      3  C3  BNZ d   1      -2.750  -0.057   2.099  0.00  0.00     0.000 A 
ATOM      4  C4  BNZ d   1      -1.828  -0.248   3.065  0.00  0.00     0.000 A 
ATOM      5  C5  BNZ d   1      -0.509  -0.488   2.736  0.00  0.00     0.000 A 
ATOM      6  C6  BNZ d   1      -0.127  -0.526   1.414  0.00  0.00     0.000 A 
ENDROOT
TORSDOF 0
ENDMDL
