MODEL 1
REMARK minimizedAffinity -5.00923204
REMARK minimizedRMSD -1
REMARK  0 active torsions:
REMARK  status: ('A' for Active; 'I' for Inactive)
ROOT
ATOM      1  C1  BNZ d   1      -0.968  -0.181   0.497  0.00  0.00     0.000 A 
ATOM      2  C2  BNZ d   1      -2.224   0.333   0.679  0.00  0.00     0.000 A 
ATOM      3  C3  BNZ d   1      -2.708   0.571   1.935  0.00  0.00     0.000 A 
ATOM      4  C4  BNZ d   1      -1.952   0.258   3.007  0.00  0.00     0.000 A 
ATOM      5  C5  BNZ d   1      -0.687  -0.270   2.840  0.00  0.00     0.000 A 
ATOM      6  C6  BNZ d   1      -0.188  -0.472   1.574  0.00  0.00     0.000 A 
ENDROOT
TORSDOF 0
ENDMDL
