MODEL 1
REMARK minimizedAffinity -3.266855
REMARK minimizedRMSD -1
REMARK  0 active torsions:
REMARK  status: ('A' for Active; 'I' for Inactive)
ROOT
ATOM      1  C1  BNZ d   1      -0.311   0.149  -0.420  0.00  0.00     0.000 A 
ATOM      2  C2  BNZ d   1      -1.084  -0.317   0.610  0.00  0.00     0.000 A 
ATOM      3  C3  BNZ d   1      -0.585  -0.392   1.880  0.00  0.00     0.000 A 
ATOM      4  C4  BNZ d   1       0.696  -0.040   2.112  0.00  0.00     0.000 A 
ATOM      5  C5  BNZ d   1       1.490   0.423   1.082  0.00  0.00     0.000 A 
ATOM      6  C6  BNZ d   1       0.973   0.535  -0.188  0.00  0.00     0.000 A 
ENDROOT
TORSDOF 0
ENDMDL
