MODEL 1
REMARK minimizedAffinity -5.31963539
REMARK minimizedRMSD -1
REMARK  0 active torsions:
REMARK  status: ('A' for Active; 'I' for Inactive)
ROOT
ATOM      1  C1  BNZ d   1      -0.958  -0.583   3.014  0.00  0.00     0.000 A 
ATOM      2  C2  BNZ d   1      -2.227  -0.074   3.075  0.00  0.00     0.000 A 
ATOM      3  C3  BNZ d   1      -2.896   0.278   1.936  0.00  0.00     0.000 A 
ATOM      4  C4  BNZ d   1      -2.280   0.157   0.742  0.00  0.00     0.000 A 
ATOM      5  C5  BNZ d   1      -0.997  -0.347   0.665  0.00  0.00     0.000 A 
ATOM      6  C6  BNZ d   1      -0.342  -0.736   1.811  0.00  0.00     0.000 A 
ENDROOT
TORSDOF 0
ENDMDL
