MODEL 1
REMARK minimizedAffinity -4.24047041
REMARK minimizedRMSD -1
REMARK  0 active torsions:
REMARK  status: ('A' for Active; 'I' for Inactive)
ROOT
ATOM      1  C1  BNZ d   1      -1.617  -0.007   1.420  0.00  0.00     0.000 A 
ATOM      2  C2  BNZ d   1      -0.954   0.239   0.247  0.00  0.00     0.000 A 
ATOM      3  C3  BNZ d   1       0.412   0.264   0.208  0.00  0.00     0.000 A 
ATOM      4  C4  BNZ d   1       1.112   0.084   1.347  0.00  0.00     0.000 A 
ATOM      5  C5  BNZ d   1       0.458  -0.156   2.538  0.00  0.00     0.000 A 
ATOM      6  C6  BNZ d   1      -0.917  -0.220   2.567  0.00  0.00     0.000 A 
ENDROOT
TORSDOF 0
ENDMDL
