MODEL 1
REMARK minimizedAffinity -4.32208633
REMARK minimizedRMSD -1
REMARK  0 active torsions:
REMARK  status: ('A' for Active; 'I' for Inactive)
ROOT
ATOM      1  C1  BNZ d   1      -0.648   0.007   0.766  0.00  0.00     0.000 A 
ATOM      2  C2  BNZ d   1      -1.991   0.264   0.855  0.00  0.00     0.000 A 
ATOM      3  C3  BNZ d   1      -2.685  -0.028   1.995  0.00  0.00     0.000 A 
ATOM      4  C4  BNZ d   1      -2.047  -0.612   3.029  0.00  0.00     0.000 A 
ATOM      5  C5  BNZ d   1      -0.696  -0.886   2.952  0.00  0.00     0.000 A 
ATOM      6  C6  BNZ d   1       0.009  -0.555   1.817  0.00  0.00     0.000 A 
ENDROOT
TORSDOF 0
ENDMDL
