MODEL 1
REMARK minimizedAffinity -2.79859376
REMARK minimizedRMSD -1
REMARK  0 active torsions:
REMARK  status: ('A' for Active; 'I' for Inactive)
ROOT
ATOM      1  C1  BNZ d   1      -0.107  -1.735  -3.326  0.00  0.00     0.000 A 
ATOM      2  C2  BNZ d   1      -0.817  -1.153  -2.310  0.00  0.00     0.000 A 
ATOM      3  C3  BNZ d   1      -0.327  -0.060  -1.651  0.00  0.00     0.000 A 
ATOM      4  C4  BNZ d   1       0.888   0.424  -1.981  0.00  0.00     0.000 A 
ATOM      5  C5  BNZ d   1       1.619  -0.158  -2.997  0.00  0.00     0.000 A 
ATOM      6  C6  BNZ d   1       1.106  -1.234  -3.685  0.00  0.00     0.000 A 
ENDROOT
TORSDOF 0
ENDMDL
