MODEL 1
REMARK minimizedAffinity -4.83706808
REMARK minimizedRMSD -1
REMARK  0 active torsions:
REMARK  status: ('A' for Active; 'I' for Inactive)
ROOT
ATOM      1  C1  BNZ d   1      -0.205   0.491   0.010  0.00  0.00     0.000 A 
ATOM      2  C2  BNZ d   1      -1.539   0.588   0.306  0.00  0.00     0.000 A 
ATOM      3  C3  BNZ d   1      -1.987   0.396   1.583  0.00  0.00     0.000 A 
ATOM      4  C4  BNZ d   1      -1.109   0.067   2.552  0.00  0.00     0.000 A 
ATOM      5  C5  BNZ d   1       0.237  -0.044   2.267  0.00  0.00     0.000 A 
ATOM      6  C6  BNZ d   1       0.690   0.189   0.989  0.00  0.00     0.000 A 
ENDROOT
TORSDOF 0
ENDMDL
