MODEL 1
REMARK minimizedAffinity -4.78353834
REMARK minimizedRMSD -1
REMARK  0 active torsions:
REMARK  status: ('A' for Active; 'I' for Inactive)
ROOT
ATOM      1  C1  BNZ d   1      -2.357   1.457   2.942  0.00  0.00     0.000 A 
ATOM      2  C2  BNZ d   1      -1.201   1.090   3.576  0.00  0.00     0.000 A 
ATOM      3  C3  BNZ d   1      -0.553  -0.066   3.239  0.00  0.00     0.000 A 
ATOM      4  C4  BNZ d   1      -1.083  -0.872   2.296  0.00  0.00     0.000 A 
ATOM      5  C5  BNZ d   1      -2.253  -0.520   1.654  0.00  0.00     0.000 A 
ATOM      6  C6  BNZ d   1      -2.882   0.663   1.969  0.00  0.00     0.000 A 
ENDROOT
TORSDOF 0
ENDMDL
