MODEL 1
REMARK minimizedAffinity -4.48008013
REMARK minimizedRMSD -1
REMARK  0 active torsions:
REMARK  status: ('A' for Active; 'I' for Inactive)
ROOT
ATOM      1  C1  BNZ d   1      -1.427  -0.857   3.017  0.00  0.00     0.000 A 
ATOM      2  C2  BNZ d   1      -2.004  -0.342   1.887  0.00  0.00     0.000 A 
ATOM      3  C3  BNZ d   1      -1.236   0.066   0.833  0.00  0.00     0.000 A 
ATOM      4  C4  BNZ d   1       0.108  -0.004   0.925  0.00  0.00     0.000 A 
ATOM      5  C5  BNZ d   1       0.705  -0.512   2.061  0.00  0.00     0.000 A 
ATOM      6  C6  BNZ d   1      -0.073  -0.958   3.105  0.00  0.00     0.000 A 
ENDROOT
TORSDOF 0
ENDMDL
