MODEL 1
REMARK minimizedAffinity -2.66356587
REMARK minimizedRMSD -1
REMARK  0 active torsions:
REMARK  status: ('A' for Active; 'I' for Inactive)
ROOT
ATOM      1  C1  BNZ d   1       0.366   0.397  -0.059  0.00  0.00     0.000 A 
ATOM      2  C2  BNZ d   1       1.692   0.250   0.251  0.00  0.00     0.000 A 
ATOM      3  C3  BNZ d   1       2.101   0.160   1.552  0.00  0.00     0.000 A 
ATOM      4  C4  BNZ d   1       1.190   0.256   2.541  0.00  0.00     0.000 A 
ATOM      5  C5  BNZ d   1      -0.149   0.414   2.246  0.00  0.00     0.000 A 
ATOM      6  C6  BNZ d   1      -0.562   0.466   0.934  0.00  0.00     0.000 A 
ENDROOT
TORSDOF 0
ENDMDL
