MODEL 1
REMARK minimizedAffinity -1.13192666
REMARK minimizedRMSD -1
REMARK  0 active torsions:
REMARK  status: ('A' for Active; 'I' for Inactive)
ROOT
ATOM      1  C   UNL d   1       1.262  -0.812  -0.261  0.00  0.00     0.172 C 
ATOM      2  N   UNL d   1       0.248   0.204  -0.107  0.00  0.00    -0.070 N 
ATOM      3  C1  UNL d   1      -0.119   1.116  -1.060  0.00  0.00    -0.004 A 
ATOM      4  C2  UNL d   1      -1.115   1.906  -0.527  0.00  0.00    -0.047 A 
ATOM      5  C3  UNL d   1      -1.354   1.454   0.792  0.00  0.00    -0.047 A 
ATOM      6  C4  UNL d   1      -0.496   0.399   1.026  0.00  0.00    -0.004 A 
ENDROOT
TORSDOF 0
ENDMDL
