MODEL 1
REMARK minimizedAffinity -2.1990242
REMARK minimizedRMSD -1
REMARK  0 active torsions:
REMARK  status: ('A' for Active; 'I' for Inactive)
ROOT
ATOM      1  C   UNL d   1      -2.371   2.116   1.456  0.00  0.00     0.172 C 
ATOM      2  N   UNL d   1      -1.424   1.111   1.035  0.00  0.00    -0.070 N 
ATOM      3  C1  UNL d   1      -1.173  -0.070   1.682  0.00  0.00    -0.004 A 
ATOM      4  C2  UNL d   1      -0.210  -0.747   0.966  0.00  0.00    -0.047 A 
ATOM      5  C3  UNL d   1       0.131   0.055  -0.149  0.00  0.00    -0.047 A 
ATOM      6  C4  UNL d   1      -0.636   1.199  -0.081  0.00  0.00    -0.004 A 
ENDROOT
TORSDOF 0
ENDMDL
