MODEL 1
REMARK minimizedAffinity -3.44346452
REMARK minimizedRMSD -1
REMARK  0 active torsions:
REMARK  status: ('A' for Active; 'I' for Inactive)
ROOT
ATOM      1  C   UNL d   1       1.295  -0.678  -0.541  0.00  0.00     0.172 C 
ATOM      2  N   UNL d   1       0.291   0.010   0.235  0.00  0.00    -0.070 N 
ATOM      3  C1  UNL d   1      -0.120  -0.336   1.495  0.00  0.00    -0.004 A 
ATOM      4  C2  UNL d   1      -1.086   0.566   1.886  0.00  0.00    -0.047 A 
ATOM      5  C3  UNL d   1      -1.262   1.485   0.825  0.00  0.00    -0.047 A 
ATOM      6  C4  UNL d   1      -0.397   1.118  -0.184  0.00  0.00    -0.004 A 
ENDROOT
TORSDOF 0
ENDMDL
