MODEL 1
REMARK minimizedAffinity -3.84099817
REMARK minimizedRMSD -1
REMARK  0 active torsions:
REMARK  status: ('A' for Active; 'I' for Inactive)
ROOT
ATOM      1  C   UNL d   1       0.724  -0.244  -0.504  0.00  0.00     0.172 C 
ATOM      2  N   UNL d   1      -0.093   0.518   0.412  0.00  0.00    -0.070 N 
ATOM      3  C1  UNL d   1      -0.475   0.117   1.664  0.00  0.00    -0.004 A 
ATOM      4  C2  UNL d   1      -1.243   1.121   2.213  0.00  0.00    -0.047 A 
ATOM      5  C3  UNL d   1      -1.328   2.160   1.256  0.00  0.00    -0.047 A 
ATOM      6  C4  UNL d   1      -0.607   1.761   0.151  0.00  0.00    -0.004 A 
ENDROOT
TORSDOF 0
ENDMDL
