MODEL 1
REMARK minimizedAffinity -2.6442945
REMARK minimizedRMSD -1
REMARK  0 active torsions:
REMARK  status: ('A' for Active; 'I' for Inactive)
ROOT
ATOM      1  C   UNL d   1      -2.003   1.907   0.437  0.00  0.00     0.172 C 
ATOM      2  N   UNL d   1      -0.962   0.916   0.564  0.00  0.00    -0.070 N 
ATOM      3  C1  UNL d   1      -0.148   0.478  -0.446  0.00  0.00    -0.004 A 
ATOM      4  C2  UNL d   1       0.709  -0.465   0.080  0.00  0.00    -0.047 A 
ATOM      5  C3  UNL d   1       0.399  -0.599   1.454  0.00  0.00    -0.047 A 
ATOM      6  C4  UNL d   1      -0.639   0.267   1.727  0.00  0.00    -0.004 A 
ENDROOT
TORSDOF 0
ENDMDL
