MODEL 1
REMARK minimizedAffinity -3.24635553
REMARK minimizedRMSD -1
REMARK  0 active torsions:
REMARK  status: ('A' for Active; 'I' for Inactive)
ROOT
ATOM      1  C   UNL d   1       0.677  -0.728  -0.475  0.00  0.00     0.172 C 
ATOM      2  N   UNL d   1      -0.264   0.005   0.338  0.00  0.00    -0.070 N 
ATOM      3  C1  UNL d   1      -1.227   0.859  -0.128  0.00  0.00    -0.004 A 
ATOM      4  C2  UNL d   1      -1.915   1.355   0.958  0.00  0.00    -0.047 A 
ATOM      5  C3  UNL d   1      -1.344   0.780   2.119  0.00  0.00    -0.047 A 
ATOM      6  C4  UNL d   1      -0.324  -0.052   1.706  0.00  0.00    -0.004 A 
ENDROOT
TORSDOF 0
ENDMDL
