MODEL 1
REMARK minimizedAffinity -3.43800712
REMARK minimizedRMSD -1
REMARK  0 active torsions:
REMARK  status: ('A' for Active; 'I' for Inactive)
ROOT
ATOM      1  C   UNL d   1       0.723  -0.380  -0.565  0.00  0.00     0.172 C 
ATOM      2  N   UNL d   1      -0.148   0.386   0.296  0.00  0.00    -0.070 N 
ATOM      3  C1  UNL d   1      -0.820   1.525  -0.059  0.00  0.00    -0.004 A 
ATOM      4  C2  UNL d   1      -1.539   1.949   1.038  0.00  0.00    -0.047 A 
ATOM      5  C3  UNL d   1      -1.288   1.035   2.088  0.00  0.00    -0.047 A 
ATOM      6  C4  UNL d   1      -0.424   0.077   1.601  0.00  0.00    -0.004 A 
ENDROOT
TORSDOF 0
ENDMDL
