MODEL 1
REMARK minimizedAffinity -3.90982771
REMARK minimizedRMSD -1
REMARK  0 active torsions:
REMARK  status: ('A' for Active; 'I' for Inactive)
ROOT
ATOM      1  C   UNL d   1       0.666  -0.661  -0.496  0.00  0.00     0.172 C 
ATOM      2  N   UNL d   1      -0.156   0.179   0.343  0.00  0.00    -0.070 N 
ATOM      3  C1  UNL d   1      -0.811   1.312  -0.059  0.00  0.00    -0.004 A 
ATOM      4  C2  UNL d   1      -1.482   1.821   1.032  0.00  0.00    -0.047 A 
ATOM      5  C3  UNL d   1      -1.220   0.965   2.127  0.00  0.00    -0.047 A 
ATOM      6  C4  UNL d   1      -0.397  -0.044   1.673  0.00  0.00    -0.004 A 
ENDROOT
TORSDOF 0
ENDMDL
