MODEL 1
REMARK minimizedAffinity -3.64983487
REMARK minimizedRMSD -1
REMARK  0 active torsions:
REMARK  status: ('A' for Active; 'I' for Inactive)
ROOT
ATOM      1  C   UNL d   1       0.338  -0.494   0.506  0.00  0.00     0.172 C 
ATOM      2  N   UNL d   1      -0.601   0.558   0.815  0.00  0.00    -0.070 N 
ATOM      3  C1  UNL d   1      -0.658   1.782   0.203  0.00  0.00    -0.004 A 
ATOM      4  C2  UNL d   1      -1.686   2.495   0.780  0.00  0.00    -0.047 A 
ATOM      5  C3  UNL d   1      -2.266   1.672   1.775  0.00  0.00    -0.047 A 
ATOM      6  C4  UNL d   1      -1.575   0.479   1.775  0.00  0.00    -0.004 A 
ENDROOT
TORSDOF 0
ENDMDL
