MODEL 1
REMARK minimizedAffinity -2.39520335
REMARK minimizedRMSD -1
REMARK  0 active torsions:
REMARK  status: ('A' for Active; 'I' for Inactive)
ROOT
ATOM      1  C   UNL d   1       0.513  -0.809  -0.583  0.00  0.00     0.172 C 
ATOM      2  N   UNL d   1       0.704  -2.076  -1.249  0.00  0.00    -0.070 N 
ATOM      3  C1  UNL d   1       0.594  -2.294  -2.596  0.00  0.00    -0.004 A 
ATOM      4  C2  UNL d   1       0.851  -3.628  -2.830  0.00  0.00    -0.047 A 
ATOM      5  C3  UNL d   1       1.123  -4.232  -1.580  0.00  0.00    -0.047 A 
ATOM      6  C4  UNL d   1       1.026  -3.249  -0.618  0.00  0.00    -0.004 A 
ENDROOT
TORSDOF 0
ENDMDL
