MODEL 1
REMARK minimizedAffinity -1.03835642
REMARK minimizedRMSD -1
REMARK  0 active torsions:
REMARK  status: ('A' for Active; 'I' for Inactive)
ROOT
ATOM      1  C   UNL d   1       0.573   0.202  -0.299  0.00  0.00     0.172 C 
ATOM      2  N   UNL d   1      -0.301   0.635   0.766  0.00  0.00    -0.070 N 
ATOM      3  C1  UNL d   1      -0.594  -0.079   1.897  0.00  0.00    -0.004 A 
ATOM      4  C2  UNL d   1      -1.459   0.675   2.660  0.00  0.00    -0.047 A 
ATOM      5  C3  UNL d   1      -1.695   1.884   1.962  0.00  0.00    -0.047 A 
ATOM      6  C4  UNL d   1      -0.966   1.832   0.793  0.00  0.00    -0.004 A 
ENDROOT
TORSDOF 0
ENDMDL
