MODEL 1
REMARK minimizedAffinity -3.78747392
REMARK minimizedRMSD -1
REMARK  0 active torsions:
REMARK  status: ('A' for Active; 'I' for Inactive)
ROOT
ATOM      1  C   UNL d   1       1.444  -0.245  -0.099  0.00  0.00     0.172 C 
ATOM      2  N   UNL d   1       0.339   0.368   0.599  0.00  0.00    -0.070 N 
ATOM      3  C1  UNL d   1      -0.381  -0.205   1.614  0.00  0.00    -0.004 A 
ATOM      4  C2  UNL d   1      -1.343   0.697   2.011  0.00  0.00    -0.047 A 
ATOM      5  C3  UNL d   1      -1.198   1.852   1.206  0.00  0.00    -0.047 A 
ATOM      6  C4  UNL d   1      -0.150   1.621   0.341  0.00  0.00    -0.004 A 
ENDROOT
TORSDOF 0
ENDMDL
