MODEL 1
REMARK minimizedAffinity -2.8141315
REMARK minimizedRMSD -1
REMARK  0 active torsions:
REMARK  status: ('A' for Active; 'I' for Inactive)
ROOT
ATOM      1  C   UNL d   1       0.287  -0.553  -0.426  0.00  0.00     0.172 C 
ATOM      2  N   UNL d   1      -0.485   0.319   0.428  0.00  0.00    -0.070 N 
ATOM      3  C1  UNL d   1      -0.977  -0.004   1.664  0.00  0.00    -0.004 A 
ATOM      4  C2  UNL d   1      -1.654   1.094   2.150  0.00  0.00    -0.047 A 
ATOM      5  C3  UNL d   1      -1.566   2.112   1.171  0.00  0.00    -0.047 A 
ATOM      6  C4  UNL d   1      -0.838   1.606   0.115  0.00  0.00    -0.004 A 
ENDROOT
TORSDOF 0
ENDMDL
