MODEL 1
REMARK minimizedAffinity -2.45192218
REMARK minimizedRMSD -1
REMARK  0 active torsions:
REMARK  status: ('A' for Active; 'I' for Inactive)
ROOT
ATOM      1  C   UNL d   1       1.058  -0.960  -0.810  0.00  0.00     0.172 C 
ATOM      2  N   UNL d   1       0.233  -0.116   0.021  0.00  0.00    -0.070 N 
ATOM      3  C1  UNL d   1      -0.681   0.799  -0.428  0.00  0.00    -0.004 A 
ATOM      4  C2  UNL d   1      -1.257   1.396   0.672  0.00  0.00    -0.047 A 
ATOM      5  C3  UNL d   1      -0.669   0.820   1.823  0.00  0.00    -0.047 A 
ATOM      6  C4  UNL d   1       0.250  -0.113   1.391  0.00  0.00    -0.004 A 
ENDROOT
TORSDOF 0
ENDMDL
