MODEL 1
REMARK minimizedAffinity -3.1191442
REMARK minimizedRMSD -1
REMARK  0 active torsions:
REMARK  status: ('A' for Active; 'I' for Inactive)
ROOT
ATOM      1  O1  BZF d   1      -0.889  -1.860  -1.115  0.00  0.00    -0.204 OA
ATOM      2  C2  BZF d   1      -1.132  -2.693  -0.040  0.00  0.00     0.174 A 
ATOM      3  C3  BZF d   1      -0.780  -2.095   1.117  0.00  0.00    -0.012 A 
ATOM      4  C3A BZF d   1      -0.372  -0.774   0.750  0.00  0.00    -0.107 A 
ATOM      5  C4  BZF d   1       0.072   0.303   1.461  0.00  0.00     0.055 A 
ATOM      6  C5  BZF d   1       0.458   1.422   0.793  0.00  0.00    -0.016 A 
ATOM      7  C6  BZF d   1       0.416   1.497  -0.583  0.00  0.00     0.022 A 
ATOM      8  C7  BZF d   1      -0.023   0.456  -1.332  0.00  0.00     0.029 A 
ATOM      9  C7A BZF d   1      -0.443  -0.665  -0.658  0.00  0.00     0.058 A 
ENDROOT
TORSDOF 0
ENDMDL
