MODEL 1
REMARK minimizedAffinity -2.82655025
REMARK minimizedRMSD -1
REMARK  0 active torsions:
REMARK  status: ('A' for Active; 'I' for Inactive)
ROOT
ATOM      1  O1  BZF d   1      -1.610   4.502   1.744  0.00  0.00    -0.204 OA
ATOM      2  C2  BZF d   1      -1.266   5.465   2.672  0.00  0.00     0.174 A 
ATOM      3  C3  BZF d   1       0.068   5.485   2.870  0.00  0.00    -0.012 A 
ATOM      4  C3A BZF d   1       0.600   4.533   1.943  0.00  0.00    -0.107 A 
ATOM      5  C4  BZF d   1       1.866   4.114   1.650  0.00  0.00     0.055 A 
ATOM      6  C5  BZF d   1       2.038   3.117   0.743  0.00  0.00    -0.016 A 
ATOM      7  C6  BZF d   1       0.968   2.514   0.115  0.00  0.00     0.022 A 
ATOM      8  C7  BZF d   1      -0.306   2.899   0.369  0.00  0.00     0.029 A 
ATOM      9  C7A BZF d   1      -0.482   3.929   1.260  0.00  0.00     0.058 A 
ENDROOT
TORSDOF 0
ENDMDL
