MODEL 1
REMARK minimizedAffinity -4.56327105
REMARK minimizedRMSD -1
REMARK  0 active torsions:
REMARK  status: ('A' for Active; 'I' for Inactive)
ROOT
ATOM      1  O1  BZF d   1       0.124   0.716  -1.267  0.00  0.00    -0.204 OA
ATOM      2  C2  BZF d   1      -0.166   1.129   0.019  0.00  0.00     0.174 A 
ATOM      3  C3  BZF d   1      -0.641   0.104   0.755  0.00  0.00    -0.012 A 
ATOM      4  C3A BZF d   1      -0.562  -1.041  -0.100  0.00  0.00    -0.107 A 
ATOM      5  C4  BZF d   1      -0.874  -2.360   0.067  0.00  0.00     0.055 A 
ATOM      6  C5  BZF d   1      -0.747  -3.207  -0.988  0.00  0.00    -0.016 A 
ATOM      7  C6  BZF d   1      -0.318  -2.769  -2.224  0.00  0.00     0.022 A 
ATOM      8  C7  BZF d   1       0.008  -1.471  -2.436  0.00  0.00     0.029 A 
ATOM      9  C7A BZF d   1      -0.088  -0.619  -1.363  0.00  0.00     0.058 A 
ENDROOT
TORSDOF 0
ENDMDL
