MODEL 1
REMARK minimizedAffinity -1.73072517
REMARK minimizedRMSD -1
REMARK  0 active torsions:
REMARK  status: ('A' for Active; 'I' for Inactive)
ROOT
ATOM      1  O1  BZF d   1       2.073   2.282  -0.397  0.00  0.00    -0.204 OA
ATOM      2  C2  BZF d   1       1.508   3.493  -0.046  0.00  0.00     0.174 A 
ATOM      3  C3  BZF d   1       0.250   3.319   0.410  0.00  0.00    -0.012 A 
ATOM      4  C3A BZF d   1       0.047   1.903   0.425  0.00  0.00    -0.107 A 
ATOM      5  C4  BZF d   1      -1.000   1.108   0.793  0.00  0.00     0.055 A 
ATOM      6  C5  BZF d   1      -0.904  -0.236   0.616  0.00  0.00    -0.016 A 
ATOM      7  C6  BZF d   1       0.222  -0.818   0.071  0.00  0.00     0.022 A 
ATOM      8  C7  BZF d   1       1.289  -0.071  -0.305  0.00  0.00     0.029 A 
ATOM      9  C7A BZF d   1       1.207   1.284  -0.097  0.00  0.00     0.058 A 
ENDROOT
TORSDOF 0
ENDMDL
