MODEL 1
REMARK minimizedAffinity -3.03372669
REMARK minimizedRMSD -1
REMARK  0 active torsions:
REMARK  status: ('A' for Active; 'I' for Inactive)
ROOT
ATOM      1  O1  BZF d   1      -0.698  -2.912   1.252  0.00  0.00    -0.204 OA
ATOM      2  C2  BZF d   1       0.352  -3.533   0.605  0.00  0.00     0.174 A 
ATOM      3  C3  BZF d   1       1.086  -2.636  -0.085  0.00  0.00    -0.012 A 
ATOM      4  C3A BZF d   1       0.509  -1.363   0.220  0.00  0.00    -0.107 A 
ATOM      5  C4  BZF d   1       0.808  -0.083  -0.152  0.00  0.00     0.055 A 
ATOM      6  C5  BZF d   1       0.004   0.930   0.264  0.00  0.00    -0.016 A 
ATOM      7  C6  BZF d   1      -1.109   0.700   1.046  0.00  0.00     0.022 A 
ATOM      8  C7  BZF d   1      -1.443  -0.552   1.444  0.00  0.00     0.029 A 
ATOM      9  C7A BZF d   1      -0.613  -1.574   1.053  0.00  0.00     0.058 A 
ENDROOT
TORSDOF 0
ENDMDL
