MODEL 1
REMARK minimizedAffinity -5.02233839
REMARK minimizedRMSD -1
REMARK  0 active torsions:
REMARK  status: ('A' for Active; 'I' for Inactive)
ROOT
ATOM      1  O1  BZF d   1      -0.029   0.064  -1.163  0.00  0.00    -0.204 OA
ATOM      2  C2  BZF d   1       0.124   0.616   0.094  0.00  0.00     0.174 A 
ATOM      3  C3  BZF d   1       0.222  -0.348   1.031  0.00  0.00    -0.012 A 
ATOM      4  C3A BZF d   1       0.216  -1.581   0.305  0.00  0.00    -0.107 A 
ATOM      5  C4  BZF d   1       0.302  -2.892   0.679  0.00  0.00     0.055 A 
ATOM      6  C5  BZF d   1       0.192  -3.858  -0.270  0.00  0.00    -0.016 A 
ATOM      7  C6  BZF d   1      -0.010  -3.550  -1.599  0.00  0.00     0.022 A 
ATOM      8  C7  BZF d   1      -0.097  -2.265  -2.019  0.00  0.00     0.029 A 
ATOM      9  C7A BZF d   1       0.047  -1.285  -1.067  0.00  0.00     0.058 A 
ENDROOT
TORSDOF 0
ENDMDL
