MODEL 1
REMARK minimizedAffinity -2.12526894
REMARK minimizedRMSD -1
REMARK  0 active torsions:
REMARK  status: ('A' for Active; 'I' for Inactive)
ROOT
ATOM      1  O1  BZF d   1      -0.919  -2.539   1.162  0.00  0.00    -0.204 OA
ATOM      2  C2  BZF d   1       0.100  -3.295   0.616  0.00  0.00     0.174 A 
ATOM      3  C3  BZF d   1       0.993  -2.508  -0.019  0.00  0.00    -0.012 A 
ATOM      4  C3A BZF d   1       0.550  -1.169   0.220  0.00  0.00    -0.107 A 
ATOM      5  C4  BZF d   1       1.031   0.058  -0.140  0.00  0.00     0.055 A 
ATOM      6  C5  BZF d   1       0.323   1.169   0.192  0.00  0.00    -0.016 A 
ATOM      7  C6  BZF d   1      -0.872   1.090   0.878  0.00  0.00     0.022 A 
ATOM      8  C7  BZF d   1      -1.387  -0.104   1.260  0.00  0.00     0.029 A 
ATOM      9  C7A BZF d   1      -0.657  -1.226   0.955  0.00  0.00     0.058 A 
ENDROOT
TORSDOF 0
ENDMDL
