MODEL 1
REMARK minimizedAffinity -5.64165783
REMARK minimizedRMSD -1
REMARK  0 active torsions:
REMARK  status: ('A' for Active; 'I' for Inactive)
ROOT
ATOM      1  O1  BZF d   1      -0.085   0.389  -1.090  0.00  0.00    -0.204 OA
ATOM      2  C2  BZF d   1      -0.364   0.815   0.194  0.00  0.00     0.174 A 
ATOM      3  C3  BZF d   1      -0.564  -0.237   1.014  0.00  0.00    -0.012 A 
ATOM      4  C3A BZF d   1      -0.309  -1.393   0.211  0.00  0.00    -0.107 A 
ATOM      5  C4  BZF d   1      -0.328  -2.735   0.465  0.00  0.00     0.055 A 
ATOM      6  C5  BZF d   1      -0.103  -3.603  -0.556  0.00  0.00    -0.016 A 
ATOM      7  C6  BZF d   1       0.139  -3.166  -1.841  0.00  0.00     0.022 A 
ATOM      8  C7  BZF d   1       0.173  -1.845  -2.141  0.00  0.00     0.029 A 
ATOM      9  C7A BZF d   1      -0.021  -0.964  -1.105  0.00  0.00     0.058 A 
ENDROOT
TORSDOF 0
ENDMDL
