MODEL 1
REMARK minimizedAffinity -5.7178483
REMARK minimizedRMSD -1
REMARK  0 active torsions:
REMARK  status: ('A' for Active; 'I' for Inactive)
ROOT
ATOM      1  O1  BZF d   1      -0.000   0.319  -0.711  0.00  0.00    -0.204 OA
ATOM      2  C2  BZF d   1      -0.366   0.402   0.619  0.00  0.00     0.174 A 
ATOM      3  C3  BZF d   1      -0.635  -0.821   1.118  0.00  0.00    -0.012 A 
ATOM      4  C3A BZF d   1      -0.335  -1.735   0.059  0.00  0.00    -0.107 A 
ATOM      5  C4  BZF d   1      -0.386  -3.095  -0.051  0.00  0.00     0.055 A 
ATOM      6  C5  BZF d   1      -0.098  -3.673  -1.247  0.00  0.00    -0.016 A 
ATOM      7  C6  BZF d   1       0.240  -2.922  -2.353  0.00  0.00     0.022 A 
ATOM      8  C7  BZF d   1       0.309  -1.570  -2.292  0.00  0.00     0.029 A 
ATOM      9  C7A BZF d   1       0.050  -0.985  -1.076  0.00  0.00     0.058 A 
ENDROOT
TORSDOF 0
ENDMDL
