MODEL 1
REMARK minimizedAffinity -4.70537996
REMARK minimizedRMSD -1
REMARK  0 active torsions:
REMARK  status: ('A' for Active; 'I' for Inactive)
ROOT
ATOM      1  O1  BZF d   1       0.574  -1.545  -2.486  0.00  0.00    -0.204 OA
ATOM      2  C2  BZF d   1       0.311  -2.861  -2.813  0.00  0.00     0.174 A 
ATOM      3  C3  BZF d   1      -0.168  -3.533  -1.746  0.00  0.00    -0.012 A 
ATOM      4  C3A BZF d   1      -0.293  -2.553  -0.710  0.00  0.00    -0.107 A 
ATOM      5  C4  BZF d   1      -0.730  -2.605   0.583  0.00  0.00     0.055 A 
ATOM      6  C5  BZF d   1      -0.656  -1.486   1.350  0.00  0.00    -0.016 A 
ATOM      7  C6  BZF d   1      -0.146  -0.302   0.859  0.00  0.00     0.022 A 
ATOM      8  C7  BZF d   1       0.295  -0.200  -0.418  0.00  0.00     0.029 A 
ATOM      9  C7A BZF d   1       0.191  -1.321  -1.206  0.00  0.00     0.058 A 
ENDROOT
TORSDOF 0
ENDMDL
