MODEL 1
REMARK minimizedAffinity -5.36523819
REMARK minimizedRMSD -1
REMARK  0 active torsions:
REMARK  status: ('A' for Active; 'I' for Inactive)
ROOT
ATOM      1  O1  BZF d   1       0.362   0.314  -0.356  0.00  0.00    -0.204 OA
ATOM      2  C2  BZF d   1      -0.169   0.761   0.838  0.00  0.00     0.174 A 
ATOM      3  C3  BZF d   1      -0.838  -0.228   1.465  0.00  0.00    -0.012 A 
ATOM      4  C3A BZF d   1      -0.640  -1.389   0.654  0.00  0.00    -0.107 A 
ATOM      5  C4  BZF d   1      -1.044  -2.689   0.760  0.00  0.00     0.055 A 
ATOM      6  C5  BZF d   1      -0.743  -3.559  -0.240  0.00  0.00    -0.016 A 
ATOM      7  C6  BZF d   1      -0.044  -3.162  -1.361  0.00  0.00     0.022 A 
ATOM      8  C7  BZF d   1       0.383  -1.884  -1.509  0.00  0.00     0.029 A 
ATOM      9  C7A BZF d   1       0.109  -1.011  -0.485  0.00  0.00     0.058 A 
ENDROOT
TORSDOF 0
ENDMDL
