MODEL 1
REMARK minimizedAffinity -3.0877192
REMARK minimizedRMSD -1
REMARK  0 active torsions:
REMARK  status: ('A' for Active; 'I' for Inactive)
ROOT
ATOM      1  O1  BZF d   1       0.222   0.962  -1.242  0.00  0.00    -0.204 OA
ATOM      2  C2  BZF d   1       0.198   2.021  -0.356  0.00  0.00     0.174 A 
ATOM      3  C3  BZF d   1      -0.198   1.613   0.867  0.00  0.00    -0.012 A 
ATOM      4  C3A BZF d   1      -0.348   0.194   0.760  0.00  0.00    -0.107 A 
ATOM      5  C4  BZF d   1      -0.705  -0.781   1.646  0.00  0.00     0.055 A 
ATOM      6  C5  BZF d   1      -0.827  -2.061   1.205  0.00  0.00    -0.016 A 
ATOM      7  C6  BZF d   1      -0.604  -2.399  -0.114  0.00  0.00     0.022 A 
ATOM      8  C7  BZF d   1      -0.242  -1.467  -1.028  0.00  0.00     0.029 A 
ATOM      9  C7A BZF d   1      -0.086  -0.178  -0.579  0.00  0.00     0.058 A 
ENDROOT
TORSDOF 0
ENDMDL
