MODEL 1
REMARK minimizedAffinity -2.34789062
REMARK minimizedRMSD -1
REMARK  0 active torsions:
REMARK  status: ('A' for Active; 'I' for Inactive)
ROOT
ATOM      1  O1  BZF d   1      -0.575  -3.116  -2.039  0.00  0.00    -0.204 OA
ATOM      2  C2  BZF d   1      -0.096  -2.277  -3.026  0.00  0.00     0.174 A 
ATOM      3  C3  BZF d   1       0.093  -1.031  -2.545  0.00  0.00    -0.012 A 
ATOM      4  C3A BZF d   1      -0.204  -1.117  -1.148  0.00  0.00    -0.107 A 
ATOM      5  C4  BZF d   1      -0.185  -0.212  -0.126  0.00  0.00     0.055 A 
ATOM      6  C5  BZF d   1      -0.602  -0.599   1.108  0.00  0.00    -0.016 A 
ATOM      7  C6  BZF d   1      -1.049  -1.881   1.354  0.00  0.00     0.022 A 
ATOM      8  C7  BZF d   1      -1.082  -2.816   0.373  0.00  0.00     0.029 A 
ATOM      9  C7A BZF d   1      -0.630  -2.436  -0.868  0.00  0.00     0.058 A 
ENDROOT
TORSDOF 0
ENDMDL
