MODEL 1
REMARK minimizedAffinity -3.8770802
REMARK minimizedRMSD -1
REMARK  0 active torsions:
REMARK  status: ('A' for Active; 'I' for Inactive)
ROOT
ATOM      1  O1  BZF d   1       1.818   2.655   1.935  0.00  0.00    -0.204 OA
ATOM      2  C2  BZF d   1       1.919   3.782   1.142  0.00  0.00     0.174 A 
ATOM      3  C3  BZF d   1       1.336   3.578  -0.056  0.00  0.00    -0.012 A 
ATOM      4  C3A BZF d   1       0.759   2.271   0.023  0.00  0.00    -0.107 A 
ATOM      5  C4  BZF d   1       0.032   1.511  -0.848  0.00  0.00     0.055 A 
ATOM      6  C5  BZF d   1      -0.317   0.248  -0.489  0.00  0.00    -0.016 A 
ATOM      7  C6  BZF d   1       0.047  -0.288   0.729  0.00  0.00     0.022 A 
ATOM      8  C7  BZF d   1       0.763   0.429   1.628  0.00  0.00     0.029 A 
ATOM      9  C7A BZF d   1       1.090   1.718   1.282  0.00  0.00     0.058 A 
ENDROOT
TORSDOF 0
ENDMDL
