MODEL 1
REMARK minimizedAffinity -2.57670355
REMARK minimizedRMSD -1
REMARK  0 active torsions:
REMARK  status: ('A' for Active; 'I' for Inactive)
ROOT
ATOM      1  O1  BZF d   1      -0.162   1.138  -1.318  0.00  0.00    -0.204 OA
ATOM      2  C2  BZF d   1       0.367   2.236  -0.667  0.00  0.00     0.174 A 
ATOM      3  C3  BZF d   1       0.536   1.978   0.646  0.00  0.00    -0.012 A 
ATOM      4  C3A BZF d   1       0.171   0.604   0.809  0.00  0.00    -0.107 A 
ATOM      5  C4  BZF d   1       0.142  -0.239   1.883  0.00  0.00     0.055 A 
ATOM      6  C5  BZF d   1      -0.335  -1.501   1.720  0.00  0.00    -0.016 A 
ATOM      7  C6  BZF d   1      -0.796  -1.951   0.501  0.00  0.00     0.022 A 
ATOM      8  C7  BZF d   1      -0.783  -1.153  -0.595  0.00  0.00     0.029 A 
ATOM      9  C7A BZF d   1      -0.271   0.112  -0.441  0.00  0.00     0.058 A 
ENDROOT
TORSDOF 0
ENDMDL
