MODEL 1
REMARK minimizedAffinity 0.281165928
REMARK minimizedRMSD -1
REMARK  0 active torsions:
REMARK  status: ('A' for Active; 'I' for Inactive)
ROOT
ATOM      1  C   UNL d   1       1.455  -2.616   1.143  0.00  0.00     0.124 A 
ATOM      2  C1  UNL d   1       2.006  -1.343   1.200  0.00  0.00     0.062 A 
ATOM      3  C2  UNL d   1       1.381  -0.281   0.555  0.00  0.00     0.162 A 
ATOM      4  C3  UNL d   1       0.196  -0.486  -0.153  0.00  0.00    -0.034 A 
ATOM      5  C4  UNL d   1      -0.351  -1.769  -0.208  0.00  0.00     0.162 A 
ATOM      6  C5  UNL d   1       0.278  -2.828   0.439  0.00  0.00     0.062 A 
ATOM      7  F   UNL d   1      -0.255  -4.057   0.382  0.00  0.00    -0.097 F 
ATOM      8  F1  UNL d   1      -1.488  -2.001  -0.880  0.00  0.00    -0.096 F 
ATOM      9  I   UNL d   1      -0.742   1.101  -1.120  0.00  0.00    -0.060 I 
ATOM     10  F2  UNL d   1       1.935   0.939   0.628  0.00  0.00    -0.096 F 
ATOM     11  F3  UNL d   1       3.144  -1.137   1.879  0.00  0.00    -0.097 F 
ATOM     12  F4  UNL d   1       2.060  -3.637   1.764  0.00  0.00    -0.092 F 
ENDROOT
TORSDOF 0
ENDMDL
