MODEL 1
REMARK minimizedAffinity -1.99900484
REMARK minimizedRMSD -1
REMARK  0 active torsions:
REMARK  status: ('A' for Active; 'I' for Inactive)
ROOT
ATOM      1  C   UNL d   1       1.844  -0.696   0.170  0.00  0.00     0.124 A 
ATOM      2  C1  UNL d   1       1.539   0.366  -0.669  0.00  0.00     0.062 A 
ATOM      3  C2  UNL d   1       0.214   0.731  -0.884  0.00  0.00     0.162 A 
ATOM      4  C3  UNL d   1      -0.819   0.033  -0.258  0.00  0.00    -0.034 A 
ATOM      5  C4  UNL d   1      -0.505  -1.036   0.584  0.00  0.00     0.162 A 
ATOM      6  C5  UNL d   1       0.822  -1.396   0.795  0.00  0.00     0.062 A 
ATOM      7  F   UNL d   1       1.114  -2.424   1.606  0.00  0.00    -0.097 F 
ATOM      8  F1  UNL d   1      -1.473  -1.729   1.202  0.00  0.00    -0.096 F 
ATOM      9  I   UNL d   1      -2.803   0.575  -0.577  0.00  0.00    -0.060 I 
ATOM     10  F2  UNL d   1      -0.051   1.763  -1.700  0.00  0.00    -0.096 F 
ATOM     11  F3  UNL d   1       2.525   1.044  -1.275  0.00  0.00    -0.097 F 
ATOM     12  F4  UNL d   1       3.120  -1.046   0.374  0.00  0.00    -0.092 F 
ENDROOT
TORSDOF 0
ENDMDL
