MODEL 1
REMARK minimizedAffinity 8.96572208
REMARK minimizedRMSD -1
REMARK  0 active torsions:
REMARK  status: ('A' for Active; 'I' for Inactive)
ROOT
ATOM      1  C   UNL d   1       0.491  -0.061   0.568  0.00  0.00     0.124 A 
ATOM      2  C1  UNL d   1       1.082   1.038  -0.039  0.00  0.00     0.062 A 
ATOM      3  C2  UNL d   1       0.385   1.767  -0.999  0.00  0.00     0.162 A 
ATOM      4  C3  UNL d   1      -0.912   1.399  -1.357  0.00  0.00    -0.034 A 
ATOM      5  C4  UNL d   1      -1.499   0.292  -0.743  0.00  0.00     0.162 A 
ATOM      6  C5  UNL d   1      -0.798  -0.433   0.215  0.00  0.00     0.062 A 
ATOM      7  F   UNL d   1      -1.371  -1.495   0.800  0.00  0.00    -0.097 F 
ATOM      8  F1  UNL d   1      -2.744  -0.090  -1.064  0.00  0.00    -0.096 F 
ATOM      9  I   UNL d   1      -1.957   2.486  -2.791  0.00  0.00    -0.060 I 
ATOM     10  F2  UNL d   1       0.981   2.825  -1.569  0.00  0.00    -0.096 F 
ATOM     11  F3  UNL d   1       2.328   1.400   0.299  0.00  0.00    -0.097 F 
ATOM     12  F4  UNL d   1       1.164  -0.761   1.490  0.00  0.00    -0.092 F 
ENDROOT
TORSDOF 0
ENDMDL
