MODEL 1
REMARK minimizedAffinity 2.0665772
REMARK minimizedRMSD -1
REMARK  0 active torsions:
REMARK  status: ('A' for Active; 'I' for Inactive)
ROOT
ATOM      1  C   UNL d   1      -1.072   1.202  -0.727  0.00  0.00     0.124 A 
ATOM      2  C1  UNL d   1      -0.274   0.488  -1.610  0.00  0.00     0.062 A 
ATOM      3  C2  UNL d   1       0.475  -0.595  -1.158  0.00  0.00     0.162 A 
ATOM      4  C3  UNL d   1       0.429  -0.971   0.185  0.00  0.00    -0.034 A 
ATOM      5  C4  UNL d   1      -0.376  -0.248   1.067  0.00  0.00     0.162 A 
ATOM      6  C5  UNL d   1      -1.123   0.833   0.610  0.00  0.00     0.062 A 
ATOM      7  F   UNL d   1      -1.894   1.521   1.465  0.00  0.00    -0.097 F 
ATOM      8  F1  UNL d   1      -0.444  -0.583   2.364  0.00  0.00    -0.096 F 
ATOM      9  I   UNL d   1       1.547  -2.590   0.864  0.00  0.00    -0.060 I 
ATOM     10  F2  UNL d   1       1.238  -1.266  -2.033  0.00  0.00    -0.096 F 
ATOM     11  F3  UNL d   1      -0.223   0.843  -2.902  0.00  0.00    -0.097 F 
ATOM     12  F4  UNL d   1      -1.791   2.244  -1.164  0.00  0.00    -0.092 F 
ENDROOT
TORSDOF 0
ENDMDL
