MODEL 1
REMARK minimizedAffinity 0.585401535
REMARK minimizedRMSD -1
REMARK  0 active torsions:
REMARK  status: ('A' for Active; 'I' for Inactive)
ROOT
ATOM      1  C   UNL d   1       2.260  -1.263  -0.119  0.00  0.00     0.124 A 
ATOM      2  C1  UNL d   1       1.520  -2.320   0.392  0.00  0.00     0.062 A 
ATOM      3  C2  UNL d   1       0.301  -2.081   1.021  0.00  0.00     0.162 A 
ATOM      4  C3  UNL d   1      -0.185  -0.780   1.141  0.00  0.00    -0.034 A 
ATOM      5  C4  UNL d   1       0.565   0.278   0.626  0.00  0.00     0.162 A 
ATOM      6  C5  UNL d   1       1.783   0.035  -0.002  0.00  0.00     0.062 A 
ATOM      7  F   UNL d   1       2.497   1.057  -0.495  0.00  0.00    -0.097 F 
ATOM      8  F1  UNL d   1       0.127   1.542   0.724  0.00  0.00    -0.096 F 
ATOM      9  I   UNL d   1      -2.007  -0.419   2.081  0.00  0.00    -0.060 I 
ATOM     10  F2  UNL d   1      -0.393  -3.122   1.505  0.00  0.00    -0.096 F 
ATOM     11  F3  UNL d   1       1.980  -3.574   0.280  0.00  0.00    -0.097 F 
ATOM     12  F4  UNL d   1       3.433  -1.495  -0.723  0.00  0.00    -0.092 F 
ENDROOT
TORSDOF 0
ENDMDL
