MODEL 1
REMARK minimizedAffinity 0.218370736
REMARK minimizedRMSD -1
REMARK  0 active torsions:
REMARK  status: ('A' for Active; 'I' for Inactive)
ROOT
ATOM      1  C   UNL d   1      -2.200   1.651  -2.838  0.00  0.00     0.124 A 
ATOM      2  C1  UNL d   1      -2.456   0.294  -2.696  0.00  0.00     0.062 A 
ATOM      3  C2  UNL d   1      -1.836  -0.433  -1.684  0.00  0.00     0.162 A 
ATOM      4  C3  UNL d   1      -0.955   0.195  -0.804  0.00  0.00    -0.034 A 
ATOM      5  C4  UNL d   1      -0.702   1.560  -0.954  0.00  0.00     0.162 A 
ATOM      6  C5  UNL d   1      -1.323   2.282  -1.967  0.00  0.00     0.062 A 
ATOM      7  F   UNL d   1      -1.075   3.593  -2.102  0.00  0.00    -0.097 F 
ATOM      8  F1  UNL d   1       0.140   2.196  -0.125  0.00  0.00    -0.096 F 
ATOM      9  I   UNL d   1      -0.027  -0.889   0.711  0.00  0.00    -0.060 I 
ATOM     10  F2  UNL d   1      -2.102  -1.743  -1.571  0.00  0.00    -0.096 F 
ATOM     11  F3  UNL d   1      -3.301  -0.319  -3.537  0.00  0.00    -0.097 F 
ATOM     12  F4  UNL d   1      -2.796   2.348  -3.813  0.00  0.00    -0.092 F 
ENDROOT
TORSDOF 0
ENDMDL
