MODEL 1
REMARK minimizedAffinity -0.455353886
REMARK minimizedRMSD -1
REMARK  0 active torsions:
REMARK  status: ('A' for Active; 'I' for Inactive)
ROOT
ATOM      1  C   UNL d   1       1.446  -0.601   0.772  0.00  0.00     0.124 A 
ATOM      2  C1  UNL d   1       0.308  -1.384   0.636  0.00  0.00     0.062 A 
ATOM      3  C2  UNL d   1      -0.793  -0.903  -0.065  0.00  0.00     0.162 A 
ATOM      4  C3  UNL d   1      -0.763   0.370  -0.636  0.00  0.00    -0.034 A 
ATOM      5  C4  UNL d   1       0.384   1.152  -0.493  0.00  0.00     0.162 A 
ATOM      6  C5  UNL d   1       1.483   0.666   0.208  0.00  0.00     0.062 A 
ATOM      7  F   UNL d   1       2.581   1.425   0.339  0.00  0.00    -0.097 F 
ATOM      8  F1  UNL d   1       0.447   2.380  -1.030  0.00  0.00    -0.096 F 
ATOM      9  I   UNL d   1      -2.408   1.094  -1.685  0.00  0.00    -0.060 I 
ATOM     10  F2  UNL d   1      -1.879  -1.682  -0.181  0.00  0.00    -0.096 F 
ATOM     11  F3  UNL d   1       0.270  -2.609   1.181  0.00  0.00    -0.097 F 
ATOM     12  F4  UNL d   1       2.504  -1.067   1.448  0.00  0.00    -0.092 F 
ENDROOT
TORSDOF 0
ENDMDL
