MODEL 1
REMARK minimizedAffinity 1.06139147
REMARK minimizedRMSD -1
REMARK  0 active torsions:
REMARK  status: ('A' for Active; 'I' for Inactive)
ROOT
ATOM      1  C   UNL d   1       1.027  -2.017   1.115  0.00  0.00     0.124 A 
ATOM      2  C1  UNL d   1       1.825  -1.239   0.287  0.00  0.00     0.062 A 
ATOM      3  C2  UNL d   1       1.260  -0.219  -0.473  0.00  0.00     0.162 A 
ATOM      4  C3  UNL d   1      -0.111   0.031  -0.407  0.00  0.00    -0.034 A 
ATOM      5  C4  UNL d   1      -0.907  -0.756   0.427  0.00  0.00     0.162 A 
ATOM      6  C5  UNL d   1      -0.337  -1.774   1.185  0.00  0.00     0.062 A 
ATOM      7  F   UNL d   1      -1.110  -2.524   1.984  0.00  0.00    -0.097 F 
ATOM      8  F1  UNL d   1      -2.228  -0.543   0.514  0.00  0.00    -0.096 F 
ATOM      9  I   UNL d   1      -0.959   1.555  -1.542  0.00  0.00    -0.060 I 
ATOM     10  F2  UNL d   1       2.055   0.516  -1.264  0.00  0.00    -0.096 F 
ATOM     11  F3  UNL d   1       3.144  -1.472   0.218  0.00  0.00    -0.097 F 
ATOM     12  F4  UNL d   1       1.573  -2.998   1.845  0.00  0.00    -0.092 F 
ENDROOT
TORSDOF 0
ENDMDL
