MODEL 1
REMARK minimizedAffinity -3.36407518
REMARK minimizedRMSD -1
REMARK  0 active torsions:
REMARK  status: ('A' for Active; 'I' for Inactive)
ROOT
ATOM      1  C   UNL d   1       1.624  -0.865   0.218  0.00  0.00     0.124 A 
ATOM      2  C1  UNL d   1       1.494   0.503   0.025  0.00  0.00     0.062 A 
ATOM      3  C2  UNL d   1       0.320   1.027  -0.507  0.00  0.00     0.162 A 
ATOM      4  C3  UNL d   1      -0.736   0.181  -0.849  0.00  0.00    -0.034 A 
ATOM      5  C4  UNL d   1      -0.597  -1.194  -0.654  0.00  0.00     0.162 A 
ATOM      6  C5  UNL d   1       0.579  -1.712  -0.121  0.00  0.00     0.062 A 
ATOM      7  F   UNL d   1       0.702  -3.035   0.064  0.00  0.00    -0.097 F 
ATOM      8  F1  UNL d   1      -1.592  -2.035  -0.972  0.00  0.00    -0.096 F 
ATOM      9  I   UNL d   1      -2.494   0.960  -1.646  0.00  0.00    -0.060 I 
ATOM     10  F2  UNL d   1       0.222   2.353  -0.682  0.00  0.00    -0.096 F 
ATOM     11  F3  UNL d   1       2.504   1.323   0.352  0.00  0.00    -0.097 F 
ATOM     12  F4  UNL d   1       2.756  -1.366   0.729  0.00  0.00    -0.092 F 
ENDROOT
TORSDOF 0
ENDMDL
