MODEL 1
REMARK minimizedAffinity -1.54178131
REMARK minimizedRMSD -1
REMARK  0 active torsions:
REMARK  status: ('A' for Active; 'I' for Inactive)
ROOT
ATOM      1  C   UNL d   1      -1.519   1.979  -3.127  0.00  0.00     0.124 A 
ATOM      2  C1  UNL d   1      -2.126   0.741  -2.971  0.00  0.00     0.062 A 
ATOM      3  C2  UNL d   1      -1.865  -0.029  -1.841  0.00  0.00     0.162 A 
ATOM      4  C3  UNL d   1      -0.994   0.438  -0.857  0.00  0.00    -0.034 A 
ATOM      5  C4  UNL d   1      -0.386   1.684  -1.021  0.00  0.00     0.162 A 
ATOM      6  C5  UNL d   1      -0.650   2.450  -2.153  0.00  0.00     0.062 A 
ATOM      7  F   UNL d   1      -0.062   3.646  -2.302  0.00  0.00    -0.097 F 
ATOM      8  F1  UNL d   1       0.457   2.163  -0.095  0.00  0.00    -0.096 F 
ATOM      9  I   UNL d   1      -0.602  -0.710   0.834  0.00  0.00    -0.060 I 
ATOM     10  F2  UNL d   1      -2.466  -1.222  -1.716  0.00  0.00    -0.096 F 
ATOM     11  F3  UNL d   1      -2.965   0.284  -3.912  0.00  0.00    -0.097 F 
ATOM     12  F4  UNL d   1      -1.770   2.717  -4.216  0.00  0.00    -0.092 F 
ENDROOT
TORSDOF 0
ENDMDL
