MODEL 1
REMARK minimizedAffinity -0.194986686
REMARK minimizedRMSD -1
REMARK  0 active torsions:
REMARK  status: ('A' for Active; 'I' for Inactive)
ROOT
ATOM      1  C   UNL d   1      -1.393   1.854  -0.709  0.00  0.00     0.124 A 
ATOM      2  C1  UNL d   1      -0.699   1.170  -1.697  0.00  0.00     0.062 A 
ATOM      3  C2  UNL d   1       0.037   0.033  -1.375  0.00  0.00     0.162 A 
ATOM      4  C3  UNL d   1       0.082  -0.427  -0.059  0.00  0.00    -0.034 A 
ATOM      5  C4  UNL d   1      -0.618   0.267   0.929  0.00  0.00     0.162 A 
ATOM      6  C5  UNL d   1      -1.352   1.403   0.602  0.00  0.00     0.062 A 
ATOM      7  F   UNL d   1      -2.022   2.063   1.558  0.00  0.00    -0.097 F 
ATOM      8  F1  UNL d   1      -0.597  -0.148   2.204  0.00  0.00    -0.096 F 
ATOM      9  I   UNL d   1       1.181  -2.126   0.426  0.00  0.00    -0.060 I 
ATOM     10  F2  UNL d   1       0.698  -0.609  -2.350  0.00  0.00    -0.096 F 
ATOM     11  F3  UNL d   1      -0.736   1.605  -2.965  0.00  0.00    -0.097 F 
ATOM     12  F4  UNL d   1      -2.100   2.948  -1.022  0.00  0.00    -0.092 F 
ENDROOT
TORSDOF 0
ENDMDL
