MODEL 1
REMARK minimizedAffinity -1.83571064
REMARK minimizedRMSD -1
REMARK  0 active torsions:
REMARK  status: ('A' for Active; 'I' for Inactive)
ROOT
ATOM      1  C   UNL d   1       1.986  -1.856   1.396  0.00  0.00     0.124 A 
ATOM      2  C1  UNL d   1       2.556  -0.703   0.872  0.00  0.00     0.062 A 
ATOM      3  C2  UNL d   1       1.789   0.171   0.108  0.00  0.00     0.162 A 
ATOM      4  C3  UNL d   1       0.443  -0.103  -0.137  0.00  0.00    -0.034 A 
ATOM      5  C4  UNL d   1      -0.122  -1.264   0.392  0.00  0.00     0.162 A 
ATOM      6  C5  UNL d   1       0.649  -2.135   1.155  0.00  0.00     0.062 A 
ATOM      7  F   UNL d   1       0.097  -3.248   1.660  0.00  0.00    -0.097 F 
ATOM      8  F1  UNL d   1      -1.413  -1.559   0.175  0.00  0.00    -0.096 F 
ATOM      9  I   UNL d   1      -0.707   1.202  -1.280  0.00  0.00    -0.060 I 
ATOM     10  F2  UNL d   1       2.365   1.278  -0.385  0.00  0.00    -0.096 F 
ATOM     11  F3  UNL d   1       3.848  -0.431   1.103  0.00  0.00    -0.097 F 
ATOM     12  F4  UNL d   1       2.727  -2.696   2.130  0.00  0.00    -0.092 F 
ENDROOT
TORSDOF 0
ENDMDL
