MODEL 1
REMARK minimizedAffinity -2.31631136
REMARK minimizedRMSD -1
REMARK  0 active torsions:
REMARK  status: ('A' for Active; 'I' for Inactive)
ROOT
ATOM      1  C   UNL d   1       1.306  -2.238   1.538  0.00  0.00     0.124 A 
ATOM      2  C1  UNL d   1      -0.009  -1.925   1.852  0.00  0.00     0.062 A 
ATOM      3  C2  UNL d   1      -0.623  -0.818   1.274  0.00  0.00     0.162 A 
ATOM      4  C3  UNL d   1       0.078  -0.015   0.373  0.00  0.00    -0.034 A 
ATOM      5  C4  UNL d   1       1.400  -0.336   0.062  0.00  0.00     0.162 A 
ATOM      6  C5  UNL d   1       2.010  -1.443   0.643  0.00  0.00     0.062 A 
ATOM      7  F   UNL d   1       3.280  -1.744   0.338  0.00  0.00    -0.097 F 
ATOM      8  F1  UNL d   1       2.103   0.415  -0.800  0.00  0.00    -0.096 F 
ATOM      9  I   UNL d   1      -0.837   1.641  -0.494  0.00  0.00    -0.060 I 
ATOM     10  F2  UNL d   1      -1.895  -0.539   1.596  0.00  0.00    -0.096 F 
ATOM     11  F3  UNL d   1      -0.690  -2.691   2.717  0.00  0.00    -0.097 F 
ATOM     12  F4  UNL d   1       1.895  -3.303   2.096  0.00  0.00    -0.092 F 
ENDROOT
TORSDOF 0
ENDMDL
