MODEL 1
REMARK minimizedAffinity -0.0300585739
REMARK minimizedRMSD -1
REMARK  0 active torsions:
REMARK  status: ('A' for Active; 'I' for Inactive)
ROOT
ATOM      1  C   UNL d   1       0.880  -1.643   1.039  0.00  0.00     0.124 A 
ATOM      2  C1  UNL d   1       1.749  -1.025   0.151  0.00  0.00     0.062 A 
ATOM      3  C2  UNL d   1       1.307   0.029  -0.643  0.00  0.00     0.162 A 
ATOM      4  C3  UNL d   1      -0.013   0.472  -0.553  0.00  0.00    -0.034 A 
ATOM      5  C4  UNL d   1      -0.882  -0.155   0.342  0.00  0.00     0.162 A 
ATOM      6  C5  UNL d   1      -0.434  -1.207   1.134  0.00  0.00     0.062 A 
ATOM      7  F   UNL d   1      -1.276  -1.803   1.991  0.00  0.00    -0.097 F 
ATOM      8  F1  UNL d   1      -2.157   0.246   0.454  0.00  0.00    -0.096 F 
ATOM      9  I   UNL d   1      -0.679   2.048  -1.739  0.00  0.00    -0.060 I 
ATOM     10  F2  UNL d   1       2.169   0.608  -1.492  0.00  0.00    -0.096 F 
ATOM     11  F3  UNL d   1       3.019  -1.444   0.057  0.00  0.00    -0.097 F 
ATOM     12  F4  UNL d   1       1.308  -2.657   1.802  0.00  0.00    -0.092 F 
ENDROOT
TORSDOF 0
ENDMDL
