MODEL 1
REMARK minimizedAffinity 8.68922138
REMARK minimizedRMSD -1
REMARK  0 active torsions:
REMARK  status: ('A' for Active; 'I' for Inactive)
ROOT
ATOM      1  C   UNL d   1       0.141   0.146   1.026  0.00  0.00     0.124 A 
ATOM      2  C1  UNL d   1      -0.759  -0.784   0.524  0.00  0.00     0.062 A 
ATOM      3  C2  UNL d   1      -1.438  -0.530  -0.664  0.00  0.00     0.162 A 
ATOM      4  C3  UNL d   1      -1.218   0.660  -1.359  0.00  0.00    -0.034 A 
ATOM      5  C4  UNL d   1      -0.312   1.590  -0.847  0.00  0.00     0.162 A 
ATOM      6  C5  UNL d   1       0.364   1.331   0.341  0.00  0.00     0.062 A 
ATOM      7  F   UNL d   1       1.233   2.231   0.824  0.00  0.00    -0.097 F 
ATOM      8  F1  UNL d   1      -0.077   2.744  -1.490  0.00  0.00    -0.096 F 
ATOM      9  I   UNL d   1      -2.231   1.044  -3.136  0.00  0.00    -0.060 I 
ATOM     10  F2  UNL d   1      -2.302  -1.446  -1.126  0.00  0.00    -0.096 F 
ATOM     11  F3  UNL d   1      -0.976  -1.930   1.185  0.00  0.00    -0.097 F 
ATOM     12  F4  UNL d   1       0.792  -0.101   2.170  0.00  0.00    -0.092 F 
ENDROOT
TORSDOF 0
ENDMDL
