MODEL 1
REMARK minimizedAffinity 1.63510334
REMARK minimizedRMSD -1
REMARK  0 active torsions:
REMARK  status: ('A' for Active; 'I' for Inactive)
ROOT
ATOM      1  C   UNL d   1       1.266  -2.086   0.953  0.00  0.00     0.124 A 
ATOM      2  C1  UNL d   1      -0.096  -2.063   0.687  0.00  0.00     0.062 A 
ATOM      3  C2  UNL d   1      -0.666  -0.967   0.046  0.00  0.00     0.162 A 
ATOM      4  C3  UNL d   1       0.126   0.116  -0.335  0.00  0.00    -0.034 A 
ATOM      5  C4  UNL d   1       1.495   0.086  -0.063  0.00  0.00     0.162 A 
ATOM      6  C5  UNL d   1       2.060  -1.011   0.578  0.00  0.00     0.062 A 
ATOM      7  F   UNL d   1       3.377  -1.031   0.834  0.00  0.00    -0.097 F 
ATOM      8  F1  UNL d   1       2.286   1.111  -0.416  0.00  0.00    -0.096 F 
ATOM      9  I   UNL d   1      -0.722   1.756  -1.294  0.00  0.00    -0.060 I 
ATOM     10  F2  UNL d   1      -1.985  -0.973  -0.198  0.00  0.00    -0.096 F 
ATOM     11  F3  UNL d   1      -0.865  -3.100   1.049  0.00  0.00    -0.097 F 
ATOM     12  F4  UNL d   1       1.812  -3.141   1.571  0.00  0.00    -0.092 F 
ENDROOT
TORSDOF 0
ENDMDL
