MODEL 1
REMARK minimizedAffinity 6.02409792
REMARK minimizedRMSD -1
REMARK  2 active torsions:
REMARK  status: ('A' for Active; 'I' for Inactive)
REMARK    1  A    between atoms: C2'_3  and  C1'_4 
REMARK    2  A    between atoms: C1'_4  and  C1_5 
ROOT
ATOM      1  C1  I4B d   1      -1.103  -0.429   0.538  0.00  0.00    -0.075 A 
ATOM      2  C2  I4B d   1      -0.500   0.235   1.577  0.00  0.00     0.003 A 
ATOM      3  C3  I4B d   1      -0.716   1.622   1.758  0.00  0.00     0.002 A 
ATOM      4  C4  I4B d   1      -1.497   2.312   0.853  0.00  0.00    -0.004 A 
ATOM      5  C5  I4B d   1      -2.127   1.633  -0.186  0.00  0.00     0.002 A 
ATOM      6  C6  I4B d   1      -1.939   0.252  -0.338  0.00  0.00     0.003 A 
ENDROOT
BRANCH   1   7
ATOM      7  C1' I4B d   1      -0.827  -1.888   0.357  0.00  0.00     0.060 C 
BRANCH   7   8
ATOM      8  C2' I4B d   1      -1.938  -2.472  -0.492  0.00  0.00    -0.013 C 
ATOM      9  C4' I4B d   1      -1.412  -2.966  -1.813  0.00  0.00     0.013 C 
ATOM     10  C3' I4B d   1      -2.579  -3.583   0.285  0.00  0.00     0.013 C 
ENDBRANCH   7   8
ENDBRANCH   1   7
TORSDOF 2
ENDMDL
