MODEL 1
REMARK minimizedAffinity -2.80124855
REMARK minimizedRMSD -1
REMARK  2 active torsions:
REMARK  status: ('A' for Active; 'I' for Inactive)
REMARK    1  A    between atoms: C2'_3  and  C1'_4 
REMARK    2  A    between atoms: C1'_4  and  C1_5 
ROOT
ATOM      1  C1  I4B d   1      -0.083  -1.006  -0.031  0.00  0.00    -0.075 A 
ATOM      2  C2  I4B d   1       1.170  -0.490   0.188  0.00  0.00     0.003 A 
ATOM      3  C3  I4B d   1       1.321   0.835   0.663  0.00  0.00     0.002 A 
ATOM      4  C4  I4B d   1       0.203   1.621   0.855  0.00  0.00    -0.004 A 
ATOM      5  C5  I4B d   1      -1.067   1.088   0.654  0.00  0.00     0.002 A 
ATOM      6  C6  I4B d   1      -1.212  -0.238   0.220  0.00  0.00     0.003 A 
ENDROOT
BRANCH   1   7
ATOM      7  C1' I4B d   1      -0.206  -2.399  -0.564  0.00  0.00     0.060 C 
BRANCH   7   8
ATOM      8  C2' I4B d   1      -0.591  -2.307  -2.026  0.00  0.00    -0.013 C 
ATOM      9  C4' I4B d   1       0.626  -2.165  -2.902  0.00  0.00     0.013 C 
ATOM     10  C3' I4B d   1      -1.370  -3.539  -2.378  0.00  0.00     0.013 C 
ENDBRANCH   7   8
ENDBRANCH   1   7
TORSDOF 2
ENDMDL
