MODEL 1
REMARK minimizedAffinity -4.88733435
REMARK minimizedRMSD -1
REMARK  2 active torsions:
REMARK  status: ('A' for Active; 'I' for Inactive)
REMARK    1  A    between atoms: C2'_3  and  C1'_4 
REMARK    2  A    between atoms: C1'_4  and  C1_5 
ROOT
ATOM      1  C1  I4B d   1       0.248  -0.095  -0.069  0.00  0.00    -0.075 A 
ATOM      2  C2  I4B d   1      -0.958   0.444   0.306  0.00  0.00     0.003 A 
ATOM      3  C3  I4B d   1      -1.090   1.843   0.478  0.00  0.00     0.002 A 
ATOM      4  C4  I4B d   1       0.014   2.655   0.316  0.00  0.00    -0.004 A 
ATOM      5  C5  I4B d   1       1.230   2.110  -0.086  0.00  0.00     0.002 A 
ATOM      6  C6  I4B d   1       1.345   0.727  -0.292  0.00  0.00     0.003 A 
ENDROOT
BRANCH   1   7
ATOM      7  C1' I4B d   1       0.361  -1.580  -0.210  0.00  0.00     0.060 C 
BRANCH   7   8
ATOM      8  C2' I4B d   1      -0.403  -1.990  -1.453  0.00  0.00    -0.013 C 
ATOM      9  C4' I4B d   1       0.521  -2.148  -2.633  0.00  0.00     0.013 C 
ATOM     10  C3' I4B d   1      -1.122  -3.271  -1.153  0.00  0.00     0.013 C 
ENDBRANCH   7   8
ENDBRANCH   1   7
TORSDOF 2
ENDMDL
