MODEL 1
REMARK minimizedAffinity -2.6660862
REMARK minimizedRMSD -1
REMARK  2 active torsions:
REMARK  status: ('A' for Active; 'I' for Inactive)
REMARK    1  A    between atoms: C2'_3  and  C1'_4 
REMARK    2  A    between atoms: C1'_4  and  C1_5 
ROOT
ATOM      1  C1  I4B d   1      -0.322  -0.918  -0.116  0.00  0.00    -0.075 A 
ATOM      2  C2  I4B d   1      -1.554  -0.345  -0.314  0.00  0.00     0.003 A 
ATOM      3  C3  I4B d   1      -1.793   0.990   0.093  0.00  0.00     0.002 A 
ATOM      4  C4  I4B d   1      -0.794   1.694   0.734  0.00  0.00    -0.004 A 
ATOM      5  C5  I4B d   1       0.461   1.120   0.913  0.00  0.00     0.002 A 
ATOM      6  C6  I4B d   1       0.703  -0.190   0.474  0.00  0.00     0.003 A 
ENDROOT
BRANCH   1   7
ATOM      7  C1' I4B d   1      -0.114  -2.341  -0.528  0.00  0.00     0.060 C 
BRANCH   7   8
ATOM      8  C2' I4B d   1      -0.830  -2.554  -1.847  0.00  0.00    -0.013 C 
ATOM      9  C4' I4B d   1       0.148  -2.653  -2.988  0.00  0.00     0.013 C 
ATOM     10  C3' I4B d   1      -1.653  -3.802  -1.730  0.00  0.00     0.013 C 
ENDBRANCH   7   8
ENDBRANCH   1   7
TORSDOF 2
ENDMDL
