MODEL 1
REMARK minimizedAffinity -3.03069949
REMARK minimizedRMSD -1
REMARK  2 active torsions:
REMARK  status: ('A' for Active; 'I' for Inactive)
REMARK    1  A    between atoms: C2'_3  and  C1'_4 
REMARK    2  A    between atoms: C1'_4  and  C1_5 
ROOT
ATOM      1  C1  I4B d   1       0.473   1.331  -0.102  0.00  0.00    -0.075 A 
ATOM      2  C2  I4B d   1       0.441   2.703  -0.108  0.00  0.00     0.003 A 
ATOM      3  C3  I4B d   1       1.587   3.445   0.266  0.00  0.00     0.002 A 
ATOM      4  C4  I4B d   1       2.721   2.778   0.685  0.00  0.00    -0.004 A 
ATOM      5  C5  I4B d   1       2.759   1.387   0.668  0.00  0.00     0.002 A 
ATOM      6  C6  I4B d   1       1.633   0.658   0.260  0.00  0.00     0.003 A 
ENDROOT
BRANCH   1   7
ATOM      7  C1' I4B d   1      -0.767   0.579  -0.471  0.00  0.00     0.060 C 
BRANCH   7   8
ATOM      8  C2' I4B d   1      -1.725   0.656   0.700  0.00  0.00    -0.013 C 
ATOM      9  C4' I4B d   1      -1.372  -0.354   1.760  0.00  0.00     0.013 C 
ATOM     10  C3' I4B d   1      -1.680   2.052   1.245  0.00  0.00     0.013 C 
ENDBRANCH   7   8
ENDBRANCH   1   7
TORSDOF 2
ENDMDL
