MODEL 1
REMARK minimizedAffinity 0.271566629
REMARK minimizedRMSD -1
REMARK  2 active torsions:
REMARK  status: ('A' for Active; 'I' for Inactive)
REMARK    1  A    between atoms: C2'_3  and  C1'_4 
REMARK    2  A    between atoms: C1'_4  and  C1_5 
ROOT
ATOM      1  C1  I4B d   1       0.338   1.634   0.091  0.00  0.00    -0.075 A 
ATOM      2  C2  I4B d   1       1.455   0.843  -0.017  0.00  0.00     0.003 A 
ATOM      3  C3  I4B d   1       1.404  -0.519   0.366  0.00  0.00     0.002 A 
ATOM      4  C4  I4B d   1       0.238  -1.033   0.895  0.00  0.00    -0.004 A 
ATOM      5  C5  I4B d   1      -0.900  -0.236   0.982  0.00  0.00     0.002 A 
ATOM      6  C6  I4B d   1      -0.854   1.102   0.567  0.00  0.00     0.003 A 
ENDROOT
BRANCH   1   7
ATOM      7  C1' I4B d   1       0.437   3.076  -0.291  0.00  0.00     0.060 C 
BRANCH   7   8
ATOM      8  C2' I4B d   1       1.684   3.646   0.353  0.00  0.00    -0.013 C 
ATOM      9  C4' I4B d   1       1.697   5.150   0.281  0.00  0.00     0.013 C 
ATOM     10  C3' I4B d   1       1.729   3.172   1.775  0.00  0.00     0.013 C 
ENDBRANCH   7   8
ENDBRANCH   1   7
TORSDOF 2
ENDMDL
