MODEL 1
REMARK minimizedAffinity -4.61696911
REMARK minimizedRMSD -1
REMARK  2 active torsions:
REMARK  status: ('A' for Active; 'I' for Inactive)
REMARK    1  A    between atoms: C2'_3  and  C1'_4 
REMARK    2  A    between atoms: C1'_4  and  C1_5 
ROOT
ATOM      1  C1  I4B d   1       0.009  -2.530  -0.596  0.00  0.00    -0.075 A 
ATOM      2  C2  I4B d   1      -0.955  -3.423  -0.200  0.00  0.00     0.003 A 
ATOM      3  C3  I4B d   1      -1.840  -3.985  -1.152  0.00  0.00     0.002 A 
ATOM      4  C4  I4B d   1      -1.759  -3.590  -2.472  0.00  0.00    -0.004 A 
ATOM      5  C5  I4B d   1      -0.766  -2.702  -2.875  0.00  0.00     0.002 A 
ATOM      6  C6  I4B d   1       0.132  -2.178  -1.933  0.00  0.00     0.003 A 
ENDROOT
BRANCH   1   7
ATOM      7  C1' I4B d   1       0.906  -1.932   0.441  0.00  0.00     0.060 C 
BRANCH   7   8
ATOM      8  C2' I4B d   1       1.126  -0.476   0.084  0.00  0.00    -0.013 C 
ATOM      9  C4' I4B d   1       0.111   0.410   0.757  0.00  0.00     0.013 C 
ATOM     10  C3' I4B d   1       2.522  -0.105   0.488  0.00  0.00     0.013 C 
ENDBRANCH   7   8
ENDBRANCH   1   7
TORSDOF 2
ENDMDL
