MODEL 1
REMARK minimizedAffinity -4.34448957
REMARK minimizedRMSD -1
REMARK  2 active torsions:
REMARK  status: ('A' for Active; 'I' for Inactive)
REMARK    1  A    between atoms: C2'_3  and  C1'_4 
REMARK    2  A    between atoms: C1'_4  and  C1_5 
ROOT
ATOM      1  C1  I4B d   1       0.373  -0.373   0.389  0.00  0.00    -0.075 A 
ATOM      2  C2  I4B d   1      -0.900   0.108   0.208  0.00  0.00     0.003 A 
ATOM      3  C3  I4B d   1      -1.161   1.494   0.326  0.00  0.00     0.002 A 
ATOM      4  C4  I4B d   1      -0.138   2.352   0.673  0.00  0.00    -0.004 A 
ATOM      5  C5  I4B d   1       1.157   1.865   0.834  0.00  0.00     0.002 A 
ATOM      6  C6  I4B d   1       1.416   0.496   0.679  0.00  0.00     0.003 A 
ENDROOT
BRANCH   1   7
ATOM      7  C1' I4B d   1       0.607  -1.847   0.290  0.00  0.00     0.060 C 
BRANCH   7   8
ATOM      8  C2' I4B d   1      -0.410  -2.418  -0.677  0.00  0.00    -0.013 C 
ATOM      9  C4' I4B d   1       0.263  -3.113  -1.831  0.00  0.00     0.013 C 
ATOM     10  C3' I4B d   1      -1.292  -3.363   0.084  0.00  0.00     0.013 C 
ENDBRANCH   7   8
ENDBRANCH   1   7
TORSDOF 2
ENDMDL
