MODEL 1
REMARK minimizedAffinity 0.970326006
REMARK minimizedRMSD -1
REMARK  2 active torsions:
REMARK  status: ('A' for Active; 'I' for Inactive)
REMARK    1  A    between atoms: C2'_3  and  C1'_4 
REMARK    2  A    between atoms: C1'_4  and  C1_5 
ROOT
ATOM      1  C1  I4B d   1      -0.016  -1.154  -0.465  0.00  0.00    -0.075 A 
ATOM      2  C2  I4B d   1       0.536  -0.621   0.673  0.00  0.00     0.003 A 
ATOM      3  C3  I4B d   1       1.914  -0.296   0.712  0.00  0.00     0.002 A 
ATOM      4  C4  I4B d   1       2.707  -0.566  -0.384  0.00  0.00    -0.004 A 
ATOM      5  C5  I4B d   1       2.141  -1.086  -1.545  0.00  0.00     0.002 A 
ATOM      6  C6  I4B d   1       0.769  -1.370  -1.590  0.00  0.00     0.003 A 
ENDROOT
BRANCH   1   7
ATOM      7  C1' I4B d   1      -1.468  -1.516  -0.461  0.00  0.00     0.060 C 
BRANCH   7   8
ATOM      8  C2' I4B d   1      -1.574  -3.022  -0.584  0.00  0.00    -0.013 C 
ATOM      9  C4' I4B d   1      -2.899  -3.519  -0.071  0.00  0.00     0.013 C 
ATOM     10  C3' I4B d   1      -1.381  -3.383  -2.027  0.00  0.00     0.013 C 
ENDBRANCH   7   8
ENDBRANCH   1   7
TORSDOF 2
ENDMDL
