MODEL 1
REMARK minimizedAffinity -5.54276514
REMARK minimizedRMSD -1
REMARK  2 active torsions:
REMARK  status: ('A' for Active; 'I' for Inactive)
REMARK    1  A    between atoms: C2'_3  and  C1'_4 
REMARK    2  A    between atoms: C1'_4  and  C1_5 
ROOT
ATOM      1  C1  I4B d   1       0.532  -0.327   0.356  0.00  0.00    -0.075 A 
ATOM      2  C2  I4B d   1       1.600   0.500   0.602  0.00  0.00     0.003 A 
ATOM      3  C3  I4B d   1       1.388   1.867   0.903  0.00  0.00     0.002 A 
ATOM      4  C4  I4B d   1       0.105   2.374   0.896  0.00  0.00    -0.004 A 
ATOM      5  C5  I4B d   1      -0.978   1.529   0.669  0.00  0.00     0.002 A 
ATOM      6  C6  I4B d   1      -0.764   0.168   0.409  0.00  0.00     0.003 A 
ENDROOT
BRANCH   1   7
ATOM      7  C1' I4B d   1       0.794  -1.758   0.010  0.00  0.00     0.060 C 
BRANCH   7   8
ATOM      8  C2' I4B d   1      -0.109  -2.131  -1.148  0.00  0.00    -0.013 C 
ATOM      9  C4' I4B d   1       0.691  -2.439  -2.386  0.00  0.00     0.013 C 
ATOM     10  C3' I4B d   1      -0.935  -3.311  -0.730  0.00  0.00     0.013 C 
ENDBRANCH   7   8
ENDBRANCH   1   7
TORSDOF 2
ENDMDL
