MODEL 1
REMARK minimizedAffinity -3.21536565
REMARK minimizedRMSD -1
REMARK  2 active torsions:
REMARK  status: ('A' for Active; 'I' for Inactive)
REMARK    1  A    between atoms: C2'_3  and  C1'_4 
REMARK    2  A    between atoms: C1'_4  and  C1_5 
ROOT
ATOM      1  C1  I4B d   1      -0.369  -2.216  -0.313  0.00  0.00    -0.075 A 
ATOM      2  C2  I4B d   1      -1.167  -3.305  -0.064  0.00  0.00     0.003 A 
ATOM      3  C3  I4B d   1      -1.413  -4.256  -1.084  0.00  0.00     0.002 A 
ATOM      4  C4  I4B d   1      -0.886  -4.054  -2.343  0.00  0.00    -0.004 A 
ATOM      5  C5  I4B d   1      -0.058  -2.962  -2.587  0.00  0.00     0.002 A 
ATOM      6  C6  I4B d   1       0.212  -2.043  -1.562  0.00  0.00     0.003 A 
ENDROOT
BRANCH   1   7
ATOM      7  C1' I4B d   1      -0.157  -1.214   0.778  0.00  0.00     0.060 C 
BRANCH   7   8
ATOM      8  C2' I4B d   1       0.462   0.023   0.160  0.00  0.00    -0.013 C 
ATOM      9  C4' I4B d   1      -0.333   1.257   0.499  0.00  0.00     0.013 C 
ATOM     10  C3' I4B d   1       1.872   0.134   0.659  0.00  0.00     0.013 C 
ENDBRANCH   7   8
ENDBRANCH   1   7
TORSDOF 2
ENDMDL
