MODEL 1
REMARK minimizedAffinity -4.34664726
REMARK minimizedRMSD -1
REMARK  2 active torsions:
REMARK  status: ('A' for Active; 'I' for Inactive)
REMARK    1  A    between atoms: C2'_3  and  C1'_4 
REMARK    2  A    between atoms: C1'_4  and  C1_5 
ROOT
ATOM      1  C1  I4B d   1       0.361   1.783  -0.272  0.00  0.00    -0.075 A 
ATOM      2  C2  I4B d   1       0.281   3.147  -0.137  0.00  0.00     0.003 A 
ATOM      3  C3  I4B d   1       1.450   3.910   0.100  0.00  0.00     0.002 A 
ATOM      4  C4  I4B d   1       2.663   3.268   0.244  0.00  0.00    -0.004 A 
ATOM      5  C5  I4B d   1       2.746   1.888   0.084  0.00  0.00     0.002 A 
ATOM      6  C6  I4B d   1       1.590   1.142  -0.188  0.00  0.00     0.003 A 
ENDROOT
BRANCH   1   7
ATOM      7  C1' I4B d   1      -0.897   1.005  -0.488  0.00  0.00     0.060 C 
BRANCH   7   8
ATOM      8  C2' I4B d   1      -1.297   0.386   0.836  0.00  0.00    -0.013 C 
ATOM      9  C4' I4B d   1      -2.738   0.680   1.162  0.00  0.00     0.013 C 
ATOM     10  C3' I4B d   1      -1.052  -1.091   0.750  0.00  0.00     0.013 C 
ENDBRANCH   7   8
ENDBRANCH   1   7
TORSDOF 2
ENDMDL
