MODEL 1
REMARK minimizedAffinity -5.93767548
REMARK minimizedRMSD -1
REMARK  2 active torsions:
REMARK  status: ('A' for Active; 'I' for Inactive)
REMARK    1  A    between atoms: C2'_3  and  C1'_4 
REMARK    2  A    between atoms: C1'_4  and  C1_5 
ROOT
ATOM      1  C1  I4B d   1       0.689   1.247   0.265  0.00  0.00    -0.075 A 
ATOM      2  C2  I4B d   1       1.893   1.893   0.398  0.00  0.00     0.003 A 
ATOM      3  C3  I4B d   1       1.966   3.301   0.263  0.00  0.00     0.002 A 
ATOM      4  C4  I4B d   1       0.827   4.013  -0.053  0.00  0.00    -0.004 A 
ATOM      5  C5  I4B d   1      -0.397   3.359  -0.164  0.00  0.00     0.002 A 
ATOM      6  C6  I4B d   1      -0.469   1.969   0.008  0.00  0.00     0.003 A 
ENDROOT
BRANCH   1   7
ATOM      7  C1' I4B d   1       0.654  -0.244   0.381  0.00  0.00     0.060 C 
BRANCH   7   8
ATOM      8  C2' I4B d   1       1.808  -0.802  -0.426  0.00  0.00    -0.013 C 
ATOM      9  C4' I4B d   1       2.891  -1.342   0.471  0.00  0.00     0.013 C 
ATOM     10  C3' I4B d   1       1.268  -1.872  -1.327  0.00  0.00     0.013 C 
ENDBRANCH   7   8
ENDBRANCH   1   7
TORSDOF 2
ENDMDL
