MODEL 1
REMARK minimizedAffinity -5.25364685
REMARK minimizedRMSD -1
REMARK  2 active torsions:
REMARK  status: ('A' for Active; 'I' for Inactive)
REMARK    1  A    between atoms: C2'_3  and  C1'_4 
REMARK    2  A    between atoms: C1'_4  and  C1_5 
ROOT
ATOM      1  C1  I4B d   1       0.031   1.007   0.241  0.00  0.00    -0.075 A 
ATOM      2  C2  I4B d   1      -0.837   2.054   0.427  0.00  0.00     0.003 A 
ATOM      3  C3  I4B d   1      -0.355   3.385   0.446  0.00  0.00     0.002 A 
ATOM      4  C4  I4B d   1       0.999   3.619   0.327  0.00  0.00    -0.004 A 
ATOM      5  C5  I4B d   1       1.876   2.558   0.115  0.00  0.00     0.002 A 
ATOM      6  C6  I4B d   1       1.387   1.245   0.060  0.00  0.00     0.003 A 
ENDROOT
BRANCH   1   7
ATOM      7  C1' I4B d   1      -0.508  -0.388   0.260  0.00  0.00     0.060 C 
BRANCH   7   8
ATOM      8  C2' I4B d   1       0.592  -1.320  -0.208  0.00  0.00    -0.013 C 
ATOM      9  C4' I4B d   1       1.542  -1.648   0.913  0.00  0.00     0.013 C 
ATOM     10  C3' I4B d   1      -0.052  -2.560  -0.753  0.00  0.00     0.013 C 
ENDBRANCH   7   8
ENDBRANCH   1   7
TORSDOF 2
ENDMDL
