MODEL 1
REMARK minimizedAffinity -0.290682346
REMARK minimizedRMSD -1
REMARK  2 active torsions:
REMARK  status: ('A' for Active; 'I' for Inactive)
REMARK    1  A    between atoms: C1_2  and  C2_3 
REMARK    2  A    between atoms: C2_3  and  C3_4 
ROOT
ATOM      1  C3  UNL d   1      -0.617  -0.449   2.916  0.00  0.00    -0.075 A 
ATOM      2  C4  UNL d   1      -1.643  -1.311   3.326  0.00  0.00     0.002 A 
ATOM      3  C5  UNL d   1      -1.346  -2.499   3.994  0.00  0.00     0.002 A 
ATOM      4  C6  UNL d   1      -0.021  -2.845   4.251  0.00  0.00    -0.004 A 
ATOM      5  C7  UNL d   1       1.008  -2.004   3.833  0.00  0.00     0.002 A 
ATOM      6  C8  UNL d   1       0.713  -0.812   3.168  0.00  0.00     0.002 A 
ENDROOT
BRANCH   1   7
ATOM      7  C2  UNL d   1      -0.933   0.852   2.218  0.00  0.00     0.056 C 
BRANCH   7   8
ATOM      8  C1  UNL d   1      -0.594   0.858   0.724  0.00  0.00     0.007 C 
ATOM      9  C   UNL d   1      -1.650   0.174  -0.134  0.00  0.00     0.009 C 
ENDBRANCH   7   8
ENDBRANCH   1   7
TORSDOF 2
ENDMDL
