MODEL 1
REMARK minimizedAffinity -1.92199767
REMARK minimizedRMSD -1
REMARK  2 active torsions:
REMARK  status: ('A' for Active; 'I' for Inactive)
REMARK    1  A    between atoms: C1_2  and  C2_3 
REMARK    2  A    between atoms: C2_3  and  C3_4 
ROOT
ATOM      1  C3  UNL d   1      -1.022  -0.992   2.161  0.00  0.00    -0.075 A 
ATOM      2  C4  UNL d   1       0.180  -0.271   2.222  0.00  0.00     0.002 A 
ATOM      3  C5  UNL d   1       1.238  -0.724   3.011  0.00  0.00     0.002 A 
ATOM      4  C6  UNL d   1       1.105  -1.894   3.755  0.00  0.00    -0.004 A 
ATOM      5  C7  UNL d   1      -0.090  -2.609   3.715  0.00  0.00     0.002 A 
ATOM      6  C8  UNL d   1      -1.149  -2.162   2.922  0.00  0.00     0.002 A 
ENDROOT
BRANCH   1   7
ATOM      7  C2  UNL d   1      -2.160  -0.524   1.286  0.00  0.00     0.056 C 
BRANCH   7   8
ATOM      8  C1  UNL d   1      -1.713   0.066  -0.056  0.00  0.00     0.007 C 
ATOM      9  C   UNL d   1      -1.664  -0.962  -1.178  0.00  0.00     0.009 C 
ENDBRANCH   7   8
ENDBRANCH   1   7
TORSDOF 2
ENDMDL
