MODEL 1
REMARK minimizedAffinity 2.81302309
REMARK minimizedRMSD -1
REMARK  2 active torsions:
REMARK  status: ('A' for Active; 'I' for Inactive)
REMARK    1  A    between atoms: C1_2  and  C2_3 
REMARK    2  A    between atoms: C2_3  and  C3_4 
ROOT
ATOM      1  C3  UNL d   1      -0.329  -1.360   2.830  0.00  0.00    -0.075 A 
ATOM      2  C4  UNL d   1      -0.389  -2.424   3.741  0.00  0.00     0.002 A 
ATOM      3  C5  UNL d   1       0.778  -2.936   4.310  0.00  0.00     0.002 A 
ATOM      4  C6  UNL d   1       2.017  -2.399   3.968  0.00  0.00    -0.004 A 
ATOM      5  C7  UNL d   1       2.089  -1.352   3.051  0.00  0.00     0.002 A 
ATOM      6  C8  UNL d   1       0.923  -0.835   2.484  0.00  0.00     0.002 A 
ENDROOT
BRANCH   1   7
ATOM      7  C2  UNL d   1      -1.590  -0.782   2.233  0.00  0.00     0.056 C 
BRANCH   7   8
ATOM      8  C1  UNL d   1      -1.618   0.750   2.197  0.00  0.00     0.007 C 
ATOM      9  C   UNL d   1      -2.510   1.308   1.097  0.00  0.00     0.009 C 
ENDBRANCH   7   8
ENDBRANCH   1   7
TORSDOF 2
ENDMDL
