MODEL 1
REMARK minimizedAffinity 2.93354797
REMARK minimizedRMSD -1
REMARK  2 active torsions:
REMARK  status: ('A' for Active; 'I' for Inactive)
REMARK    1  A    between atoms: C1_2  and  C2_3 
REMARK    2  A    between atoms: C2_3  and  C3_4 
ROOT
ATOM      1  C3  UNL d   1       0.915  -1.021   3.010  0.00  0.00    -0.075 A 
ATOM      2  C4  UNL d   1       0.499  -2.048   3.870  0.00  0.00     0.002 A 
ATOM      3  C5  UNL d   1       1.256  -2.381   4.993  0.00  0.00     0.002 A 
ATOM      4  C6  UNL d   1       2.442  -1.701   5.265  0.00  0.00    -0.004 A 
ATOM      5  C7  UNL d   1       2.873  -0.691   4.408  0.00  0.00     0.002 A 
ATOM      6  C8  UNL d   1       2.115  -0.352   3.286  0.00  0.00     0.002 A 
ENDROOT
BRANCH   1   7
ATOM      7  C2  UNL d   1       0.085  -0.636   1.809  0.00  0.00     0.056 C 
BRANCH   7   8
ATOM      8  C1  UNL d   1      -1.375  -0.307   2.139  0.00  0.00     0.007 C 
ATOM      9  C   UNL d   1      -1.831   1.032   1.576  0.00  0.00     0.009 C 
ENDBRANCH   7   8
ENDBRANCH   1   7
TORSDOF 2
ENDMDL
