MODEL 1
REMARK minimizedAffinity -0.322894812
REMARK minimizedRMSD -1
REMARK  2 active torsions:
REMARK  status: ('A' for Active; 'I' for Inactive)
REMARK    1  A    between atoms: C1_2  and  C2_3 
REMARK    2  A    between atoms: C2_3  and  C3_4 
ROOT
ATOM      1  C3  UNL d   1       0.621  -1.056   2.983  0.00  0.00    -0.075 A 
ATOM      2  C4  UNL d   1       0.946  -0.220   1.906  0.00  0.00     0.002 A 
ATOM      3  C5  UNL d   1      -0.052   0.477   1.224  0.00  0.00     0.002 A 
ATOM      4  C6  UNL d   1      -1.386   0.339   1.604  0.00  0.00    -0.004 A 
ATOM      5  C7  UNL d   1      -1.722  -0.502   2.662  0.00  0.00     0.002 A 
ATOM      6  C8  UNL d   1      -0.725  -1.197   3.349  0.00  0.00     0.002 A 
ENDROOT
BRANCH   1   7
ATOM      7  C2  UNL d   1       1.699  -1.791   3.744  0.00  0.00     0.056 C 
BRANCH   7   8
ATOM      8  C1  UNL d   1       1.377  -2.013   5.225  0.00  0.00     0.007 C 
ATOM      9  C   UNL d   1       1.182  -0.715   5.999  0.00  0.00     0.009 C 
ENDBRANCH   7   8
ENDBRANCH   1   7
TORSDOF 2
ENDMDL
