MODEL 1
REMARK minimizedAffinity 2.63344908
REMARK minimizedRMSD -1
REMARK  2 active torsions:
REMARK  status: ('A' for Active; 'I' for Inactive)
REMARK    1  A    between atoms: C1_2  and  C2_3 
REMARK    2  A    between atoms: C2_3  and  C3_4 
ROOT
ATOM      1  C3  UNL d   1      -0.750  -3.846  -4.539  0.00  0.00    -0.075 A 
ATOM      2  C4  UNL d   1      -0.401  -3.854  -3.181  0.00  0.00     0.002 A 
ATOM      3  C5  UNL d   1       0.324  -4.917  -2.641  0.00  0.00     0.002 A 
ATOM      4  C6  UNL d   1       0.699  -5.989  -3.448  0.00  0.00    -0.004 A 
ATOM      5  C7  UNL d   1       0.343  -6.000  -4.795  0.00  0.00     0.002 A 
ATOM      6  C8  UNL d   1      -0.378  -4.935  -5.339  0.00  0.00     0.002 A 
ENDROOT
BRANCH   1   7
ATOM      7  C2  UNL d   1      -1.509  -2.685  -5.135  0.00  0.00     0.056 C 
BRANCH   7   8
ATOM      8  C1  UNL d   1      -1.681  -1.497  -4.182  0.00  0.00     0.007 C 
ATOM      9  C   UNL d   1      -1.498  -0.148  -4.865  0.00  0.00     0.009 C 
ENDBRANCH   7   8
ENDBRANCH   1   7
TORSDOF 2
ENDMDL
