MODEL 1
REMARK minimizedAffinity 5.75295734
REMARK minimizedRMSD -1
REMARK  2 active torsions:
REMARK  status: ('A' for Active; 'I' for Inactive)
REMARK    1  A    between atoms: C1_2  and  C2_3 
REMARK    2  A    between atoms: C2_3  and  C3_4 
ROOT
ATOM      1  C3  UNL d   1      -0.138   0.061   2.310  0.00  0.00    -0.075 A 
ATOM      2  C4  UNL d   1      -0.361  -0.187   3.672  0.00  0.00     0.002 A 
ATOM      3  C5  UNL d   1       0.542  -0.952   4.411  0.00  0.00     0.002 A 
ATOM      4  C6  UNL d   1       1.672  -1.487   3.796  0.00  0.00    -0.004 A 
ATOM      5  C7  UNL d   1       1.896  -1.261   2.440  0.00  0.00     0.002 A 
ATOM      6  C8  UNL d   1       0.996  -0.492   1.699  0.00  0.00     0.002 A 
ENDROOT
BRANCH   1   7
ATOM      7  C2  UNL d   1      -1.096   0.913   1.512  0.00  0.00     0.056 C 
BRANCH   7   8
ATOM      8  C1  UNL d   1      -2.277   0.136   0.921  0.00  0.00     0.007 C 
ATOM      9  C   UNL d   1      -3.018   0.905  -0.165  0.00  0.00     0.009 C 
ENDBRANCH   7   8
ENDBRANCH   1   7
TORSDOF 2
ENDMDL
