MODEL 1
REMARK minimizedAffinity 0.0326952338
REMARK minimizedRMSD -1
REMARK  2 active torsions:
REMARK  status: ('A' for Active; 'I' for Inactive)
REMARK    1  A    between atoms: C1_2  and  C2_3 
REMARK    2  A    between atoms: C2_3  and  C3_4 
ROOT
ATOM      1  C3  UNL d   1       3.599   1.694   2.445  0.00  0.00    -0.075 A 
ATOM      2  C4  UNL d   1       4.260   1.701   3.682  0.00  0.00     0.002 A 
ATOM      3  C5  UNL d   1       4.009   0.704   4.625  0.00  0.00     0.002 A 
ATOM      4  C6  UNL d   1       3.090  -0.305   4.348  0.00  0.00    -0.004 A 
ATOM      5  C7  UNL d   1       2.416  -0.313   3.129  0.00  0.00     0.002 A 
ATOM      6  C8  UNL d   1       2.667   0.681   2.182  0.00  0.00     0.002 A 
ENDROOT
BRANCH   1   7
ATOM      7  C2  UNL d   1       3.888   2.753   1.408  0.00  0.00     0.056 C 
BRANCH   7   8
ATOM      8  C1  UNL d   1       3.295   4.127   1.739  0.00  0.00     0.007 C 
ATOM      9  C   UNL d   1       3.408   5.122   0.592  0.00  0.00     0.009 C 
ENDBRANCH   7   8
ENDBRANCH   1   7
TORSDOF 2
ENDMDL
