MODEL 1
REMARK minimizedAffinity 2.66342211
REMARK minimizedRMSD -1
REMARK  2 active torsions:
REMARK  status: ('A' for Active; 'I' for Inactive)
REMARK    1  A    between atoms: C1_2  and  C2_3 
REMARK    2  A    between atoms: C2_3  and  C3_4 
ROOT
ATOM      1  C3  UNL d   1      -1.266  -0.159   1.222  0.00  0.00    -0.075 A 
ATOM      2  C4  UNL d   1      -1.658   1.138   0.860  0.00  0.00     0.002 A 
ATOM      3  C5  UNL d   1      -2.403   1.355  -0.299  0.00  0.00     0.002 A 
ATOM      4  C6  UNL d   1      -2.757   0.283  -1.115  0.00  0.00    -0.004 A 
ATOM      5  C7  UNL d   1      -2.359  -1.008  -0.774  0.00  0.00     0.002 A 
ATOM      6  C8  UNL d   1      -1.617  -1.229   0.388  0.00  0.00     0.002 A 
ENDROOT
BRANCH   1   7
ATOM      7  C2  UNL d   1      -0.485  -0.405   2.490  0.00  0.00     0.056 C 
BRANCH   7   8
ATOM      8  C1  UNL d   1       0.902  -1.015   2.260  0.00  0.00     0.007 C 
ATOM      9  C   UNL d   1       1.554  -1.523   3.539  0.00  0.00     0.009 C 
ENDBRANCH   7   8
ENDBRANCH   1   7
TORSDOF 2
ENDMDL
