MODEL 1
REMARK minimizedAffinity -2.18617797
REMARK minimizedRMSD -1
REMARK  2 active torsions:
REMARK  status: ('A' for Active; 'I' for Inactive)
REMARK    1  A    between atoms: C1_2  and  C2_3 
REMARK    2  A    between atoms: C2_3  and  C3_4 
ROOT
ATOM      1  C3  UNL d   1       1.310  -0.816   3.534  0.00  0.00    -0.075 A 
ATOM      2  C4  UNL d   1       2.295  -0.301   4.389  0.00  0.00     0.002 A 
ATOM      3  C5  UNL d   1       2.948  -1.133   5.299  0.00  0.00     0.002 A 
ATOM      4  C6  UNL d   1       2.619  -2.485   5.372  0.00  0.00    -0.004 A 
ATOM      5  C7  UNL d   1       1.630  -3.003   4.539  0.00  0.00     0.002 A 
ATOM      6  C8  UNL d   1       0.978  -2.174   3.624  0.00  0.00     0.002 A 
ENDROOT
BRANCH   1   7
ATOM      7  C2  UNL d   1       0.620   0.073   2.527  0.00  0.00     0.056 C 
BRANCH   7   8
ATOM      8  C1  UNL d   1      -0.768  -0.421   2.106  0.00  0.00     0.007 C 
ATOM      9  C   UNL d   1      -1.636   0.673   1.498  0.00  0.00     0.009 C 
ENDBRANCH   7   8
ENDBRANCH   1   7
TORSDOF 2
ENDMDL
