MODEL 1
REMARK minimizedAffinity 2.51940775
REMARK minimizedRMSD -1
REMARK  0 active torsions:
REMARK  status: ('A' for Active; 'I' for Inactive)
ROOT
ATOM      1  C   UNL d   1       1.612  -1.207   4.875  0.00  0.00     0.078 C 
ATOM      2  C1  UNL d   1       1.117  -0.004   4.128  0.00  0.00    -0.077 A 
ATOM      3  C2  UNL d   1      -0.154   0.527   4.376  0.00  0.00    -0.001 A 
ATOM      4  C3  UNL d   1      -0.605   1.641   3.666  0.00  0.00     0.003 A 
ATOM      5  C4  UNL d   1       0.209   2.232   2.702  0.00  0.00    -0.005 A 
ATOM      6  C5  UNL d   1       1.475   1.709   2.447  0.00  0.00     0.003 A 
ATOM      7  C6  UNL d   1       1.928   0.596   3.156  0.00  0.00    -0.001 A 
ENDROOT
TORSDOF 0
ENDMDL
