MODEL 1
REMARK minimizedAffinity 7.82965851
REMARK minimizedRMSD -1
REMARK  0 active torsions:
REMARK  status: ('A' for Active; 'I' for Inactive)
ROOT
ATOM      1  C   UNL d   1      -2.788  -0.906  -2.253  0.00  0.00     0.078 C 
ATOM      2  C1  UNL d   1      -2.067  -2.159  -1.852  0.00  0.00    -0.077 A 
ATOM      3  C2  UNL d   1      -2.336  -3.379  -2.484  0.00  0.00    -0.001 A 
ATOM      4  C3  UNL d   1      -1.664  -4.539  -2.095  0.00  0.00     0.003 A 
ATOM      5  C4  UNL d   1      -0.720  -4.490  -1.071  0.00  0.00    -0.005 A 
ATOM      6  C5  UNL d   1      -0.447  -3.281  -0.435  0.00  0.00     0.003 A 
ATOM      7  C6  UNL d   1      -1.118  -2.120  -0.823  0.00  0.00    -0.001 A 
ENDROOT
TORSDOF 0
ENDMDL
