MODEL 1
REMARK minimizedAffinity 2.69156694
REMARK minimizedRMSD -1
REMARK  0 active torsions:
REMARK  status: ('A' for Active; 'I' for Inactive)
ROOT
ATOM      1  C   UNL d   1      -1.283  -2.878   0.910  0.00  0.00     0.078 C 
ATOM      2  C1  UNL d   1      -0.836  -1.526   0.440  0.00  0.00    -0.077 A 
ATOM      3  C2  UNL d   1      -1.745  -0.621  -0.122  0.00  0.00    -0.001 A 
ATOM      4  C3  UNL d   1      -1.314   0.630  -0.565  0.00  0.00     0.003 A 
ATOM      5  C4  UNL d   1       0.028   0.988  -0.452  0.00  0.00    -0.005 A 
ATOM      6  C5  UNL d   1       0.941   0.094   0.104  0.00  0.00     0.003 A 
ATOM      7  C6  UNL d   1       0.511  -1.158   0.547  0.00  0.00    -0.001 A 
ENDROOT
TORSDOF 0
ENDMDL
