MODEL 1
REMARK minimizedAffinity -1.48539352
REMARK minimizedRMSD -1
REMARK  0 active torsions:
REMARK  status: ('A' for Active; 'I' for Inactive)
ROOT
ATOM      1  C   UNL d   1      -5.949   2.934  -2.280  0.00  0.00     0.078 C 
ATOM      2  C1  UNL d   1      -5.959   3.696  -3.571  0.00  0.00    -0.077 A 
ATOM      3  C2  UNL d   1      -5.970   5.096  -3.583  0.00  0.00    -0.001 A 
ATOM      4  C3  UNL d   1      -5.989   5.792  -4.793  0.00  0.00     0.003 A 
ATOM      5  C4  UNL d   1      -6.000   5.096  -6.000  0.00  0.00    -0.005 A 
ATOM      6  C5  UNL d   1      -5.991   3.703  -5.999  0.00  0.00     0.003 A 
ATOM      7  C6  UNL d   1      -5.972   3.005  -4.790  0.00  0.00    -0.001 A 
ENDROOT
TORSDOF 0
ENDMDL
