MODEL 1
REMARK minimizedAffinity 2.18338013
REMARK minimizedRMSD -1
REMARK  0 active torsions:
REMARK  status: ('A' for Active; 'I' for Inactive)
ROOT
ATOM      1  C   UNL d   1      -4.775  -0.309   0.698  0.00  0.00     0.078 C 
ATOM      2  C1  UNL d   1      -3.317  -0.198   0.365  0.00  0.00    -0.077 A 
ATOM      3  C2  UNL d   1      -2.755   1.027  -0.012  0.00  0.00    -0.001 A 
ATOM      4  C3  UNL d   1      -1.398   1.113  -0.329  0.00  0.00     0.003 A 
ATOM      5  C4  UNL d   1      -0.593  -0.022  -0.273  0.00  0.00    -0.005 A 
ATOM      6  C5  UNL d   1      -1.144  -1.247   0.099  0.00  0.00     0.003 A 
ATOM      7  C6  UNL d   1      -2.501  -1.335   0.417  0.00  0.00    -0.001 A 
ENDROOT
TORSDOF 0
ENDMDL
