MODEL 1
REMARK minimizedAffinity 3.83810735
REMARK minimizedRMSD -1
REMARK  0 active torsions:
REMARK  status: ('A' for Active; 'I' for Inactive)
ROOT
ATOM      1  C   UNL d   1      -5.241   5.988  -5.619  0.00  0.00     0.078 C 
ATOM      2  C1  UNL d   1      -4.782   5.812  -4.203  0.00  0.00    -0.077 A 
ATOM      3  C2  UNL d   1      -5.686   5.474  -3.188  0.00  0.00    -0.001 A 
ATOM      4  C3  UNL d   1      -5.246   5.323  -1.872  0.00  0.00     0.003 A 
ATOM      5  C4  UNL d   1      -3.901   5.509  -1.558  0.00  0.00    -0.005 A 
ATOM      6  C5  UNL d   1      -2.995   5.848  -2.561  0.00  0.00     0.003 A 
ATOM      7  C6  UNL d   1      -3.433   5.999  -3.877  0.00  0.00    -0.001 A 
ENDROOT
TORSDOF 0
ENDMDL
