MODEL 1
REMARK minimizedAffinity 6.30798435
REMARK minimizedRMSD -1
REMARK  0 active torsions:
REMARK  status: ('A' for Active; 'I' for Inactive)
ROOT
ATOM      1  C   UNL d   1      -4.950   2.584  -5.431  0.00  0.00     0.078 C 
ATOM      2  C1  UNL d   1      -4.903   1.086  -5.493  0.00  0.00    -0.077 A 
ATOM      3  C2  UNL d   1      -6.000   0.349  -5.956  0.00  0.00    -0.001 A 
ATOM      4  C3  UNL d   1      -5.946  -1.045  -6.000  0.00  0.00     0.003 A 
ATOM      5  C4  UNL d   1      -4.797  -1.714  -5.581  0.00  0.00    -0.005 A 
ATOM      6  C5  UNL d   1      -3.702  -0.989  -5.116  0.00  0.00     0.003 A 
ATOM      7  C6  UNL d   1      -3.754   0.405  -5.072  0.00  0.00    -0.001 A 
ENDROOT
TORSDOF 0
ENDMDL
