MODEL 1
REMARK minimizedAffinity 3.61736894
REMARK minimizedRMSD -1
REMARK  0 active torsions:
REMARK  status: ('A' for Active; 'I' for Inactive)
ROOT
ATOM      1  C   UNL d   1       2.997   2.388   4.015  0.00  0.00     0.078 C 
ATOM      2  C1  UNL d   1       3.006   0.928   3.674  0.00  0.00    -0.077 A 
ATOM      3  C2  UNL d   1       2.127   0.405   2.718  0.00  0.00    -0.001 A 
ATOM      4  C3  UNL d   1       2.140  -0.958   2.418  0.00  0.00     0.003 A 
ATOM      5  C4  UNL d   1       3.029  -1.810   3.070  0.00  0.00    -0.005 A 
ATOM      6  C5  UNL d   1       3.907  -1.299   4.024  0.00  0.00     0.003 A 
ATOM      7  C6  UNL d   1       3.895   0.064   4.326  0.00  0.00    -0.001 A 
ENDROOT
TORSDOF 0
ENDMDL
