MODEL 1
REMARK minimizedAffinity 4.83607006
REMARK minimizedRMSD -1
REMARK  0 active torsions:
REMARK  status: ('A' for Active; 'I' for Inactive)
ROOT
ATOM      1  O1  BZF d   1       2.157  -4.736  -4.059  0.00  0.00    -0.204 OA
ATOM      2  C2  BZF d   1       1.415  -5.438  -4.989  0.00  0.00     0.174 A 
ATOM      3  C3  BZF d   1       2.218  -5.998  -5.917  0.00  0.00    -0.012 A 
ATOM      4  C3A BZF d   1       3.551  -5.699  -5.491  0.00  0.00    -0.107 A 
ATOM      5  C4  BZF d   1       4.786  -5.999  -5.991  0.00  0.00     0.055 A 
ATOM      6  C5  BZF d   1       5.887  -5.495  -5.376  0.00  0.00    -0.016 A 
ATOM      7  C6  BZF d   1       5.791  -4.684  -4.264  0.00  0.00     0.022 A 
ATOM      8  C7  BZF d   1       4.588  -4.363  -3.729  0.00  0.00     0.029 A 
ATOM      9  C7A BZF d   1       3.474  -4.898  -4.328  0.00  0.00     0.058 A 
ENDROOT
TORSDOF 0
ENDMDL
