MODEL 1
REMARK minimizedAffinity 12.3766394
REMARK minimizedRMSD -1
REMARK  0 active torsions:
REMARK  status: ('A' for Active; 'I' for Inactive)
ROOT
ATOM      1  O1  BZF d   1       2.580   1.745   3.757  0.00  0.00    -0.204 OA
ATOM      2  C2  BZF d   1       3.923   2.052   3.655  0.00  0.00     0.174 A 
ATOM      3  C3  BZF d   1       4.230   2.448   2.403  0.00  0.00    -0.012 A 
ATOM      4  C3A BZF d   1       2.984   2.473   1.700  0.00  0.00    -0.107 A 
ATOM      5  C4  BZF d   1       2.634   2.800   0.421  0.00  0.00     0.055 A 
ATOM      6  C5  BZF d   1       1.342   2.647   0.031  0.00  0.00    -0.016 A 
ATOM      7  C6  BZF d   1       0.376   2.164   0.890  0.00  0.00     0.022 A 
ATOM      8  C7  BZF d   1       0.674   1.831   2.169  0.00  0.00     0.029 A 
ATOM      9  C7A BZF d   1       1.973   2.016   2.577  0.00  0.00     0.058 A 
ENDROOT
TORSDOF 0
ENDMDL
