MODEL 1
REMARK minimizedAffinity 10.0399876
REMARK minimizedRMSD -1
REMARK  0 active torsions:
REMARK  status: ('A' for Active; 'I' for Inactive)
ROOT
ATOM      1  O1  BZF d   1       3.793   2.361  -0.235  0.00  0.00    -0.204 OA
ATOM      2  C2  BZF d   1       4.982   2.692  -0.855  0.00  0.00     0.174 A 
ATOM      3  C3  BZF d   1       5.989   2.749   0.040  0.00  0.00    -0.012 A 
ATOM      4  C3A BZF d   1       5.410   2.343   1.284  0.00  0.00    -0.107 A 
ATOM      5  C4  BZF d   1       5.911   2.182   2.544  0.00  0.00     0.055 A 
ATOM      6  C5  BZF d   1       5.065   1.844   3.553  0.00  0.00    -0.016 A 
ATOM      7  C6  BZF d   1       3.714   1.665   3.338  0.00  0.00     0.022 A 
ATOM      8  C7  BZF d   1       3.172   1.809   2.104  0.00  0.00     0.029 A 
ATOM      9  C7A BZF d   1       4.030   2.117   1.077  0.00  0.00     0.058 A 
ENDROOT
TORSDOF 0
ENDMDL
