MODEL 1
REMARK minimizedAffinity 12.2330627
REMARK minimizedRMSD -1
REMARK  0 active torsions:
REMARK  status: ('A' for Active; 'I' for Inactive)
ROOT
ATOM      1  O1  BZF d   1       4.631  -5.969  -5.992  0.00  0.00    -0.204 OA
ATOM      2  C2  BZF d   1       5.601  -5.796  -5.024  0.00  0.00     0.174 A 
ATOM      3  C3  BZF d   1       5.039  -5.551  -3.822  0.00  0.00    -0.012 A 
ATOM      4  C3A BZF d   1       3.629  -5.664  -4.036  0.00  0.00    -0.107 A 
ATOM      5  C4  BZF d   1       2.543  -5.544  -3.218  0.00  0.00     0.055 A 
ATOM      6  C5  BZF d   1       1.298  -5.640  -3.754  0.00  0.00    -0.016 A 
ATOM      7  C6  BZF d   1       1.102  -5.850  -5.103  0.00  0.00     0.022 A 
ATOM      8  C7  BZF d   1       2.149  -5.980  -5.954  0.00  0.00     0.029 A 
ATOM      9  C7A BZF d   1       3.409  -5.916  -5.410  0.00  0.00     0.058 A 
ENDROOT
TORSDOF 0
ENDMDL
