MODEL 1
REMARK minimizedAffinity 5.80931997
REMARK minimizedRMSD -1
REMARK  0 active torsions:
REMARK  status: ('A' for Active; 'I' for Inactive)
ROOT
ATOM      1  O1  BZF d   1       1.241  -5.831  -4.714  0.00  0.00    -0.204 OA
ATOM      2  C2  BZF d   1       0.886  -5.208  -3.533  0.00  0.00     0.174 A 
ATOM      3  C3  BZF d   1       1.950  -4.597  -2.975  0.00  0.00    -0.012 A 
ATOM      4  C3A BZF d   1       3.019  -4.776  -3.909  0.00  0.00    -0.107 A 
ATOM      5  C4  BZF d   1       4.327  -4.381  -3.927  0.00  0.00     0.055 A 
ATOM      6  C5  BZF d   1       5.124  -4.782  -4.952  0.00  0.00    -0.016 A 
ATOM      7  C6  BZF d   1       4.649  -5.581  -5.972  0.00  0.00     0.022 A 
ATOM      8  C7  BZF d   1       3.358  -5.993  -6.000  0.00  0.00     0.029 A 
ATOM      9  C7A BZF d   1       2.542  -5.563  -4.983  0.00  0.00     0.058 A 
ENDROOT
TORSDOF 0
ENDMDL
