MODEL 1
REMARK minimizedAffinity 5.35550404
REMARK minimizedRMSD -1
REMARK  0 active torsions:
REMARK  status: ('A' for Active; 'I' for Inactive)
ROOT
ATOM      1  O1  BZF d   1       1.767   1.676   2.773  0.00  0.00    -0.204 OA
ATOM      2  C2  BZF d   1       2.804   1.917   1.893  0.00  0.00     0.174 A 
ATOM      3  C3  BZF d   1       2.335   2.370   0.713  0.00  0.00    -0.012 A 
ATOM      4  C3A BZF d   1       0.922   2.502   0.895  0.00  0.00    -0.107 A 
ATOM      5  C4  BZF d   1      -0.094   2.922   0.086  0.00  0.00     0.055 A 
ATOM      6  C5  BZF d   1      -1.372   2.861   0.543  0.00  0.00    -0.016 A 
ATOM      7  C6  BZF d   1      -1.670   2.380   1.801  0.00  0.00     0.022 A 
ATOM      8  C7  BZF d   1      -0.696   1.956   2.643  0.00  0.00     0.029 A 
ATOM      9  C7A BZF d   1       0.600   2.048   2.195  0.00  0.00     0.058 A 
ENDROOT
TORSDOF 0
ENDMDL
