MODEL 1
REMARK minimizedAffinity 10.6037235
REMARK minimizedRMSD -1
REMARK  0 active torsions:
REMARK  status: ('A' for Active; 'I' for Inactive)
ROOT
ATOM      1  O1  BZF d   1       1.974   0.205   1.541  0.00  0.00    -0.204 OA
ATOM      2  C2  BZF d   1       2.984   1.060   1.146  0.00  0.00     0.174 A 
ATOM      3  C3  BZF d   1       2.473   2.203   0.642  0.00  0.00    -0.012 A 
ATOM      4  C3A BZF d   1       1.057   2.090   0.814  0.00  0.00    -0.107 A 
ATOM      5  C4  BZF d   1       0.008   2.915   0.525  0.00  0.00     0.055 A 
ATOM      6  C5  BZF d   1      -1.258   2.477   0.751  0.00  0.00    -0.016 A 
ATOM      7  C6  BZF d   1      -1.511   1.220   1.261  0.00  0.00     0.022 A 
ATOM      8  C7  BZF d   1      -0.503   0.368   1.569  0.00  0.00     0.029 A 
ATOM      9  C7A BZF d   1       0.779   0.821   1.372  0.00  0.00     0.058 A 
ENDROOT
TORSDOF 0
ENDMDL
