MODEL 1
REMARK minimizedAffinity 10.1078043
REMARK minimizedRMSD -1
REMARK  0 active torsions:
REMARK  status: ('A' for Active; 'I' for Inactive)
ROOT
ATOM      1  O1  BZF d   1       2.241   1.779   3.007  0.00  0.00    -0.204 OA
ATOM      2  C2  BZF d   1       3.290   1.842   2.110  0.00  0.00     0.174 A 
ATOM      3  C3  BZF d   1       2.854   2.222   0.891  0.00  0.00    -0.012 A 
ATOM      4  C3A BZF d   1       1.460   2.497   1.059  0.00  0.00    -0.107 A 
ATOM      5  C4  BZF d   1       0.480   2.929   0.212  0.00  0.00     0.055 A 
ATOM      6  C5  BZF d   1      -0.795   3.026   0.672  0.00  0.00    -0.016 A 
ATOM      7  C6  BZF d   1      -1.126   2.694   1.969  0.00  0.00     0.022 A 
ATOM      8  C7  BZF d   1      -0.187   2.266   2.848  0.00  0.00     0.029 A 
ATOM      9  C7A BZF d   1       1.108   2.199   2.395  0.00  0.00     0.058 A 
ENDROOT
TORSDOF 0
ENDMDL
