MODEL 1
REMARK minimizedAffinity 4.06308317
REMARK minimizedRMSD -1
REMARK  0 active torsions:
REMARK  status: ('A' for Active; 'I' for Inactive)
ROOT
ATOM      1  O1  BZF d   1       2.058   3.587   0.619  0.00  0.00    -0.204 OA
ATOM      2  C2  BZF d   1       1.359   2.495   1.095  0.00  0.00     0.174 A 
ATOM      3  C3  BZF d   1       2.204   1.519   1.485  0.00  0.00    -0.012 A 
ATOM      4  C3A BZF d   1       3.515   2.069   1.323  0.00  0.00    -0.107 A 
ATOM      5  C4  BZF d   1       4.771   1.588   1.558  0.00  0.00     0.055 A 
ATOM      6  C5  BZF d   1       5.844   2.352   1.224  0.00  0.00    -0.016 A 
ATOM      7  C6  BZF d   1       5.698   3.597   0.650  0.00  0.00     0.022 A 
ATOM      8  C7  BZF d   1       4.472   4.120   0.402  0.00  0.00     0.029 A 
ATOM      9  C7A BZF d   1       3.386   3.364   0.769  0.00  0.00     0.058 A 
ENDROOT
TORSDOF 0
ENDMDL
