MODEL 1
REMARK minimizedAffinity 18.0184059
REMARK minimizedRMSD -1
REMARK  0 active torsions:
REMARK  status: ('A' for Active; 'I' for Inactive)
ROOT
ATOM      1  O1  BZF d   1      -1.931   2.964   1.143  0.00  0.00    -0.204 OA
ATOM      2  C2  BZF d   1      -2.312   2.265   2.272  0.00  0.00     0.174 A 
ATOM      3  C3  BZF d   1      -1.240   1.719   2.882  0.00  0.00    -0.012 A 
ATOM      4  C3A BZF d   1      -0.109   2.178   2.135  0.00  0.00    -0.107 A 
ATOM      5  C4  BZF d   1       1.238   1.988   2.260  0.00  0.00     0.055 A 
ATOM      6  C5  BZF d   1       2.068   2.515   1.323  0.00  0.00    -0.016 A 
ATOM      7  C6  BZF d   1       1.587   3.232   0.247  0.00  0.00     0.022 A 
ATOM      8  C7  BZF d   1       0.260   3.451   0.084  0.00  0.00     0.029 A 
ATOM      9  C7A BZF d   1      -0.580   2.948   1.047  0.00  0.00     0.058 A 
ENDROOT
TORSDOF 0
ENDMDL
