MODEL 1
REMARK minimizedAffinity 1.816131
REMARK minimizedRMSD -1
REMARK  0 active torsions:
REMARK  status: ('A' for Active; 'I' for Inactive)
ROOT
ATOM      1  O1  BZF d   1       4.125   2.920   3.000  0.00  0.00    -0.204 OA
ATOM      2  C2  BZF d   1       4.088   1.756   3.742  0.00  0.00     0.174 A 
ATOM      3  C3  BZF d   1       4.607   1.955   4.970  0.00  0.00    -0.012 A 
ATOM      4  C3A BZF d   1       4.908   3.352   5.030  0.00  0.00    -0.107 A 
ATOM      5  C4  BZF d   1       5.431   4.159   6.000  0.00  0.00     0.055 A 
ATOM      6  C5  BZF d   1       5.666   5.467   5.714  0.00  0.00    -0.016 A 
ATOM      7  C6  BZF d   1       5.396   5.999   4.470  0.00  0.00     0.022 A 
ATOM      8  C7  BZF d   1       4.872   5.238   3.478  0.00  0.00     0.029 A 
ATOM      9  C7A BZF d   1       4.603   3.924   3.774  0.00  0.00     0.058 A 
ENDROOT
TORSDOF 0
ENDMDL
