MODEL 1
REMARK minimizedAffinity 12.6410084
REMARK minimizedRMSD -1
REMARK  0 active torsions:
REMARK  status: ('A' for Active; 'I' for Inactive)
ROOT
ATOM      1  O1  BZF d   1       2.924   1.099   5.070  0.00  0.00    -0.204 OA
ATOM      2  C2  BZF d   1       4.209   1.602   5.129  0.00  0.00     0.174 A 
ATOM      3  C3  BZF d   1       4.659   1.909   3.895  0.00  0.00    -0.012 A 
ATOM      4  C3A BZF d   1       3.555   1.664   3.019  0.00  0.00    -0.107 A 
ATOM      5  C4  BZF d   1       3.377   1.797   1.672  0.00  0.00     0.055 A 
ATOM      6  C5  BZF d   1       2.201   1.402   1.118  0.00  0.00    -0.016 A 
ATOM      7  C6  BZF d   1       1.184   0.866   1.880  0.00  0.00     0.022 A 
ATOM      8  C7  BZF d   1       1.311   0.718   3.222  0.00  0.00     0.029 A 
ATOM      9  C7A BZF d   1       2.487   1.147   3.789  0.00  0.00     0.058 A 
ENDROOT
TORSDOF 0
ENDMDL
