MODEL 1
REMARK minimizedAffinity -3.49183798
REMARK minimizedRMSD -1
REMARK  0 active torsions:
REMARK  status: ('A' for Active; 'I' for Inactive)
ROOT
ATOM      1  O1  BZF d   1       3.171   3.617  -5.859  0.00  0.00    -0.204 OA
ATOM      2  C2  BZF d   1       4.139   3.647  -4.874  0.00  0.00     0.174 A 
ATOM      3  C3  BZF d   1       3.702   3.033  -3.756  0.00  0.00    -0.012 A 
ATOM      4  C3A BZF d   1       2.413   2.511  -4.092  0.00  0.00    -0.107 A 
ATOM      5  C4  BZF d   1       1.484   1.787  -3.401  0.00  0.00     0.055 A 
ATOM      6  C5  BZF d   1       0.295   1.500  -3.994  0.00  0.00    -0.016 A 
ATOM      7  C6  BZF d   1       0.001   1.925  -5.273  0.00  0.00     0.022 A 
ATOM      8  C7  BZF d   1       0.893   2.642  -6.000  0.00  0.00     0.029 A 
ATOM      9  C7A BZF d   1       2.107   2.905  -5.415  0.00  0.00     0.058 A 
ENDROOT
TORSDOF 0
ENDMDL
