MODEL 1
REMARK minimizedAffinity 10.1290188
REMARK minimizedRMSD -1
REMARK  0 active torsions:
REMARK  status: ('A' for Active; 'I' for Inactive)
ROOT
ATOM      1  O1  BZF d   1       3.519   2.265   1.135  0.00  0.00    -0.204 OA
ATOM      2  C2  BZF d   1       2.189   2.348   1.500  0.00  0.00     0.174 A 
ATOM      3  C3  BZF d   1       1.910   3.563   2.015  0.00  0.00    -0.012 A 
ATOM      4  C3A BZF d   1       3.120   4.315   1.884  0.00  0.00    -0.107 A 
ATOM      5  C4  BZF d   1       3.469   5.596   2.202  0.00  0.00     0.055 A 
ATOM      6  C5  BZF d   1       4.753   5.998   2.013  0.00  0.00    -0.016 A 
ATOM      7  C6  BZF d   1       5.715   5.145   1.513  0.00  0.00     0.022 A 
ATOM      8  C7  BZF d   1       5.416   3.866   1.178  0.00  0.00     0.029 A 
ATOM      9  C7A BZF d   1       4.111   3.467   1.337  0.00  0.00     0.058 A 
ENDROOT
TORSDOF 0
ENDMDL
