MODEL 1
REMARK minimizedAffinity 12.0635605
REMARK minimizedRMSD -1
REMARK  0 active torsions:
REMARK  status: ('A' for Active; 'I' for Inactive)
ROOT
ATOM      1  O1  BZF d   1       1.897   1.593   2.380  0.00  0.00    -0.204 OA
ATOM      2  C2  BZF d   1       2.444   1.510   1.114  0.00  0.00     0.174 A 
ATOM      3  C3  BZF d   1       1.518   1.792   0.174  0.00  0.00    -0.012 A 
ATOM      4  C3A BZF d   1       0.342   2.159   0.902  0.00  0.00    -0.107 A 
ATOM      5  C4  BZF d   1      -0.908   2.559   0.526  0.00  0.00     0.055 A 
ATOM      6  C5  BZF d   1      -1.849   2.772   1.483  0.00  0.00    -0.016 A 
ATOM      7  C6  BZF d   1      -1.576   2.589   2.823  0.00  0.00     0.022 A 
ATOM      8  C7  BZF d   1      -0.349   2.197   3.245  0.00  0.00     0.029 A 
ATOM      9  C7A BZF d   1       0.613   2.013   2.283  0.00  0.00     0.058 A 
ENDROOT
TORSDOF 0
ENDMDL
