MODEL 1
REMARK minimizedAffinity 3.9417479
REMARK minimizedRMSD -1
REMARK  0 active torsions:
REMARK  status: ('A' for Active; 'I' for Inactive)
ROOT
ATOM      1  O1  BZF d   1       4.493   4.945  -1.872  0.00  0.00    -0.204 OA
ATOM      2  C2  BZF d   1       5.543   4.052  -1.962  0.00  0.00     0.174 A 
ATOM      3  C3  BZF d   1       5.998   3.723  -0.736  0.00  0.00    -0.012 A 
ATOM      4  C3A BZF d   1       5.121   4.385   0.181  0.00  0.00    -0.107 A 
ATOM      5  C4  BZF d   1       5.049   4.432   1.544  0.00  0.00     0.055 A 
ATOM      6  C5  BZF d   1       4.117   5.230   2.129  0.00  0.00    -0.016 A 
ATOM      7  C6  BZF d   1       3.247   5.998   1.383  0.00  0.00     0.022 A 
ATOM      8  C7  BZF d   1       3.277   5.980   0.028  0.00  0.00     0.029 A 
ATOM      9  C7A BZF d   1       4.195   5.150  -0.566  0.00  0.00     0.058 A 
ENDROOT
TORSDOF 0
ENDMDL
