MODEL 1
REMARK minimizedAffinity 4.32531738
REMARK minimizedRMSD -1
REMARK  0 active torsions:
REMARK  status: ('A' for Active; 'I' for Inactive)
ROOT
ATOM      1  O1  BZF d   1      -4.457   6.000  -5.630  0.00  0.00    -0.204 OA
ATOM      2  C2  BZF d   1      -5.632   5.373  -5.998  0.00  0.00     0.174 A 
ATOM      3  C3  BZF d   1      -5.479   4.033  -5.999  0.00  0.00    -0.012 A 
ATOM      4  C3A BZF d   1      -4.151   3.806  -5.516  0.00  0.00    -0.107 A 
ATOM      5  C4  BZF d   1      -3.419   2.677  -5.277  0.00  0.00     0.055 A 
ATOM      6  C5  BZF d   1      -2.126   2.801  -4.878  0.00  0.00    -0.016 A 
ATOM      7  C6  BZF d   1      -1.533   4.035  -4.713  0.00  0.00     0.022 A 
ATOM      8  C7  BZF d   1      -2.220   5.183  -4.933  0.00  0.00     0.029 A 
ATOM      9  C7A BZF d   1      -3.536   5.061  -5.305  0.00  0.00     0.058 A 
ENDROOT
TORSDOF 0
ENDMDL
