MODEL 1
REMARK minimizedAffinity 0.349487484
REMARK minimizedRMSD -1
REMARK  2 active torsions:
REMARK  status: ('A' for Active; 'I' for Inactive)
REMARK    1  A    between atoms: C1_2  and  C2_3 
REMARK    2  A    between atoms: C2_3  and  C3_4 
ROOT
ATOM      1  C3  UNL d   1      -1.607   1.790   2.540  0.00  0.00    -0.075 A 
ATOM      2  C4  UNL d   1      -1.830   0.416   2.367  0.00  0.00     0.002 A 
ATOM      3  C5  UNL d   1      -0.955  -0.352   1.598  0.00  0.00     0.002 A 
ATOM      4  C6  UNL d   1       0.146   0.244   0.987  0.00  0.00    -0.004 A 
ATOM      5  C7  UNL d   1       0.368   1.611   1.139  0.00  0.00     0.002 A 
ATOM      6  C8  UNL d   1      -0.503   2.381   1.910  0.00  0.00     0.002 A 
ENDROOT
BRANCH   1   7
ATOM      7  C2  UNL d   1      -2.534   2.621   3.394  0.00  0.00     0.056 C 
BRANCH   7   8
ATOM      8  C1  UNL d   1      -3.728   1.844   3.958  0.00  0.00     0.007 C 
ATOM      9  C   UNL d   1      -4.495   2.612   5.026  0.00  0.00     0.009 C 
ENDBRANCH   7   8
ENDBRANCH   1   7
TORSDOF 2
ENDMDL
