MODEL 1
REMARK minimizedAffinity -4.04347944
REMARK minimizedRMSD -1
REMARK  2 active torsions:
REMARK  status: ('A' for Active; 'I' for Inactive)
REMARK    1  A    between atoms: C1_2  and  C2_3 
REMARK    2  A    between atoms: C2_3  and  C3_4 
ROOT
ATOM      1  C3  UNL d   1      -2.460   1.157   2.662  0.00  0.00    -0.075 A 
ATOM      2  C4  UNL d   1      -2.247  -0.133   2.152  0.00  0.00     0.002 A 
ATOM      3  C5  UNL d   1      -1.079  -0.433   1.452  0.00  0.00     0.002 A 
ATOM      4  C6  UNL d   1      -0.115   0.551   1.243  0.00  0.00    -0.004 A 
ATOM      5  C7  UNL d   1      -0.323   1.839   1.731  0.00  0.00     0.002 A 
ATOM      6  C8  UNL d   1      -1.490   2.142   2.436  0.00  0.00     0.002 A 
ENDROOT
BRANCH   1   7
ATOM      7  C2  UNL d   1      -3.709   1.481   3.446  0.00  0.00     0.056 C 
BRANCH   7   8
ATOM      8  C1  UNL d   1      -3.545   2.648   4.425  0.00  0.00     0.007 C 
ATOM      9  C   UNL d   1      -4.618   2.681   5.505  0.00  0.00     0.009 C 
ENDBRANCH   7   8
ENDBRANCH   1   7
TORSDOF 2
ENDMDL
