MODEL 1
REMARK minimizedAffinity -2.96956468
REMARK minimizedRMSD -1
REMARK  2 active torsions:
REMARK  status: ('A' for Active; 'I' for Inactive)
REMARK    1  A    between atoms: C1_2  and  C2_3 
REMARK    2  A    between atoms: C2_3  and  C3_4 
ROOT
ATOM      1  C3  UNL d   1      -1.947   1.165   2.792  0.00  0.00    -0.075 A 
ATOM      2  C4  UNL d   1      -2.039  -0.226   2.637  0.00  0.00     0.002 A 
ATOM      3  C5  UNL d   1      -1.030  -0.933   1.981  0.00  0.00     0.002 A 
ATOM      4  C6  UNL d   1       0.074  -0.259   1.465  0.00  0.00    -0.004 A 
ATOM      5  C7  UNL d   1       0.167   1.124   1.599  0.00  0.00     0.002 A 
ATOM      6  C8  UNL d   1      -0.838   1.834   2.258  0.00  0.00     0.002 A 
ENDROOT
BRANCH   1   7
ATOM      7  C2  UNL d   1      -3.021   1.932   3.527  0.00  0.00     0.056 C 
BRANCH   7   8
ATOM      8  C1  UNL d   1      -4.029   1.044   4.264  0.00  0.00     0.007 C 
ATOM      9  C   UNL d   1      -5.015   1.833   5.115  0.00  0.00     0.009 C 
ENDBRANCH   7   8
ENDBRANCH   1   7
TORSDOF 2
ENDMDL
