MODEL 1
REMARK minimizedAffinity -0.771436214
REMARK minimizedRMSD -1
REMARK  2 active torsions:
REMARK  status: ('A' for Active; 'I' for Inactive)
REMARK    1  A    between atoms: C1_2  and  C2_3 
REMARK    2  A    between atoms: C2_3  and  C3_4 
ROOT
ATOM      1  C3  UNL d   1      -2.110   1.873   3.067  0.00  0.00    -0.075 A 
ATOM      2  C4  UNL d   1      -0.992   2.515   2.514  0.00  0.00     0.002 A 
ATOM      3  C5  UNL d   1      -0.037   1.787   1.805  0.00  0.00     0.002 A 
ATOM      4  C6  UNL d   1      -0.181   0.410   1.648  0.00  0.00    -0.004 A 
ATOM      5  C7  UNL d   1      -1.279  -0.240   2.207  0.00  0.00     0.002 A 
ATOM      6  C8  UNL d   1      -2.239   0.487   2.913  0.00  0.00     0.002 A 
ENDROOT
BRANCH   1   7
ATOM      7  C2  UNL d   1      -3.163   2.660   3.811  0.00  0.00     0.056 C 
BRANCH   7   8
ATOM      8  C1  UNL d   1      -4.290   1.800   4.391  0.00  0.00     0.007 C 
ATOM      9  C   UNL d   1      -4.872   2.363   5.681  0.00  0.00     0.009 C 
ENDBRANCH   7   8
ENDBRANCH   1   7
TORSDOF 2
ENDMDL
