MODEL 1
REMARK minimizedAffinity -5.65594101
REMARK minimizedRMSD -1
REMARK  2 active torsions:
REMARK  status: ('A' for Active; 'I' for Inactive)
REMARK    1  A    between atoms: C1_2  and  C2_3 
REMARK    2  A    between atoms: C2_3  and  C3_4 
ROOT
ATOM      1  C3  UNL d   1      -1.934   1.717   2.124  0.00  0.00    -0.075 A 
ATOM      2  C4  UNL d   1      -2.135   0.443   1.572  0.00  0.00     0.002 A 
ATOM      3  C5  UNL d   1      -1.091  -0.225   0.933  0.00  0.00     0.002 A 
ATOM      4  C6  UNL d   1       0.163   0.373   0.829  0.00  0.00    -0.004 A 
ATOM      5  C7  UNL d   1       0.370   1.645   1.359  0.00  0.00     0.002 A 
ATOM      6  C8  UNL d   1      -0.672   2.314   2.003  0.00  0.00     0.002 A 
ENDROOT
BRANCH   1   7
ATOM      7  C2  UNL d   1      -3.052   2.433   2.842  0.00  0.00     0.056 C 
BRANCH   7   8
ATOM      8  C1  UNL d   1      -4.052   1.497   3.531  0.00  0.00     0.007 C 
ATOM      9  C   UNL d   1      -4.474   1.981   4.912  0.00  0.00     0.009 C 
ENDBRANCH   7   8
ENDBRANCH   1   7
TORSDOF 2
ENDMDL
