MODEL 1
REMARK minimizedAffinity -3.34999299
REMARK minimizedRMSD -1
REMARK  2 active torsions:
REMARK  status: ('A' for Active; 'I' for Inactive)
REMARK    1  A    between atoms: C1_2  and  C2_3 
REMARK    2  A    between atoms: C2_3  and  C3_4 
ROOT
ATOM      1  C3  UNL d   1      -1.986   1.467   1.809  0.00  0.00    -0.075 A 
ATOM      2  C4  UNL d   1      -0.788   2.197   1.828  0.00  0.00     0.002 A 
ATOM      3  C5  UNL d   1       0.417   1.590   1.472  0.00  0.00     0.002 A 
ATOM      4  C6  UNL d   1       0.442   0.247   1.105  0.00  0.00    -0.004 A 
ATOM      5  C7  UNL d   1      -0.739  -0.493   1.098  0.00  0.00     0.002 A 
ATOM      6  C8  UNL d   1      -1.947   0.113   1.449  0.00  0.00     0.002 A 
ENDROOT
BRANCH   1   7
ATOM      7  C2  UNL d   1      -3.297   2.125   2.164  0.00  0.00     0.056 C 
BRANCH   7   8
ATOM      8  C1  UNL d   1      -4.161   1.313   3.135  0.00  0.00     0.007 C 
ATOM      9  C   UNL d   1      -5.147   2.167   3.920  0.00  0.00     0.009 C 
ENDBRANCH   7   8
ENDBRANCH   1   7
TORSDOF 2
ENDMDL
