MODEL 1
REMARK minimizedAffinity 1.83685279
REMARK minimizedRMSD -1
REMARK  2 active torsions:
REMARK  status: ('A' for Active; 'I' for Inactive)
REMARK    1  A    between atoms: C1_2  and  C2_3 
REMARK    2  A    between atoms: C2_3  and  C3_4 
ROOT
ATOM      1  C3  UNL d   1      -1.972   1.671   2.640  0.00  0.00    -0.075 A 
ATOM      2  C4  UNL d   1      -2.158   0.281   2.633  0.00  0.00     0.002 A 
ATOM      3  C5  UNL d   1      -1.205  -0.558   2.054  0.00  0.00     0.002 A 
ATOM      4  C6  UNL d   1      -0.062  -0.019   1.468  0.00  0.00    -0.004 A 
ATOM      5  C7  UNL d   1       0.125   1.361   1.455  0.00  0.00     0.002 A 
ATOM      6  C8  UNL d   1      -0.825   2.203   2.037  0.00  0.00     0.002 A 
ENDROOT
BRANCH   1   7
ATOM      7  C2  UNL d   1      -2.985   2.582   3.290  0.00  0.00     0.056 C 
BRANCH   7   8
ATOM      8  C1  UNL d   1      -4.016   1.851   4.157  0.00  0.00     0.007 C 
ATOM      9  C   UNL d   1      -4.500   2.679   5.340  0.00  0.00     0.009 C 
ENDBRANCH   7   8
ENDBRANCH   1   7
TORSDOF 2
ENDMDL
