MODEL 1
REMARK minimizedAffinity 3.13643646
REMARK minimizedRMSD -1
REMARK  2 active torsions:
REMARK  status: ('A' for Active; 'I' for Inactive)
REMARK    1  A    between atoms: C1_2  and  C2_3 
REMARK    2  A    between atoms: C2_3  and  C3_4 
ROOT
ATOM      1  C3  UNL d   1      -2.669  -0.051   0.185  0.00  0.00    -0.075 A 
ATOM      2  C4  UNL d   1      -1.912   1.099  -0.080  0.00  0.00     0.002 A 
ATOM      3  C5  UNL d   1      -0.704   1.320   0.582  0.00  0.00     0.002 A 
ATOM      4  C6  UNL d   1      -0.243   0.401   1.522  0.00  0.00    -0.004 A 
ATOM      5  C7  UNL d   1      -0.995  -0.737   1.805  0.00  0.00     0.002 A 
ATOM      6  C8  UNL d   1      -2.202  -0.963   1.142  0.00  0.00     0.002 A 
ENDROOT
BRANCH   1   7
ATOM      7  C2  UNL d   1      -3.963  -0.310  -0.549  0.00  0.00     0.056 C 
BRANCH   7   8
ATOM      8  C1  UNL d   1      -4.130  -1.757  -1.027  0.00  0.00     0.007 C 
ATOM      9  C   UNL d   1      -4.004  -1.908  -2.537  0.00  0.00     0.009 C 
ENDBRANCH   7   8
ENDBRANCH   1   7
TORSDOF 2
ENDMDL
