MODEL 1
REMARK minimizedAffinity -2.63661265
REMARK minimizedRMSD -1
REMARK  2 active torsions:
REMARK  status: ('A' for Active; 'I' for Inactive)
REMARK    1  A    between atoms: C1_2  and  C2_3 
REMARK    2  A    between atoms: C2_3  and  C3_4 
ROOT
ATOM      1  C3  UNL d   1      -0.797   1.788   2.106  0.00  0.00    -0.075 A 
ATOM      2  C4  UNL d   1      -0.378   1.798   0.768  0.00  0.00     0.002 A 
ATOM      3  C5  UNL d   1       0.870   1.287   0.412  0.00  0.00     0.002 A 
ATOM      4  C6  UNL d   1       1.718   0.768   1.388  0.00  0.00    -0.004 A 
ATOM      5  C7  UNL d   1       1.319   0.768   2.723  0.00  0.00     0.002 A 
ATOM      6  C8  UNL d   1       0.069   1.275   3.081  0.00  0.00     0.002 A 
ENDROOT
BRANCH   1   7
ATOM      7  C2  UNL d   1      -2.158   2.313   2.494  0.00  0.00     0.056 C 
BRANCH   7   8
ATOM      8  C1  UNL d   1      -3.012   1.312   3.280  0.00  0.00     0.007 C 
ATOM      9  C   UNL d   1      -4.058   1.979   4.164  0.00  0.00     0.009 C 
ENDBRANCH   7   8
ENDBRANCH   1   7
TORSDOF 2
ENDMDL
