MODEL 1
REMARK minimizedAffinity -5.07270527
REMARK minimizedRMSD -1
REMARK  2 active torsions:
REMARK  status: ('A' for Active; 'I' for Inactive)
REMARK    1  A    between atoms: C1_2  and  C2_3 
REMARK    2  A    between atoms: C2_3  and  C3_4 
ROOT
ATOM      1  C3  UNL d   1      -2.239   0.852   2.542  0.00  0.00    -0.075 A 
ATOM      2  C4  UNL d   1      -1.671   2.124   2.385  0.00  0.00     0.002 A 
ATOM      3  C5  UNL d   1      -0.538   2.301   1.590  0.00  0.00     0.002 A 
ATOM      4  C6  UNL d   1       0.046   1.209   0.951  0.00  0.00    -0.004 A 
ATOM      5  C7  UNL d   1      -0.501  -0.062   1.114  0.00  0.00     0.002 A 
ATOM      6  C8  UNL d   1      -1.637  -0.241   1.905  0.00  0.00     0.002 A 
ENDROOT
BRANCH   1   7
ATOM      7  C2  UNL d   1      -3.482   0.659   3.377  0.00  0.00     0.056 C 
BRANCH   7   8
ATOM      8  C1  UNL d   1      -4.182   1.966   3.765  0.00  0.00     0.007 C 
ATOM      9  C   UNL d   1      -4.707   1.965   5.195  0.00  0.00     0.009 C 
ENDBRANCH   7   8
ENDBRANCH   1   7
TORSDOF 2
ENDMDL
