MODEL 1
REMARK minimizedAffinity -1.63698363
REMARK minimizedRMSD -1
REMARK  2 active torsions:
REMARK  status: ('A' for Active; 'I' for Inactive)
REMARK    1  A    between atoms: C1_2  and  C2_3 
REMARK    2  A    between atoms: C2_3  and  C3_4 
ROOT
ATOM      1  C3  UNL d   1      -1.466   1.400   2.266  0.00  0.00    -0.075 A 
ATOM      2  C4  UNL d   1      -1.801   0.041   2.177  0.00  0.00     0.002 A 
ATOM      3  C5  UNL d   1      -1.006  -0.839   1.443  0.00  0.00     0.002 A 
ATOM      4  C6  UNL d   1       0.127  -0.371   0.781  0.00  0.00    -0.004 A 
ATOM      5  C7  UNL d   1       0.461   0.980   0.848  0.00  0.00     0.002 A 
ATOM      6  C8  UNL d   1      -0.331   1.862   1.585  0.00  0.00     0.002 A 
ENDROOT
BRANCH   1   7
ATOM      7  C2  UNL d   1      -2.306   2.352   3.083  0.00  0.00     0.056 C 
BRANCH   7   8
ATOM      8  C1  UNL d   1      -3.569   1.718   3.675  0.00  0.00     0.007 C 
ATOM      9  C   UNL d   1      -4.157   2.517   4.830  0.00  0.00     0.009 C 
ENDBRANCH   7   8
ENDBRANCH   1   7
TORSDOF 2
ENDMDL
