MODEL 1
REMARK minimizedAffinity 0.561328769
REMARK minimizedRMSD -1
REMARK  2 active torsions:
REMARK  status: ('A' for Active; 'I' for Inactive)
REMARK    1  A    between atoms: C1_2  and  C2_3 
REMARK    2  A    between atoms: C2_3  and  C3_4 
ROOT
ATOM      1  C3  UNL d   1      -3.139   1.710   2.934  0.00  0.00    -0.075 A 
ATOM      2  C4  UNL d   1      -2.524   0.483   2.648  0.00  0.00     0.002 A 
ATOM      3  C5  UNL d   1      -1.358   0.435   1.884  0.00  0.00     0.002 A 
ATOM      4  C6  UNL d   1      -0.799   1.611   1.388  0.00  0.00    -0.004 A 
ATOM      5  C7  UNL d   1      -1.410   2.834   1.651  0.00  0.00     0.002 A 
ATOM      6  C8  UNL d   1      -2.575   2.885   2.420  0.00  0.00     0.002 A 
ENDROOT
BRANCH   1   7
ATOM      7  C2  UNL d   1      -4.385   1.771   3.785  0.00  0.00     0.056 C 
BRANCH   7   8
ATOM      8  C1  UNL d   1      -4.399   2.930   4.787  0.00  0.00     0.007 C 
ATOM      9  C   UNL d   1      -5.283   2.666   5.999  0.00  0.00     0.009 C 
ENDBRANCH   7   8
ENDBRANCH   1   7
TORSDOF 2
ENDMDL
