MODEL 1
REMARK minimizedAffinity -0.522312939
REMARK minimizedRMSD -1
REMARK  2 active torsions:
REMARK  status: ('A' for Active; 'I' for Inactive)
REMARK    1  A    between atoms: C1_2  and  C2_3 
REMARK    2  A    between atoms: C2_3  and  C3_4 
ROOT
ATOM      1  C3  UNL d   1       0.711   0.679   0.965  0.00  0.00    -0.075 A 
ATOM      2  C4  UNL d   1       0.514  -0.696   1.154  0.00  0.00     0.002 A 
ATOM      3  C5  UNL d   1      -0.684  -1.173   1.688  0.00  0.00     0.002 A 
ATOM      4  C6  UNL d   1      -1.692  -0.283   2.050  0.00  0.00    -0.004 A 
ATOM      5  C7  UNL d   1      -1.500   1.087   1.882  0.00  0.00     0.002 A 
ATOM      6  C8  UNL d   1      -0.305   1.567   1.344  0.00  0.00     0.002 A 
ENDROOT
BRANCH   1   7
ATOM      7  C2  UNL d   1       1.993   1.200   0.360  0.00  0.00     0.056 C 
BRANCH   7   8
ATOM      8  C1  UNL d   1       2.820   0.132  -0.363  0.00  0.00     0.007 C 
ATOM      9  C   UNL d   1       3.150   0.501  -1.803  0.00  0.00     0.009 C 
ENDBRANCH   7   8
ENDBRANCH   1   7
TORSDOF 2
ENDMDL
