MODEL 1
REMARK minimizedAffinity 5.40662718
REMARK minimizedRMSD -1
REMARK  1 active torsions:
REMARK  status: ('A' for Active; 'I' for Inactive)
REMARK    1  A    between atoms: C1_2  and  C2_3 
ROOT
ATOM      1  C2  UNL d   1      -0.525  -1.959   2.097  0.00  0.00    -0.077 A 
ATOM      2  C3  UNL d   1      -1.432  -2.904   1.598  0.00  0.00     0.002 A 
ATOM      3  C4  UNL d   1      -2.744  -2.532   1.295  0.00  0.00     0.002 A 
ATOM      4  C5  UNL d   1      -3.158  -1.216   1.483  0.00  0.00    -0.004 A 
ATOM      5  C6  UNL d   1      -2.263  -0.269   1.981  0.00  0.00     0.002 A 
ATOM      6  C7  UNL d   1      -0.953  -0.639   2.286  0.00  0.00     0.002 A 
ENDROOT
BRANCH   1   7
ATOM      7  C1  UNL d   1       0.904  -2.346   2.378  0.00  0.00     0.055 C 
ATOM      8  C   UNL d   1       1.243  -3.696   1.762  0.00  0.00     0.019 C 
ENDBRANCH   1   7
TORSDOF 1
ENDMDL
