MODEL 1
REMARK minimizedAffinity 6.29688168
REMARK minimizedRMSD -1
REMARK  1 active torsions:
REMARK  status: ('A' for Active; 'I' for Inactive)
REMARK    1  A    between atoms: C1_2  and  C2_3 
ROOT
ATOM      1  C2  UNL d   1      -4.044   1.789   5.262  0.00  0.00    -0.077 A 
ATOM      2  C3  UNL d   1      -3.091   1.040   5.967  0.00  0.00     0.002 A 
ATOM      3  C4  UNL d   1      -2.059   0.391   5.286  0.00  0.00     0.002 A 
ATOM      4  C5  UNL d   1      -1.967   0.488   3.899  0.00  0.00    -0.004 A 
ATOM      5  C6  UNL d   1      -2.911   1.229   3.190  0.00  0.00     0.002 A 
ATOM      6  C7  UNL d   1      -3.944   1.877   3.868  0.00  0.00     0.002 A 
ENDROOT
BRANCH   1   7
ATOM      7  C1  UNL d   1      -5.129   2.530   5.999  0.00  0.00     0.055 C 
ATOM      8  C   UNL d   1      -4.873   4.030   5.999  0.00  0.00     0.019 C 
ENDBRANCH   1   7
TORSDOF 1
ENDMDL
