MODEL 1
REMARK minimizedAffinity 7.88163996
REMARK minimizedRMSD -1
REMARK  1 active torsions:
REMARK  status: ('A' for Active; 'I' for Inactive)
REMARK    1  A    between atoms: C1_2  and  C2_3 
ROOT
ATOM      1  C2  UNL d   1      -3.758   1.751   4.970  0.00  0.00    -0.077 A 
ATOM      2  C3  UNL d   1      -2.715   1.116   5.659  0.00  0.00     0.002 A 
ATOM      3  C4  UNL d   1      -1.729   0.417   4.960  0.00  0.00     0.002 A 
ATOM      4  C5  UNL d   1      -1.773   0.350   3.569  0.00  0.00    -0.004 A 
ATOM      5  C6  UNL d   1      -2.808   0.976   2.875  0.00  0.00     0.002 A 
ATOM      6  C7  UNL d   1      -3.795   1.675   3.571  0.00  0.00     0.002 A 
ENDROOT
BRANCH   1   7
ATOM      7  C1  UNL d   1      -4.794   2.547   5.718  0.00  0.00     0.055 C 
ATOM      8  C   UNL d   1      -4.352   3.990   5.911  0.00  0.00     0.019 C 
ENDBRANCH   1   7
TORSDOF 1
ENDMDL
