MODEL 1
REMARK minimizedAffinity 4.9940691
REMARK minimizedRMSD -1
REMARK  1 active torsions:
REMARK  status: ('A' for Active; 'I' for Inactive)
REMARK    1  A    between atoms: C1_2  and  C2_3 
ROOT
ATOM      1  C2  UNL d   1      -3.269   1.363   4.296  0.00  0.00    -0.077 A 
ATOM      2  C3  UNL d   1      -4.051   1.957   5.297  0.00  0.00     0.002 A 
ATOM      3  C4  UNL d   1      -5.411   2.192   5.084  0.00  0.00     0.002 A 
ATOM      4  C5  UNL d   1      -6.000   1.833   3.873  0.00  0.00    -0.004 A 
ATOM      5  C6  UNL d   1      -5.230   1.244   2.871  0.00  0.00     0.002 A 
ATOM      6  C7  UNL d   1      -3.871   1.009   3.082  0.00  0.00     0.002 A 
ENDROOT
BRANCH   1   7
ATOM      7  C1  UNL d   1      -1.813   1.063   4.543  0.00  0.00     0.055 C 
ATOM      8  C   UNL d   1      -1.617   0.302   5.846  0.00  0.00     0.019 C 
ENDBRANCH   1   7
TORSDOF 1
ENDMDL
