MODEL 1
REMARK minimizedAffinity 5.21868181
REMARK minimizedRMSD -1
REMARK  1 active torsions:
REMARK  status: ('A' for Active; 'I' for Inactive)
REMARK    1  A    between atoms: C1_2  and  C2_3 
ROOT
ATOM      1  C2  UNL d   1      -0.024  -1.843   2.911  0.00  0.00    -0.077 A 
ATOM      2  C3  UNL d   1       0.254  -1.692   4.277  0.00  0.00     0.002 A 
ATOM      3  C4  UNL d   1      -0.057  -0.500   4.933  0.00  0.00     0.002 A 
ATOM      4  C5  UNL d   1      -0.651   0.548   4.233  0.00  0.00    -0.004 A 
ATOM      5  C6  UNL d   1      -0.929   0.409   2.874  0.00  0.00     0.002 A 
ATOM      6  C7  UNL d   1      -0.618  -0.782   2.216  0.00  0.00     0.002 A 
ENDROOT
BRANCH   1   7
ATOM      7  C1  UNL d   1       0.266  -3.146   2.213  0.00  0.00     0.055 C 
ATOM      8  C   UNL d   1      -0.840  -3.507   1.232  0.00  0.00     0.019 C 
ENDBRANCH   1   7
TORSDOF 1
ENDMDL
