MODEL 1
REMARK minimizedAffinity 3.31140327
REMARK minimizedRMSD -1
REMARK  1 active torsions:
REMARK  status: ('A' for Active; 'I' for Inactive)
REMARK    1  A    between atoms: C1_2  and  C2_3 
ROOT
ATOM      1  C2  UNL d   1      -1.273  -5.326  -1.740  0.00  0.00    -0.077 A 
ATOM      2  C3  UNL d   1      -2.254  -5.887  -2.570  0.00  0.00     0.002 A 
ATOM      3  C4  UNL d   1      -2.038  -5.998  -3.945  0.00  0.00     0.002 A 
ATOM      4  C5  UNL d   1      -0.839  -5.555  -4.501  0.00  0.00    -0.004 A 
ATOM      5  C6  UNL d   1       0.142  -4.995  -3.685  0.00  0.00     0.002 A 
ATOM      6  C7  UNL d   1      -0.073  -4.882  -2.310  0.00  0.00     0.002 A 
ENDROOT
BRANCH   1   7
ATOM      7  C1  UNL d   1      -1.484  -5.250  -0.251  0.00  0.00     0.055 C 
ATOM      8  C   UNL d   1      -0.225  -4.781   0.464  0.00  0.00     0.019 C 
ENDBRANCH   1   7
TORSDOF 1
ENDMDL
