MODEL 1
REMARK minimizedAffinity 6.45406961
REMARK minimizedRMSD -1
REMARK  1 active torsions:
REMARK  status: ('A' for Active; 'I' for Inactive)
REMARK    1  A    between atoms: C1_2  and  C2_3 
ROOT
ATOM      1  C2  UNL d   1       0.336  -0.484   3.235  0.00  0.00    -0.077 A 
ATOM      2  C3  UNL d   1      -0.433   0.322   4.086  0.00  0.00     0.002 A 
ATOM      3  C4  UNL d   1      -1.692   0.772   3.684  0.00  0.00     0.002 A 
ATOM      4  C5  UNL d   1      -2.194   0.418   2.433  0.00  0.00    -0.004 A 
ATOM      5  C6  UNL d   1      -1.435  -0.381   1.579  0.00  0.00     0.002 A 
ATOM      6  C7  UNL d   1      -0.176  -0.831   1.979  0.00  0.00     0.002 A 
ENDROOT
BRANCH   1   7
ATOM      7  C1  UNL d   1       1.674  -1.011   3.686  0.00  0.00     0.055 C 
ATOM      8  C   UNL d   1       2.055  -2.274   2.928  0.00  0.00     0.019 C 
ENDBRANCH   1   7
TORSDOF 1
ENDMDL
