MODEL 1
REMARK minimizedAffinity 10.7406397
REMARK minimizedRMSD -1
REMARK  1 active torsions:
REMARK  status: ('A' for Active; 'I' for Inactive)
REMARK    1  A    between atoms: C1_2  and  C2_3 
ROOT
ATOM      1  C2  UNL d   1      -3.409   0.225   2.264  0.00  0.00    -0.077 A 
ATOM      2  C3  UNL d   1      -3.078   0.854   3.473  0.00  0.00     0.002 A 
ATOM      3  C4  UNL d   1      -1.771   0.802   3.961  0.00  0.00     0.002 A 
ATOM      4  C5  UNL d   1      -0.785   0.125   3.246  0.00  0.00    -0.004 A 
ATOM      5  C6  UNL d   1      -1.105  -0.505   2.044  0.00  0.00     0.002 A 
ATOM      6  C7  UNL d   1      -2.411  -0.455   1.555  0.00  0.00     0.002 A 
ENDROOT
BRANCH   1   7
ATOM      7  C1  UNL d   1      -4.807   0.322   1.711  0.00  0.00     0.055 C 
ATOM      8  C   UNL d   1      -4.856   1.226   0.488  0.00  0.00     0.019 C 
ENDBRANCH   1   7
TORSDOF 1
ENDMDL
