MODEL 1
REMARK minimizedAffinity -3.23140979
REMARK minimizedRMSD -1
REMARK  0 active torsions:
REMARK  status: ('A' for Active; 'I' for Inactive)
ROOT
ATOM      1  C1  BNZ d   1       1.098  -0.900  -0.009  0.00  0.00     0.000 A 
ATOM      2  C2  BNZ d   1       0.700  -1.083   1.288  0.00  0.00     0.000 A 
ATOM      3  C3  BNZ d   1      -0.386  -0.420   1.787  0.00  0.00     0.000 A 
ATOM      4  C4  BNZ d   1      -1.048   0.454   1.002  0.00  0.00     0.000 A 
ATOM      5  C5  BNZ d   1      -0.654   0.656  -0.306  0.00  0.00     0.000 A 
ATOM      6  C6  BNZ d   1       0.416  -0.042  -0.816  0.00  0.00     0.000 A 
ENDROOT
TORSDOF 0
ENDMDL
