MODEL 1
REMARK minimizedAffinity -3.72364712
REMARK minimizedRMSD -1
REMARK  0 active torsions:
REMARK  status: ('A' for Active; 'I' for Inactive)
ROOT
ATOM      1  C1  BNZ d   1      -0.997   0.541  -0.075  0.00  0.00     0.000 A 
ATOM      2  C2  BNZ d   1      -1.888   1.458   0.416  0.00  0.00     0.000 A 
ATOM      3  C3  BNZ d   1      -1.887   1.795   1.741  0.00  0.00     0.000 A 
ATOM      4  C4  BNZ d   1      -1.023   1.186   2.579  0.00  0.00     0.000 A 
ATOM      5  C5  BNZ d   1      -0.125   0.253   2.101  0.00  0.00     0.000 A 
ATOM      6  C6  BNZ d   1      -0.103  -0.055   0.760  0.00  0.00     0.000 A 
ENDROOT
TORSDOF 0
ENDMDL
