MODEL 1
REMARK minimizedAffinity -4.12908411
REMARK minimizedRMSD -1
REMARK  0 active torsions:
REMARK  status: ('A' for Active; 'I' for Inactive)
ROOT
ATOM      1  C1  BNZ d   1       0.434  -0.279   0.173  0.00  0.00     0.000 A 
ATOM      2  C2  BNZ d   1      -0.498  -0.008   1.139  0.00  0.00     0.000 A 
ATOM      3  C3  BNZ d   1      -1.200   1.165   1.126  0.00  0.00     0.000 A 
ATOM      4  C4  BNZ d   1      -0.940   2.082   0.172  0.00  0.00     0.000 A 
ATOM      5  C5  BNZ d   1       0.004   1.828  -0.803  0.00  0.00     0.000 A 
ATOM      6  C6  BNZ d   1       0.680   0.629  -0.809  0.00  0.00     0.000 A 
ENDROOT
TORSDOF 0
ENDMDL
