MODEL 1
REMARK minimizedAffinity -4.99496126
REMARK minimizedRMSD -1
REMARK  0 active torsions:
REMARK  status: ('A' for Active; 'I' for Inactive)
ROOT
ATOM      1  C1  BNZ d   1      -0.367   0.134   1.017  0.00  0.00     0.000 A 
ATOM      2  C2  BNZ d   1       0.449   0.326  -0.067  0.00  0.00     0.000 A 
ATOM      3  C3  BNZ d   1       0.383   1.481  -0.796  0.00  0.00     0.000 A 
ATOM      4  C4  BNZ d   1      -0.523   2.423  -0.466  0.00  0.00     0.000 A 
ATOM      5  C5  BNZ d   1      -1.359   2.240   0.618  0.00  0.00     0.000 A 
ATOM      6  C6  BNZ d   1      -1.263   1.094   1.373  0.00  0.00     0.000 A 
ENDROOT
TORSDOF 0
ENDMDL
