MODEL 1
REMARK minimizedAffinity -2.6209538
REMARK minimizedRMSD -1
REMARK  0 active torsions:
REMARK  status: ('A' for Active; 'I' for Inactive)
ROOT
ATOM      1  C1  BNZ d   1      -0.549   0.773  -0.520  0.00  0.00     0.000 A 
ATOM      2  C2  BNZ d   1      -1.134   1.879   0.037  0.00  0.00     0.000 A 
ATOM      3  C3  BNZ d   1      -1.507   1.886   1.352  0.00  0.00     0.000 A 
ATOM      4  C4  BNZ d   1      -1.332   0.776   2.097  0.00  0.00     0.000 A 
ATOM      5  C5  BNZ d   1      -0.753  -0.350   1.548  0.00  0.00     0.000 A 
ATOM      6  C6  BNZ d   1      -0.342  -0.341   0.234  0.00  0.00     0.000 A 
ENDROOT
TORSDOF 0
ENDMDL
