MODEL 1
REMARK minimizedAffinity -3.55435014
REMARK minimizedRMSD -1
REMARK  0 active torsions:
REMARK  status: ('A' for Active; 'I' for Inactive)
ROOT
ATOM      1  C1  BNZ d   1      -0.308   0.190  -0.494  0.00  0.00     0.000 A 
ATOM      2  C2  BNZ d   1      -1.163   1.195  -0.127  0.00  0.00     0.000 A 
ATOM      3  C3  BNZ d   1      -1.435   1.436   1.190  0.00  0.00     0.000 A 
ATOM      4  C4  BNZ d   1      -0.886   0.647   2.136  0.00  0.00     0.000 A 
ATOM      5  C5  BNZ d   1      -0.029  -0.376   1.781  0.00  0.00     0.000 A 
ATOM      6  C6  BNZ d   1       0.274  -0.590   0.456  0.00  0.00     0.000 A 
ENDROOT
TORSDOF 0
ENDMDL
