MODEL 1
REMARK minimizedAffinity -2.1406703
REMARK minimizedRMSD -1
REMARK  0 active torsions:
REMARK  status: ('A' for Active; 'I' for Inactive)
ROOT
ATOM      1  C1  BNZ d   1      -1.890   1.543  -0.445  0.00  0.00     0.000 A 
ATOM      2  C2  BNZ d   1      -1.424   0.359   0.061  0.00  0.00     0.000 A 
ATOM      3  C3  BNZ d   1      -0.137  -0.041  -0.164  0.00  0.00     0.000 A 
ATOM      4  C4  BNZ d   1       0.671   0.723  -0.928  0.00  0.00     0.000 A 
ATOM      5  C5  BNZ d   1       0.213   1.916  -1.452  0.00  0.00     0.000 A 
ATOM      6  C6  BNZ d   1      -1.071   2.334  -1.191  0.00  0.00     0.000 A 
ENDROOT
TORSDOF 0
ENDMDL
