MODEL 1
REMARK minimizedAffinity -5.03985023
REMARK minimizedRMSD -1
REMARK  0 active torsions:
REMARK  status: ('A' for Active; 'I' for Inactive)
ROOT
ATOM      1  C1  BNZ d   1      -0.769   0.462   0.765  0.00  0.00     0.000 A 
ATOM      2  C2  BNZ d   1      -1.499   1.495   1.290  0.00  0.00     0.000 A 
ATOM      3  C3  BNZ d   1      -1.452   2.741   0.730  0.00  0.00     0.000 A 
ATOM      4  C4  BNZ d   1      -0.645   2.962  -0.328  0.00  0.00     0.000 A 
ATOM      5  C5  BNZ d   1       0.104   1.933  -0.863  0.00  0.00     0.000 A 
ATOM      6  C6  BNZ d   1       0.024   0.671  -0.321  0.00  0.00     0.000 A 
ENDROOT
TORSDOF 0
ENDMDL
