MODEL 1
REMARK minimizedAffinity -4.0953021
REMARK minimizedRMSD -1
REMARK  0 active torsions:
REMARK  status: ('A' for Active; 'I' for Inactive)
ROOT
ATOM      1  C1  BNZ d   1      -0.008   1.621  -0.559  0.00  0.00     0.000 A 
ATOM      2  C2  BNZ d   1       1.050   0.909  -1.058  0.00  0.00     0.000 A 
ATOM      3  C3  BNZ d   1       1.437  -0.267  -0.480  0.00  0.00     0.000 A 
ATOM      4  C4  BNZ d   1       0.792  -0.710   0.618  0.00  0.00     0.000 A 
ATOM      5  C5  BNZ d   1      -0.271   0.001   1.139  0.00  0.00     0.000 A 
ATOM      6  C6  BNZ d   1      -0.682   1.165   0.531  0.00  0.00     0.000 A 
ENDROOT
TORSDOF 0
ENDMDL
