MODEL 1
REMARK minimizedAffinity -3.08398867
REMARK minimizedRMSD -1
REMARK  0 active torsions:
REMARK  status: ('A' for Active; 'I' for Inactive)
ROOT
ATOM      1  C1  BNZ d   1       0.939  -2.655  -2.990  0.00  0.00     0.000 A 
ATOM      2  C2  BNZ d   1       1.496  -3.212  -1.869  0.00  0.00     0.000 A 
ATOM      3  C3  BNZ d   1       1.612  -2.491  -0.713  0.00  0.00     0.000 A 
ATOM      4  C4  BNZ d   1       1.210  -1.205  -0.691  0.00  0.00     0.000 A 
ATOM      5  C5  BNZ d   1       0.655  -0.626  -1.815  0.00  0.00     0.000 A 
ATOM      6  C6  BNZ d   1       0.504  -1.366  -2.965  0.00  0.00     0.000 A 
ENDROOT
TORSDOF 0
ENDMDL
