MODEL 1
REMARK minimizedAffinity -4.91158867
REMARK minimizedRMSD -1
REMARK  0 active torsions:
REMARK  status: ('A' for Active; 'I' for Inactive)
ROOT
ATOM      1  C1  BNZ d   1      -1.483   2.806   1.478  0.00  0.00     0.000 A 
ATOM      2  C2  BNZ d   1      -1.475   1.491   1.862  0.00  0.00     0.000 A 
ATOM      3  C3  BNZ d   1      -1.017   0.519   1.017  0.00  0.00     0.000 A 
ATOM      4  C4  BNZ d   1      -0.607   0.857  -0.223  0.00  0.00     0.000 A 
ATOM      5  C5  BNZ d   1      -0.619   2.177  -0.627  0.00  0.00     0.000 A 
ATOM      6  C6  BNZ d   1      -1.043   3.157   0.240  0.00  0.00     0.000 A 
ENDROOT
TORSDOF 0
ENDMDL
