MODEL 1
REMARK minimizedAffinity -4.52863503
REMARK minimizedRMSD -1
REMARK  0 active torsions:
REMARK  status: ('A' for Active; 'I' for Inactive)
ROOT
ATOM      1  C1  BNZ d   1      -1.220   1.913   1.660  0.00  0.00     0.000 A 
ATOM      2  C2  BNZ d   1      -1.314   1.416   0.387  0.00  0.00     0.000 A 
ATOM      3  C3  BNZ d   1      -0.856   0.162   0.090  0.00  0.00     0.000 A 
ATOM      4  C4  BNZ d   1      -0.270  -0.575   1.055  0.00  0.00     0.000 A 
ATOM      5  C5  BNZ d   1      -0.160  -0.085   2.340  0.00  0.00     0.000 A 
ATOM      6  C6  BNZ d   1      -0.657   1.162   2.645  0.00  0.00     0.000 A 
ENDROOT
TORSDOF 0
ENDMDL
