MODEL 1
REMARK minimizedAffinity -3.99558616
REMARK minimizedRMSD -1
REMARK  0 active torsions:
REMARK  status: ('A' for Active; 'I' for Inactive)
ROOT
ATOM      1  C1  BNZ d   1       0.219  -0.096   0.629  0.00  0.00     0.000 A 
ATOM      2  C2  BNZ d   1      -0.446   0.097   1.811  0.00  0.00     0.000 A 
ATOM      3  C3  BNZ d   1      -1.500   0.965   1.888  0.00  0.00     0.000 A 
ATOM      4  C4  BNZ d   1      -1.862   1.666   0.794  0.00  0.00     0.000 A 
ATOM      5  C5  BNZ d   1      -1.196   1.490  -0.402  0.00  0.00     0.000 A 
ATOM      6  C6  BNZ d   1      -0.160   0.587  -0.485  0.00  0.00     0.000 A 
ENDROOT
TORSDOF 0
ENDMDL
