MODEL 1
REMARK minimizedAffinity -4.10220098
REMARK minimizedRMSD -1
REMARK  0 active torsions:
REMARK  status: ('A' for Active; 'I' for Inactive)
ROOT
ATOM      1  C1  BNZ d   1       0.701   1.990  -1.127  0.00  0.00     0.000 A 
ATOM      2  C2  BNZ d   1      -0.629   1.929  -0.804  0.00  0.00     0.000 A 
ATOM      3  C3  BNZ d   1      -1.178   0.777  -0.315  0.00  0.00     0.000 A 
ATOM      4  C4  BNZ d   1      -0.408  -0.323  -0.186  0.00  0.00     0.000 A 
ATOM      5  C5  BNZ d   1       0.933  -0.280  -0.516  0.00  0.00     0.000 A 
ATOM      6  C6  BNZ d   1       1.491   0.893  -0.971  0.00  0.00     0.000 A 
ENDROOT
TORSDOF 0
ENDMDL
