MODEL 1
REMARK minimizedAffinity -4.57487535
REMARK minimizedRMSD -1
REMARK  0 active torsions:
REMARK  status: ('A' for Active; 'I' for Inactive)
ROOT
ATOM      1  C1  BNZ d   1       0.419  -0.264  -0.398  0.00  0.00     0.000 A 
ATOM      2  C2  BNZ d   1      -0.901  -0.247  -0.036  0.00  0.00     0.000 A 
ATOM      3  C3  BNZ d   1      -1.632   0.906  -0.108  0.00  0.00     0.000 A 
ATOM      4  C4  BNZ d   1      -1.033   2.048  -0.502  0.00  0.00     0.000 A 
ATOM      5  C5  BNZ d   1       0.300   2.049  -0.862  0.00  0.00     0.000 A 
ATOM      6  C6  BNZ d   1       1.023   0.878  -0.826  0.00  0.00     0.000 A 
ENDROOT
TORSDOF 0
ENDMDL
