MODEL 1
REMARK minimizedAffinity -2.70105314
REMARK minimizedRMSD -1
REMARK  0 active torsions:
REMARK  status: ('A' for Active; 'I' for Inactive)
ROOT
ATOM      1  C1  BNZ d   1      -0.301   1.427  -0.768  0.00  0.00     0.000 A 
ATOM      2  C2  BNZ d   1       0.834   0.812  -1.224  0.00  0.00     0.000 A 
ATOM      3  C3  BNZ d   1       1.197  -0.421  -0.760  0.00  0.00     0.000 A 
ATOM      4  C4  BNZ d   1       0.446  -1.020   0.187  0.00  0.00     0.000 A 
ATOM      5  C5  BNZ d   1      -0.696  -0.409   0.664  0.00  0.00     0.000 A 
ATOM      6  C6  BNZ d   1      -1.079   0.815   0.166  0.00  0.00     0.000 A 
ENDROOT
TORSDOF 0
ENDMDL
