MODEL 1
REMARK minimizedAffinity 15.1245127
REMARK minimizedRMSD -1
REMARK  0 active torsions:
REMARK  status: ('A' for Active; 'I' for Inactive)
ROOT
ATOM      1  C   UNL d   1       4.480  -2.142   0.976  0.00  0.00     0.124 A 
ATOM      2  C1  UNL d   1       3.358  -2.648   1.618  0.00  0.00     0.062 A 
ATOM      3  C2  UNL d   1       2.668  -3.728   1.076  0.00  0.00     0.162 A 
ATOM      4  C3  UNL d   1       3.099  -4.312  -0.116  0.00  0.00    -0.034 A 
ATOM      5  C4  UNL d   1       4.228  -3.797  -0.756  0.00  0.00     0.162 A 
ATOM      6  C5  UNL d   1       4.914  -2.717  -0.210  0.00  0.00     0.062 A 
ATOM      7  F   UNL d   1       5.997  -2.229  -0.831  0.00  0.00    -0.097 F 
ATOM      8  F1  UNL d   1       4.670  -4.333  -1.903  0.00  0.00    -0.096 F 
ATOM      9  I   UNL d   1       2.071  -5.927  -0.931  0.00  0.00    -0.060 I 
ATOM     10  F2  UNL d   1       1.587  -4.196   1.717  0.00  0.00    -0.096 F 
ATOM     11  F3  UNL d   1       2.936  -2.094   2.764  0.00  0.00    -0.097 F 
ATOM     12  F4  UNL d   1       5.140  -1.102   1.500  0.00  0.00    -0.092 F 
ENDROOT
TORSDOF 0
ENDMDL
