MODEL 1
REMARK minimizedAffinity 18.5234318
REMARK minimizedRMSD -1
REMARK  0 active torsions:
REMARK  status: ('A' for Active; 'I' for Inactive)
ROOT
ATOM      1  C   UNL d   1       5.020  -2.571  -1.440  0.00  0.00     0.124 A 
ATOM      2  C1  UNL d   1       4.163  -2.355  -0.370  0.00  0.00     0.062 A 
ATOM      3  C2  UNL d   1       3.144  -3.263  -0.095  0.00  0.00     0.162 A 
ATOM      4  C3  UNL d   1       2.977  -4.396  -0.891  0.00  0.00    -0.034 A 
ATOM      5  C4  UNL d   1       3.843  -4.606  -1.966  0.00  0.00     0.162 A 
ATOM      6  C5  UNL d   1       4.860  -3.696  -2.237  0.00  0.00     0.062 A 
ATOM      7  F   UNL d   1       5.687  -3.906  -3.271  0.00  0.00    -0.097 F 
ATOM      8  F1  UNL d   1       3.711  -5.685  -2.752  0.00  0.00    -0.096 F 
ATOM      9  I   UNL d   1       1.455  -5.755  -0.484  0.00  0.00    -0.060 I 
ATOM     10  F2  UNL d   1       2.330  -3.029   0.945  0.00  0.00    -0.096 F 
ATOM     11  F3  UNL d   1       4.316  -1.269   0.401  0.00  0.00    -0.097 F 
ATOM     12  F4  UNL d   1       5.999  -1.696  -1.703  0.00  0.00    -0.092 F 
ENDROOT
TORSDOF 0
ENDMDL
