MODEL 1
REMARK minimizedAffinity 14.0382824
REMARK minimizedRMSD -1
REMARK  0 active torsions:
REMARK  status: ('A' for Active; 'I' for Inactive)
ROOT
ATOM      1  C   UNL d   1      -0.074   4.765  -0.089  0.00  0.00     0.124 A 
ATOM      2  C1  UNL d   1      -1.302   4.592  -0.711  0.00  0.00     0.062 A 
ATOM      3  C2  UNL d   1      -1.777   3.311  -0.978  0.00  0.00     0.162 A 
ATOM      4  C3  UNL d   1      -1.023   2.193  -0.621  0.00  0.00    -0.034 A 
ATOM      5  C4  UNL d   1       0.212   2.375   0.004  0.00  0.00     0.162 A 
ATOM      6  C5  UNL d   1       0.682   3.657   0.268  0.00  0.00     0.062 A 
ATOM      7  F   UNL d   1       1.869   3.823   0.870  0.00  0.00    -0.097 F 
ATOM      8  F1  UNL d   1       0.962   1.322   0.360  0.00  0.00    -0.096 F 
ATOM      9  I   UNL d   1      -1.730   0.276  -1.018  0.00  0.00    -0.060 I 
ATOM     10  F2  UNL d   1      -2.967   3.173  -1.581  0.00  0.00    -0.096 F 
ATOM     11  F3  UNL d   1      -2.034   5.661  -1.058  0.00  0.00    -0.097 F 
ATOM     12  F4  UNL d   1       0.381   5.999   0.166  0.00  0.00    -0.092 F 
ENDROOT
TORSDOF 0
ENDMDL
