MODEL 1
REMARK minimizedAffinity 25.2235546
REMARK minimizedRMSD -1
REMARK  0 active torsions:
REMARK  status: ('A' for Active; 'I' for Inactive)
ROOT
ATOM      1  C   UNL d   1       4.911  -2.551  -1.463  0.00  0.00     0.124 A 
ATOM      2  C1  UNL d   1       4.905  -3.717  -2.216  0.00  0.00     0.062 A 
ATOM      3  C2  UNL d   1       3.923  -4.681  -2.006  0.00  0.00     0.162 A 
ATOM      4  C3  UNL d   1       2.938  -4.483  -1.039  0.00  0.00    -0.034 A 
ATOM      5  C4  UNL d   1       2.951  -3.308  -0.285  0.00  0.00     0.162 A 
ATOM      6  C5  UNL d   1       3.934  -2.348  -0.499  0.00  0.00     0.062 A 
ATOM      7  F   UNL d   1       3.938  -1.222   0.230  0.00  0.00    -0.097 F 
ATOM      8  F1  UNL d   1       2.018  -3.086   0.653  0.00  0.00    -0.096 F 
ATOM      9  I   UNL d   1       1.468  -5.922  -0.722  0.00  0.00    -0.060 I 
ATOM     10  F2  UNL d   1       3.942  -5.798  -2.748  0.00  0.00    -0.096 F 
ATOM     11  F3  UNL d   1       5.848  -3.917  -3.148  0.00  0.00    -0.097 F 
ATOM     12  F4  UNL d   1       5.857  -1.626  -1.667  0.00  0.00    -0.092 F 
ENDROOT
TORSDOF 0
ENDMDL
