MODEL 1
REMARK minimizedAffinity 27.0608997
REMARK minimizedRMSD -1
REMARK  0 active torsions:
REMARK  status: ('A' for Active; 'I' for Inactive)
ROOT
ATOM      1  C   UNL d   1       0.815   4.133   0.296  0.00  0.00     0.124 A 
ATOM      2  C1  UNL d   1      -0.139   3.340   0.919  0.00  0.00     0.062 A 
ATOM      3  C2  UNL d   1      -1.478   3.439   0.554  0.00  0.00     0.162 A 
ATOM      4  C3  UNL d   1      -1.872   4.333  -0.441  0.00  0.00    -0.034 A 
ATOM      5  C4  UNL d   1      -0.907   5.128  -1.063  0.00  0.00     0.162 A 
ATOM      6  C5  UNL d   1       0.430   5.026  -0.694  0.00  0.00     0.062 A 
ATOM      7  F   UNL d   1       1.350   5.793  -1.297  0.00  0.00    -0.097 F 
ATOM      8  F1  UNL d   1      -1.252   5.999  -2.023  0.00  0.00    -0.096 F 
ATOM      9  I   UNL d   1      -3.874   4.484  -0.990  0.00  0.00    -0.060 I 
ATOM     10  F2  UNL d   1      -2.378   2.660   1.173  0.00  0.00    -0.096 F 
ATOM     11  F3  UNL d   1       0.231   2.477   1.876  0.00  0.00    -0.097 F 
ATOM     12  F4  UNL d   1       2.103   4.037   0.650  0.00  0.00    -0.092 F 
ENDROOT
TORSDOF 0
ENDMDL
