MODEL 1
REMARK minimizedAffinity 19.7170067
REMARK minimizedRMSD -1
REMARK  0 active torsions:
REMARK  status: ('A' for Active; 'I' for Inactive)
ROOT
ATOM      1  C   UNL d   1       5.437  -2.631  -0.966  0.00  0.00     0.124 A 
ATOM      2  C1  UNL d   1       5.436  -2.168  -2.274  0.00  0.00     0.062 A 
ATOM      3  C2  UNL d   1       4.853  -2.928  -3.284  0.00  0.00     0.162 A 
ATOM      4  C3  UNL d   1       4.264  -4.158  -2.990  0.00  0.00    -0.034 A 
ATOM      5  C4  UNL d   1       4.270  -4.617  -1.672  0.00  0.00     0.162 A 
ATOM      6  C5  UNL d   1       4.854  -3.854  -0.666  0.00  0.00     0.062 A 
ATOM      7  F   UNL d   1       4.854  -4.303   0.598  0.00  0.00    -0.097 F 
ATOM      8  F1  UNL d   1       3.713  -5.794  -1.354  0.00  0.00    -0.096 F 
ATOM      9  I   UNL d   1       3.391  -5.296  -4.498  0.00  0.00    -0.060 I 
ATOM     10  F2  UNL d   1       4.866  -2.456  -4.540  0.00  0.00    -0.096 F 
ATOM     11  F3  UNL d   1       5.999  -0.987  -2.567  0.00  0.00    -0.097 F 
ATOM     12  F4  UNL d   1       6.000  -1.899   0.004  0.00  0.00    -0.092 F 
ENDROOT
TORSDOF 0
ENDMDL
