MODEL 1
REMARK minimizedAffinity 20.5465622
REMARK minimizedRMSD -1
REMARK  0 active torsions:
REMARK  status: ('A' for Active; 'I' for Inactive)
ROOT
ATOM      1  C   UNL d   1      -1.875   0.458  -3.941  0.00  0.00     0.124 A 
ATOM      2  C1  UNL d   1      -1.404  -0.516  -3.072  0.00  0.00     0.062 A 
ATOM      3  C2  UNL d   1      -1.719  -0.457  -1.717  0.00  0.00     0.162 A 
ATOM      4  C3  UNL d   1      -2.509   0.581  -1.223  0.00  0.00    -0.034 A 
ATOM      5  C4  UNL d   1      -2.978   1.557  -2.103  0.00  0.00     0.162 A 
ATOM      6  C5  UNL d   1      -2.661   1.494  -3.456  0.00  0.00     0.062 A 
ATOM      7  F   UNL d   1      -3.117   2.436  -4.294  0.00  0.00    -0.097 F 
ATOM      8  F1  UNL d   1      -3.741   2.569  -1.662  0.00  0.00    -0.096 F 
ATOM      9  I   UNL d   1      -2.982   0.673   0.802  0.00  0.00    -0.060 I 
ATOM     10  F2  UNL d   1      -1.250  -1.412  -0.900  0.00  0.00    -0.096 F 
ATOM     11  F3  UNL d   1      -0.644  -1.517  -3.537  0.00  0.00    -0.097 F 
ATOM     12  F4  UNL d   1      -1.570   0.399  -5.244  0.00  0.00    -0.092 F 
ENDROOT
TORSDOF 0
ENDMDL
