MODEL 1
REMARK minimizedAffinity 14.3031492
REMARK minimizedRMSD -1
REMARK  0 active torsions:
REMARK  status: ('A' for Active; 'I' for Inactive)
ROOT
ATOM      1  C   UNL d   1       1.457  -0.538   2.774  0.00  0.00     0.124 A 
ATOM      2  C1  UNL d   1       1.756  -0.464   1.421  0.00  0.00     0.062 A 
ATOM      3  C2  UNL d   1       1.327   0.625   0.667  0.00  0.00     0.162 A 
ATOM      4  C3  UNL d   1       0.596   1.651   1.266  0.00  0.00    -0.034 A 
ATOM      5  C4  UNL d   1       0.298   1.569   2.628  0.00  0.00     0.162 A 
ATOM      6  C5  UNL d   1       0.729   0.479   3.376  0.00  0.00     0.062 A 
ATOM      7  F   UNL d   1       0.439   0.409   4.684  0.00  0.00    -0.097 F 
ATOM      8  F1  UNL d   1      -0.403   2.538   3.235  0.00  0.00    -0.096 F 
ATOM      9  I   UNL d   1      -0.047   3.281   0.143  0.00  0.00    -0.060 I 
ATOM     10  F2  UNL d   1       1.630   0.670  -0.638  0.00  0.00    -0.096 F 
ATOM     11  F3  UNL d   1       2.459  -1.445   0.836  0.00  0.00    -0.097 F 
ATOM     12  F4  UNL d   1       1.870  -1.587   3.496  0.00  0.00    -0.092 F 
ENDROOT
TORSDOF 0
ENDMDL
