MODEL 1
REMARK minimizedAffinity 20.3834267
REMARK minimizedRMSD -1
REMARK  0 active torsions:
REMARK  status: ('A' for Active; 'I' for Inactive)
ROOT
ATOM      1  C   UNL d   1       2.447   0.739   4.448  0.00  0.00     0.124 A 
ATOM      2  C1  UNL d   1       1.093   0.648   4.158  0.00  0.00     0.062 A 
ATOM      3  C2  UNL d   1       0.519   1.500   3.219  0.00  0.00     0.162 A 
ATOM      4  C3  UNL d   1       1.299   2.451   2.561  0.00  0.00    -0.034 A 
ATOM      5  C4  UNL d   1       2.660   2.537   2.858  0.00  0.00     0.162 A 
ATOM      6  C5  UNL d   1       3.230   1.683   3.798  0.00  0.00     0.062 A 
ATOM      7  F   UNL d   1       4.538   1.773   4.076  0.00  0.00    -0.097 F 
ATOM      8  F1  UNL d   1       3.440   3.440   2.244  0.00  0.00    -0.096 F 
ATOM      9  I   UNL d   1       0.444   3.726   1.157  0.00  0.00    -0.060 I 
ATOM     10  F2  UNL d   1      -0.793   1.389   2.960  0.00  0.00    -0.096 F 
ATOM     11  F3  UNL d   1       0.335  -0.263   4.786  0.00  0.00    -0.097 F 
ATOM     12  F4  UNL d   1       2.997  -0.081   5.352  0.00  0.00    -0.092 F 
ENDROOT
TORSDOF 0
ENDMDL
