MODEL 1
REMARK minimizedAffinity 9.97892857
REMARK minimizedRMSD -1
REMARK  0 active torsions:
REMARK  status: ('A' for Active; 'I' for Inactive)
ROOT
ATOM      1  C   UNL d   1       5.036  -2.259  -2.603  0.00  0.00     0.124 A 
ATOM      2  C1  UNL d   1       4.632  -2.322  -1.276  0.00  0.00     0.062 A 
ATOM      3  C2  UNL d   1       3.855  -3.387  -0.831  0.00  0.00     0.162 A 
ATOM      4  C3  UNL d   1       3.478  -4.400  -1.713  0.00  0.00    -0.034 A 
ATOM      5  C4  UNL d   1       3.888  -4.330  -3.045  0.00  0.00     0.162 A 
ATOM      6  C5  UNL d   1       4.664  -3.263  -3.486  0.00  0.00     0.062 A 
ATOM      7  F   UNL d   1       5.054  -3.204  -4.767  0.00  0.00    -0.097 F 
ATOM      8  F1  UNL d   1       3.543  -5.287  -3.920  0.00  0.00    -0.096 F 
ATOM      9  I   UNL d   1       2.316  -5.995  -1.051  0.00  0.00    -0.060 I 
ATOM     10  F2  UNL d   1       3.478  -3.422   0.456  0.00  0.00    -0.096 F 
ATOM     11  F3  UNL d   1       4.989  -1.353  -0.421  0.00  0.00    -0.097 F 
ATOM     12  F4  UNL d   1       5.783  -1.232  -3.029  0.00  0.00    -0.092 F 
ENDROOT
TORSDOF 0
ENDMDL
