MODEL 1
REMARK minimizedAffinity -2.5818553
REMARK minimizedRMSD -1
REMARK  1 active torsions:
REMARK  status: ('A' for Active; 'I' for Inactive)
REMARK    1  A    between atoms: C1_2  and  C2_3 
ROOT
ATOM      1  C2  UNL d   1      -0.882   0.539   1.485  0.00  0.00    -0.077 A 
ATOM      2  C3  UNL d   1      -0.467   1.157   0.297  0.00  0.00     0.002 A 
ATOM      3  C4  UNL d   1       0.338   0.470  -0.613  0.00  0.00     0.002 A 
ATOM      4  C5  UNL d   1       0.732  -0.840  -0.346  0.00  0.00    -0.004 A 
ATOM      5  C6  UNL d   1       0.326  -1.463   0.834  0.00  0.00     0.002 A 
ATOM      6  C7  UNL d   1      -0.478  -0.776   1.745  0.00  0.00     0.002 A 
ENDROOT
BRANCH   1   7
ATOM      7  C1  UNL d   1      -1.791   1.262   2.445  0.00  0.00     0.055 C 
ATOM      8  C   UNL d   1      -2.064   2.686   1.982  0.00  0.00     0.019 C 
ENDBRANCH   1   7
TORSDOF 1
ENDMDL
