MODEL 1
REMARK minimizedAffinity -5.6703577
REMARK minimizedRMSD -1
REMARK  1 active torsions:
REMARK  status: ('A' for Active; 'I' for Inactive)
REMARK    1  A    between atoms: C1_2  and  C2_3 
ROOT
ATOM      1  C2  UNL d   1      -0.343  -0.207  -0.067  0.00  0.00    -0.077 A 
ATOM      2  C3  UNL d   1      -0.530   1.165  -0.284  0.00  0.00     0.002 A 
ATOM      3  C4  UNL d   1      -1.177   1.950   0.671  0.00  0.00     0.002 A 
ATOM      4  C5  UNL d   1      -1.639   1.373   1.853  0.00  0.00    -0.004 A 
ATOM      5  C6  UNL d   1      -1.460   0.009   2.078  0.00  0.00     0.002 A 
ATOM      6  C7  UNL d   1      -0.814  -0.777   1.123  0.00  0.00     0.002 A 
ENDROOT
BRANCH   1   7
ATOM      7  C1  UNL d   1       0.399  -1.046  -1.074  0.00  0.00     0.055 C 
ATOM      8  C   UNL d   1      -0.384  -2.301  -1.433  0.00  0.00     0.019 C 
ENDBRANCH   1   7
TORSDOF 1
ENDMDL
