MODEL 1
REMARK minimizedAffinity -5.41730356
REMARK minimizedRMSD -1
REMARK  1 active torsions:
REMARK  status: ('A' for Active; 'I' for Inactive)
REMARK    1  A    between atoms: C1_2  and  C2_3 
ROOT
ATOM      1  C2  UNL d   1      -0.179   0.082   0.240  0.00  0.00    -0.077 A 
ATOM      2  C3  UNL d   1      -1.145   0.893  -0.373  0.00  0.00     0.002 A 
ATOM      3  C4  UNL d   1      -1.978   1.706   0.399  0.00  0.00     0.002 A 
ATOM      4  C5  UNL d   1      -1.849   1.719   1.786  0.00  0.00    -0.004 A 
ATOM      5  C6  UNL d   1      -0.893   0.916   2.405  0.00  0.00     0.002 A 
ATOM      6  C7  UNL d   1      -0.061   0.102   1.635  0.00  0.00     0.002 A 
ENDROOT
BRANCH   1   7
ATOM      7  C1  UNL d   1       0.752  -0.758  -0.594  0.00  0.00     0.055 C 
ATOM      8  C   UNL d   1      -0.015  -1.772  -1.430  0.00  0.00     0.019 C 
ENDBRANCH   1   7
TORSDOF 1
ENDMDL
