MODEL 1
REMARK minimizedAffinity -5.6455822
REMARK minimizedRMSD -1
REMARK  1 active torsions:
REMARK  status: ('A' for Active; 'I' for Inactive)
REMARK    1  A    between atoms: C1_2  and  C2_3 
ROOT
ATOM      1  C2  UNL d   1      -0.041   0.112  -0.128  0.00  0.00    -0.077 A 
ATOM      2  C3  UNL d   1      -0.461   1.379  -0.556  0.00  0.00     0.002 A 
ATOM      3  C4  UNL d   1      -1.252   2.178   0.273  0.00  0.00     0.002 A 
ATOM      4  C5  UNL d   1      -1.626   1.720   1.534  0.00  0.00    -0.004 A 
ATOM      5  C6  UNL d   1      -1.215   0.460   1.968  0.00  0.00     0.002 A 
ATOM      6  C7  UNL d   1      -0.425  -0.340   1.141  0.00  0.00     0.002 A 
ENDROOT
BRANCH   1   7
ATOM      7  C1  UNL d   1       0.854  -0.730  -1.000  0.00  0.00     0.055 C 
ATOM      8  C   UNL d   1       0.062  -1.808  -1.726  0.00  0.00     0.019 C 
ENDBRANCH   1   7
TORSDOF 1
ENDMDL
