MODEL 1
REMARK minimizedAffinity -4.49701357
REMARK minimizedRMSD -1
REMARK  1 active torsions:
REMARK  status: ('A' for Active; 'I' for Inactive)
REMARK    1  A    between atoms: C1_2  and  C2_3 
ROOT
ATOM      1  C2  UNL d   1      -0.616   0.325   0.189  0.00  0.00    -0.077 A 
ATOM      2  C3  UNL d   1       0.224   1.003  -0.706  0.00  0.00     0.002 A 
ATOM      3  C4  UNL d   1      -0.094   2.293  -1.134  0.00  0.00     0.002 A 
ATOM      4  C5  UNL d   1      -1.249   2.918  -0.669  0.00  0.00    -0.004 A 
ATOM      5  C6  UNL d   1      -2.092   2.252   0.220  0.00  0.00     0.002 A 
ATOM      6  C7  UNL d   1      -1.777   0.962   0.647  0.00  0.00     0.002 A 
ENDROOT
BRANCH   1   7
ATOM      7  C1  UNL d   1      -0.250  -1.047   0.690  0.00  0.00     0.055 C 
ATOM      8  C   UNL d   1       0.705  -0.968   1.872  0.00  0.00     0.019 C 
ENDBRANCH   1   7
TORSDOF 1
ENDMDL
