MODEL 1
REMARK minimizedAffinity -5.53350687
REMARK minimizedRMSD -1
REMARK  1 active torsions:
REMARK  status: ('A' for Active; 'I' for Inactive)
REMARK    1  A    between atoms: C1_2  and  C2_3 
ROOT
ATOM      1  C2  UNL d   1      -0.059   0.047   0.086  0.00  0.00    -0.077 A 
ATOM      2  C3  UNL d   1      -0.804   1.113  -0.438  0.00  0.00     0.002 A 
ATOM      3  C4  UNL d   1      -1.773   1.747   0.341  0.00  0.00     0.002 A 
ATOM      4  C5  UNL d   1      -2.004   1.326   1.649  0.00  0.00    -0.004 A 
ATOM      5  C6  UNL d   1      -1.270   0.265   2.179  0.00  0.00     0.002 A 
ATOM      6  C7  UNL d   1      -0.301  -0.371   1.401  0.00  0.00     0.002 A 
ENDROOT
BRANCH   1   7
ATOM      7  C1  UNL d   1       1.022  -0.606  -0.736  0.00  0.00     0.055 C 
ATOM      8  C   UNL d   1       0.479  -1.792  -1.520  0.00  0.00     0.019 C 
ENDBRANCH   1   7
TORSDOF 1
ENDMDL
