MODEL 1
REMARK minimizedAffinity -5.38957596
REMARK minimizedRMSD -1
REMARK  1 active torsions:
REMARK  status: ('A' for Active; 'I' for Inactive)
REMARK    1  A    between atoms: C1_2  and  C2_3 
ROOT
ATOM      1  C2  UNL d   1      -0.301  -0.068   0.374  0.00  0.00    -0.077 A 
ATOM      2  C3  UNL d   1      -0.977   1.023  -0.191  0.00  0.00     0.002 A 
ATOM      3  C4  UNL d   1      -1.908   1.743   0.559  0.00  0.00     0.002 A 
ATOM      4  C5  UNL d   1      -2.169   1.383   1.880  0.00  0.00    -0.004 A 
ATOM      5  C6  UNL d   1      -1.504   0.298   2.450  0.00  0.00     0.002 A 
ATOM      6  C7  UNL d   1      -0.574  -0.423   1.701  0.00  0.00     0.002 A 
ENDROOT
BRANCH   1   7
ATOM      7  C1  UNL d   1       0.739  -0.815  -0.418  0.00  0.00     0.055 C 
ATOM      8  C   UNL d   1       0.123  -1.516  -1.620  0.00  0.00     0.019 C 
ENDBRANCH   1   7
TORSDOF 1
ENDMDL
