MODEL 1
REMARK minimizedAffinity -5.53326225
REMARK minimizedRMSD -1
REMARK  1 active torsions:
REMARK  status: ('A' for Active; 'I' for Inactive)
REMARK    1  A    between atoms: C1_2  and  C2_3 
ROOT
ATOM      1  C2  UNL d   1       0.068   0.223  -0.134  0.00  0.00    -0.077 A 
ATOM      2  C3  UNL d   1      -0.415   1.465  -0.569  0.00  0.00     0.002 A 
ATOM      3  C4  UNL d   1      -1.286   2.204   0.234  0.00  0.00     0.002 A 
ATOM      4  C5  UNL d   1      -1.679   1.712   1.476  0.00  0.00    -0.004 A 
ATOM      5  C6  UNL d   1      -1.206   0.476   1.917  0.00  0.00     0.002 A 
ATOM      6  C7  UNL d   1      -0.336  -0.265   1.115  0.00  0.00     0.002 A 
ENDROOT
BRANCH   1   7
ATOM      7  C1  UNL d   1       1.046  -0.554  -0.977  0.00  0.00     0.055 C 
ATOM      8  C   UNL d   1       0.594  -1.995  -1.164  0.00  0.00     0.019 C 
ENDBRANCH   1   7
TORSDOF 1
ENDMDL
