MODEL 1
REMARK minimizedAffinity -5.11036634
REMARK minimizedRMSD -1
REMARK  1 active torsions:
REMARK  status: ('A' for Active; 'I' for Inactive)
REMARK    1  A    between atoms: C1_2  and  C2_3 
ROOT
ATOM      1  C2  UNL d   1       1.023  -2.086  -1.007  0.00  0.00    -0.077 A 
ATOM      2  C3  UNL d   1      -0.028  -2.620  -1.765  0.00  0.00     0.002 A 
ATOM      3  C4  UNL d   1      -0.116  -3.997  -1.980  0.00  0.00     0.002 A 
ATOM      4  C5  UNL d   1       0.842  -4.851  -1.436  0.00  0.00    -0.004 A 
ATOM      5  C6  UNL d   1       1.892  -4.329  -0.682  0.00  0.00     0.002 A 
ATOM      6  C7  UNL d   1       1.982  -2.953  -0.467  0.00  0.00     0.002 A 
ENDROOT
BRANCH   1   7
ATOM      7  C1  UNL d   1       1.092  -0.607  -0.733  0.00  0.00     0.055 C 
ATOM      8  C   UNL d   1      -0.085  -0.145   0.114  0.00  0.00     0.019 C 
ENDBRANCH   1   7
TORSDOF 1
ENDMDL
