MODEL 1
REMARK minimizedAffinity -4.89675188
REMARK minimizedRMSD -1
REMARK  1 active torsions:
REMARK  status: ('A' for Active; 'I' for Inactive)
REMARK    1  A    between atoms: C1_2  and  C2_3 
ROOT
ATOM      1  C2  UNL d   1      -0.486   0.717   0.972  0.00  0.00    -0.077 A 
ATOM      2  C3  UNL d   1      -0.116   1.367  -0.214  0.00  0.00     0.002 A 
ATOM      3  C4  UNL d   1       0.428   0.642  -1.276  0.00  0.00     0.002 A 
ATOM      4  C5  UNL d   1       0.601  -0.735  -1.166  0.00  0.00    -0.004 A 
ATOM      5  C6  UNL d   1       0.238  -1.391   0.010  0.00  0.00     0.002 A 
ATOM      6  C7  UNL d   1      -0.304  -0.668   1.074  0.00  0.00     0.002 A 
ENDROOT
BRANCH   1   7
ATOM      7  C1  UNL d   1      -1.118   1.489   2.101  0.00  0.00     0.055 C 
ATOM      8  C   UNL d   1      -2.248   2.376   1.600  0.00  0.00     0.019 C 
ENDBRANCH   1   7
TORSDOF 1
ENDMDL
