MODEL 1
REMARK minimizedAffinity -3.45611358
REMARK minimizedRMSD -1
REMARK  1 active torsions:
REMARK  status: ('A' for Active; 'I' for Inactive)
REMARK    1  A    between atoms: C1_2  and  C2_3 
ROOT
ATOM      1  C2  UNL d   1      -1.014   0.918   0.941  0.00  0.00    -0.077 A 
ATOM      2  C3  UNL d   1      -0.771   1.497  -0.312  0.00  0.00     0.002 A 
ATOM      3  C4  UNL d   1       0.180   0.945  -1.173  0.00  0.00     0.002 A 
ATOM      4  C5  UNL d   1       0.891  -0.191  -0.792  0.00  0.00    -0.004 A 
ATOM      5  C6  UNL d   1       0.657  -0.773   0.453  0.00  0.00     0.002 A 
ATOM      6  C7  UNL d   1      -0.291  -0.222   1.316  0.00  0.00     0.002 A 
ENDROOT
BRANCH   1   7
ATOM      7  C1  UNL d   1      -2.074   1.483   1.851  0.00  0.00     0.055 C 
ATOM      8  C   UNL d   1      -2.513   2.867   1.396  0.00  0.00     0.019 C 
ENDBRANCH   1   7
TORSDOF 1
ENDMDL
