MODEL 1
REMARK minimizedAffinity -5.29570675
REMARK minimizedRMSD -1
REMARK  1 active torsions:
REMARK  status: ('A' for Active; 'I' for Inactive)
REMARK    1  A    between atoms: C1_2  and  C2_3 
ROOT
ATOM      1  C2  UNL d   1       0.118   0.334   0.126  0.00  0.00    -0.077 A 
ATOM      2  C3  UNL d   1      -0.823   1.180  -0.477  0.00  0.00     0.002 A 
ATOM      3  C4  UNL d   1      -1.956   1.592   0.227  0.00  0.00     0.002 A 
ATOM      4  C5  UNL d   1      -2.156   1.166   1.539  0.00  0.00    -0.004 A 
ATOM      5  C6  UNL d   1      -1.227   0.323   2.147  0.00  0.00     0.002 A 
ATOM      6  C7  UNL d   1      -0.094  -0.091   1.444  0.00  0.00     0.002 A 
ENDROOT
BRANCH   1   7
ATOM      7  C1  UNL d   1       1.366  -0.072  -0.615  0.00  0.00     0.055 C 
ATOM      8  C   UNL d   1       1.897   1.069  -1.470  0.00  0.00     0.019 C 
ENDBRANCH   1   7
TORSDOF 1
ENDMDL
