MODEL 1
REMARK minimizedAffinity -5.98585987
REMARK minimizedRMSD -1
REMARK  1 active torsions:
REMARK  status: ('A' for Active; 'I' for Inactive)
REMARK    1  A    between atoms: C1_2  and  C2_3 
ROOT
ATOM      1  C2  UNL d   1      -0.384   0.183  -0.056  0.00  0.00    -0.077 A 
ATOM      2  C3  UNL d   1      -1.182   1.140  -0.697  0.00  0.00     0.002 A 
ATOM      3  C4  UNL d   1      -2.207   1.785  -0.002  0.00  0.00     0.002 A 
ATOM      4  C5  UNL d   1      -2.439   1.483   1.338  0.00  0.00    -0.004 A 
ATOM      5  C6  UNL d   1      -1.652   0.531   1.984  0.00  0.00     0.002 A 
ATOM      6  C7  UNL d   1      -0.628  -0.116   1.291  0.00  0.00     0.002 A 
ENDROOT
BRANCH   1   7
ATOM      7  C1  UNL d   1       0.754  -0.478  -0.790  0.00  0.00     0.055 C 
ATOM      8  C   UNL d   1       0.255  -1.602  -1.687  0.00  0.00     0.019 C 
ENDBRANCH   1   7
TORSDOF 1
ENDMDL
