MODEL 1
REMARK minimizedAffinity -4.30433702
REMARK minimizedRMSD -1
REMARK  1 active torsions:
REMARK  status: ('A' for Active; 'I' for Inactive)
REMARK    1  A    between atoms: C1_2  and  C2_3 
ROOT
ATOM      1  C2  UNL d   1       0.075   0.056  -0.114  0.00  0.00    -0.077 A 
ATOM      2  C3  UNL d   1      -0.582   1.238  -0.483  0.00  0.00     0.002 A 
ATOM      3  C4  UNL d   1      -1.454   1.868   0.407  0.00  0.00     0.002 A 
ATOM      4  C5  UNL d   1      -1.673   1.326   1.672  0.00  0.00    -0.004 A 
ATOM      5  C6  UNL d   1      -1.026   0.150   2.047  0.00  0.00     0.002 A 
ATOM      6  C7  UNL d   1      -0.155  -0.482   1.158  0.00  0.00     0.002 A 
ENDROOT
BRANCH   1   7
ATOM      7  C1  UNL d   1       1.053  -0.599  -1.054  0.00  0.00     0.055 C 
ATOM      8  C   UNL d   1       0.955  -2.116  -0.987  0.00  0.00     0.019 C 
ENDBRANCH   1   7
TORSDOF 1
ENDMDL
