MODEL 1
REMARK minimizedAffinity 4.46199036
REMARK minimizedRMSD -1
REMARK  0 active torsions:
REMARK  status: ('A' for Active; 'I' for Inactive)
ROOT
ATOM      1  C2' OXE d   1       1.207   4.603   5.936  0.00  0.00     0.078 C 
ATOM      2  C1' OXE d   1       3.520   5.281   4.499  0.00  0.00     0.078 C 
ATOM      3  C1  OXE d   1       3.341   3.839   4.904  0.00  0.00    -0.078 A 
ATOM      4  C2  OXE d   1       2.229   3.525   5.647  0.00  0.00    -0.078 A 
ATOM      5  C3  OXE d   1       1.987   2.201   6.000  0.00  0.00     0.003 A 
ATOM      6  C4  OXE d   1       2.943   1.211   5.737  0.00  0.00    -0.002 A 
ATOM      7  C5  OXE d   1       4.101   1.517   5.016  0.00  0.00    -0.002 A 
ATOM      8  C6  OXE d   1       4.295   2.815   4.556  0.00  0.00     0.003 A 
ENDROOT
TORSDOF 0
ENDMDL
