MODEL 1
REMARK minimizedAffinity 0.666900218
REMARK minimizedRMSD -1
REMARK  0 active torsions:
REMARK  status: ('A' for Active; 'I' for Inactive)
ROOT
ATOM      1  C2' OXE d   1       5.320   2.596   5.908  0.00  0.00     0.078 C 
ATOM      2  C1' OXE d   1       3.011   1.002   5.994  0.00  0.00     0.078 C 
ATOM      3  C1  OXE d   1       2.832   2.499   5.967  0.00  0.00    -0.078 A 
ATOM      4  C2  OXE d   1       3.968   3.272   5.973  0.00  0.00    -0.078 A 
ATOM      5  C3  OXE d   1       3.859   4.658   5.894  0.00  0.00     0.003 A 
ATOM      6  C4  OXE d   1       2.604   5.275   5.964  0.00  0.00    -0.002 A 
ATOM      7  C5  OXE d   1       1.436   4.507   6.000  0.00  0.00    -0.002 A 
ATOM      8  C6  OXE d   1       1.530   3.120   5.959  0.00  0.00     0.003 A 
ENDROOT
TORSDOF 0
ENDMDL
