MODEL 1
REMARK minimizedAffinity 8.04230022
REMARK minimizedRMSD -1
REMARK  0 active torsions:
REMARK  status: ('A' for Active; 'I' for Inactive)
ROOT
ATOM      1  C2' OXE d   1       3.941   5.911   4.444  0.00  0.00     0.078 C 
ATOM      2  C1' OXE d   1       1.282   5.945   5.345  0.00  0.00     0.078 C 
ATOM      3  C1  OXE d   1       2.041   4.645   5.442  0.00  0.00    -0.078 A 
ATOM      4  C2  OXE d   1       3.327   4.625   4.956  0.00  0.00    -0.078 A 
ATOM      5  C3  OXE d   1       4.090   3.467   5.071  0.00  0.00     0.003 A 
ATOM      6  C4  OXE d   1       3.511   2.280   5.537  0.00  0.00    -0.002 A 
ATOM      7  C5  OXE d   1       2.191   2.268   6.000  0.00  0.00    -0.002 A 
ATOM      8  C6  OXE d   1       1.458   3.450   5.999  0.00  0.00     0.003 A 
ENDROOT
TORSDOF 0
ENDMDL
