MODEL 1
REMARK minimizedAffinity -0.827233076
REMARK minimizedRMSD -1
REMARK  0 active torsions:
REMARK  status: ('A' for Active; 'I' for Inactive)
ROOT
ATOM      1  C2' OXE d   1       3.692   5.251   5.127  0.00  0.00     0.078 C 
ATOM      2  C1' OXE d   1       1.052   4.863   5.999  0.00  0.00     0.078 C 
ATOM      3  C1  OXE d   1       1.903   3.639   5.766  0.00  0.00    -0.078 A 
ATOM      4  C2  OXE d   1       3.178   3.837   5.294  0.00  0.00    -0.078 A 
ATOM      5  C3  OXE d   1       4.023   2.746   5.114  0.00  0.00     0.003 A 
ATOM      6  C4  OXE d   1       3.537   1.441   5.262  0.00  0.00    -0.002 A 
ATOM      7  C5  OXE d   1       2.229   1.216   5.703  0.00  0.00    -0.002 A 
ATOM      8  C6  OXE d   1       1.414   2.303   6.000  0.00  0.00     0.003 A 
ENDROOT
TORSDOF 0
ENDMDL
