MODEL 1
REMARK minimizedAffinity -1.27579665
REMARK minimizedRMSD -1
REMARK  0 active torsions:
REMARK  status: ('A' for Active; 'I' for Inactive)
ROOT
ATOM      1  C2' OXE d   1      -0.915  -4.627   4.170  0.00  0.00     0.078 C 
ATOM      2  C1' OXE d   1       1.128  -5.231   5.998  0.00  0.00     0.078 C 
ATOM      3  C1  OXE d   1       1.154  -3.876   5.336  0.00  0.00    -0.078 A 
ATOM      4  C2  OXE d   1       0.177  -3.606   4.408  0.00  0.00    -0.078 A 
ATOM      5  C3  OXE d   1       0.123  -2.351   3.808  0.00  0.00     0.003 A 
ATOM      6  C4  OXE d   1       1.142  -1.417   4.027  0.00  0.00    -0.002 A 
ATOM      7  C5  OXE d   1       2.169  -1.686   4.938  0.00  0.00    -0.002 A 
ATOM      8  C6  OXE d   1       2.166  -2.892   5.631  0.00  0.00     0.003 A 
ENDROOT
TORSDOF 0
ENDMDL
