MODEL 1
REMARK minimizedAffinity 6.59678745
REMARK minimizedRMSD -1
REMARK  0 active torsions:
REMARK  status: ('A' for Active; 'I' for Inactive)
ROOT
ATOM      1  C2' OXE d   1       1.849   1.400   5.995  0.00  0.00     0.078 C 
ATOM      2  C1' OXE d   1       4.215   2.730   5.283  0.00  0.00     0.078 C 
ATOM      3  C1  OXE d   1       2.953   3.549   5.387  0.00  0.00    -0.078 A 
ATOM      4  C2  OXE d   1       1.790   2.881   5.691  0.00  0.00    -0.078 A 
ATOM      5  C3  OXE d   1       0.607   3.597   5.854  0.00  0.00     0.003 A 
ATOM      6  C4  OXE d   1       0.560   4.965   5.561  0.00  0.00    -0.002 A 
ATOM      7  C5  OXE d   1       1.725   5.657   5.211  0.00  0.00    -0.002 A 
ATOM      8  C6  OXE d   1       2.935   4.973   5.162  0.00  0.00     0.003 A 
ENDROOT
TORSDOF 0
ENDMDL
