MODEL 1
REMARK minimizedAffinity -1.85263014
REMARK minimizedRMSD -1
REMARK  0 active torsions:
REMARK  status: ('A' for Active; 'I' for Inactive)
ROOT
ATOM      1  C2' OXE d   1       1.568   4.204   6.000  0.00  0.00     0.078 C 
ATOM      2  C1' OXE d   1       2.220   1.473   5.999  0.00  0.00     0.078 C 
ATOM      3  C1  OXE d   1       3.350   2.467   5.897  0.00  0.00    -0.078 A 
ATOM      4  C2  OXE d   1       3.018   3.799   5.851  0.00  0.00    -0.078 A 
ATOM      5  C3  OXE d   1       4.026   4.759   5.813  0.00  0.00     0.003 A 
ATOM      6  C4  OXE d   1       5.364   4.377   5.665  0.00  0.00    -0.002 A 
ATOM      7  C5  OXE d   1       5.721   3.024   5.670  0.00  0.00    -0.002 A 
ATOM      8  C6  OXE d   1       4.732   2.059   5.828  0.00  0.00     0.003 A 
ENDROOT
TORSDOF 0
ENDMDL
