MODEL 1
REMARK minimizedAffinity 4.41136217
REMARK minimizedRMSD -1
REMARK  0 active torsions:
REMARK  status: ('A' for Active; 'I' for Inactive)
ROOT
ATOM      1  C2' OXE d   1       5.523   2.654   5.822  0.00  0.00     0.078 C 
ATOM      2  C1' OXE d   1       3.146   1.171   6.000  0.00  0.00     0.078 C 
ATOM      3  C1  OXE d   1       3.035   2.674   5.956  0.00  0.00    -0.078 A 
ATOM      4  C2  OXE d   1       4.205   3.394   5.917  0.00  0.00    -0.078 A 
ATOM      5  C3  OXE d   1       4.158   4.781   5.820  0.00  0.00     0.003 A 
ATOM      6  C4  OXE d   1       2.936   5.458   5.918  0.00  0.00    -0.002 A 
ATOM      7  C5  OXE d   1       1.735   4.745   6.000  0.00  0.00    -0.002 A 
ATOM      8  C6  OXE d   1       1.764   3.355   5.977  0.00  0.00     0.003 A 
ENDROOT
TORSDOF 0
ENDMDL
