MODEL 1
REMARK minimizedAffinity 2.7315855
REMARK minimizedRMSD -1
REMARK  0 active torsions:
REMARK  status: ('A' for Active; 'I' for Inactive)
ROOT
ATOM      1  C2' OXE d   1       4.391   1.762   4.676  0.00  0.00     0.078 C 
ATOM      2  C1' OXE d   1       1.969   1.219   5.986  0.00  0.00     0.078 C 
ATOM      3  C1  OXE d   1       2.291   2.658   5.671  0.00  0.00    -0.078 A 
ATOM      4  C2  OXE d   1       3.499   2.919   5.072  0.00  0.00    -0.078 A 
ATOM      5  C3  OXE d   1       3.822   4.224   4.711  0.00  0.00     0.003 A 
ATOM      6  C4  OXE d   1       2.996   5.289   5.089  0.00  0.00    -0.002 A 
ATOM      7  C5  OXE d   1       1.779   5.049   5.736  0.00  0.00    -0.002 A 
ATOM      8  C6  OXE d   1       1.393   3.739   5.995  0.00  0.00     0.003 A 
ENDROOT
TORSDOF 0
ENDMDL
