MODEL 1
REMARK minimizedAffinity 8.7231245
REMARK minimizedRMSD -1
REMARK  0 active torsions:
REMARK  status: ('A' for Active; 'I' for Inactive)
ROOT
ATOM      1  C2' OXE d   1       3.210  -1.187  -1.003  0.00  0.00     0.078 C 
ATOM      2  C1' OXE d   1       1.517   0.750   0.119  0.00  0.00     0.078 C 
ATOM      3  C1  OXE d   1       2.982   1.087  -0.013  0.00  0.00    -0.078 A 
ATOM      4  C2  OXE d   1       3.810   0.115  -0.520  0.00  0.00    -0.078 A 
ATOM      5  C3  OXE d   1       5.160   0.393  -0.714  0.00  0.00     0.003 A 
ATOM      6  C4  OXE d   1       5.709   1.597  -0.255  0.00  0.00    -0.002 A 
ATOM      7  C5  OXE d   1       4.890   2.584   0.301  0.00  0.00    -0.002 A 
ATOM      8  C6  OXE d   1       3.520   2.363   0.390  0.00  0.00     0.003 A 
ENDROOT
TORSDOF 0
ENDMDL
