MODEL 1
REMARK minimizedAffinity 1.97152424
REMARK minimizedRMSD -1
REMARK  0 active torsions:
REMARK  status: ('A' for Active; 'I' for Inactive)
ROOT
ATOM      1  O1  BZF d   1       0.049  -1.607   2.834  0.00  0.00    -0.204 OA
ATOM      2  C2  BZF d   1       1.430  -1.575   2.826  0.00  0.00     0.174 A 
ATOM      3  C3  BZF d   1       1.926  -2.525   2.007  0.00  0.00    -0.012 A 
ATOM      4  C3A BZF d   1       0.782  -3.132   1.399  0.00  0.00    -0.107 A 
ATOM      5  C4  BZF d   1       0.626  -4.130   0.480  0.00  0.00     0.055 A 
ATOM      6  C5  BZF d   1      -0.629  -4.535   0.152  0.00  0.00    -0.016 A 
ATOM      7  C6  BZF d   1      -1.748  -3.969   0.726  0.00  0.00     0.022 A 
ATOM      8  C7  BZF d   1      -1.644  -2.973   1.639  0.00  0.00     0.029 A 
ATOM      9  C7A BZF d   1      -0.378  -2.538   1.948  0.00  0.00     0.058 A 
ENDROOT
TORSDOF 0
ENDMDL
