MODEL 1
REMARK minimizedAffinity 7.08970642
REMARK minimizedRMSD -1
REMARK  0 active torsions:
REMARK  status: ('A' for Active; 'I' for Inactive)
ROOT
ATOM      1  O1  BZF d   1       0.503   2.611  -3.420  0.00  0.00    -0.204 OA
ATOM      2  C2  BZF d   1       1.751   2.801  -2.857  0.00  0.00     0.174 A 
ATOM      3  C3  BZF d   1       2.373   3.858  -3.418  0.00  0.00    -0.012 A 
ATOM      4  C3A BZF d   1       1.420   4.416  -4.328  0.00  0.00    -0.107 A 
ATOM      5  C4  BZF d   1       1.444   5.491  -5.170  0.00  0.00     0.055 A 
ATOM      6  C5  BZF d   1       0.375   5.721  -5.978  0.00  0.00    -0.016 A 
ATOM      7  C6  BZF d   1      -0.729   4.895  -5.974  0.00  0.00     0.022 A 
ATOM      8  C7  BZF d   1      -0.801   3.820  -5.152  0.00  0.00     0.029 A 
ATOM      9  C7A BZF d   1       0.263   3.603  -4.311  0.00  0.00     0.058 A 
ENDROOT
TORSDOF 0
ENDMDL
