MODEL 1
REMARK minimizedAffinity -1.97652411
REMARK minimizedRMSD -1
REMARK  0 active torsions:
REMARK  status: ('A' for Active; 'I' for Inactive)
ROOT
ATOM      1  O1  BZF d   1      -5.235  -5.052  -3.801  0.00  0.00    -0.204 OA
ATOM      2  C2  BZF d   1      -5.999  -5.265  -4.932  0.00  0.00     0.174 A 
ATOM      3  C3  BZF d   1      -5.219  -5.602  -5.980  0.00  0.00    -0.012 A 
ATOM      4  C3A BZF d   1      -3.893  -5.689  -5.449  0.00  0.00    -0.107 A 
ATOM      5  C4  BZF d   1      -2.682  -6.000  -5.997  0.00  0.00     0.055 A 
ATOM      6  C5  BZF d   1      -1.567  -5.922  -5.222  0.00  0.00    -0.016 A 
ATOM      7  C6  BZF d   1      -1.628  -5.531  -3.901  0.00  0.00     0.022 A 
ATOM      8  C7  BZF d   1      -2.807  -5.217  -3.312  0.00  0.00     0.029 A 
ATOM      9  C7A BZF d   1      -3.939  -5.327  -4.083  0.00  0.00     0.058 A 
ENDROOT
TORSDOF 0
ENDMDL
