MODEL 1
REMARK minimizedAffinity 3.52951145
REMARK minimizedRMSD -1
REMARK  0 active torsions:
REMARK  status: ('A' for Active; 'I' for Inactive)
ROOT
ATOM      1  O1  BZF d   1       2.377   4.500  -4.624  0.00  0.00    -0.204 OA
ATOM      2  C2  BZF d   1       2.383   3.944  -3.360  0.00  0.00     0.174 A 
ATOM      3  C3  BZF d   1       1.180   4.091  -2.767  0.00  0.00    -0.012 A 
ATOM      4  C3A BZF d   1       0.345   4.700  -3.757  0.00  0.00    -0.107 A 
ATOM      5  C4  BZF d   1      -0.965   5.083  -3.773  0.00  0.00     0.055 A 
ATOM      6  C5  BZF d   1      -1.455   5.717  -4.871  0.00  0.00    -0.016 A 
ATOM      7  C6  BZF d   1      -0.663   5.987  -5.967  0.00  0.00     0.022 A 
ATOM      8  C7  BZF d   1       0.642   5.621  -6.000  0.00  0.00     0.029 A 
ATOM      9  C7A BZF d   1       1.131   4.952  -4.905  0.00  0.00     0.058 A 
ENDROOT
TORSDOF 0
ENDMDL
