MODEL 1
REMARK minimizedAffinity 8.94749832
REMARK minimizedRMSD -1
REMARK  0 active torsions:
REMARK  status: ('A' for Active; 'I' for Inactive)
ROOT
ATOM      1  O1  BZF d   1       0.784   3.802  -2.638  0.00  0.00    -0.204 OA
ATOM      2  C2  BZF d   1       2.105   3.667  -3.017  0.00  0.00     0.174 A 
ATOM      3  C3  BZF d   1       2.277   4.050  -4.299  0.00  0.00    -0.012 A 
ATOM      4  C3A BZF d   1       0.999   4.536  -4.721  0.00  0.00    -0.107 A 
ATOM      5  C4  BZF d   1       0.536   5.069  -5.890  0.00  0.00     0.055 A 
ATOM      6  C5  BZF d   1      -0.783   5.375  -5.999  0.00  0.00    -0.016 A 
ATOM      7  C6  BZF d   1      -1.668   5.157  -4.963  0.00  0.00     0.022 A 
ATOM      8  C7  BZF d   1      -1.255   4.635  -3.783  0.00  0.00     0.029 A 
ATOM      9  C7A BZF d   1       0.084   4.356  -3.657  0.00  0.00     0.058 A 
ENDROOT
TORSDOF 0
ENDMDL
