MODEL 1
REMARK minimizedAffinity -0.426572293
REMARK minimizedRMSD -1
REMARK  0 active torsions:
REMARK  status: ('A' for Active; 'I' for Inactive)
ROOT
ATOM      1  O1  BZF d   1      -5.944  -0.342  -4.544  0.00  0.00    -0.204 OA
ATOM      2  C2  BZF d   1      -5.937   0.593  -5.561  0.00  0.00     0.174 A 
ATOM      3  C3  BZF d   1      -6.000   1.844  -5.061  0.00  0.00    -0.012 A 
ATOM      4  C3A BZF d   1      -5.955   1.683  -3.640  0.00  0.00    -0.107 A 
ATOM      5  C4  BZF d   1      -5.967   2.563  -2.595  0.00  0.00     0.055 A 
ATOM      6  C5  BZF d   1      -5.987   2.079  -1.325  0.00  0.00    -0.016 A 
ATOM      7  C6  BZF d   1      -6.000   0.725  -1.064  0.00  0.00     0.022 A 
ATOM      8  C7  BZF d   1      -5.983  -0.186  -2.068  0.00  0.00     0.029 A 
ATOM      9  C7A BZF d   1      -5.930   0.299  -3.351  0.00  0.00     0.058 A 
ENDROOT
TORSDOF 0
ENDMDL
