MODEL 1
REMARK minimizedAffinity 6.72048759
REMARK minimizedRMSD -1
REMARK  0 active torsions:
REMARK  status: ('A' for Active; 'I' for Inactive)
ROOT
ATOM      1  O1  BZF d   1       0.258   2.855  -2.899  0.00  0.00    -0.204 OA
ATOM      2  C2  BZF d   1       1.543   2.961  -2.401  0.00  0.00     0.174 A 
ATOM      3  C3  BZF d   1       2.255   3.865  -3.105  0.00  0.00    -0.012 A 
ATOM      4  C3A BZF d   1       1.332   4.421  -4.047  0.00  0.00    -0.107 A 
ATOM      5  C4  BZF d   1       1.440   5.379  -5.013  0.00  0.00     0.055 A 
ATOM      6  C5  BZF d   1       0.370   5.637  -5.810  0.00  0.00    -0.016 A 
ATOM      7  C6  BZF d   1      -0.820   4.953  -5.672  0.00  0.00     0.022 A 
ATOM      8  C7  BZF d   1      -0.976   3.997  -4.724  0.00  0.00     0.029 A 
ATOM      9  C7A BZF d   1       0.093   3.757  -3.896  0.00  0.00     0.058 A 
ENDROOT
TORSDOF 0
ENDMDL
