MODEL 1
REMARK minimizedAffinity 3.01461482
REMARK minimizedRMSD -1
REMARK  0 active torsions:
REMARK  status: ('A' for Active; 'I' for Inactive)
ROOT
ATOM      1  O1  BZF d   1       0.538   5.541  -5.319  0.00  0.00    -0.204 OA
ATOM      2  C2  BZF d   1      -0.674   5.133  -5.842  0.00  0.00     0.174 A 
ATOM      3  C3  BZF d   1      -1.153   4.070  -5.165  0.00  0.00    -0.012 A 
ATOM      4  C3A BZF d   1      -0.224   3.853  -4.098  0.00  0.00    -0.107 A 
ATOM      5  C4  BZF d   1      -0.163   2.951  -3.075  0.00  0.00     0.055 A 
ATOM      6  C5  BZF d   1       0.914   2.963  -2.247  0.00  0.00    -0.016 A 
ATOM      7  C6  BZF d   1       1.950   3.858  -2.416  0.00  0.00     0.022 A 
ATOM      8  C7  BZF d   1       1.932   4.776  -3.413  0.00  0.00     0.029 A 
ATOM      9  C7A BZF d   1       0.829   4.788  -4.231  0.00  0.00     0.058 A 
ENDROOT
TORSDOF 0
ENDMDL
