MODEL 1
REMARK minimizedAffinity 3.60630345
REMARK minimizedRMSD -1
REMARK  0 active torsions:
REMARK  status: ('A' for Active; 'I' for Inactive)
ROOT
ATOM      1  O1  BZF d   1      -1.514  -5.495  -3.777  0.00  0.00    -0.204 OA
ATOM      2  C2  BZF d   1      -0.793  -5.567  -4.953  0.00  0.00     0.174 A 
ATOM      3  C3  BZF d   1      -1.607  -5.816  -5.999  0.00  0.00    -0.012 A 
ATOM      4  C3A BZF d   1      -2.930  -5.812  -5.454  0.00  0.00    -0.107 A 
ATOM      5  C4  BZF d   1      -4.170  -5.986  -6.000  0.00  0.00     0.055 A 
ATOM      6  C5  BZF d   1      -5.255  -5.997  -5.182  0.00  0.00    -0.016 A 
ATOM      7  C6  BZF d   1      -5.137  -5.843  -3.816  0.00  0.00     0.022 A 
ATOM      8  C7  BZF d   1      -3.929  -5.663  -3.230  0.00  0.00     0.029 A 
ATOM      9  C7A BZF d   1      -2.833  -5.618  -4.057  0.00  0.00     0.058 A 
ENDROOT
TORSDOF 0
ENDMDL
