MODEL 1
REMARK minimizedAffinity 4.9003911
REMARK minimizedRMSD -1
REMARK  0 active torsions:
REMARK  status: ('A' for Active; 'I' for Inactive)
ROOT
ATOM      1  O1  BZF d   1       2.456   4.126  -3.390  0.00  0.00    -0.204 OA
ATOM      2  C2  BZF d   1       1.883   3.262  -2.476  0.00  0.00     0.174 A 
ATOM      3  C3  BZF d   1       0.556   3.150  -2.690  0.00  0.00    -0.012 A 
ATOM      4  C3A BZF d   1       0.298   3.924  -3.866  0.00  0.00    -0.107 A 
ATOM      5  C4  BZF d   1      -0.831   4.188  -4.587  0.00  0.00     0.055 A 
ATOM      6  C5  BZF d   1      -0.757   5.041  -5.641  0.00  0.00    -0.016 A 
ATOM      7  C6  BZF d   1       0.427   5.652  -5.999  0.00  0.00     0.022 A 
ATOM      8  C7  BZF d   1       1.575   5.418  -5.317  0.00  0.00     0.029 A 
ATOM      9  C7A BZF d   1       1.510   4.530  -4.271  0.00  0.00     0.058 A 
ENDROOT
TORSDOF 0
ENDMDL
