MODEL 1
REMARK minimizedAffinity 4.07767725
REMARK minimizedRMSD -1
REMARK  0 active torsions:
REMARK  status: ('A' for Active; 'I' for Inactive)
ROOT
ATOM      1  O1  BZF d   1       2.429   3.794  -3.895  0.00  0.00    -0.204 OA
ATOM      2  C2  BZF d   1       1.901   3.175  -2.778  0.00  0.00     0.174 A 
ATOM      3  C3  BZF d   1       0.607   3.514  -2.610  0.00  0.00    -0.012 A 
ATOM      4  C3A BZF d   1       0.281   4.327  -3.741  0.00  0.00    -0.107 A 
ATOM      5  C4  BZF d   1      -0.862   4.954  -4.149  0.00  0.00     0.055 A 
ATOM      6  C5  BZF d   1      -0.828   5.731  -5.263  0.00  0.00    -0.016 A 
ATOM      7  C6  BZF d   1       0.332   5.907  -5.990  0.00  0.00     0.022 A 
ATOM      8  C7  BZF d   1       1.489   5.302  -5.627  0.00  0.00     0.029 A 
ATOM      9  C7A BZF d   1       1.449   4.490  -4.520  0.00  0.00     0.058 A 
ENDROOT
TORSDOF 0
ENDMDL
