MODEL 1
REMARK minimizedAffinity 6.54112244
REMARK minimizedRMSD -1
REMARK  0 active torsions:
REMARK  status: ('A' for Active; 'I' for Inactive)
ROOT
ATOM      1  O1  BZF d   1      -4.653  -4.805  -3.775  0.00  0.00    -0.204 OA
ATOM      2  C2  BZF d   1      -5.477  -5.196  -4.812  0.00  0.00     0.174 A 
ATOM      3  C3  BZF d   1      -4.753  -5.662  -5.850  0.00  0.00    -0.012 A 
ATOM      4  C3A BZF d   1      -3.395  -5.641  -5.399  0.00  0.00    -0.107 A 
ATOM      5  C4  BZF d   1      -2.209  -6.000  -5.975  0.00  0.00     0.055 A 
ATOM      6  C5  BZF d   1      -1.053  -5.786  -5.293  0.00  0.00    -0.016 A 
ATOM      7  C6  BZF d   1      -1.045  -5.211  -4.040  0.00  0.00     0.022 A 
ATOM      8  C7  BZF d   1      -2.196  -4.843  -3.426  0.00  0.00     0.029 A 
ATOM      9  C7A BZF d   1      -3.368  -5.088  -4.098  0.00  0.00     0.058 A 
ENDROOT
TORSDOF 0
ENDMDL
