MODEL 1
REMARK minimizedAffinity 1.10947776
REMARK minimizedRMSD -1
REMARK  0 active torsions:
REMARK  status: ('A' for Active; 'I' for Inactive)
ROOT
ATOM      1  O1  BZF d   1      -0.908   4.568  -5.226  0.00  0.00    -0.204 OA
ATOM      2  C2  BZF d   1      -0.472   5.639  -5.982  0.00  0.00     0.174 A 
ATOM      3  C3  BZF d   1       0.806   5.948  -5.682  0.00  0.00    -0.012 A 
ATOM      4  C3A BZF d   1       1.223   4.953  -4.742  0.00  0.00    -0.107 A 
ATOM      5  C4  BZF d   1       2.396   4.715  -4.086  0.00  0.00     0.055 A 
ATOM      6  C5  BZF d   1       2.453   3.703  -3.180  0.00  0.00    -0.016 A 
ATOM      7  C6  BZF d   1       1.355   2.915  -2.902  0.00  0.00     0.022 A 
ATOM      8  C7  BZF d   1       0.171   3.110  -3.532  0.00  0.00     0.029 A 
ATOM      9  C7A BZF d   1       0.120   4.110  -4.472  0.00  0.00     0.058 A 
ENDROOT
TORSDOF 0
ENDMDL
