MODEL 1
REMARK minimizedAffinity 7.26303959
REMARK minimizedRMSD -1
REMARK  0 active torsions:
REMARK  status: ('A' for Active; 'I' for Inactive)
ROOT
ATOM      1  O1  BZF d   1      -5.970   1.910  -2.358  0.00  0.00    -0.204 OA
ATOM      2  C2  BZF d   1      -5.990   3.241  -2.728  0.00  0.00     0.174 A 
ATOM      3  C3  BZF d   1      -5.949   3.365  -4.071  0.00  0.00    -0.012 A 
ATOM      4  C3A BZF d   1      -5.994   2.027  -4.574  0.00  0.00    -0.107 A 
ATOM      5  C4  BZF d   1      -5.999   1.497  -5.832  0.00  0.00     0.055 A 
ATOM      6  C5  BZF d   1      -5.974   0.146  -5.980  0.00  0.00    -0.016 A 
ATOM      7  C6  BZF d   1      -5.939  -0.703  -4.893  0.00  0.00     0.022 A 
ATOM      8  C7  BZF d   1      -5.939  -0.224  -3.625  0.00  0.00     0.029 A 
ATOM      9  C7A BZF d   1      -5.997   1.140  -3.472  0.00  0.00     0.058 A 
ENDROOT
TORSDOF 0
ENDMDL
