MODEL 1
REMARK minimizedAffinity 4.35826778
REMARK minimizedRMSD -1
REMARK  0 active torsions:
REMARK  status: ('A' for Active; 'I' for Inactive)
ROOT
ATOM      1  O1  BZF d   1       2.218   4.739  -3.388  0.00  0.00    -0.204 OA
ATOM      2  C2  BZF d   1       1.864   3.623  -2.653  0.00  0.00     0.174 A 
ATOM      3  C3  BZF d   1       0.648   3.172  -3.023  0.00  0.00    -0.012 A 
ATOM      4  C3A BZF d   1       0.255   4.006  -4.117  0.00  0.00    -0.107 A 
ATOM      5  C4  BZF d   1      -0.849   4.042  -4.920  0.00  0.00     0.055 A 
ATOM      6  C5  BZF d   1      -0.958   5.028  -5.849  0.00  0.00    -0.016 A 
ATOM      7  C6  BZF d   1       0.014   5.995  -5.999  0.00  0.00     0.022 A 
ATOM      8  C7  BZF d   1       1.130   5.997  -5.229  0.00  0.00     0.029 A 
ATOM      9  C7A BZF d   1       1.258   4.983  -4.312  0.00  0.00     0.058 A 
ENDROOT
TORSDOF 0
ENDMDL
