MODEL 1
REMARK minimizedAffinity 6.46094561
REMARK minimizedRMSD -1
REMARK  0 active torsions:
REMARK  status: ('A' for Active; 'I' for Inactive)
ROOT
ATOM      1  O1  BZF d   1       1.273   4.787  -3.933  0.00  0.00    -0.204 OA
ATOM      2  C2  BZF d   1      -0.045   4.904  -4.330  0.00  0.00     0.174 A 
ATOM      3  C3  BZF d   1      -0.780   3.876  -3.860  0.00  0.00    -0.012 A 
ATOM      4  C3A BZF d   1       0.117   3.114  -3.046  0.00  0.00    -0.107 A 
ATOM      5  C4  BZF d   1      -0.029   1.982  -2.296  0.00  0.00     0.055 A 
ATOM      6  C5  BZF d   1       1.061   1.454  -1.680  0.00  0.00    -0.016 A 
ATOM      7  C6  BZF d   1       2.310   2.027  -1.796  0.00  0.00     0.022 A 
ATOM      8  C7  BZF d   1       2.503   3.153  -2.526  0.00  0.00     0.029 A 
ATOM      9  C7A BZF d   1       1.397   3.708  -3.123  0.00  0.00     0.058 A 
ENDROOT
TORSDOF 0
ENDMDL
