MODEL 1
REMARK minimizedAffinity 8.47171211
REMARK minimizedRMSD -1
REMARK  0 active torsions:
REMARK  status: ('A' for Active; 'I' for Inactive)
ROOT
ATOM      1  O1  BZF d   1       2.549   4.483  -4.524  0.00  0.00    -0.204 OA
ATOM      2  C2  BZF d   1       2.581   4.058  -3.210  0.00  0.00     0.174 A 
ATOM      3  C3  BZF d   1       1.372   4.202  -2.631  0.00  0.00    -0.012 A 
ATOM      4  C3A BZF d   1       0.508   4.664  -3.674  0.00  0.00    -0.107 A 
ATOM      5  C4  BZF d   1      -0.821   4.975  -3.723  0.00  0.00     0.055 A 
ATOM      6  C5  BZF d   1      -1.342   5.467  -4.878  0.00  0.00    -0.016 A 
ATOM      7  C6  BZF d   1      -0.563   5.666  -5.999  0.00  0.00     0.022 A 
ATOM      8  C7  BZF d   1       0.759   5.367  -6.000  0.00  0.00     0.029 A 
ATOM      9  C7A BZF d   1       1.281   4.838  -4.844  0.00  0.00     0.058 A 
ENDROOT
TORSDOF 0
ENDMDL
