MODEL 1
REMARK minimizedAffinity 4.35139704
REMARK minimizedRMSD -1
REMARK  0 active torsions:
REMARK  status: ('A' for Active; 'I' for Inactive)
ROOT
ATOM      1  O1  BZF d   1      -0.939   4.652  -5.122  0.00  0.00    -0.204 OA
ATOM      2  C2  BZF d   1      -0.478   5.615  -5.999  0.00  0.00     0.174 A 
ATOM      3  C3  BZF d   1       0.772   5.999  -5.672  0.00  0.00    -0.012 A 
ATOM      4  C3A BZF d   1       1.149   5.163  -4.574  0.00  0.00    -0.107 A 
ATOM      5  C4  BZF d   1       2.284   5.055  -3.822  0.00  0.00     0.055 A 
ATOM      6  C5  BZF d   1       2.303   4.188  -2.776  0.00  0.00    -0.016 A 
ATOM      7  C6  BZF d   1       1.205   3.418  -2.451  0.00  0.00     0.022 A 
ATOM      8  C7  BZF d   1       0.059   3.486  -3.172  0.00  0.00     0.029 A 
ATOM      9  C7A BZF d   1       0.048   4.337  -4.249  0.00  0.00     0.058 A 
ENDROOT
TORSDOF 0
ENDMDL
