MODEL 1
REMARK minimizedAffinity 11.0097284
REMARK minimizedRMSD -1
REMARK  1 active torsions:
REMARK  status: ('A' for Active; 'I' for Inactive)
REMARK    1  A    between atoms: C1_2  and  C2_3 
ROOT
ATOM      1  C2  UNL d   1       4.550   4.670   1.660  0.00  0.00    -0.081 A 
ATOM      2  C3  UNL d   1       5.604   5.474   2.111  0.00  0.00     0.006 A 
ATOM      3  C4  UNL d   1       5.992   5.444   3.453  0.00  0.00     0.002 A 
ATOM      4  C5  UNL d   1       5.339   4.606   4.363  0.00  0.00    -0.080 A 
ATOM      5  C6  UNL d   1       5.765   4.543   5.799  0.00  0.00     0.076 C 
ATOM      6  C7  UNL d   1       4.274   3.817   3.915  0.00  0.00     0.002 A 
ATOM      7  C8  UNL d   1       3.885   3.846   2.574  0.00  0.00     0.006 A 
ENDROOT
BRANCH   1   8
ATOM      8  C1  UNL d   1       4.171   4.651   0.201  0.00  0.00     0.054 C 
ATOM      9  C   UNL d   1       4.586   5.940  -0.495  0.00  0.00     0.018 C 
ENDBRANCH   1   8
TORSDOF 1
ENDMDL
