MODEL 1
REMARK minimizedAffinity 11.9256639
REMARK minimizedRMSD -1
REMARK  1 active torsions:
REMARK  status: ('A' for Active; 'I' for Inactive)
REMARK    1  A    between atoms: C1_2  and  C2_3 
ROOT
ATOM      1  C2  UNL d   1      -0.881  -0.263  -0.932  0.00  0.00    -0.081 A 
ATOM      2  C3  UNL d   1      -1.847   0.140  -0.002  0.00  0.00     0.006 A 
ATOM      3  C4  UNL d   1      -1.937  -0.488   1.243  0.00  0.00     0.002 A 
ATOM      4  C5  UNL d   1      -1.058  -1.521   1.582  0.00  0.00    -0.080 A 
ATOM      5  C6  UNL d   1      -1.124  -2.183   2.926  0.00  0.00     0.076 C 
ATOM      6  C7  UNL d   1      -0.103  -1.935   0.646  0.00  0.00     0.002 A 
ATOM      7  C8  UNL d   1      -0.013  -1.309  -0.599  0.00  0.00     0.006 A 
ENDROOT
BRANCH   1   8
ATOM      8  C1  UNL d   1      -0.739   0.454  -2.250  0.00  0.00     0.054 C 
ATOM      9  C   UNL d   1       0.664   1.018  -2.426  0.00  0.00     0.018 C 
ENDBRANCH   1   8
TORSDOF 1
ENDMDL
