MODEL 1
REMARK minimizedAffinity 8.87134552
REMARK minimizedRMSD -1
REMARK  1 active torsions:
REMARK  status: ('A' for Active; 'I' for Inactive)
REMARK    1  A    between atoms: C1_2  and  C2_3 
ROOT
ATOM      1  C2  UNL d   1      -1.313  -0.906  -0.510  0.00  0.00    -0.081 A 
ATOM      2  C3  UNL d   1      -0.688  -1.994   0.112  0.00  0.00     0.006 A 
ATOM      3  C4  UNL d   1      -1.174  -2.493   1.323  0.00  0.00     0.002 A 
ATOM      4  C5  UNL d   1      -2.296  -1.918   1.928  0.00  0.00    -0.080 A 
ATOM      5  C6  UNL d   1      -2.846  -2.463   3.213  0.00  0.00     0.076 C 
ATOM      6  C7  UNL d   1      -2.910  -0.820   1.317  0.00  0.00     0.002 A 
ATOM      7  C8  UNL d   1      -2.425  -0.320   0.106  0.00  0.00     0.006 A 
ENDROOT
BRANCH   1   8
ATOM      8  C1  UNL d   1      -0.831  -0.407  -1.848  0.00  0.00     0.054 C 
ATOM      9  C   UNL d   1       0.630   0.015  -1.787  0.00  0.00     0.018 C 
ENDBRANCH   1   8
TORSDOF 1
ENDMDL
