MODEL 1
REMARK minimizedAffinity -0.724878848
REMARK minimizedRMSD -1
REMARK  1 active torsions:
REMARK  status: ('A' for Active; 'I' for Inactive)
REMARK    1  A    between atoms: C1_2  and  C2_3 
ROOT
ATOM      1  C2  UNL d   1      -4.962   3.528   5.836  0.00  0.00    -0.081 A 
ATOM      2  C3  UNL d   1      -3.614   3.837   5.616  0.00  0.00     0.006 A 
ATOM      3  C4  UNL d   1      -2.680   2.820   5.406  0.00  0.00     0.002 A 
ATOM      4  C5  UNL d   1      -3.078   1.479   5.404  0.00  0.00    -0.080 A 
ATOM      5  C6  UNL d   1      -2.091   0.379   5.149  0.00  0.00     0.076 C 
ATOM      6  C7  UNL d   1      -4.422   1.170   5.641  0.00  0.00     0.002 A 
ATOM      7  C8  UNL d   1      -5.356   2.186   5.853  0.00  0.00     0.006 A 
ENDROOT
BRANCH   1   8
ATOM      8  C1  UNL d   1      -5.983   4.625   5.999  0.00  0.00     0.054 C 
ATOM      9  C   UNL d   1      -5.578   5.876   5.234  0.00  0.00     0.018 C 
ENDBRANCH   1   8
TORSDOF 1
ENDMDL
