MODEL 1
REMARK minimizedAffinity -1.28513241
REMARK minimizedRMSD -1
REMARK  1 active torsions:
REMARK  status: ('A' for Active; 'I' for Inactive)
REMARK    1  A    between atoms: C1_2  and  C2_3 
ROOT
ATOM      1  C2  UNL d   1      -3.842   4.702  -4.737  0.00  0.00    -0.081 A 
ATOM      2  C3  UNL d   1      -5.184   4.344  -4.558  0.00  0.00     0.006 A 
ATOM      3  C4  UNL d   1      -5.879   4.751  -3.417  0.00  0.00     0.002 A 
ATOM      4  C5  UNL d   1      -5.247   5.529  -2.440  0.00  0.00    -0.080 A 
ATOM      5  C6  UNL d   1      -5.991   5.998  -1.225  0.00  0.00     0.076 C 
ATOM      6  C7  UNL d   1      -3.902   5.872  -2.611  0.00  0.00     0.002 A 
ATOM      7  C8  UNL d   1      -3.206   5.464  -3.751  0.00  0.00     0.006 A 
ENDROOT
BRANCH   1   8
ATOM      8  C1  UNL d   1      -3.109   4.319  -5.997  0.00  0.00     0.054 C 
ATOM      9  C   UNL d   1      -1.767   3.674  -5.682  0.00  0.00     0.018 C 
ENDBRANCH   1   8
TORSDOF 1
ENDMDL
