MODEL 1
REMARK minimizedAffinity 1.73240376
REMARK minimizedRMSD -1
REMARK  1 active torsions:
REMARK  status: ('A' for Active; 'I' for Inactive)
REMARK    1  A    between atoms: C1_2  and  C2_3 
ROOT
ATOM      1  C2  UNL d   1      -2.973   4.078  -4.913  0.00  0.00    -0.081 A 
ATOM      2  C3  UNL d   1      -2.761   4.287  -3.545  0.00  0.00     0.006 A 
ATOM      3  C4  UNL d   1      -3.733   4.920  -2.767  0.00  0.00     0.002 A 
ATOM      4  C5  UNL d   1      -4.936   5.347  -3.341  0.00  0.00    -0.080 A 
ATOM      5  C6  UNL d   1      -6.000   6.000  -2.510  0.00  0.00     0.076 C 
ATOM      6  C7  UNL d   1      -5.140   5.153  -4.711  0.00  0.00     0.002 A 
ATOM      7  C8  UNL d   1      -4.169   4.521  -5.490  0.00  0.00     0.006 A 
ENDROOT
BRANCH   1   8
ATOM      8  C1  UNL d   1      -1.955   3.338  -5.743  0.00  0.00     0.054 C 
ATOM      9  C   UNL d   1      -0.957   2.599  -4.863  0.00  0.00     0.018 C 
ENDBRANCH   1   8
TORSDOF 1
ENDMDL
