MODEL 1
REMARK minimizedAffinity 8.06456089
REMARK minimizedRMSD -1
REMARK  1 active torsions:
REMARK  status: ('A' for Active; 'I' for Inactive)
REMARK    1  A    between atoms: C1_2  and  C2_3 
ROOT
ATOM      1  C2  UNL d   1      -5.040   4.818   3.784  0.00  0.00    -0.081 A 
ATOM      2  C3  UNL d   1      -4.452   4.992   2.525  0.00  0.00     0.006 A 
ATOM      3  C4  UNL d   1      -3.647   3.991   1.975  0.00  0.00     0.002 A 
ATOM      4  C5  UNL d   1      -3.424   2.798   2.670  0.00  0.00    -0.080 A 
ATOM      5  C6  UNL d   1      -2.587   1.703   2.078  0.00  0.00     0.076 C 
ATOM      6  C7  UNL d   1      -3.997   2.631   3.936  0.00  0.00     0.002 A 
ATOM      7  C8  UNL d   1      -4.801   3.632   4.487  0.00  0.00     0.006 A 
ENDROOT
BRANCH   1   8
ATOM      8  C1  UNL d   1      -5.960   5.868   4.352  0.00  0.00     0.054 C 
ATOM      9  C   UNL d   1      -6.000   5.806   5.872  0.00  0.00     0.018 C 
ENDBRANCH   1   8
TORSDOF 1
ENDMDL
