MODEL 1
REMARK minimizedAffinity 11.3347235
REMARK minimizedRMSD -1
REMARK  1 active torsions:
REMARK  status: ('A' for Active; 'I' for Inactive)
REMARK    1  A    between atoms: C1_2  and  C2_3 
ROOT
ATOM      1  C2  UNL d   1      -0.830  -1.546  -0.716  0.00  0.00    -0.081 A 
ATOM      2  C3  UNL d   1      -1.546  -0.518  -0.089  0.00  0.00     0.006 A 
ATOM      3  C4  UNL d   1      -1.579  -0.427   1.305  0.00  0.00     0.002 A 
ATOM      4  C5  UNL d   1      -0.892  -1.355   2.094  0.00  0.00    -0.080 A 
ATOM      5  C6  UNL d   1      -0.894  -1.250   3.590  0.00  0.00     0.076 C 
ATOM      6  C7  UNL d   1      -0.191  -2.392   1.468  0.00  0.00     0.002 A 
ATOM      7  C8  UNL d   1      -0.158  -2.484   0.075  0.00  0.00     0.006 A 
ENDROOT
BRANCH   1   8
ATOM      8  C1  UNL d   1      -0.739  -1.609  -2.219  0.00  0.00     0.054 C 
ATOM      9  C   UNL d   1      -1.392  -2.873  -2.760  0.00  0.00     0.018 C 
ENDBRANCH   1   8
TORSDOF 1
ENDMDL
