MODEL 1
REMARK minimizedAffinity 12.8330679
REMARK minimizedRMSD -1
REMARK  1 active torsions:
REMARK  status: ('A' for Active; 'I' for Inactive)
REMARK    1  A    between atoms: C1_2  and  C2_3 
ROOT
ATOM      1  C2  UNL d   1       4.310   3.384  -0.109  0.00  0.00    -0.081 A 
ATOM      2  C3  UNL d   1       5.451   2.627  -0.402  0.00  0.00     0.006 A 
ATOM      3  C4  UNL d   1       5.992   2.631  -1.689  0.00  0.00     0.002 A 
ATOM      4  C5  UNL d   1       5.408   3.397  -2.703  0.00  0.00    -0.080 A 
ATOM      5  C6  UNL d   1       5.997   3.434  -4.082  0.00  0.00     0.076 C 
ATOM      6  C7  UNL d   1       4.258   4.140  -2.415  0.00  0.00     0.002 A 
ATOM      7  C8  UNL d   1       3.715   4.136  -1.128  0.00  0.00     0.006 A 
ENDROOT
BRANCH   1   8
ATOM      8  C1  UNL d   1       3.761   3.433   1.294  0.00  0.00     0.054 C 
ATOM      9  C   UNL d   1       4.480   4.479   2.133  0.00  0.00     0.018 C 
ENDBRANCH   1   8
TORSDOF 1
ENDMDL
