MODEL 1
REMARK minimizedAffinity -0.219595551
REMARK minimizedRMSD -1
REMARK  1 active torsions:
REMARK  status: ('A' for Active; 'I' for Inactive)
REMARK    1  A    between atoms: C1_2  and  C2_3 
ROOT
ATOM      1  C2  UNL d   1      -3.704   5.080  -5.098  0.00  0.00    -0.081 A 
ATOM      2  C3  UNL d   1      -3.022   4.255  -6.000  0.00  0.00     0.006 A 
ATOM      3  C4  UNL d   1      -2.050   3.360  -5.546  0.00  0.00     0.002 A 
ATOM      4  C5  UNL d   1      -1.750   3.270  -4.182  0.00  0.00    -0.080 A 
ATOM      5  C6  UNL d   1      -0.731   2.292  -3.678  0.00  0.00     0.076 C 
ATOM      6  C7  UNL d   1      -2.420   4.106  -3.283  0.00  0.00     0.002 A 
ATOM      7  C8  UNL d   1      -3.391   5.002  -3.736  0.00  0.00     0.006 A 
ENDROOT
BRANCH   1   8
ATOM      8  C1  UNL d   1      -4.798   6.000  -5.577  0.00  0.00     0.054 C 
ATOM      9  C   UNL d   1      -5.995   5.972  -4.637  0.00  0.00     0.018 C 
ENDBRANCH   1   8
TORSDOF 1
ENDMDL
