MODEL 1
REMARK minimizedAffinity -3.4050808
REMARK minimizedRMSD -1
REMARK  1 active torsions:
REMARK  status: ('A' for Active; 'I' for Inactive)
REMARK    1  A    between atoms: C1_2  and  C2_3 
ROOT
ATOM      1  C2  UNL d   1       0.357   0.157   1.318  0.00  0.00    -0.081 A 
ATOM      2  C3  UNL d   1       1.736   0.034   1.525  0.00  0.00     0.006 A 
ATOM      3  C4  UNL d   1       2.296   0.338   2.768  0.00  0.00     0.002 A 
ATOM      4  C5  UNL d   1       1.486   0.762   3.826  0.00  0.00    -0.080 A 
ATOM      5  C6  UNL d   1       2.070   1.062   5.175  0.00  0.00     0.076 C 
ATOM      6  C7  UNL d   1       0.110   0.902   3.615  0.00  0.00     0.002 A 
ATOM      7  C8  UNL d   1      -0.450   0.599   2.372  0.00  0.00     0.006 A 
ENDROOT
BRANCH   1   8
ATOM      8  C1  UNL d   1      -0.258  -0.231  -0.003  0.00  0.00     0.054 C 
ATOM      9  C   UNL d   1      -1.682  -0.738   0.178  0.00  0.00     0.018 C 
ENDBRANCH   1   8
TORSDOF 1
ENDMDL
