MODEL 1
REMARK minimizedAffinity 0.228686184
REMARK minimizedRMSD -1
REMARK  1 active torsions:
REMARK  status: ('A' for Active; 'I' for Inactive)
REMARK    1  A    between atoms: C1_2  and  C2_3 
ROOT
ATOM      1  C2  UNL d   1      -0.974  -2.113  -0.671  0.00  0.00    -0.081 A 
ATOM      2  C3  UNL d   1      -1.357  -1.105  -1.564  0.00  0.00     0.006 A 
ATOM      3  C4  UNL d   1      -0.980   0.221  -1.340  0.00  0.00     0.002 A 
ATOM      4  C5  UNL d   1      -0.209   0.561  -0.223  0.00  0.00    -0.080 A 
ATOM      5  C6  UNL d   1       0.228   1.976   0.014  0.00  0.00     0.076 C 
ATOM      6  C7  UNL d   1       0.158  -0.443   0.679  0.00  0.00     0.002 A 
ATOM      7  C8  UNL d   1      -0.218  -1.769   0.455  0.00  0.00     0.006 A 
ENDROOT
BRANCH   1   8
ATOM      8  C1  UNL d   1      -1.324  -3.553  -0.945  0.00  0.00     0.054 C 
ATOM      9  C   UNL d   1      -1.485  -4.339   0.349  0.00  0.00     0.018 C 
ENDBRANCH   1   8
TORSDOF 1
ENDMDL
