MODEL 1
REMARK minimizedAffinity 1.25944591
REMARK minimizedRMSD -1
REMARK  0 active torsions:
REMARK  status: ('A' for Active; 'I' for Inactive)
ROOT
ATOM      1  C2' OXE d   1      -6.000  -0.750  -0.706  0.00  0.00     0.078 C 
ATOM      2  C1' OXE d   1      -3.548  -0.002  -1.852  0.00  0.00     0.078 C 
ATOM      3  C1  OXE d   1      -3.788   0.356  -0.406  0.00  0.00    -0.078 A 
ATOM      4  C2  OXE d   1      -5.008   0.027   0.133  0.00  0.00    -0.078 A 
ATOM      5  C3  OXE d   1      -5.260   0.285   1.477  0.00  0.00     0.003 A 
ATOM      6  C4  OXE d   1      -4.341   1.013   2.244  0.00  0.00    -0.002 A 
ATOM      7  C5  OXE d   1      -3.108   1.392   1.703  0.00  0.00    -0.002 A 
ATOM      8  C6  OXE d   1      -2.799   1.035   0.395  0.00  0.00     0.003 A 
ENDROOT
TORSDOF 0
ENDMDL
