MODEL 1
REMARK minimizedAffinity -3.06200051
REMARK minimizedRMSD -1
REMARK  0 active torsions:
REMARK  status: ('A' for Active; 'I' for Inactive)
ROOT
ATOM      1  C2' OXE d   1       2.275   2.004   1.170  0.00  0.00     0.078 C 
ATOM      2  C1' OXE d   1       2.667  -0.775   1.170  0.00  0.00     0.078 C 
ATOM      3  C1  OXE d   1       1.467  -0.234   0.434  0.00  0.00    -0.078 A 
ATOM      4  C2  OXE d   1       1.258   1.123   0.478  0.00  0.00    -0.078 A 
ATOM      5  C3  OXE d   1       0.196   1.680  -0.230  0.00  0.00     0.003 A 
ATOM      6  C4  OXE d   1      -0.746   0.857  -0.859  0.00  0.00    -0.002 A 
ATOM      7  C5  OXE d   1      -0.573  -0.531  -0.882  0.00  0.00    -0.002 A 
ATOM      8  C6  OXE d   1       0.549  -1.088  -0.278  0.00  0.00     0.003 A 
ENDROOT
TORSDOF 0
ENDMDL
