MODEL 1
REMARK minimizedAffinity 1.37687039
REMARK minimizedRMSD -1
REMARK  0 active torsions:
REMARK  status: ('A' for Active; 'I' for Inactive)
ROOT
ATOM      1  C2' OXE d   1      -1.431   0.291   0.296  0.00  0.00     0.078 C 
ATOM      2  C1' OXE d   1      -0.712  -1.747  -1.495  0.00  0.00     0.078 C 
ATOM      3  C1  OXE d   1       0.384  -1.110  -0.678  0.00  0.00    -0.078 A 
ATOM      4  C2  OXE d   1       0.030  -0.082   0.161  0.00  0.00    -0.078 A 
ATOM      5  C3  OXE d   1       0.993   0.504   0.978  0.00  0.00     0.003 A 
ATOM      6  C4  OXE d   1       2.344   0.161   0.840  0.00  0.00    -0.002 A 
ATOM      7  C5  OXE d   1       2.731  -0.856  -0.039  0.00  0.00    -0.002 A 
ATOM      8  C6  OXE d   1       1.760  -1.530  -0.772  0.00  0.00     0.003 A 
ENDROOT
TORSDOF 0
ENDMDL
