MODEL 1
REMARK minimizedAffinity -2.55701637
REMARK minimizedRMSD -1
REMARK  0 active torsions:
REMARK  status: ('A' for Active; 'I' for Inactive)
ROOT
ATOM      1  C2' OXE d   1      -3.759   2.139   2.182  0.00  0.00     0.078 C 
ATOM      2  C1' OXE d   1      -1.910   1.087   0.351  0.00  0.00     0.078 C 
ATOM      3  C1  OXE d   1      -3.341   0.621   0.252  0.00  0.00    -0.078 A 
ATOM      4  C2  OXE d   1      -4.229   1.105   1.182  0.00  0.00    -0.078 A 
ATOM      5  C3  OXE d   1      -5.573   0.750   1.102  0.00  0.00     0.003 A 
ATOM      6  C4  OXE d   1      -5.997  -0.214   0.180  0.00  0.00    -0.002 A 
ATOM      7  C5  OXE d   1      -5.101  -0.751  -0.750  0.00  0.00    -0.002 A 
ATOM      8  C6  OXE d   1      -3.781  -0.313  -0.755  0.00  0.00     0.003 A 
ENDROOT
TORSDOF 0
ENDMDL
