MODEL 1
REMARK minimizedAffinity -0.857591987
REMARK minimizedRMSD -1
REMARK  0 active torsions:
REMARK  status: ('A' for Active; 'I' for Inactive)
ROOT
ATOM      1  C2' OXE d   1      -3.750   1.500   3.084  0.00  0.00     0.078 C 
ATOM      2  C1' OXE d   1      -1.839   0.367   1.368  0.00  0.00     0.078 C 
ATOM      3  C1  OXE d   1      -3.291   0.262   0.972  0.00  0.00    -0.078 A 
ATOM      4  C2  OXE d   1      -4.222   0.778   1.840  0.00  0.00    -0.078 A 
ATOM      5  C3  OXE d   1      -5.571   0.757   1.497  0.00  0.00     0.003 A 
ATOM      6  C4  OXE d   1      -6.000   0.079   0.349  0.00  0.00    -0.002 A 
ATOM      7  C5  OXE d   1      -5.070  -0.488  -0.529  0.00  0.00    -0.002 A 
ATOM      8  C6  OXE d   1      -3.712  -0.369  -0.255  0.00  0.00     0.003 A 
ENDROOT
TORSDOF 0
ENDMDL
