MODEL 1
REMARK minimizedAffinity -1.53203595
REMARK minimizedRMSD -1
REMARK  0 active torsions:
REMARK  status: ('A' for Active; 'I' for Inactive)
ROOT
ATOM      1  C2' OXE d   1      -1.122   0.123   0.363  0.00  0.00     0.078 C 
ATOM      2  C1' OXE d   1      -0.469  -1.479  -1.848  0.00  0.00     0.078 C 
ATOM      3  C1  OXE d   1       0.560  -1.335  -0.755  0.00  0.00    -0.078 A 
ATOM      4  C2  OXE d   1       0.251  -0.512   0.301  0.00  0.00    -0.078 A 
ATOM      5  C3  OXE d   1       1.143  -0.387   1.362  0.00  0.00     0.003 A 
ATOM      6  C4  OXE d   1       2.414  -0.970   1.292  0.00  0.00    -0.002 A 
ATOM      7  C5  OXE d   1       2.764  -1.781   0.207  0.00  0.00    -0.002 A 
ATOM      8  C6  OXE d   1       1.835  -2.007  -0.802  0.00  0.00     0.003 A 
ENDROOT
TORSDOF 0
ENDMDL
