MODEL 1
REMARK minimizedAffinity -3.76989961
REMARK minimizedRMSD -1
REMARK  0 active torsions:
REMARK  status: ('A' for Active; 'I' for Inactive)
ROOT
ATOM      1  C2' OXE d   1       1.905   1.118   1.062  0.00  0.00     0.078 C 
ATOM      2  C1' OXE d   1       3.174  -1.385   1.141  0.00  0.00     0.078 C 
ATOM      3  C1  OXE d   1       1.950  -1.244   0.271  0.00  0.00    -0.078 A 
ATOM      4  C2  OXE d   1       1.309  -0.028   0.274  0.00  0.00    -0.078 A 
ATOM      5  C3  OXE d   1       0.208   0.172  -0.553  0.00  0.00     0.003 A 
ATOM      6  C4  OXE d   1      -0.344  -0.896  -1.271  0.00  0.00    -0.002 A 
ATOM      7  C5  OXE d   1       0.271  -2.153  -1.258  0.00  0.00    -0.002 A 
ATOM      8  C6  OXE d   1       1.441  -2.331  -0.527  0.00  0.00     0.003 A 
ENDROOT
TORSDOF 0
ENDMDL
