MODEL 1
REMARK minimizedAffinity -0.584575713
REMARK minimizedRMSD -1
REMARK  0 active torsions:
REMARK  status: ('A' for Active; 'I' for Inactive)
ROOT
ATOM      1  C2' OXE d   1      -0.863   1.227  -0.372  0.00  0.00     0.078 C 
ATOM      2  C1' OXE d   1      -2.302   0.429  -2.646  0.00  0.00     0.078 C 
ATOM      3  C1  OXE d   1      -3.022   0.426  -1.321  0.00  0.00    -0.078 A 
ATOM      4  C2  OXE d   1      -2.298   0.774  -0.207  0.00  0.00    -0.078 A 
ATOM      5  C3  OXE d   1      -2.928   0.841   1.033  0.00  0.00     0.003 A 
ATOM      6  C4  OXE d   1      -4.252   0.410   1.178  0.00  0.00    -0.002 A 
ATOM      7  C5  OXE d   1      -4.997   0.014   0.062  0.00  0.00    -0.002 A 
ATOM      8  C6  OXE d   1      -4.411   0.057  -1.198  0.00  0.00     0.003 A 
ENDROOT
TORSDOF 0
ENDMDL
