MODEL 1
REMARK minimizedAffinity -2.17345214
REMARK minimizedRMSD -1
REMARK  0 active torsions:
REMARK  status: ('A' for Active; 'I' for Inactive)
ROOT
ATOM      1  C2' OXE d   1      -0.919   0.471  -1.241  0.00  0.00     0.078 C 
ATOM      2  C1' OXE d   1       0.513   2.678  -0.264  0.00  0.00     0.078 C 
ATOM      3  C1  OXE d   1       0.952   1.304   0.175  0.00  0.00    -0.078 A 
ATOM      4  C2  OXE d   1       0.217   0.232  -0.271  0.00  0.00    -0.078 A 
ATOM      5  C3  OXE d   1       0.613  -1.060   0.060  0.00  0.00     0.003 A 
ATOM      6  C4  OXE d   1       1.659  -1.272   0.966  0.00  0.00    -0.002 A 
ATOM      7  C5  OXE d   1       2.396  -0.192   1.464  0.00  0.00    -0.002 A 
ATOM      8  C6  OXE d   1       2.083   1.097   1.046  0.00  0.00     0.003 A 
ENDROOT
TORSDOF 0
ENDMDL
