MODEL 1
REMARK minimizedAffinity -5.14976025
REMARK minimizedRMSD -1
REMARK  1 active torsions:
REMARK  status: ('A' for Active; 'I' for Inactive)
REMARK    1  A    between atoms: C1_2  and  C2_3 
ROOT
ATOM      1  C2  UNL d   1      -0.622  -1.386  -0.021  0.00  0.00    -0.076 A 
ATOM      2  C3  UNL d   1       0.048  -1.593  -1.240  0.00  0.00     0.004 A 
ATOM      3  C4  UNL d   1       0.453  -0.517  -2.028  0.00  0.00    -0.003 A 
ATOM      4  C5  UNL d   1       0.195   0.784  -1.610  0.00  0.00     0.000 A 
ATOM      5  C6  UNL d   1      -0.453   1.008  -0.396  0.00  0.00     0.000 A 
ATOM      6  C7  UNL d   1      -0.853  -0.065   0.418  0.00  0.00    -0.073 A 
ATOM      7  C8  UNL d   1      -1.554   0.235   1.715  0.00  0.00     0.078 C 
ENDROOT
BRANCH   1   8
ATOM      8  C1  UNL d   1      -1.061  -2.592   0.778  0.00  0.00     0.053 C 
ATOM      9  C   UNL d   1      -0.278  -3.846   0.419  0.00  0.00     0.018 C 
ENDBRANCH   1   8
TORSDOF 1
ENDMDL
