MODEL 1
REMARK minimizedAffinity -5.01454592
REMARK minimizedRMSD -1
REMARK  1 active torsions:
REMARK  status: ('A' for Active; 'I' for Inactive)
REMARK    1  A    between atoms: C1_2  and  C2_3 
ROOT
ATOM      1  C2  UNL d   1       0.171   0.266   0.223  0.00  0.00    -0.076 A 
ATOM      2  C3  UNL d   1       1.150  -0.564  -0.351  0.00  0.00     0.004 A 
ATOM      3  C4  UNL d   1       1.127  -1.943  -0.154  0.00  0.00    -0.003 A 
ATOM      4  C5  UNL d   1       0.123  -2.516   0.620  0.00  0.00     0.000 A 
ATOM      5  C6  UNL d   1      -0.866  -1.710   1.182  0.00  0.00     0.000 A 
ATOM      6  C7  UNL d   1      -0.866  -0.320   0.980  0.00  0.00    -0.073 A 
ATOM      7  C8  UNL d   1      -1.955   0.502   1.615  0.00  0.00     0.078 C 
ENDROOT
BRANCH   1   8
ATOM      8  C1  UNL d   1       0.263   1.758  -0.003  0.00  0.00     0.053 C 
ATOM      9  C   UNL d   1       1.692   2.273   0.080  0.00  0.00     0.018 C 
ENDBRANCH   1   8
TORSDOF 1
ENDMDL
