MODEL 1
REMARK minimizedAffinity -4.8049283
REMARK minimizedRMSD -1
REMARK  1 active torsions:
REMARK  status: ('A' for Active; 'I' for Inactive)
REMARK    1  A    between atoms: C1_2  and  C2_3 
ROOT
ATOM      1  C2  UNL d   1       0.003  -0.255  -0.146  0.00  0.00    -0.076 A 
ATOM      2  C3  UNL d   1       0.729  -1.194  -0.900  0.00  0.00     0.004 A 
ATOM      3  C4  UNL d   1       0.720  -2.546  -0.562  0.00  0.00    -0.003 A 
ATOM      4  C5  UNL d   1      -0.014  -2.982   0.536  0.00  0.00     0.000 A 
ATOM      5  C6  UNL d   1      -0.753  -2.067   1.285  0.00  0.00     0.000 A 
ATOM      6  C7  UNL d   1      -0.769  -0.703   0.948  0.00  0.00    -0.073 A 
ATOM      7  C8  UNL d   1      -1.579   0.241   1.794  0.00  0.00     0.078 C 
ENDROOT
BRANCH   1   8
ATOM      8  C1  UNL d   1       0.072   1.202  -0.544  0.00  0.00     0.053 C 
ATOM      9  C   UNL d   1       1.257   1.921   0.081  0.00  0.00     0.018 C 
ENDBRANCH   1   8
TORSDOF 1
ENDMDL
