MODEL 1
REMARK minimizedAffinity -2.31665492
REMARK minimizedRMSD -1
REMARK  1 active torsions:
REMARK  status: ('A' for Active; 'I' for Inactive)
REMARK    1  A    between atoms: C1_2  and  C2_3 
ROOT
ATOM      1  C2  UNL d   1       0.142  -0.274  -0.068  0.00  0.00    -0.076 A 
ATOM      2  C3  UNL d   1       0.889  -1.178  -0.845  0.00  0.00     0.004 A 
ATOM      3  C4  UNL d   1       0.882  -2.542  -0.562  0.00  0.00    -0.003 A 
ATOM      4  C5  UNL d   1       0.127  -3.027   0.501  0.00  0.00     0.000 A 
ATOM      5  C6  UNL d   1      -0.634  -2.147   1.270  0.00  0.00     0.000 A 
ATOM      6  C7  UNL d   1      -0.650  -0.770   0.989  0.00  0.00    -0.073 A 
ATOM      7  C8  UNL d   1      -1.484   0.133   1.855  0.00  0.00     0.078 C 
ENDROOT
BRANCH   1   8
ATOM      8  C1  UNL d   1       0.210   1.198  -0.405  0.00  0.00     0.053 C 
ATOM      9  C   UNL d   1       1.499   1.847   0.076  0.00  0.00     0.018 C 
ENDBRANCH   1   8
TORSDOF 1
ENDMDL
