MODEL 1
REMARK minimizedAffinity -3.8789475
REMARK minimizedRMSD -1
REMARK  1 active torsions:
REMARK  status: ('A' for Active; 'I' for Inactive)
REMARK    1  A    between atoms: C1_2  and  C2_3 
ROOT
ATOM      1  C2  UNL d   1      -0.290   0.060   0.037  0.00  0.00    -0.076 A 
ATOM      2  C3  UNL d   1      -0.685  -0.121   1.374  0.00  0.00     0.004 A 
ATOM      3  C4  UNL d   1      -0.792  -1.397   1.924  0.00  0.00    -0.003 A 
ATOM      4  C5  UNL d   1      -0.505  -2.513   1.146  0.00  0.00     0.000 A 
ATOM      5  C6  UNL d   1      -0.094  -2.352  -0.177  0.00  0.00     0.000 A 
ATOM      6  C7  UNL d   1       0.034  -1.071  -0.742  0.00  0.00    -0.073 A 
ATOM      7  C8  UNL d   1       0.475  -0.956  -2.175  0.00  0.00     0.078 C 
ENDROOT
BRANCH   1   8
ATOM      8  C1  UNL d   1      -0.218   1.467  -0.513  0.00  0.00     0.053 C 
ATOM      9  C   UNL d   1       0.863   2.300   0.158  0.00  0.00     0.018 C 
ENDBRANCH   1   8
TORSDOF 1
ENDMDL
