MODEL 1
REMARK minimizedAffinity -2.74155545
REMARK minimizedRMSD -1
REMARK  1 active torsions:
REMARK  status: ('A' for Active; 'I' for Inactive)
REMARK    1  A    between atoms: C1_2  and  C2_3 
ROOT
ATOM      1  C2  UNL d   1       0.077  -0.025  -0.117  0.00  0.00    -0.076 A 
ATOM      2  C3  UNL d   1       1.023  -0.886  -0.700  0.00  0.00     0.004 A 
ATOM      3  C4  UNL d   1       1.064  -2.238  -0.365  0.00  0.00    -0.003 A 
ATOM      4  C5  UNL d   1       0.159  -2.752   0.558  0.00  0.00     0.000 A 
ATOM      5  C6  UNL d   1      -0.797  -1.916   1.132  0.00  0.00     0.000 A 
ATOM      6  C7  UNL d   1      -0.863  -0.554   0.793  0.00  0.00    -0.073 A 
ATOM      7  C8  UNL d   1      -1.912   0.303   1.448  0.00  0.00     0.078 C 
ENDROOT
BRANCH   1   8
ATOM      8  C1  UNL d   1       0.097   1.438  -0.499  0.00  0.00     0.053 C 
ATOM      9  C   UNL d   1       1.104   2.238   0.313  0.00  0.00     0.018 C 
ENDBRANCH   1   8
TORSDOF 1
ENDMDL
