MODEL 1
REMARK minimizedAffinity -4.24418736
REMARK minimizedRMSD -1
REMARK  1 active torsions:
REMARK  status: ('A' for Active; 'I' for Inactive)
REMARK    1  A    between atoms: C1_2  and  C2_3 
ROOT
ATOM      1  C2  UNL d   1      -0.158   0.041  -0.094  0.00  0.00    -0.076 A 
ATOM      2  C3  UNL d   1       0.802  -0.873  -0.563  0.00  0.00     0.004 A 
ATOM      3  C4  UNL d   1       0.824  -2.189  -0.105  0.00  0.00    -0.003 A 
ATOM      4  C5  UNL d   1      -0.115  -2.613   0.829  0.00  0.00     0.000 A 
ATOM      5  C6  UNL d   1      -1.086  -1.725   1.291  0.00  0.00     0.000 A 
ATOM      6  C7  UNL d   1      -1.132  -0.399   0.827  0.00  0.00    -0.073 A 
ATOM      7  C8  UNL d   1      -2.197   0.517   1.365  0.00  0.00     0.078 C 
ENDROOT
BRANCH   1   8
ATOM      8  C1  UNL d   1      -0.116   1.463  -0.607  0.00  0.00     0.053 C 
ATOM      9  C   UNL d   1       1.161   2.188  -0.209  0.00  0.00     0.018 C 
ENDBRANCH   1   8
TORSDOF 1
ENDMDL
