MODEL 1
REMARK minimizedAffinity -1.10302782
REMARK minimizedRMSD -1
REMARK  1 active torsions:
REMARK  status: ('A' for Active; 'I' for Inactive)
REMARK    1  A    between atoms: C1_2  and  C2_3 
ROOT
ATOM      1  C2  UNL d   1       0.266   0.348   0.252  0.00  0.00    -0.076 A 
ATOM      2  C3  UNL d   1      -0.244   0.400   1.561  0.00  0.00     0.004 A 
ATOM      3  C4  UNL d   1      -0.859  -0.711   2.136  0.00  0.00    -0.003 A 
ATOM      4  C5  UNL d   1      -0.973  -1.892   1.412  0.00  0.00     0.000 A 
ATOM      5  C6  UNL d   1      -0.457  -1.967   0.119  0.00  0.00     0.000 A 
ATOM      6  C7  UNL d   1       0.180  -0.861  -0.470  0.00  0.00    -0.073 A 
ATOM      7  C8  UNL d   1       0.712  -0.996  -1.870  0.00  0.00     0.078 C 
ENDROOT
BRANCH   1   8
ATOM      8  C1  UNL d   1       0.898   1.593  -0.329  0.00  0.00     0.053 C 
ATOM      9  C   UNL d   1       0.669   2.821   0.538  0.00  0.00     0.018 C 
ENDBRANCH   1   8
TORSDOF 1
ENDMDL
