MODEL 1
REMARK minimizedAffinity 11.9229755
REMARK minimizedRMSD -1
REMARK  3 active torsions:
REMARK  status: ('A' for Active; 'I' for Inactive)
REMARK    1  A    between atoms: C3'_2  and  C2'_3 
REMARK    2  A    between atoms: C2'_3  and  C1'_4 
REMARK    3  A    between atoms: C1'_4  and  C1_5 
ROOT
ATOM      1  C1  N4B d   1       3.991  -4.000   2.172  0.00  0.00    -0.075 A 
ATOM      2  C2  N4B d   1       2.712  -3.437   1.967  0.00  0.00     0.002 A 
ATOM      3  C3  N4B d   1       2.332  -3.038   0.709  0.00  0.00     0.002 A 
ATOM      4  C4  N4B d   1       3.216  -3.175  -0.351  0.00  0.00    -0.004 A 
ATOM      5  C5  N4B d   1       4.439  -3.743  -0.149  0.00  0.00     0.002 A 
ATOM      6  C6  N4B d   1       4.834  -4.152   1.109  0.00  0.00     0.002 A 
ENDROOT
BRANCH   1   7
ATOM      7  C1' N4B d   1       4.484  -4.372   3.543  0.00  0.00     0.057 C 
BRANCH   7   8
ATOM      8  C2' N4B d   1       4.031  -3.312   4.543  0.00  0.00     0.009 C 
BRANCH   8   9
ATOM      9  C3' N4B d   1       4.986  -3.195   5.718  0.00  0.00     0.004 C 
ATOM     10  C4' N4B d   1       5.999  -2.104   5.537  0.00  0.00     0.003 C 
ENDBRANCH   8   9
ENDBRANCH   7   8
ENDBRANCH   1   7
TORSDOF 3
ENDMDL
