MODEL 1
REMARK minimizedAffinity 7.40950632
REMARK minimizedRMSD -1
REMARK  3 active torsions:
REMARK  status: ('A' for Active; 'I' for Inactive)
REMARK    1  A    between atoms: C3'_2  and  C2'_3 
REMARK    2  A    between atoms: C2'_3  and  C1'_4 
REMARK    3  A    between atoms: C1'_4  and  C1_5 
ROOT
ATOM      1  C1  N4B d   1       2.657  -2.683   1.957  0.00  0.00    -0.075 A 
ATOM      2  C2  N4B d   1       1.698  -1.980   2.720  0.00  0.00     0.002 A 
ATOM      3  C3  N4B d   1       0.807  -1.141   2.098  0.00  0.00     0.002 A 
ATOM      4  C4  N4B d   1       0.866  -0.976   0.722  0.00  0.00    -0.004 A 
ATOM      5  C5  N4B d   1       1.778  -1.678  -0.010  0.00  0.00     0.002 A 
ATOM      6  C6  N4B d   1       2.678  -2.528   0.602  0.00  0.00     0.002 A 
ENDROOT
BRANCH   1   7
ATOM      7  C1' N4B d   1       3.708  -3.545   2.602  0.00  0.00     0.057 C 
BRANCH   7   8
ATOM      8  C2' N4B d   1       4.610  -2.671   3.469  0.00  0.00     0.009 C 
BRANCH   8   9
ATOM      9  C3' N4B d   1       4.866  -3.294   4.830  0.00  0.00     0.004 C 
ATOM     10  C4' N4B d   1       4.942  -2.276   5.929  0.00  0.00     0.003 C 
ENDBRANCH   8   9
ENDBRANCH   7   8
ENDBRANCH   1   7
TORSDOF 3
ENDMDL
