MODEL 1
REMARK minimizedAffinity -0.0935795382
REMARK minimizedRMSD -1
REMARK  3 active torsions:
REMARK  status: ('A' for Active; 'I' for Inactive)
REMARK    1  A    between atoms: C3'_2  and  C2'_3 
REMARK    2  A    between atoms: C2'_3  and  C1'_4 
REMARK    3  A    between atoms: C1'_4  and  C1_5 
ROOT
ATOM      1  C1  N4B d   1       2.558   4.108  -5.950  0.00  0.00    -0.075 A 
ATOM      2  C2  N4B d   1       2.916   5.474  -5.971  0.00  0.00     0.002 A 
ATOM      3  C3  N4B d   1       4.241   5.836  -5.999  0.00  0.00     0.002 A 
ATOM      4  C4  N4B d   1       5.220   4.855  -5.988  0.00  0.00    -0.004 A 
ATOM      5  C5  N4B d   1       4.866   3.538  -5.993  0.00  0.00     0.002 A 
ATOM      6  C6  N4B d   1       3.539   3.159  -5.968  0.00  0.00     0.002 A 
ENDROOT
BRANCH   1   7
ATOM      7  C1' N4B d   1       1.126   3.665  -5.832  0.00  0.00     0.057 C 
BRANCH   7   8
ATOM      8  C2' N4B d   1       0.835   3.291  -4.381  0.00  0.00     0.009 C 
BRANCH   8   9
ATOM      9  C3' N4B d   1      -0.483   2.549  -4.239  0.00  0.00     0.004 C 
ATOM     10  C4' N4B d   1      -0.834   2.258  -2.810  0.00  0.00     0.003 C 
ENDBRANCH   8   9
ENDBRANCH   7   8
ENDBRANCH   1   7
TORSDOF 3
ENDMDL
