MODEL 1
REMARK minimizedAffinity 3.01243496
REMARK minimizedRMSD -1
REMARK  3 active torsions:
REMARK  status: ('A' for Active; 'I' for Inactive)
REMARK    1  A    between atoms: C3'_2  and  C2'_3 
REMARK    2  A    between atoms: C2'_3  and  C1'_4 
REMARK    3  A    between atoms: C1'_4  and  C1_5 
ROOT
ATOM      1  C1  N4B d   1      -3.268  -0.445  -2.773  0.00  0.00    -0.075 A 
ATOM      2  C2  N4B d   1      -4.201  -0.601  -3.821  0.00  0.00     0.002 A 
ATOM      3  C3  N4B d   1      -5.244  -1.485  -3.686  0.00  0.00     0.002 A 
ATOM      4  C4  N4B d   1      -5.362  -2.234  -2.525  0.00  0.00    -0.004 A 
ATOM      5  C5  N4B d   1      -4.470  -2.059  -1.507  0.00  0.00     0.002 A 
ATOM      6  C6  N4B d   1      -3.420  -1.171  -1.627  0.00  0.00     0.002 A 
ENDROOT
BRANCH   1   7
ATOM      7  C1' N4B d   1      -2.063   0.446  -2.908  0.00  0.00     0.057 C 
BRANCH   7   8
ATOM      8  C2' N4B d   1      -2.445   1.868  -2.511  0.00  0.00     0.009 C 
BRANCH   8   9
ATOM      9  C3' N4B d   1      -2.318   2.837  -3.675  0.00  0.00     0.004 C 
ATOM     10  C4' N4B d   1      -3.644   3.348  -4.153  0.00  0.00     0.003 C 
ENDBRANCH   8   9
ENDBRANCH   7   8
ENDBRANCH   1   7
TORSDOF 3
ENDMDL
