MODEL 1
REMARK minimizedAffinity -1.59653461
REMARK minimizedRMSD -1
REMARK  0 active torsions:
REMARK  status: ('A' for Active; 'I' for Inactive)
ROOT
ATOM      1  C   UNL d   1       1.757   0.259  -1.199  0.00  0.00    -0.002 A 
ATOM      2  C1  UNL d   1       1.094   1.451  -1.452  0.00  0.00     0.010 A 
ATOM      3  C2  UNL d   1       0.014   1.845  -0.660  0.00  0.00     0.041 A 
ATOM      4  C3  UNL d   1      -0.390   1.014   0.404  0.00  0.00    -0.075 A 
ATOM      5  S   UNL d   1      -1.685   1.294   1.507  0.00  0.00     0.015 SA
ATOM      6  C4  UNL d   1      -1.388  -0.162   2.342  0.00  0.00     0.022 A 
ATOM      7  C5  UNL d   1      -0.330  -0.857   1.805  0.00  0.00     0.026 A 
ATOM      8  C6  UNL d   1       0.263  -0.190   0.679  0.00  0.00    -0.082 A 
ATOM      9  C7  UNL d   1       1.353  -0.563  -0.143  0.00  0.00     0.045 A 
ENDROOT
TORSDOF 0
ENDMDL
