MODEL 1
REMARK minimizedAffinity -0.0967372507
REMARK minimizedRMSD -1
REMARK  0 active torsions:
REMARK  status: ('A' for Active; 'I' for Inactive)
ROOT
ATOM      1  C   UNL d   1       0.792  -3.465  -2.072  0.00  0.00    -0.002 A 
ATOM      2  C1  UNL d   1       0.587  -2.607  -3.144  0.00  0.00     0.010 A 
ATOM      3  C2  UNL d   1       0.290  -1.260  -2.928  0.00  0.00     0.041 A 
ATOM      4  C3  UNL d   1       0.203  -0.784  -1.605  0.00  0.00    -0.075 A 
ATOM      5  S   UNL d   1      -0.148   0.827  -1.101  0.00  0.00     0.015 SA
ATOM      6  C4  UNL d   1      -0.034   0.414   0.549  0.00  0.00     0.022 A 
ATOM      7  C5  UNL d   1       0.264  -0.916   0.729  0.00  0.00     0.026 A 
ATOM      8  C6  UNL d   1       0.406  -1.628  -0.510  0.00  0.00    -0.082 A 
ATOM      9  C7  UNL d   1       0.704  -2.989  -0.761  0.00  0.00     0.045 A 
ENDROOT
TORSDOF 0
ENDMDL
