MODEL 1
REMARK minimizedAffinity -1.93208468
REMARK minimizedRMSD -1
REMARK  0 active torsions:
REMARK  status: ('A' for Active; 'I' for Inactive)
ROOT
ATOM      1  C   UNL d   1      -1.346   1.195   2.511  0.00  0.00    -0.002 A 
ATOM      2  C1  UNL d   1      -0.982  -0.136   2.661  0.00  0.00     0.010 A 
ATOM      3  C2  UNL d   1      -0.240  -0.785   1.672  0.00  0.00     0.041 A 
ATOM      4  C3  UNL d   1       0.136  -0.066   0.520  0.00  0.00    -0.075 A 
ATOM      5  S   UNL d   1       1.047  -0.654  -0.821  0.00  0.00     0.015 SA
ATOM      6  C4  UNL d   1       0.975   0.848  -1.623  0.00  0.00     0.022 A 
ATOM      7  C5  UNL d   1       0.277   1.786  -0.900  0.00  0.00     0.026 A 
ATOM      8  C6  UNL d   1      -0.218   1.275   0.347  0.00  0.00    -0.082 A 
ATOM      9  C7  UNL d   1      -0.972   1.904   1.367  0.00  0.00     0.045 A 
ENDROOT
TORSDOF 0
ENDMDL
