MODEL 1
REMARK minimizedAffinity -3.94940519
REMARK minimizedRMSD -1
REMARK  0 active torsions:
REMARK  status: ('A' for Active; 'I' for Inactive)
ROOT
ATOM      1  C   UNL d   1      -1.490   3.206   1.305  0.00  0.00    -0.002 A 
ATOM      2  C1  UNL d   1      -0.780   3.531   0.158  0.00  0.00     0.010 A 
ATOM      3  C2  UNL d   1      -0.133   2.539  -0.581  0.00  0.00     0.041 A 
ATOM      4  C3  UNL d   1      -0.214   1.202  -0.146  0.00  0.00    -0.075 A 
ATOM      5  S   UNL d   1       0.497  -0.180  -0.892  0.00  0.00     0.015 SA
ATOM      6  C4  UNL d   1      -0.126  -1.234   0.293  0.00  0.00     0.022 A 
ATOM      7  C5  UNL d   1      -0.861  -0.565   1.243  0.00  0.00     0.026 A 
ATOM      8  C6  UNL d   1      -0.924   0.850   1.006  0.00  0.00    -0.082 A 
ATOM      9  C7  UNL d   1      -1.568   1.879   1.734  0.00  0.00     0.045 A 
ENDROOT
TORSDOF 0
ENDMDL
