MODEL 1
REMARK minimizedAffinity -1.37772965
REMARK minimizedRMSD -1
REMARK  0 active torsions:
REMARK  status: ('A' for Active; 'I' for Inactive)
ROOT
ATOM      1  C   UNL d   1      -0.831   0.762   1.018  0.00  0.00    -0.002 A 
ATOM      2  C1  UNL d   1      -1.814  -0.218   1.032  0.00  0.00     0.010 A 
ATOM      3  C2  UNL d   1      -1.666  -1.383   0.276  0.00  0.00     0.041 A 
ATOM      4  C3  UNL d   1      -0.502  -1.548  -0.501  0.00  0.00    -0.075 A 
ATOM      5  S   UNL d   1      -0.105  -2.892  -1.505  0.00  0.00     0.015 SA
ATOM      6  C4  UNL d   1       1.378  -2.197  -1.975  0.00  0.00     0.022 A 
ATOM      7  C5  UNL d   1       1.582  -0.970  -1.390  0.00  0.00     0.026 A 
ATOM      8  C6  UNL d   1       0.501  -0.576  -0.530  0.00  0.00    -0.082 A 
ATOM      9  C7  UNL d   1       0.322   0.594   0.247  0.00  0.00     0.045 A 
ENDROOT
TORSDOF 0
ENDMDL
