MODEL 1
REMARK minimizedAffinity -5.3783493
REMARK minimizedRMSD -1
REMARK  0 active torsions:
REMARK  status: ('A' for Active; 'I' for Inactive)
ROOT
ATOM      1  C   UNL d   1       0.924   0.821  -0.268  0.00  0.00    -0.002 A 
ATOM      2  C1  UNL d   1       1.093   1.392  -1.521  0.00  0.00     0.010 A 
ATOM      3  C2  UNL d   1       0.371   0.921  -2.620  0.00  0.00     0.041 A 
ATOM      4  C3  UNL d   1      -0.535  -0.142  -2.434  0.00  0.00    -0.075 A 
ATOM      5  S   UNL d   1      -1.528  -0.882  -3.633  0.00  0.00     0.015 SA
ATOM      6  C4  UNL d   1      -2.202  -1.972  -2.510  0.00  0.00     0.022 A 
ATOM      7  C5  UNL d   1      -1.692  -1.790  -1.246  0.00  0.00     0.026 A 
ATOM      8  C6  UNL d   1      -0.724  -0.732  -1.181  0.00  0.00    -0.082 A 
ATOM      9  C7  UNL d   1       0.024  -0.233  -0.088  0.00  0.00     0.045 A 
ENDROOT
TORSDOF 0
ENDMDL
