MODEL 1
REMARK minimizedAffinity -2.74912596
REMARK minimizedRMSD -1
REMARK  0 active torsions:
REMARK  status: ('A' for Active; 'I' for Inactive)
ROOT
ATOM      1  C   UNL d   1      -2.489   1.003   1.320  0.00  0.00    -0.002 A 
ATOM      2  C1  UNL d   1      -1.535   2.010   1.356  0.00  0.00     0.010 A 
ATOM      3  C2  UNL d   1      -0.322   1.864   0.681  0.00  0.00     0.041 A 
ATOM      4  C3  UNL d   1      -0.082   0.677  -0.041  0.00  0.00    -0.075 A 
ATOM      5  S   UNL d   1       1.330   0.278  -0.945  0.00  0.00     0.015 SA
ATOM      6  C4  UNL d   1       0.701  -1.238  -1.401  0.00  0.00     0.022 A 
ATOM      7  C5  UNL d   1      -0.556  -1.451  -0.885  0.00  0.00     0.026 A 
ATOM      8  C6  UNL d   1      -1.028  -0.351  -0.093  0.00  0.00    -0.082 A 
ATOM      9  C7  UNL d   1      -2.248  -0.173   0.603  0.00  0.00     0.045 A 
ENDROOT
TORSDOF 0
ENDMDL
