MODEL 1
REMARK minimizedAffinity -4.86978054
REMARK minimizedRMSD -1
REMARK  0 active torsions:
REMARK  status: ('A' for Active; 'I' for Inactive)
ROOT
ATOM      1  C2' OXE d   1       0.669  -1.205  -1.601  0.00  0.00     0.078 C 
ATOM      2  C1' OXE d   1       0.964   1.004   0.106  0.00  0.00     0.078 C 
ATOM      3  C1  OXE d   1       0.051  -0.111   0.550  0.00  0.00    -0.078 A 
ATOM      4  C2  OXE d   1      -0.124  -1.167  -0.313  0.00  0.00    -0.078 A 
ATOM      5  C3  OXE d   1      -0.912  -2.248   0.071  0.00  0.00     0.003 A 
ATOM      6  C4  OXE d   1      -1.650  -2.200   1.260  0.00  0.00    -0.002 A 
ATOM      7  C5  OXE d   1      -1.518  -1.116   2.135  0.00  0.00    -0.002 A 
ATOM      8  C6  OXE d   1      -0.640  -0.086   1.815  0.00  0.00     0.003 A 
ENDROOT
TORSDOF 0
ENDMDL
