MODEL 1
REMARK minimizedAffinity -5.06058359
REMARK minimizedRMSD -1
REMARK  0 active torsions:
REMARK  status: ('A' for Active; 'I' for Inactive)
ROOT
ATOM      1  C2' OXE d   1       0.906  -1.517  -1.411  0.00  0.00     0.078 C 
ATOM      2  C1' OXE d   1       0.018  -3.862  -0.148  0.00  0.00     0.078 C 
ATOM      3  C1  OXE d   1      -0.443  -2.541   0.416  0.00  0.00    -0.078 A 
ATOM      4  C2  OXE d   1       0.034  -1.398  -0.179  0.00  0.00    -0.078 A 
ATOM      5  C3  OXE d   1      -0.402  -0.154   0.268  0.00  0.00     0.003 A 
ATOM      6  C4  OXE d   1      -1.200  -0.053   1.414  0.00  0.00    -0.002 A 
ATOM      7  C5  OXE d   1      -1.665  -1.204   2.059  0.00  0.00    -0.002 A 
ATOM      8  C6  OXE d   1      -1.331  -2.453   1.549  0.00  0.00     0.003 A 
ENDROOT
TORSDOF 0
ENDMDL
