MODEL 1
REMARK minimizedAffinity -4.86511421
REMARK minimizedRMSD -1
REMARK  0 active torsions:
REMARK  status: ('A' for Active; 'I' for Inactive)
ROOT
ATOM      1  C2' OXE d   1      -2.036   0.035   1.687  0.00  0.00     0.078 C 
ATOM      2  C1' OXE d   1       0.082   1.056   0.153  0.00  0.00     0.078 C 
ATOM      3  C1  OXE d   1      -0.133  -0.437   0.150  0.00  0.00    -0.078 A 
ATOM      4  C2  OXE d   1      -1.142  -0.932   0.941  0.00  0.00    -0.078 A 
ATOM      5  C3  OXE d   1      -1.418  -2.296   0.932  0.00  0.00     0.003 A 
ATOM      6  C4  OXE d   1      -0.581  -3.185   0.247  0.00  0.00    -0.002 A 
ATOM      7  C5  OXE d   1       0.477  -2.705  -0.532  0.00  0.00    -0.002 A 
ATOM      8  C6  OXE d   1       0.688  -1.334  -0.625  0.00  0.00     0.003 A 
ENDROOT
TORSDOF 0
ENDMDL
