MODEL 1
REMARK minimizedAffinity -4.42175245
REMARK minimizedRMSD -1
REMARK  0 active torsions:
REMARK  status: ('A' for Active; 'I' for Inactive)
ROOT
ATOM      1  C2' OXE d   1      -0.008  -3.377   0.598  0.00  0.00     0.078 C 
ATOM      2  C1' OXE d   1      -1.642  -1.623   2.059  0.00  0.00     0.078 C 
ATOM      3  C1  OXE d   1      -0.708  -1.027   1.036  0.00  0.00    -0.078 A 
ATOM      4  C2  OXE d   1       0.121  -1.888   0.359  0.00  0.00    -0.078 A 
ATOM      5  C3  OXE d   1       0.963  -1.397  -0.635  0.00  0.00     0.003 A 
ATOM      6  C4  OXE d   1       1.084  -0.017  -0.843  0.00  0.00    -0.002 A 
ATOM      7  C5  OXE d   1       0.277   0.881  -0.136  0.00  0.00    -0.002 A 
ATOM      8  C6  OXE d   1      -0.652   0.390   0.774  0.00  0.00     0.003 A 
ENDROOT
TORSDOF 0
ENDMDL
