MODEL 1
REMARK minimizedAffinity -4.0661211
REMARK minimizedRMSD -1
REMARK  0 active torsions:
REMARK  status: ('A' for Active; 'I' for Inactive)
ROOT
ATOM      1  C2' OXE d   1       1.371  -1.557  -1.130  0.00  0.00     0.078 C 
ATOM      2  C1' OXE d   1       0.550   0.889  -0.025  0.00  0.00     0.078 C 
ATOM      3  C1  OXE d   1      -0.268  -0.337   0.295  0.00  0.00    -0.078 A 
ATOM      4  C2  OXE d   1       0.114  -1.521  -0.288  0.00  0.00    -0.078 A 
ATOM      5  C3  OXE d   1      -0.573  -2.693   0.018  0.00  0.00     0.003 A 
ATOM      6  C4  OXE d   1      -1.740  -2.649   0.790  0.00  0.00    -0.002 A 
ATOM      7  C5  OXE d   1      -2.169  -1.446   1.360  0.00  0.00    -0.002 A 
ATOM      8  C6  OXE d   1      -1.422  -0.291   1.158  0.00  0.00     0.003 A 
ENDROOT
TORSDOF 0
ENDMDL
