MODEL 1
REMARK minimizedAffinity -0.997365952
REMARK minimizedRMSD -1
REMARK  0 active torsions:
REMARK  status: ('A' for Active; 'I' for Inactive)
ROOT
ATOM      1  C2' OXE d   1       0.708  -3.432   0.534  0.00  0.00     0.078 C 
ATOM      2  C1' OXE d   1      -1.854  -2.404   1.040  0.00  0.00     0.078 C 
ATOM      3  C1  OXE d   1      -0.808  -1.455   0.511  0.00  0.00    -0.078 A 
ATOM      4  C2  OXE d   1       0.456  -1.956   0.310  0.00  0.00    -0.078 A 
ATOM      5  C3  OXE d   1       1.445  -1.138  -0.228  0.00  0.00     0.003 A 
ATOM      6  C4  OXE d   1       1.206   0.228  -0.423  0.00  0.00    -0.002 A 
ATOM      7  C5  OXE d   1      -0.063   0.767  -0.188  0.00  0.00    -0.002 A 
ATOM      8  C6  OXE d   1      -1.091  -0.068   0.238  0.00  0.00     0.003 A 
ENDROOT
TORSDOF 0
ENDMDL
