MODEL 1
REMARK minimizedAffinity -2.71213007
REMARK minimizedRMSD -1
REMARK  0 active torsions:
REMARK  status: ('A' for Active; 'I' for Inactive)
ROOT
ATOM      1  C2' OXE d   1       1.090  -1.934  -2.475  0.00  0.00     0.078 C 
ATOM      2  C1' OXE d   1       0.405  -2.858   0.086  0.00  0.00     0.078 C 
ATOM      3  C1  OXE d   1       0.117  -1.414  -0.241  0.00  0.00    -0.078 A 
ATOM      4  C2  OXE d   1       0.498  -0.958  -1.480  0.00  0.00    -0.078 A 
ATOM      5  C3  OXE d   1       0.206   0.350  -1.853  0.00  0.00     0.003 A 
ATOM      6  C4  OXE d   1      -0.333   1.249  -0.925  0.00  0.00    -0.002 A 
ATOM      7  C5  OXE d   1      -0.691   0.816   0.356  0.00  0.00    -0.002 A 
ATOM      8  C6  OXE d   1      -0.513  -0.520   0.699  0.00  0.00     0.003 A 
ENDROOT
TORSDOF 0
ENDMDL
