MODEL 1
REMARK minimizedAffinity -4.322299
REMARK minimizedRMSD -1
REMARK  0 active torsions:
REMARK  status: ('A' for Active; 'I' for Inactive)
ROOT
ATOM      1  C2' OXE d   1      -1.733  -0.149   2.007  0.00  0.00     0.078 C 
ATOM      2  C1' OXE d   1       0.331   0.824   0.372  0.00  0.00     0.078 C 
ATOM      3  C1  OXE d   1      -0.037  -0.634   0.248  0.00  0.00    -0.078 A 
ATOM      4  C2  OXE d   1      -1.017  -1.112   1.085  0.00  0.00    -0.078 A 
ATOM      5  C3  OXE d   1      -1.433  -2.435   0.973  0.00  0.00     0.003 A 
ATOM      6  C4  OXE d   1      -0.758  -3.321   0.125  0.00  0.00    -0.002 A 
ATOM      7  C5  OXE d   1       0.269  -2.864  -0.708  0.00  0.00    -0.002 A 
ATOM      8  C6  OXE d   1       0.612  -1.517  -0.689  0.00  0.00     0.003 A 
ENDROOT
TORSDOF 0
ENDMDL
