MODEL 1
REMARK minimizedAffinity -3.82261014
REMARK minimizedRMSD -1
REMARK  0 active torsions:
REMARK  status: ('A' for Active; 'I' for Inactive)
ROOT
ATOM      1  C2' OXE d   1       0.458   0.015  -2.280  0.00  0.00     0.078 C 
ATOM      2  C1' OXE d   1       0.842   1.376   0.145  0.00  0.00     0.078 C 
ATOM      3  C1  OXE d   1       0.610  -0.113   0.203  0.00  0.00    -0.078 A 
ATOM      4  C2  OXE d   1       0.377  -0.764  -0.984  0.00  0.00    -0.078 A 
ATOM      5  C3  OXE d   1       0.212  -2.146  -0.993  0.00  0.00     0.003 A 
ATOM      6  C4  OXE d   1       0.128  -2.857   0.211  0.00  0.00    -0.002 A 
ATOM      7  C5  OXE d   1       0.323  -2.207   1.434  0.00  0.00    -0.002 A 
ATOM      8  C6  OXE d   1       0.607  -0.846   1.445  0.00  0.00     0.003 A 
ENDROOT
TORSDOF 0
ENDMDL
