MODEL 1
REMARK minimizedAffinity -4.09299278
REMARK minimizedRMSD -1
REMARK  0 active torsions:
REMARK  status: ('A' for Active; 'I' for Inactive)
ROOT
ATOM      1  C2' OXE d   1       0.663  -1.553  -2.320  0.00  0.00     0.078 C 
ATOM      2  C1' OXE d   1      -0.110  -2.582   0.174  0.00  0.00     0.078 C 
ATOM      3  C1  OXE d   1       0.133  -1.097   0.070  0.00  0.00    -0.078 A 
ATOM      4  C2  OXE d   1       0.556  -0.609  -1.142  0.00  0.00    -0.078 A 
ATOM      5  C3  OXE d   1       0.741   0.760  -1.308  0.00  0.00     0.003 A 
ATOM      6  C4  OXE d   1       0.650   1.625  -0.211  0.00  0.00    -0.002 A 
ATOM      7  C5  OXE d   1       0.258   1.143   1.043  0.00  0.00    -0.002 A 
ATOM      8  C6  OXE d   1      -0.044  -0.206   1.190  0.00  0.00     0.003 A 
ENDROOT
TORSDOF 0
ENDMDL
