MODEL 1
REMARK minimizedAffinity -3.19153619
REMARK minimizedRMSD -1
REMARK  0 active torsions:
REMARK  status: ('A' for Active; 'I' for Inactive)
ROOT
ATOM      1  C2' OXE d   1       0.013   0.672  -0.367  0.00  0.00     0.078 C 
ATOM      2  C1' OXE d   1       0.092  -1.241  -2.419  0.00  0.00     0.078 C 
ATOM      3  C1  OXE d   1      -0.549  -1.637  -1.113  0.00  0.00    -0.078 A 
ATOM      4  C2  OXE d   1      -0.542  -0.711  -0.098  0.00  0.00    -0.078 A 
ATOM      5  C3  OXE d   1      -1.169  -1.005   1.109  0.00  0.00     0.003 A 
ATOM      6  C4  OXE d   1      -1.671  -2.289   1.353  0.00  0.00    -0.002 A 
ATOM      7  C5  OXE d   1      -1.653  -3.261   0.346  0.00  0.00    -0.002 A 
ATOM      8  C6  OXE d   1      -1.135  -2.938  -0.903  0.00  0.00     0.003 A 
ENDROOT
TORSDOF 0
ENDMDL
