MODEL 1
REMARK minimizedAffinity -5.63657045
REMARK minimizedRMSD -1
REMARK  0 active torsions:
REMARK  status: ('A' for Active; 'I' for Inactive)
ROOT
ATOM      1  C2' OXE d   1      -2.368  -0.003   1.189  0.00  0.00     0.078 C 
ATOM      2  C1' OXE d   1      -0.093   1.137   0.003  0.00  0.00     0.078 C 
ATOM      3  C1  OXE d   1      -0.098  -0.355   0.225  0.00  0.00    -0.078 A 
ATOM      4  C2  OXE d   1      -1.196  -0.898   0.848  0.00  0.00    -0.078 A 
ATOM      5  C3  OXE d   1      -1.275  -2.276   1.027  0.00  0.00     0.003 A 
ATOM      6  C4  OXE d   1      -0.182  -3.095   0.718  0.00  0.00    -0.002 A 
ATOM      7  C5  OXE d   1       0.962  -2.557   0.119  0.00  0.00    -0.002 A 
ATOM      8  C6  OXE d   1       1.003  -1.198  -0.172  0.00  0.00     0.003 A 
ENDROOT
TORSDOF 0
ENDMDL
