MODEL 1
REMARK minimizedAffinity -1.30066431
REMARK minimizedRMSD -1
REMARK  0 active torsions:
REMARK  status: ('A' for Active; 'I' for Inactive)
ROOT
ATOM      1  C2' OXE d   1       0.409  -0.568  -1.831  0.00  0.00     0.078 C 
ATOM      2  C1' OXE d   1      -0.138   1.303   0.189  0.00  0.00     0.078 C 
ATOM      3  C1  OXE d   1      -0.644  -0.105   0.378  0.00  0.00    -0.078 A 
ATOM      4  C2  OXE d   1      -0.413  -1.002  -0.636  0.00  0.00    -0.078 A 
ATOM      5  C3  OXE d   1      -0.811  -2.328  -0.489  0.00  0.00     0.003 A 
ATOM      6  C4  OXE d   1      -1.579  -2.719   0.615  0.00  0.00    -0.002 A 
ATOM      7  C5  OXE d   1      -1.860  -1.811   1.641  0.00  0.00    -0.002 A 
ATOM      8  C6  OXE d   1      -1.365  -0.514   1.559  0.00  0.00     0.003 A 
ENDROOT
TORSDOF 0
ENDMDL
