MODEL 1
REMARK minimizedAffinity -1.61238325
REMARK minimizedRMSD -1
REMARK  0 active torsions:
REMARK  status: ('A' for Active; 'I' for Inactive)
ROOT
ATOM      1  C2' OXE d   1       0.429   1.703  -0.700  0.00  0.00     0.078 C 
ATOM      2  C1' OXE d   1       2.723   3.210  -0.113  0.00  0.00     0.078 C 
ATOM      3  C1  OXE d   1       1.473   3.494   0.681  0.00  0.00    -0.078 A 
ATOM      4  C2  OXE d   1       0.342   2.785   0.356  0.00  0.00    -0.078 A 
ATOM      5  C3  OXE d   1      -0.824   2.969   1.093  0.00  0.00     0.003 A 
ATOM      6  C4  OXE d   1      -0.898   3.978   2.061  0.00  0.00    -0.002 A 
ATOM      7  C5  OXE d   1       0.231   4.739   2.381  0.00  0.00    -0.002 A 
ATOM      8  C6  OXE d   1       1.433   4.482   1.732  0.00  0.00     0.003 A 
ENDROOT
TORSDOF 0
ENDMDL
