MODEL 1
REMARK minimizedAffinity -4.14755249
REMARK minimizedRMSD -1
REMARK  0 active torsions:
REMARK  status: ('A' for Active; 'I' for Inactive)
ROOT
ATOM      1  C2' OXE d   1      -2.077  -0.332   1.405  0.00  0.00     0.078 C 
ATOM      2  C1' OXE d   1      -0.151   0.884  -0.235  0.00  0.00     0.078 C 
ATOM      3  C1  OXE d   1      -0.006  -0.591   0.047  0.00  0.00    -0.078 A 
ATOM      4  C2  OXE d   1      -0.926  -1.168   0.888  0.00  0.00    -0.078 A 
ATOM      5  C3  OXE d   1      -0.870  -2.536   1.137  0.00  0.00     0.003 A 
ATOM      6  C4  OXE d   1       0.203  -3.299   0.663  0.00  0.00    -0.002 A 
ATOM      7  C5  OXE d   1       1.174  -2.723  -0.163  0.00  0.00    -0.002 A 
ATOM      8  C6  OXE d   1       1.061  -1.383  -0.515  0.00  0.00     0.003 A 
ENDROOT
TORSDOF 0
ENDMDL
