MODEL 1
REMARK minimizedAffinity -2.4048841
REMARK minimizedRMSD -1
REMARK  0 active torsions:
REMARK  status: ('A' for Active; 'I' for Inactive)
ROOT
ATOM      1  C2' OXE d   1      -2.015   0.214   0.290  0.00  0.00     0.078 C 
ATOM      2  C1' OXE d   1      -2.669  -2.271   1.420  0.00  0.00     0.078 C 
ATOM      3  C1  OXE d   1      -1.247  -2.059   0.962  0.00  0.00    -0.078 A 
ATOM      4  C2  OXE d   1      -0.948  -0.856   0.368  0.00  0.00    -0.078 A 
ATOM      5  C3  OXE d   1       0.361  -0.588  -0.023  0.00  0.00     0.003 A 
ATOM      6  C4  OXE d   1       1.340  -1.587   0.043  0.00  0.00    -0.002 A 
ATOM      7  C5  OXE d   1       1.046  -2.832   0.609  0.00  0.00    -0.002 A 
ATOM      8  C6  OXE d   1      -0.229  -3.069   1.111  0.00  0.00     0.003 A 
ENDROOT
TORSDOF 0
ENDMDL
