MODEL 1
REMARK minimizedAffinity -3.35242438
REMARK minimizedRMSD -1
REMARK  0 active torsions:
REMARK  status: ('A' for Active; 'I' for Inactive)
ROOT
ATOM      1  C2' OXE d   1       1.702  -1.410  -1.136  0.00  0.00     0.078 C 
ATOM      2  C1' OXE d   1       0.454   0.902  -0.147  0.00  0.00     0.078 C 
ATOM      3  C1  OXE d   1      -0.089  -0.434   0.294  0.00  0.00    -0.078 A 
ATOM      4  C2  OXE d   1       0.497  -1.560  -0.232  0.00  0.00    -0.078 A 
ATOM      5  C3  OXE d   1       0.070  -2.818   0.184  0.00  0.00     0.003 A 
ATOM      6  C4  OXE d   1      -1.051  -2.947   1.013  0.00  0.00    -0.002 A 
ATOM      7  C5  OXE d   1      -1.688  -1.813   1.527  0.00  0.00    -0.002 A 
ATOM      8  C6  OXE d   1      -1.195  -0.552   1.212  0.00  0.00     0.003 A 
ENDROOT
TORSDOF 0
ENDMDL
