MODEL 1
REMARK minimizedAffinity -4.80014324
REMARK minimizedRMSD -1
REMARK  0 active torsions:
REMARK  status: ('A' for Active; 'I' for Inactive)
ROOT
ATOM      1  C2' OXE d   1       0.336  -1.513  -2.531  0.00  0.00     0.078 C 
ATOM      2  C1' OXE d   1      -0.622  -3.609  -0.927  0.00  0.00     0.078 C 
ATOM      3  C1  OXE d   1      -0.816  -2.198  -0.430  0.00  0.00    -0.078 A 
ATOM      4  C2  OXE d   1      -0.302  -1.181  -1.199  0.00  0.00    -0.078 A 
ATOM      5  C3  OXE d   1      -0.501   0.142  -0.814  0.00  0.00     0.003 A 
ATOM      6  C4  OXE d   1      -1.083   0.440   0.424  0.00  0.00    -0.002 A 
ATOM      7  C5  OXE d   1      -1.578  -0.582   1.240  0.00  0.00    -0.002 A 
ATOM      8  C6  OXE d   1      -1.490  -1.901   0.809  0.00  0.00     0.003 A 
ENDROOT
TORSDOF 0
ENDMDL
