MODEL 1
REMARK minimizedAffinity -0.0614029877
REMARK minimizedRMSD -1
REMARK  0 active torsions:
REMARK  status: ('A' for Active; 'I' for Inactive)
ROOT
ATOM      1  N1  IND d   1      -0.475  -1.167  -1.785  0.00  0.00    -0.196 N 
ATOM      2  C2  IND d   1       0.809  -1.484  -2.133  0.00  0.00     0.054 A 
ATOM      3  C3  IND d   1       1.636  -1.323  -1.076  0.00  0.00    -0.031 A 
ATOM      4  C4  IND d   1       1.083  -0.647   1.346  0.00  0.00     0.051 A 
ATOM      5  C5  IND d   1       0.053  -0.223   2.138  0.00  0.00    -0.031 A 
ATOM      6  C6  IND d   1      -1.233  -0.093   1.653  0.00  0.00     0.015 A 
ATOM      7  C7  IND d   1      -1.539  -0.393   0.356  0.00  0.00    -0.016 A 
ATOM      8  C8  IND d   1      -0.494  -0.817  -0.452  0.00  0.00    -0.047 A 
ATOM      9  C9  IND d   1       0.821  -0.910   0.022  0.00  0.00    -0.096 A 
ATOM     10  HN1 IND d   1      -1.156  -1.184  -2.309  0.00  0.00     0.298 HD
ENDROOT
TORSDOF 0
ENDMDL
