MODEL 1
REMARK minimizedAffinity -4.53517389
REMARK minimizedRMSD -1
REMARK  0 active torsions:
REMARK  status: ('A' for Active; 'I' for Inactive)
ROOT
ATOM      1  N1  IND d   1       1.385  -1.791  -1.676  0.00  0.00    -0.196 N 
ATOM      2  C2  IND d   1       0.707  -2.802  -2.297  0.00  0.00     0.054 A 
ATOM      3  C3  IND d   1      -0.443  -3.072  -1.640  0.00  0.00    -0.031 A 
ATOM      4  C4  IND d   1      -1.460  -1.910   0.420  0.00  0.00     0.051 A 
ATOM      5  C5  IND d   1      -1.191  -0.955   1.361  0.00  0.00    -0.031 A 
ATOM      6  C6  IND d   1      -0.027  -0.214   1.335  0.00  0.00     0.015 A 
ATOM      7  C7  IND d   1       0.910  -0.392   0.357  0.00  0.00    -0.016 A 
ATOM      8  C8  IND d   1       0.643  -1.365  -0.596  0.00  0.00    -0.047 A 
ATOM      9  C9  IND d   1      -0.516  -2.150  -0.551  0.00  0.00    -0.096 A 
ATOM     10  HN1 IND d   1       2.147  -1.474  -1.919  0.00  0.00     0.298 HD
ENDROOT
TORSDOF 0
ENDMDL
