MODEL 1
REMARK minimizedAffinity -1.56337178
REMARK minimizedRMSD -1
REMARK  0 active torsions:
REMARK  status: ('A' for Active; 'I' for Inactive)
ROOT
ATOM      1  N1  IND d   1      -0.988  -0.812  -0.067  0.00  0.00    -0.196 N 
ATOM      2  C2  IND d   1      -0.086  -0.094   0.668  0.00  0.00     0.054 A 
ATOM      3  C3  IND d   1       1.169  -0.542   0.439  0.00  0.00    -0.031 A 
ATOM      4  C4  IND d   1       1.983  -2.373  -1.177  0.00  0.00     0.051 A 
ATOM      5  C5  IND d   1       1.526  -3.333  -2.036  0.00  0.00    -0.031 A 
ATOM      6  C6  IND d   1       0.180  -3.503  -2.289  0.00  0.00     0.015 A 
ATOM      7  C7  IND d   1      -0.762  -2.709  -1.699  0.00  0.00    -0.016 A 
ATOM      8  C8  IND d   1      -0.301  -1.738  -0.822  0.00  0.00    -0.047 A 
ATOM      9  C9  IND d   1       1.060  -1.588  -0.528  0.00  0.00    -0.096 A 
ATOM     10  HN1 IND d   1      -1.841  -0.703  -0.059  0.00  0.00     0.298 HD
ENDROOT
TORSDOF 0
ENDMDL
