MODEL 1
REMARK minimizedAffinity -2.12516475
REMARK minimizedRMSD -1
REMARK  0 active torsions:
REMARK  status: ('A' for Active; 'I' for Inactive)
ROOT
ATOM      1  N1  IND d   1       0.489   0.131   0.164  0.00  0.00    -0.196 N 
ATOM      2  C2  IND d   1      -0.430  -0.230   1.110  0.00  0.00     0.054 A 
ATOM      3  C3  IND d   1      -0.929  -1.457   0.836  0.00  0.00    -0.031 A 
ATOM      4  C4  IND d   1      -0.306  -3.092  -1.052  0.00  0.00     0.051 A 
ATOM      5  C5  IND d   1       0.456  -3.193  -2.181  0.00  0.00    -0.031 A 
ATOM      6  C6  IND d   1       1.287  -2.172  -2.594  0.00  0.00     0.015 A 
ATOM      7  C7  IND d   1       1.396  -1.010  -1.882  0.00  0.00    -0.016 A 
ATOM      8  C8  IND d   1       0.618  -0.902  -0.738  0.00  0.00    -0.047 A 
ATOM      9  C9  IND d   1      -0.259  -1.918  -0.338  0.00  0.00    -0.096 A 
ATOM     10  HN1 IND d   1       0.915   0.877   0.138  0.00  0.00     0.298 HD
ENDROOT
TORSDOF 0
ENDMDL
