MODEL 1
REMARK minimizedAffinity -2.87209916
REMARK minimizedRMSD -1
REMARK  0 active torsions:
REMARK  status: ('A' for Active; 'I' for Inactive)
ROOT
ATOM      1  N1  IND d   1       1.389  -1.755  -2.067  0.00  0.00    -0.196 N 
ATOM      2  C2  IND d   1       0.494  -2.630  -2.618  0.00  0.00     0.054 A 
ATOM      3  C3  IND d   1      -0.598  -2.745  -1.829  0.00  0.00    -0.031 A 
ATOM      4  C4  IND d   1      -1.174  -1.512   0.356  0.00  0.00     0.051 A 
ATOM      5  C5  IND d   1      -0.652  -0.642   1.272  0.00  0.00    -0.031 A 
ATOM      6  C6  IND d   1       0.601  -0.085   1.117  0.00  0.00     0.015 A 
ATOM      7  C7  IND d   1       1.377  -0.370   0.029  0.00  0.00    -0.016 A 
ATOM      8  C8  IND d   1       0.854  -1.258  -0.899  0.00  0.00    -0.047 A 
ATOM      9  C9  IND d   1      -0.400  -1.860  -0.726  0.00  0.00    -0.096 A 
ATOM     10  HN1 IND d   1       2.156  -1.549  -2.396  0.00  0.00     0.298 HD
ENDROOT
TORSDOF 0
ENDMDL
