MODEL 1
REMARK minimizedAffinity -0.0647131354
REMARK minimizedRMSD -1
REMARK  0 active torsions:
REMARK  status: ('A' for Active; 'I' for Inactive)
ROOT
ATOM      1  N1  IND d   1       1.346  -0.426  -0.202  0.00  0.00    -0.196 N 
ATOM      2  C2  IND d   1       0.952  -1.383  -1.095  0.00  0.00     0.054 A 
ATOM      3  C3  IND d   1      -0.356  -1.677  -0.924  0.00  0.00    -0.031 A 
ATOM      4  C4  IND d   1      -2.068  -0.635   0.693  0.00  0.00     0.051 A 
ATOM      5  C5  IND d   1      -2.172   0.251   1.728  0.00  0.00    -0.031 A 
ATOM      6  C6  IND d   1      -1.086   0.973   2.180  0.00  0.00     0.015 A 
ATOM      7  C7  IND d   1       0.146   0.844   1.604  0.00  0.00    -0.016 A 
ATOM      8  C8  IND d   1       0.256  -0.060   0.557  0.00  0.00    -0.047 A 
ATOM      9  C9  IND d   1      -0.832  -0.827   0.122  0.00  0.00    -0.096 A 
ATOM     10  HN1 IND d   1       2.140  -0.106  -0.126  0.00  0.00     0.298 HD
ENDROOT
TORSDOF 0
ENDMDL
