MODEL 1
REMARK minimizedAffinity -2.81830812
REMARK minimizedRMSD -1
REMARK  0 active torsions:
REMARK  status: ('A' for Active; 'I' for Inactive)
ROOT
ATOM      1  N1  IND d   1      -0.506  -3.224  -1.398  0.00  0.00    -0.196 N 
ATOM      2  C2  IND d   1       0.560  -3.479  -2.215  0.00  0.00     0.054 A 
ATOM      3  C3  IND d   1       1.448  -2.462  -2.160  0.00  0.00    -0.031 A 
ATOM      4  C4  IND d   1       1.405  -0.328  -0.721  0.00  0.00     0.051 A 
ATOM      5  C5  IND d   1       0.617   0.365   0.155  0.00  0.00    -0.031 A 
ATOM      6  C6  IND d   1      -0.609  -0.115   0.568  0.00  0.00     0.015 A 
ATOM      7  C7  IND d   1      -1.090  -1.315   0.128  0.00  0.00    -0.016 A 
ATOM      8  C8  IND d   1      -0.296  -2.018  -0.767  0.00  0.00    -0.047 A 
ATOM      9  C9  IND d   1       0.930  -1.516  -1.223  0.00  0.00    -0.096 A 
ATOM     10  HN1 IND d   1      -1.193  -3.732  -1.296  0.00  0.00     0.298 HD
ENDROOT
TORSDOF 0
ENDMDL
