MODEL 1
REMARK minimizedAffinity -4.57824755
REMARK minimizedRMSD -1
REMARK  0 active torsions:
REMARK  status: ('A' for Active; 'I' for Inactive)
ROOT
ATOM      1  N1  IND d   1       1.520   0.108  -0.644  0.00  0.00    -0.196 N 
ATOM      2  C2  IND d   1       2.055  -1.147  -0.555  0.00  0.00     0.054 A 
ATOM      3  C3  IND d   1       1.436  -1.854   0.416  0.00  0.00    -0.031 A 
ATOM      4  C4  IND d   1      -0.547  -1.186   1.916  0.00  0.00     0.051 A 
ATOM      5  C5  IND d   1      -1.352  -0.127   2.229  0.00  0.00    -0.031 A 
ATOM      6  C6  IND d   1      -1.241   1.089   1.585  0.00  0.00     0.015 A 
ATOM      7  C7  IND d   1      -0.323   1.287   0.592  0.00  0.00    -0.016 A 
ATOM      8  C8  IND d   1       0.501   0.216   0.277  0.00  0.00    -0.047 A 
ATOM      9  C9  IND d   1       0.421  -1.006   0.956  0.00  0.00    -0.096 A 
ATOM     10  HN1 IND d   1       1.776   0.726  -1.184  0.00  0.00     0.298 HD
ENDROOT
TORSDOF 0
ENDMDL
