MODEL 1
REMARK minimizedAffinity 0.94104594
REMARK minimizedRMSD -1
REMARK  0 active torsions:
REMARK  status: ('A' for Active; 'I' for Inactive)
ROOT
ATOM      1  N1  IND d   1       0.249   0.394  -0.013  0.00  0.00    -0.196 N 
ATOM      2  C2  IND d   1      -0.504   0.125   1.096  0.00  0.00     0.054 A 
ATOM      3  C3  IND d   1      -0.789  -1.195   1.163  0.00  0.00    -0.031 A 
ATOM      4  C4  IND d   1      -0.037  -3.110  -0.384  0.00  0.00     0.051 A 
ATOM      5  C5  IND d   1       0.632  -3.353  -1.551  0.00  0.00    -0.031 A 
ATOM      6  C6  IND d   1       1.222  -2.340  -2.278  0.00  0.00     0.015 A 
ATOM      7  C7  IND d   1       1.175  -1.041  -1.857  0.00  0.00    -0.016 A 
ATOM      8  C8  IND d   1       0.490  -0.789  -0.677  0.00  0.00    -0.047 A 
ATOM      9  C9  IND d   1      -0.147  -1.808   0.043  0.00  0.00    -0.096 A 
ATOM     10  HN1 IND d   1       0.526   1.171  -0.255  0.00  0.00     0.298 HD
ENDROOT
TORSDOF 0
ENDMDL
