MODEL 1
REMARK minimizedAffinity -2.33837247
REMARK minimizedRMSD -1
REMARK  0 active torsions:
REMARK  status: ('A' for Active; 'I' for Inactive)
ROOT
ATOM      1  N1  IND d   1       0.993  -2.323  -2.144  0.00  0.00    -0.196 N 
ATOM      2  C2  IND d   1       0.145  -3.335  -2.497  0.00  0.00     0.054 A 
ATOM      3  C3  IND d   1      -0.891  -3.403  -1.632  0.00  0.00    -0.031 A 
ATOM      4  C4  IND d   1      -1.450  -1.889   0.374  0.00  0.00     0.051 A 
ATOM      5  C5  IND d   1      -0.953  -0.851   1.111  0.00  0.00    -0.031 A 
ATOM      6  C6  IND d   1       0.241  -0.236   0.793  0.00  0.00     0.015 A 
ATOM      7  C7  IND d   1       0.980  -0.631  -0.286  0.00  0.00    -0.016 A 
ATOM      8  C8  IND d   1       0.482  -1.689  -1.033  0.00  0.00    -0.047 A 
ATOM      9  C9  IND d   1      -0.708  -2.345  -0.690  0.00  0.00    -0.096 A 
ATOM     10  HN1 IND d   1       1.723  -2.116  -2.549  0.00  0.00     0.298 HD
ENDROOT
TORSDOF 0
ENDMDL
