MODEL 1
REMARK minimizedAffinity -3.75225496
REMARK minimizedRMSD -1
REMARK  0 active torsions:
REMARK  status: ('A' for Active; 'I' for Inactive)
ROOT
ATOM      1  N1  IND d   1      -0.565  -3.299  -1.132  0.00  0.00    -0.196 N 
ATOM      2  C2  IND d   1       0.463  -3.710  -1.933  0.00  0.00     0.054 A 
ATOM      3  C3  IND d   1       1.432  -2.767  -1.976  0.00  0.00    -0.031 A 
ATOM      4  C4  IND d   1       1.582  -0.519  -0.730  0.00  0.00     0.051 A 
ATOM      5  C5  IND d   1       0.867   0.309   0.088  0.00  0.00    -0.031 A 
ATOM      6  C6  IND d   1      -0.387  -0.032   0.554  0.00  0.00     0.015 A 
ATOM      7  C7  IND d   1      -0.969  -1.223   0.225  0.00  0.00    -0.016 A 
ATOM      8  C8  IND d   1      -0.249  -2.063  -0.612  0.00  0.00    -0.047 A 
ATOM      9  C9  IND d   1       1.006  -1.705  -1.121  0.00  0.00    -0.096 A 
ATOM     10  HN1 IND d   1      -1.288  -3.738  -0.979  0.00  0.00     0.298 HD
ENDROOT
TORSDOF 0
ENDMDL
