MODEL 1
REMARK minimizedAffinity -5.94397831
REMARK minimizedRMSD -1
REMARK  0 active torsions:
REMARK  status: ('A' for Active; 'I' for Inactive)
ROOT
ATOM      1  N1  IND d   1       0.156   2.345  -1.179  0.00  0.00    -0.196 N 
ATOM      2  C2  IND d   1       0.686   1.328  -1.922  0.00  0.00     0.054 A 
ATOM      3  C3  IND d   1       0.602   0.159  -1.248  0.00  0.00    -0.031 A 
ATOM      4  C4  IND d   1      -0.458  -0.333   1.046  0.00  0.00     0.051 A 
ATOM      5  C5  IND d   1      -1.037   0.284   2.120  0.00  0.00    -0.031 A 
ATOM      6  C6  IND d   1      -1.255   1.646   2.148  0.00  0.00     0.015 A 
ATOM      7  C7  IND d   1      -0.910   2.445   1.095  0.00  0.00    -0.016 A 
ATOM      8  C8  IND d   1      -0.316   1.823   0.006  0.00  0.00    -0.047 A 
ATOM      9  C9  IND d   1      -0.054   0.447  -0.012  0.00  0.00    -0.096 A 
ATOM     10  HN1 IND d   1       0.123   3.173  -1.411  0.00  0.00     0.298 HD
ENDROOT
TORSDOF 0
ENDMDL
