MODEL 1
REMARK minimizedAffinity -1.18837333
REMARK minimizedRMSD -1
REMARK  0 active torsions:
REMARK  status: ('A' for Active; 'I' for Inactive)
ROOT
ATOM      1  N1  IND d   1      -0.334   2.520   0.982  0.00  0.00    -0.196 N 
ATOM      2  C2  IND d   1      -1.008   2.377   2.163  0.00  0.00     0.054 A 
ATOM      3  C3  IND d   1      -1.088   1.071   2.503  0.00  0.00    -0.031 A 
ATOM      4  C4  IND d   1      -0.096  -0.991   1.323  0.00  0.00     0.051 A 
ATOM      5  C5  IND d   1       0.571  -1.367   0.191  0.00  0.00    -0.031 A 
ATOM      6  C6  IND d   1       0.981  -0.448  -0.753  0.00  0.00     0.015 A 
ATOM      7  C7  IND d   1       0.749   0.889  -0.593  0.00  0.00    -0.016 A 
ATOM      8  C8  IND d   1       0.065   1.274   0.551  0.00  0.00    -0.047 A 
ATOM      9  C9  IND d   1      -0.391   0.341   1.492  0.00  0.00    -0.096 A 
ATOM     10  HN1 IND d   1      -0.184   3.263   0.577  0.00  0.00     0.298 HD
ENDROOT
TORSDOF 0
ENDMDL
