MODEL 1
REMARK minimizedAffinity -1.60237157
REMARK minimizedRMSD -1
REMARK  0 active torsions:
REMARK  status: ('A' for Active; 'I' for Inactive)
ROOT
ATOM      1  N1  IND d   1      -0.934  -3.057  -0.622  0.00  0.00    -0.196 N 
ATOM      2  C2  IND d   1      -0.048  -3.284  -1.637  0.00  0.00     0.054 A 
ATOM      3  C3  IND d   1       0.773  -2.220  -1.791  0.00  0.00    -0.031 A 
ATOM      4  C4  IND d   1       0.905  -0.045  -0.421  0.00  0.00     0.051 A 
ATOM      5  C5  IND d   1       0.277   0.635   0.585  0.00  0.00    -0.031 A 
ATOM      6  C6  IND d   1      -0.807   0.106   1.256  0.00  0.00     0.015 A 
ATOM      7  C7  IND d   1      -1.299  -1.132   0.951  0.00  0.00    -0.016 A 
ATOM      8  C8  IND d   1      -0.668  -1.822  -0.074  0.00  0.00    -0.047 A 
ATOM      9  C9  IND d   1       0.406  -1.272  -0.787  0.00  0.00    -0.096 A 
ATOM     10  HN1 IND d   1      -1.554  -3.596  -0.367  0.00  0.00     0.298 HD
ENDROOT
TORSDOF 0
ENDMDL
