MODEL 1
REMARK minimizedAffinity -3.26216888
REMARK minimizedRMSD -1
REMARK  0 active torsions:
REMARK  status: ('A' for Active; 'I' for Inactive)
ROOT
ATOM      1  N1  IND d   1       0.615   0.245  -0.758  0.00  0.00    -0.196 N 
ATOM      2  C2  IND d   1       0.185  -0.786   0.031  0.00  0.00     0.054 A 
ATOM      3  C3  IND d   1      -0.410  -0.307   1.147  0.00  0.00    -0.031 A 
ATOM      4  C4  IND d   1      -0.880   2.129   1.833  0.00  0.00     0.051 A 
ATOM      5  C5  IND d   1      -0.643   3.420   1.453  0.00  0.00    -0.031 A 
ATOM      6  C6  IND d   1       0.036   3.725   0.291  0.00  0.00     0.015 A 
ATOM      7  C7  IND d   1       0.497   2.746  -0.543  0.00  0.00    -0.016 A 
ATOM      8  C8  IND d   1       0.264   1.433  -0.156  0.00  0.00    -0.047 A 
ATOM      9  C9  IND d   1      -0.387   1.117   1.043  0.00  0.00    -0.096 A 
ATOM     10  HN1 IND d   1       1.033   0.164  -1.505  0.00  0.00     0.298 HD
ENDROOT
TORSDOF 0
ENDMDL
