MODEL 1
REMARK minimizedAffinity -1.98274088
REMARK minimizedRMSD -1
REMARK  0 active torsions:
REMARK  status: ('A' for Active; 'I' for Inactive)
ROOT
ATOM      1  N1  IND d   1      -0.142   2.391   0.059  0.00  0.00    -0.196 N 
ATOM      2  C2  IND d   1       0.425   2.697  -1.147  0.00  0.00     0.054 A 
ATOM      3  C3  IND d   1       0.817   1.570  -1.782  0.00  0.00    -0.031 A 
ATOM      4  C4  IND d   1       0.536  -0.889  -1.072  0.00  0.00     0.051 A 
ATOM      5  C5  IND d   1       0.110  -1.668  -0.033  0.00  0.00    -0.031 A 
ATOM      6  C6  IND d   1      -0.435  -1.123   1.112  0.00  0.00     0.015 A 
ATOM      7  C7  IND d   1      -0.585   0.227   1.256  0.00  0.00    -0.016 A 
ATOM      8  C8  IND d   1      -0.148   1.022   0.206  0.00  0.00    -0.047 A 
ATOM      9  C9  IND d   1       0.445   0.477  -0.940  0.00  0.00    -0.096 A 
ATOM     10  HN1 IND d   1      -0.444   2.959   0.630  0.00  0.00     0.298 HD
ENDROOT
TORSDOF 0
ENDMDL
