MODEL 1
REMARK minimizedAffinity 1.39855421
REMARK minimizedRMSD -1
REMARK  0 active torsions:
REMARK  status: ('A' for Active; 'I' for Inactive)
ROOT
ATOM      1  C1  BNZ d   1       3.467   0.001  -5.999  0.00  0.00     0.000 A 
ATOM      2  C2  BNZ d   1       4.826   0.170  -6.000  0.00  0.00     0.000 A 
ATOM      3  C3  BNZ d   1       5.562  -0.074  -4.874  0.00  0.00     0.000 A 
ATOM      4  C4  BNZ d   1       4.935  -0.448  -3.740  0.00  0.00     0.000 A 
ATOM      5  C5  BNZ d   1       3.564  -0.613  -3.721  0.00  0.00     0.000 A 
ATOM      6  C6  BNZ d   1       2.831  -0.404  -4.867  0.00  0.00     0.000 A 
ENDROOT
TORSDOF 0
ENDMDL
