MODEL 1
REMARK minimizedAffinity 7.1296525
REMARK minimizedRMSD -1
REMARK  0 active torsions:
REMARK  status: ('A' for Active; 'I' for Inactive)
ROOT
ATOM      1  C1  BNZ d   1       0.775  -0.319   4.962  0.00  0.00     0.000 A 
ATOM      2  C2  BNZ d   1       0.211  -0.687   3.769  0.00  0.00     0.000 A 
ATOM      3  C3  BNZ d   1       0.921  -1.415   2.855  0.00  0.00     0.000 A 
ATOM      4  C4  BNZ d   1       2.204  -1.738   3.117  0.00  0.00     0.000 A 
ATOM      5  C5  BNZ d   1       2.789  -1.367   4.311  0.00  0.00     0.000 A 
ATOM      6  C6  BNZ d   1       2.059  -0.668   5.245  0.00  0.00     0.000 A 
ENDROOT
TORSDOF 0
ENDMDL
