MODEL 1
REMARK minimizedAffinity 2.75034523
REMARK minimizedRMSD -1
REMARK  0 active torsions:
REMARK  status: ('A' for Active; 'I' for Inactive)
ROOT
ATOM      1  C1  BNZ d   1       0.656  -0.366  -6.000  0.00  0.00     0.000 A 
ATOM      2  C2  BNZ d   1       2.024  -0.315  -6.000  0.00  0.00     0.000 A 
ATOM      3  C3  BNZ d   1       2.750  -0.993  -5.061  0.00  0.00     0.000 A 
ATOM      4  C4  BNZ d   1       2.107  -1.687  -4.100  0.00  0.00     0.000 A 
ATOM      5  C5  BNZ d   1       0.727  -1.740  -4.080  0.00  0.00     0.000 A 
ATOM      6  C6  BNZ d   1       0.001  -1.088  -5.050  0.00  0.00     0.000 A 
ENDROOT
TORSDOF 0
ENDMDL
