MODEL 1
REMARK minimizedAffinity 0.426004976
REMARK minimizedRMSD -1
REMARK  0 active torsions:
REMARK  status: ('A' for Active; 'I' for Inactive)
ROOT
ATOM      1  C1  BNZ d   1       2.082  -0.367  -5.999  0.00  0.00     0.000 A 
ATOM      2  C2  BNZ d   1       3.406  -0.632  -5.772  0.00  0.00     0.000 A 
ATOM      3  C3  BNZ d   1       3.809  -1.245  -4.618  0.00  0.00     0.000 A 
ATOM      4  C4  BNZ d   1       2.894  -1.555  -3.677  0.00  0.00     0.000 A 
ATOM      5  C5  BNZ d   1       1.556  -1.285  -3.888  0.00  0.00     0.000 A 
ATOM      6  C6  BNZ d   1       1.150  -0.704  -5.067  0.00  0.00     0.000 A 
ENDROOT
TORSDOF 0
ENDMDL
