MODEL 1
REMARK minimizedAffinity 7.3202343
REMARK minimizedRMSD -1
REMARK  0 active torsions:
REMARK  status: ('A' for Active; 'I' for Inactive)
ROOT
ATOM      1  C1  BNZ d   1      -1.046  -0.641   2.335  0.00  0.00     0.000 A 
ATOM      2  C2  BNZ d   1       0.168  -0.035   2.521  0.00  0.00     0.000 A 
ATOM      3  C3  BNZ d   1       1.267  -0.765   2.878  0.00  0.00     0.000 A 
ATOM      4  C4  BNZ d   1       1.143  -2.091   3.088  0.00  0.00     0.000 A 
ATOM      5  C5  BNZ d   1      -0.077  -2.715   2.914  0.00  0.00     0.000 A 
ATOM      6  C6  BNZ d   1      -1.172  -1.984   2.516  0.00  0.00     0.000 A 
ENDROOT
TORSDOF 0
ENDMDL
