MODEL 1
REMARK minimizedAffinity 3.61493444
REMARK minimizedRMSD -1
REMARK  0 active torsions:
REMARK  status: ('A' for Active; 'I' for Inactive)
ROOT
ATOM      1  C1  BNZ d   1       0.045  -0.285   3.036  0.00  0.00     0.000 A 
ATOM      2  C2  BNZ d   1      -1.273  -0.148   2.691  0.00  0.00     0.000 A 
ATOM      3  C3  BNZ d   1      -2.130  -1.210   2.766  0.00  0.00     0.000 A 
ATOM      4  C4  BNZ d   1      -1.661  -2.415   3.147  0.00  0.00     0.000 A 
ATOM      5  C5  BNZ d   1      -0.332  -2.571   3.490  0.00  0.00     0.000 A 
ATOM      6  C6  BNZ d   1       0.519  -1.491   3.450  0.00  0.00     0.000 A 
ENDROOT
TORSDOF 0
ENDMDL
