MODEL 1
REMARK minimizedAffinity 5.33931684
REMARK minimizedRMSD -1
REMARK  1 active torsions:
REMARK  status: ('A' for Active; 'I' for Inactive)
REMARK    1  A    between atoms: N_2  and  C1_3 
ROOT
ATOM      1  C1  UNL d   1      -3.555   1.245   5.389  0.00  0.00     0.143 A 
ATOM      2  C2  UNL d   1      -4.233   0.184   5.999  0.00  0.00    -0.057 A 
ATOM      3  C3  UNL d   1      -4.508  -0.998   5.301  0.00  0.00     0.033 A 
ATOM      4  C4  UNL d   1      -4.135  -1.129   3.968  0.00  0.00    -0.042 A 
ATOM      5  C5  UNL d   1      -3.483  -0.077   3.334  0.00  0.00     0.033 A 
ATOM      6  C6  UNL d   1      -3.205   1.098   4.037  0.00  0.00    -0.057 A 
ENDROOT
BRANCH   1   7
ATOM      7  N   UNL d   1      -3.339   2.483   5.999  0.00  0.00    -0.732 N 
ATOM      8  C   UNL d   1      -4.374   3.495   6.000  0.00  0.00     0.284 C 
ATOM      9  H3  UNL d   1      -2.839   2.400   6.881  0.00  0.00     0.395 HD
ENDBRANCH   1   7
TORSDOF 1
ENDMDL
