MODEL 1
REMARK minimizedAffinity -0.710219264
REMARK minimizedRMSD -1
REMARK  1 active torsions:
REMARK  status: ('A' for Active; 'I' for Inactive)
REMARK    1  A    between atoms: N_2  and  C1_3 
ROOT
ATOM      1  C1  UNL d   1      -3.604   0.135   5.280  0.00  0.00     0.143 A 
ATOM      2  C2  UNL d   1      -4.601  -0.664   5.849  0.00  0.00    -0.057 A 
ATOM      3  C3  UNL d   1      -5.388  -1.514   5.062  0.00  0.00     0.033 A 
ATOM      4  C4  UNL d   1      -5.210  -1.558   3.683  0.00  0.00    -0.042 A 
ATOM      5  C5  UNL d   1      -4.242  -0.754   3.093  0.00  0.00     0.033 A 
ATOM      6  C6  UNL d   1      -3.455   0.088   3.885  0.00  0.00    -0.057 A 
ENDROOT
BRANCH   1   7
ATOM      7  N   UNL d   1      -2.856   1.073   5.995  0.00  0.00    -0.732 N 
ATOM      8  C   UNL d   1      -1.410   1.026   5.985  0.00  0.00     0.284 C 
ATOM      9  H3  UNL d   1      -3.242   2.012   5.926  0.00  0.00     0.395 HD
ENDBRANCH   1   7
TORSDOF 1
ENDMDL
