MODEL 1
REMARK minimizedAffinity 7.17706203
REMARK minimizedRMSD -1
REMARK  1 active torsions:
REMARK  status: ('A' for Active; 'I' for Inactive)
REMARK    1  A    between atoms: N_2  and  C1_3 
ROOT
ATOM      1  C1  UNL d   1      -1.827   0.108   3.307  0.00  0.00     0.143 A 
ATOM      2  C2  UNL d   1      -0.627  -0.053   2.606  0.00  0.00    -0.057 A 
ATOM      3  C3  UNL d   1      -0.526  -0.950   1.536  0.00  0.00     0.033 A 
ATOM      4  C4  UNL d   1      -1.620  -1.725   1.165  0.00  0.00    -0.042 A 
ATOM      5  C5  UNL d   1      -2.815  -1.600   1.863  0.00  0.00     0.033 A 
ATOM      6  C6  UNL d   1      -2.912  -0.698   2.927  0.00  0.00    -0.057 A 
ENDROOT
BRANCH   1   7
ATOM      7  N   UNL d   1      -1.962   0.911   4.443  0.00  0.00    -0.732 N 
ATOM      8  C   UNL d   1      -2.867   0.534   5.508  0.00  0.00     0.284 C 
ATOM      9  H3  UNL d   1      -1.071   1.281   4.766  0.00  0.00     0.395 HD
ENDBRANCH   1   7
TORSDOF 1
ENDMDL
