MODEL 1
REMARK minimizedAffinity -0.515667915
REMARK minimizedRMSD -1
REMARK  1 active torsions:
REMARK  status: ('A' for Active; 'I' for Inactive)
REMARK    1  A    between atoms: N_2  and  C1_3 
ROOT
ATOM      1  C1  UNL d   1      -3.415   0.281   3.669  0.00  0.00     0.143 A 
ATOM      2  C2  UNL d   1      -3.521  -1.071   3.325  0.00  0.00    -0.057 A 
ATOM      3  C3  UNL d   1      -4.739  -1.622   2.909  0.00  0.00     0.033 A 
ATOM      4  C4  UNL d   1      -5.884  -0.834   2.858  0.00  0.00    -0.042 A 
ATOM      5  C5  UNL d   1      -5.808   0.507   3.220  0.00  0.00     0.033 A 
ATOM      6  C6  UNL d   1      -4.587   1.052   3.628  0.00  0.00    -0.057 A 
ENDROOT
BRANCH   1   7
ATOM      7  N   UNL d   1      -2.255   0.864   4.184  0.00  0.00    -0.732 N 
ATOM      8  C   UNL d   1      -0.954   0.307   3.884  0.00  0.00     0.284 C 
ATOM      9  H3  UNL d   1      -2.287   1.881   4.159  0.00  0.00     0.395 HD
ENDBRANCH   1   7
TORSDOF 1
ENDMDL
