MODEL 1
REMARK minimizedAffinity 5.09340048
REMARK minimizedRMSD -1
REMARK  1 active torsions:
REMARK  status: ('A' for Active; 'I' for Inactive)
REMARK    1  A    between atoms: N_2  and  C1_3 
ROOT
ATOM      1  C1  UNL d   1       3.793   2.485   0.922  0.00  0.00     0.143 A 
ATOM      2  C2  UNL d   1       3.884   3.592   1.772  0.00  0.00    -0.057 A 
ATOM      3  C3  UNL d   1       4.967   4.477   1.698  0.00  0.00     0.033 A 
ATOM      4  C4  UNL d   1       5.996   4.252   0.790  0.00  0.00    -0.042 A 
ATOM      5  C5  UNL d   1       5.939   3.144  -0.047  0.00  0.00     0.033 A 
ATOM      6  C6  UNL d   1       4.852   2.268   0.026  0.00  0.00    -0.057 A 
ENDROOT
BRANCH   1   7
ATOM      7  N   UNL d   1       2.792   1.514   1.013  0.00  0.00    -0.732 N 
ATOM      8  C   UNL d   1       1.990   1.173  -0.142  0.00  0.00     0.284 C 
ATOM      9  H3  UNL d   1       3.077   0.714   1.573  0.00  0.00     0.395 HD
ENDBRANCH   1   7
TORSDOF 1
ENDMDL
