MODEL 1
REMARK minimizedAffinity 8.24527645
REMARK minimizedRMSD -1
REMARK  1 active torsions:
REMARK  status: ('A' for Active; 'I' for Inactive)
REMARK    1  A    between atoms: N_2  and  C1_3 
ROOT
ATOM      1  C1  UNL d   1      -1.087  -0.493   3.246  0.00  0.00     0.143 A 
ATOM      2  C2  UNL d   1      -0.998  -0.426   4.640  0.00  0.00    -0.057 A 
ATOM      3  C3  UNL d   1      -0.427  -1.466   5.382  0.00  0.00     0.033 A 
ATOM      4  C4  UNL d   1       0.041  -2.609   4.743  0.00  0.00    -0.042 A 
ATOM      5  C5  UNL d   1      -0.059  -2.709   3.360  0.00  0.00     0.033 A 
ATOM      6  C6  UNL d   1      -0.625  -1.664   2.623  0.00  0.00    -0.057 A 
ENDROOT
BRANCH   1   7
ATOM      7  N   UNL d   1      -1.734   0.464   2.460  0.00  0.00    -0.732 N 
ATOM      8  C   UNL d   1      -2.476   1.544   3.076  0.00  0.00     0.284 C 
ATOM      9  H3  UNL d   1      -1.177   0.748   1.657  0.00  0.00     0.395 HD
ENDBRANCH   1   7
TORSDOF 1
ENDMDL
