MODEL 1
REMARK minimizedAffinity 9.28029633
REMARK minimizedRMSD -1
REMARK  1 active torsions:
REMARK  status: ('A' for Active; 'I' for Inactive)
REMARK    1  A    between atoms: N_2  and  C1_3 
ROOT
ATOM      1  C1  UNL d   1       2.726   0.453  -3.190  0.00  0.00     0.143 A 
ATOM      2  C2  UNL d   1       2.068   1.671  -3.390  0.00  0.00    -0.057 A 
ATOM      3  C3  UNL d   1       2.466   2.831  -2.713  0.00  0.00     0.033 A 
ATOM      4  C4  UNL d   1       3.515   2.785  -1.800  0.00  0.00    -0.042 A 
ATOM      5  C5  UNL d   1       4.167   1.580  -1.567  0.00  0.00     0.033 A 
ATOM      6  C6  UNL d   1       3.769   0.427  -2.251  0.00  0.00    -0.057 A 
ENDROOT
BRANCH   1   7
ATOM      7  N   UNL d   1       2.315  -0.756  -3.758  0.00  0.00    -0.732 N 
ATOM      8  C   UNL d   1       1.078  -1.381  -3.345  0.00  0.00     0.284 C 
ATOM      9  H3  UNL d   1       2.484  -0.791  -4.761  0.00  0.00     0.395 HD
ENDBRANCH   1   7
TORSDOF 1
ENDMDL
