MODEL 1
REMARK minimizedAffinity 2.54949188
REMARK minimizedRMSD -1
REMARK  1 active torsions:
REMARK  status: ('A' for Active; 'I' for Inactive)
REMARK    1  A    between atoms: N_2  and  C1_3 
ROOT
ATOM      1  C1  UNL d   1       4.039  -4.239   0.003  0.00  0.00     0.143 A 
ATOM      2  C2  UNL d   1       4.805  -3.068  -0.019  0.00  0.00    -0.057 A 
ATOM      3  C3  UNL d   1       4.251  -1.832   0.336  0.00  0.00     0.033 A 
ATOM      4  C4  UNL d   1       2.909  -1.740   0.692  0.00  0.00    -0.042 A 
ATOM      5  C5  UNL d   1       2.123  -2.887   0.696  0.00  0.00     0.033 A 
ATOM      6  C6  UNL d   1       2.684  -4.119   0.347  0.00  0.00    -0.057 A 
ENDROOT
BRANCH   1   7
ATOM      7  N   UNL d   1       4.505  -5.481  -0.434  0.00  0.00    -0.732 N 
ATOM      8  C   UNL d   1       5.777  -5.995   0.028  0.00  0.00     0.284 C 
ATOM      9  H3  UNL d   1       3.767  -6.179  -0.479  0.00  0.00     0.395 HD
ENDBRANCH   1   7
TORSDOF 1
ENDMDL
