MODEL 1
REMARK minimizedAffinity 2.8098135
REMARK minimizedRMSD -1
REMARK  1 active torsions:
REMARK  status: ('A' for Active; 'I' for Inactive)
REMARK    1  A    between atoms: N_2  and  C1_3 
ROOT
ATOM      1  C1  UNL d   1       3.336  -4.144  -0.037  0.00  0.00     0.143 A 
ATOM      2  C2  UNL d   1       4.424  -3.264  -0.050  0.00  0.00    -0.057 A 
ATOM      3  C3  UNL d   1       5.741  -3.738  -0.053  0.00  0.00     0.033 A 
ATOM      4  C4  UNL d   1       5.995  -5.105  -0.014  0.00  0.00    -0.042 A 
ATOM      5  C5  UNL d   1       4.930  -5.997   0.025  0.00  0.00     0.033 A 
ATOM      6  C6  UNL d   1       3.616  -5.518   0.021  0.00  0.00    -0.057 A 
ENDROOT
BRANCH   1   7
ATOM      7  N   UNL d   1       2.005  -3.733   0.067  0.00  0.00    -0.732 N 
ATOM      8  C   UNL d   1       1.136  -3.752  -1.090  0.00  0.00     0.284 C 
ATOM      9  H3  UNL d   1       1.563  -4.059   0.924  0.00  0.00     0.395 HD
ENDBRANCH   1   7
TORSDOF 1
ENDMDL
