MODEL 1
REMARK minimizedAffinity 2.82285857
REMARK minimizedRMSD -1
REMARK  1 active torsions:
REMARK  status: ('A' for Active; 'I' for Inactive)
REMARK    1  A    between atoms: N_2  and  C1_3 
ROOT
ATOM      1  C1  UNL d   1       3.561  -4.797  -0.010  0.00  0.00     0.143 A 
ATOM      2  C2  UNL d   1       2.163  -4.850   0.008  0.00  0.00    -0.057 A 
ATOM      3  C3  UNL d   1       1.394  -3.688   0.144  0.00  0.00     0.033 A 
ATOM      4  C4  UNL d   1       2.013  -2.451   0.294  0.00  0.00    -0.042 A 
ATOM      5  C5  UNL d   1       3.401  -2.377   0.304  0.00  0.00     0.033 A 
ATOM      6  C6  UNL d   1       4.163  -3.541   0.161  0.00  0.00    -0.057 A 
ENDROOT
BRANCH   1   7
ATOM      7  N   UNL d   1       4.382  -5.927  -0.044  0.00  0.00    -0.732 N 
ATOM      8  C   UNL d   1       5.571  -5.998   0.778  0.00  0.00     0.284 C 
ATOM      9  H3  UNL d   1       3.849  -6.793  -0.080  0.00  0.00     0.395 HD
ENDBRANCH   1   7
TORSDOF 1
ENDMDL
