MODEL 1
REMARK minimizedAffinity 7.39440489
REMARK minimizedRMSD -1
REMARK  1 active torsions:
REMARK  status: ('A' for Active; 'I' for Inactive)
REMARK    1  A    between atoms: N_2  and  C1_3 
ROOT
ATOM      1  C1  UNL d   1       4.108  -4.118  -0.379  0.00  0.00     0.143 A 
ATOM      2  C2  UNL d   1       2.726  -3.932  -0.497  0.00  0.00    -0.057 A 
ATOM      3  C3  UNL d   1       2.140  -2.681  -0.267  0.00  0.00     0.033 A 
ATOM      4  C4  UNL d   1       2.924  -1.598   0.116  0.00  0.00    -0.042 A 
ATOM      5  C5  UNL d   1       4.296  -1.766   0.264  0.00  0.00     0.033 A 
ATOM      6  C6  UNL d   1       4.877  -3.016   0.026  0.00  0.00    -0.057 A 
ENDROOT
BRANCH   1   7
ATOM      7  N   UNL d   1       4.738  -5.359  -0.499  0.00  0.00    -0.732 N 
ATOM      8  C   UNL d   1       5.331  -5.998   0.656  0.00  0.00     0.284 C 
ATOM      9  H3  UNL d   1       4.232  -5.994  -1.112  0.00  0.00     0.395 HD
ENDBRANCH   1   7
TORSDOF 1
ENDMDL
