MODEL 1
REMARK minimizedAffinity 4.44920588
REMARK minimizedRMSD -1
REMARK  1 active torsions:
REMARK  status: ('A' for Active; 'I' for Inactive)
REMARK    1  A    between atoms: N_2  and  C1_3 
ROOT
ATOM      1  C1  UNL d   1       3.340  -4.197   0.303  0.00  0.00     0.143 A 
ATOM      2  C2  UNL d   1       4.403  -3.399  -0.135  0.00  0.00    -0.057 A 
ATOM      3  C3  UNL d   1       5.711  -3.897  -0.188  0.00  0.00     0.033 A 
ATOM      4  C4  UNL d   1       5.984  -5.197   0.225  0.00  0.00    -0.042 A 
ATOM      5  C5  UNL d   1       4.947  -6.000   0.687  0.00  0.00     0.033 A 
ATOM      6  C6  UNL d   1       3.643  -5.499   0.732  0.00  0.00    -0.057 A 
ENDROOT
BRANCH   1   7
ATOM      7  N   UNL d   1       2.035  -3.730   0.471  0.00  0.00    -0.732 N 
ATOM      8  C   UNL d   1       1.079  -3.805  -0.613  0.00  0.00     0.284 C 
ATOM      9  H3  UNL d   1       1.650  -3.971   1.382  0.00  0.00     0.395 HD
ENDBRANCH   1   7
TORSDOF 1
ENDMDL
