MODEL 1
REMARK minimizedAffinity -0.565874457
REMARK minimizedRMSD -1
REMARK  1 active torsions:
REMARK  status: ('A' for Active; 'I' for Inactive)
REMARK    1  A    between atoms: N_2  and  C1_3 
ROOT
ATOM      1  C1  UNL d   1       1.366  -3.624   0.122  0.00  0.00     0.143 A 
ATOM      2  C2  UNL d   1       0.595  -2.949   1.075  0.00  0.00    -0.057 A 
ATOM      3  C3  UNL d   1      -0.804  -2.979   1.030  0.00  0.00     0.033 A 
ATOM      4  C4  UNL d   1      -1.458  -3.661   0.010  0.00  0.00    -0.042 A 
ATOM      5  C5  UNL d   1      -0.712  -4.318  -0.962  0.00  0.00     0.033 A 
ATOM      6  C6  UNL d   1       0.685  -4.291  -0.908  0.00  0.00    -0.057 A 
ENDROOT
BRANCH   1   7
ATOM      7  N   UNL d   1       2.760  -3.551   0.056  0.00  0.00    -0.732 N 
ATOM      8  C   UNL d   1       3.562  -4.755   0.061  0.00  0.00     0.284 C 
ATOM      9  H3  UNL d   1       3.081  -2.840  -0.597  0.00  0.00     0.395 HD
ENDBRANCH   1   7
TORSDOF 1
ENDMDL
