MODEL 1
REMARK minimizedAffinity 11.2376995
REMARK minimizedRMSD -1
REMARK  1 active torsions:
REMARK  status: ('A' for Active; 'I' for Inactive)
REMARK    1  A    between atoms: N_2  and  C1_3 
ROOT
ATOM      1  C1  UNL d   1       3.556   2.149  -1.326  0.00  0.00     0.143 A 
ATOM      2  C2  UNL d   1       2.855   1.966  -0.129  0.00  0.00    -0.057 A 
ATOM      3  C3  UNL d   1       2.892   2.927   0.888  0.00  0.00     0.033 A 
ATOM      4  C4  UNL d   1       3.658   4.079   0.737  0.00  0.00    -0.042 A 
ATOM      5  C5  UNL d   1       4.382   4.270  -0.434  0.00  0.00     0.033 A 
ATOM      6  C6  UNL d   1       4.335   3.310  -1.449  0.00  0.00    -0.057 A 
ENDROOT
BRANCH   1   7
ATOM      7  N   UNL d   1       3.638   1.185  -2.335  0.00  0.00    -0.732 N 
ATOM      8  C   UNL d   1       2.470   0.830  -3.112  0.00  0.00     0.284 C 
ATOM      9  H3  UNL d   1       4.492   1.267  -2.882  0.00  0.00     0.395 HD
ENDBRANCH   1   7
TORSDOF 1
ENDMDL
