MODEL 1
REMARK minimizedAffinity 0.92769289
REMARK minimizedRMSD -1
REMARK  1 active torsions:
REMARK  status: ('A' for Active; 'I' for Inactive)
REMARK    1  A    between atoms: N_2  and  C1_3 
ROOT
ATOM      1  C1  UNL d   1      -0.400  -0.815   1.838  0.00  0.00     0.143 A 
ATOM      2  C2  UNL d   1      -0.441  -1.189   3.186  0.00  0.00    -0.057 A 
ATOM      3  C3  UNL d   1      -1.449  -2.028   3.676  0.00  0.00     0.033 A 
ATOM      4  C4  UNL d   1      -2.454  -2.485   2.830  0.00  0.00    -0.042 A 
ATOM      5  C5  UNL d   1      -2.448  -2.106   1.493  0.00  0.00     0.033 A 
ATOM      6  C6  UNL d   1      -1.435  -1.273   1.007  0.00  0.00    -0.057 A 
ENDROOT
BRANCH   1   7
ATOM      7  N   UNL d   1       0.519   0.096   1.311  0.00  0.00    -0.732 N 
ATOM      8  C   UNL d   1       0.389   0.571  -0.049  0.00  0.00     0.284 C 
ATOM      9  H3  UNL d   1       0.779   0.816   1.980  0.00  0.00     0.395 HD
ENDBRANCH   1   7
TORSDOF 1
ENDMDL
