MODEL 1
REMARK minimizedAffinity -3.3222363
REMARK minimizedRMSD -1
REMARK  1 active torsions:
REMARK  status: ('A' for Active; 'I' for Inactive)
REMARK    1  A    between atoms: N_2  and  C1_3 
ROOT
ATOM      1  C1  UNL d   1      -3.539  -4.437  -5.279  0.00  0.00     0.143 A 
ATOM      2  C2  UNL d   1      -3.625  -4.419  -3.883  0.00  0.00    -0.057 A 
ATOM      3  C3  UNL d   1      -4.631  -3.699  -3.227  0.00  0.00     0.033 A 
ATOM      4  C4  UNL d   1      -5.554  -2.958  -3.958  0.00  0.00    -0.042 A 
ATOM      5  C5  UNL d   1      -5.472  -2.941  -5.346  0.00  0.00     0.033 A 
ATOM      6  C6  UNL d   1      -4.469  -3.668  -5.995  0.00  0.00    -0.057 A 
ENDROOT
BRANCH   1   7
ATOM      7  N   UNL d   1      -2.504  -5.053  -5.987  0.00  0.00    -0.732 N 
ATOM      8  C   UNL d   1      -1.596  -5.963  -5.322  0.00  0.00     0.284 C 
ATOM      9  H3  UNL d   1      -2.794  -5.359  -6.913  0.00  0.00     0.395 HD
ENDBRANCH   1   7
TORSDOF 1
ENDMDL
