MODEL 1
REMARK minimizedAffinity -3.70233107
REMARK minimizedRMSD -1
REMARK  1 active torsions:
REMARK  status: ('A' for Active; 'I' for Inactive)
REMARK    1  A    between atoms: N_2  and  C1_3 
ROOT
ATOM      1  C1  UNL d   1      -3.672  -4.668  -4.453  0.00  0.00     0.143 A 
ATOM      2  C2  UNL d   1      -3.262  -3.380  -4.089  0.00  0.00    -0.057 A 
ATOM      3  C3  UNL d   1      -4.190  -2.407  -3.697  0.00  0.00     0.033 A 
ATOM      4  C4  UNL d   1      -5.550  -2.697  -3.690  0.00  0.00    -0.042 A 
ATOM      5  C5  UNL d   1      -5.982  -3.962  -4.072  0.00  0.00     0.033 A 
ATOM      6  C6  UNL d   1      -5.050  -4.932  -4.456  0.00  0.00    -0.057 A 
ENDROOT
BRANCH   1   7
ATOM      7  N   UNL d   1      -2.808  -5.648  -4.946  0.00  0.00    -0.732 N 
ATOM      8  C   UNL d   1      -1.584  -5.279  -5.624  0.00  0.00     0.284 C 
ATOM      9  H3  UNL d   1      -2.708  -6.435  -4.309  0.00  0.00     0.395 HD
ENDBRANCH   1   7
TORSDOF 1
ENDMDL
