MODEL 1
REMARK minimizedAffinity -3.78056717
REMARK minimizedRMSD -1
REMARK  1 active torsions:
REMARK  status: ('A' for Active; 'I' for Inactive)
REMARK    1  A    between atoms: N_2  and  C1_3 
ROOT
ATOM      1  C1  UNL d   1      -3.855  -4.964  -4.911  0.00  0.00     0.143 A 
ATOM      2  C2  UNL d   1      -4.997  -5.661  -4.500  0.00  0.00    -0.057 A 
ATOM      3  C3  UNL d   1      -6.000  -5.035  -3.752  0.00  0.00     0.033 A 
ATOM      4  C4  UNL d   1      -5.865  -3.702  -3.374  0.00  0.00    -0.042 A 
ATOM      5  C5  UNL d   1      -4.728  -2.997  -3.750  0.00  0.00     0.033 A 
ATOM      6  C6  UNL d   1      -3.733  -3.626  -4.504  0.00  0.00    -0.057 A 
ENDROOT
BRANCH   1   7
ATOM      7  N   UNL d   1      -2.777  -5.557  -5.573  0.00  0.00    -0.732 N 
ATOM      8  C   UNL d   1      -1.502  -4.879  -5.659  0.00  0.00     0.284 C 
ATOM      9  H3  UNL d   1      -2.706  -6.554  -5.382  0.00  0.00     0.395 HD
ENDBRANCH   1   7
TORSDOF 1
ENDMDL
