MODEL 1
REMARK minimizedAffinity -3.92505646
REMARK minimizedRMSD -1
REMARK  1 active torsions:
REMARK  status: ('A' for Active; 'I' for Inactive)
REMARK    1  A    between atoms: N_2  and  C1_3 
ROOT
ATOM      1  C1  UNL d   1      -3.330  -4.443  -4.986  0.00  0.00     0.143 A 
ATOM      2  C2  UNL d   1      -3.732  -3.295  -4.294  0.00  0.00    -0.057 A 
ATOM      3  C3  UNL d   1      -5.050  -3.142  -3.847  0.00  0.00     0.033 A 
ATOM      4  C4  UNL d   1      -5.999  -4.124  -4.110  0.00  0.00    -0.042 A 
ATOM      5  C5  UNL d   1      -5.628  -5.261  -4.818  0.00  0.00     0.033 A 
ATOM      6  C6  UNL d   1      -4.308  -5.412  -5.256  0.00  0.00    -0.057 A 
ENDROOT
BRANCH   1   7
ATOM      7  N   UNL d   1      -2.059  -4.611  -5.542  0.00  0.00    -0.732 N 
ATOM      8  C   UNL d   1      -1.593  -5.924  -5.932  0.00  0.00     0.284 C 
ATOM      9  H3  UNL d   1      -1.823  -3.873  -6.202  0.00  0.00     0.395 HD
ENDBRANCH   1   7
TORSDOF 1
ENDMDL
