MODEL 1
REMARK minimizedAffinity -3.0763998
REMARK minimizedRMSD -1
REMARK  1 active torsions:
REMARK  status: ('A' for Active; 'I' for Inactive)
REMARK    1  A    between atoms: N_2  and  C1_3 
ROOT
ATOM      1  C1  UNL d   1      -4.840  -4.529  -4.393  0.00  0.00     0.143 A 
ATOM      2  C2  UNL d   1      -4.886  -5.579  -5.316  0.00  0.00    -0.057 A 
ATOM      3  C3  UNL d   1      -3.736  -5.998  -5.997  0.00  0.00     0.033 A 
ATOM      4  C4  UNL d   1      -2.522  -5.353  -5.786  0.00  0.00    -0.042 A 
ATOM      5  C5  UNL d   1      -2.458  -4.291  -4.891  0.00  0.00     0.033 A 
ATOM      6  C6  UNL d   1      -3.608  -3.882  -4.209  0.00  0.00    -0.057 A 
ENDROOT
BRANCH   1   7
ATOM      7  N   UNL d   1      -5.967  -4.002  -3.758  0.00  0.00    -0.732 N 
ATOM      8  C   UNL d   1      -6.000  -2.615  -3.344  0.00  0.00     0.284 C 
ATOM      9  H3  UNL d   1      -6.836  -4.333  -4.171  0.00  0.00     0.395 HD
ENDBRANCH   1   7
TORSDOF 1
ENDMDL
