MODEL 1
REMARK minimizedAffinity -3.58900476
REMARK minimizedRMSD -1
REMARK  1 active torsions:
REMARK  status: ('A' for Active; 'I' for Inactive)
REMARK    1  A    between atoms: N_2  and  C1_3 
ROOT
ATOM      1  C1  UNL d   1      -4.069  -4.403  -5.142  0.00  0.00     0.143 A 
ATOM      2  C2  UNL d   1      -5.114  -4.354  -4.213  0.00  0.00    -0.057 A 
ATOM      3  C3  UNL d   1      -6.000  -3.271  -4.173  0.00  0.00     0.033 A 
ATOM      4  C4  UNL d   1      -5.838  -2.199  -5.045  0.00  0.00    -0.042 A 
ATOM      5  C5  UNL d   1      -4.791  -2.215  -5.960  0.00  0.00     0.033 A 
ATOM      6  C6  UNL d   1      -3.914  -3.303  -6.000  0.00  0.00    -0.057 A 
ENDROOT
BRANCH   1   7
ATOM      7  N   UNL d   1      -3.096  -5.405  -5.167  0.00  0.00    -0.732 N 
ATOM      8  C   UNL d   1      -1.891  -5.244  -5.951  0.00  0.00     0.284 C 
ATOM      9  H3  UNL d   1      -2.944  -5.821  -4.251  0.00  0.00     0.395 HD
ENDBRANCH   1   7
TORSDOF 1
ENDMDL
