MODEL 1
REMARK minimizedAffinity -3.06363177
REMARK minimizedRMSD -1
REMARK  1 active torsions:
REMARK  status: ('A' for Active; 'I' for Inactive)
REMARK    1  A    between atoms: N_2  and  C1_3 
ROOT
ATOM      1  C1  UNL d   1      -4.482  -4.107  -4.796  0.00  0.00     0.143 A 
ATOM      2  C2  UNL d   1      -4.178  -5.453  -4.568  0.00  0.00    -0.057 A 
ATOM      3  C3  UNL d   1      -2.954  -5.999  -4.971  0.00  0.00     0.033 A 
ATOM      4  C4  UNL d   1      -2.020  -5.212  -5.637  0.00  0.00    -0.042 A 
ATOM      5  C5  UNL d   1      -2.311  -3.878  -5.896  0.00  0.00     0.033 A 
ATOM      6  C6  UNL d   1      -3.533  -3.336  -5.486  0.00  0.00    -0.057 A 
ENDROOT
BRANCH   1   7
ATOM      7  N   UNL d   1      -5.722  -3.530  -4.507  0.00  0.00    -0.732 N 
ATOM      8  C   UNL d   1      -6.000  -2.158  -4.876  0.00  0.00     0.284 C 
ATOM      9  H3  UNL d   1      -6.496  -4.170  -4.671  0.00  0.00     0.395 HD
ENDBRANCH   1   7
TORSDOF 1
ENDMDL
