MODEL 1
REMARK minimizedAffinity -3.66452765
REMARK minimizedRMSD -1
REMARK  1 active torsions:
REMARK  status: ('A' for Active; 'I' for Inactive)
REMARK    1  A    between atoms: N_2  and  C1_3 
ROOT
ATOM      1  C1  UNL d   1      -3.609  -3.707  -5.340  0.00  0.00     0.143 A 
ATOM      2  C2  UNL d   1      -4.782  -3.327  -6.000  0.00  0.00    -0.057 A 
ATOM      3  C3  UNL d   1      -5.963  -3.071  -5.292  0.00  0.00     0.033 A 
ATOM      4  C4  UNL d   1      -5.998  -3.219  -3.910  0.00  0.00    -0.042 A 
ATOM      5  C5  UNL d   1      -4.850  -3.619  -3.235  0.00  0.00     0.033 A 
ATOM      6  C6  UNL d   1      -3.673  -3.867  -3.946  0.00  0.00    -0.057 A 
ENDROOT
BRANCH   1   7
ATOM      7  N   UNL d   1      -2.430  -4.071  -5.996  0.00  0.00    -0.732 N 
ATOM      8  C   UNL d   1      -1.381  -4.775  -5.290  0.00  0.00     0.284 C 
ATOM      9  H3  UNL d   1      -2.600  -4.414  -6.938  0.00  0.00     0.395 HD
ENDBRANCH   1   7
TORSDOF 1
ENDMDL
