MODEL 1
REMARK minimizedAffinity -2.92883563
REMARK minimizedRMSD -1
REMARK  1 active torsions:
REMARK  status: ('A' for Active; 'I' for Inactive)
REMARK    1  A    between atoms: N_2  and  C1_3 
ROOT
ATOM      1  C1  UNL d   1      -3.799  -4.562  -4.647  0.00  0.00     0.143 A 
ATOM      2  C2  UNL d   1      -3.355  -3.591  -5.550  0.00  0.00    -0.057 A 
ATOM      3  C3  UNL d   1      -4.205  -2.574  -6.000  0.00  0.00     0.033 A 
ATOM      4  C4  UNL d   1      -5.529  -2.527  -5.574  0.00  0.00    -0.042 A 
ATOM      5  C5  UNL d   1      -5.999  -3.496  -4.695  0.00  0.00     0.033 A 
ATOM      6  C6  UNL d   1      -5.143  -4.506  -4.245  0.00  0.00    -0.057 A 
ENDROOT
BRANCH   1   7
ATOM      7  N   UNL d   1      -3.031  -5.656  -4.239  0.00  0.00    -0.732 N 
ATOM      8  C   UNL d   1      -2.259  -5.600  -3.017  0.00  0.00     0.284 C 
ATOM      9  H3  UNL d   1      -3.506  -6.543  -4.391  0.00  0.00     0.395 HD
ENDBRANCH   1   7
TORSDOF 1
ENDMDL
