MODEL 1
REMARK minimizedAffinity -2.27278185
REMARK minimizedRMSD -1
REMARK  1 active torsions:
REMARK  status: ('A' for Active; 'I' for Inactive)
REMARK    1  A    between atoms: N_2  and  C1_3 
ROOT
ATOM      1  C1  UNL d   1      -4.188  -3.050  -5.588  0.00  0.00     0.143 A 
ATOM      2  C2  UNL d   1      -5.176  -4.026  -5.418  0.00  0.00    -0.057 A 
ATOM      3  C3  UNL d   1      -4.843  -5.349  -5.104  0.00  0.00     0.033 A 
ATOM      4  C4  UNL d   1      -3.509  -5.728  -4.984  0.00  0.00    -0.042 A 
ATOM      5  C5  UNL d   1      -2.510  -4.780  -5.174  0.00  0.00     0.033 A 
ATOM      6  C6  UNL d   1      -2.849  -3.459  -5.481  0.00  0.00    -0.057 A 
ENDROOT
BRANCH   1   7
ATOM      7  N   UNL d   1      -4.451  -1.741  -5.998  0.00  0.00    -0.732 N 
ATOM      8  C   UNL d   1      -3.412  -0.734  -5.959  0.00  0.00     0.284 C 
ATOM      9  H3  UNL d   1      -5.035  -1.704  -6.830  0.00  0.00     0.395 HD
ENDBRANCH   1   7
TORSDOF 1
ENDMDL
