MODEL 1
REMARK minimizedAffinity -4.17417192
REMARK minimizedRMSD -1
REMARK  1 active torsions:
REMARK  status: ('A' for Active; 'I' for Inactive)
REMARK    1  A    between atoms: N_2  and  C1_3 
ROOT
ATOM      1  C1  UNL d   1      -3.242  -3.741  -5.004  0.00  0.00     0.143 A 
ATOM      2  C2  UNL d   1      -3.998  -2.648  -5.440  0.00  0.00    -0.057 A 
ATOM      3  C3  UNL d   1      -5.307  -2.442  -4.986  0.00  0.00     0.033 A 
ATOM      4  C4  UNL d   1      -5.894  -3.346  -4.106  0.00  0.00    -0.042 A 
ATOM      5  C5  UNL d   1      -5.169  -4.453  -3.678  0.00  0.00     0.033 A 
ATOM      6  C6  UNL d   1      -3.861  -4.649  -4.130  0.00  0.00    -0.057 A 
ENDROOT
BRANCH   1   7
ATOM      7  N   UNL d   1      -1.972  -4.054  -5.495  0.00  0.00    -0.732 N 
ATOM      8  C   UNL d   1      -1.441  -5.394  -5.363  0.00  0.00     0.284 C 
ATOM      9  H3  UNL d   1      -1.786  -3.620  -6.396  0.00  0.00     0.395 HD
ENDBRANCH   1   7
TORSDOF 1
ENDMDL
