MODEL 1
REMARK minimizedAffinity -4.83860826
REMARK minimizedRMSD -1
REMARK  1 active torsions:
REMARK  status: ('A' for Active; 'I' for Inactive)
REMARK    1  A    between atoms: C1_2  and  C2_3 
ROOT
ATOM      1  C2  UNL d   1       0.237  -0.440   1.009  0.00  0.00    -0.073 A 
ATOM      2  C3  UNL d   1       0.273  -0.577   2.401  0.00  0.00    -0.002 A 
ATOM      3  C4  UNL d   1       1.367  -1.180   3.022  0.00  0.00     0.004 A 
ATOM      4  C5  UNL d   1       2.438  -1.647   2.260  0.00  0.00    -0.004 A 
ATOM      5  C6  UNL d   1       2.426  -1.509   0.868  0.00  0.00    -0.075 A 
ATOM      6  C7  UNL d   1       3.569  -2.008   0.033  0.00  0.00     0.076 C 
ATOM      7  C8  UNL d   1       1.322  -0.904   0.251  0.00  0.00     0.001 A 
ENDROOT
BRANCH   1   8
ATOM      8  C1  UNL d   1      -0.939   0.216   0.334  0.00  0.00     0.053 C 
ATOM      9  C   UNL d   1      -0.785   0.247  -1.179  0.00  0.00     0.018 C 
ENDBRANCH   1   8
TORSDOF 1
ENDMDL
