MODEL 1
REMARK minimizedAffinity -3.86058331
REMARK minimizedRMSD -1
REMARK  1 active torsions:
REMARK  status: ('A' for Active; 'I' for Inactive)
REMARK    1  A    between atoms: C1_2  and  C2_3 
ROOT
ATOM      1  C2  UNL d   1      -0.320   0.095   0.135  0.00  0.00    -0.073 A 
ATOM      2  C3  UNL d   1      -1.580   0.321   0.700  0.00  0.00    -0.002 A 
ATOM      3  C4  UNL d   1      -1.770   0.186   2.076  0.00  0.00     0.004 A 
ATOM      4  C5  UNL d   1      -0.702  -0.169   2.901  0.00  0.00    -0.004 A 
ATOM      5  C6  UNL d   1       0.567  -0.387   2.356  0.00  0.00    -0.075 A 
ATOM      6  C7  UNL d   1       1.726  -0.772   3.229  0.00  0.00     0.076 C 
ATOM      7  C8  UNL d   1       0.749  -0.252   0.973  0.00  0.00     0.001 A 
ENDROOT
BRANCH   1   8
ATOM      8  C1  UNL d   1      -0.109   0.246  -1.350  0.00  0.00     0.053 C 
ATOM      9  C   UNL d   1      -0.711   1.537  -1.883  0.00  0.00     0.018 C 
ENDBRANCH   1   8
TORSDOF 1
ENDMDL
