MODEL 1
REMARK minimizedAffinity 0.0519914553
REMARK minimizedRMSD -1
REMARK  1 active torsions:
REMARK  status: ('A' for Active; 'I' for Inactive)
REMARK    1  A    between atoms: C1_2  and  C2_3 
ROOT
ATOM      1  C2  UNL d   1      -0.917   1.389  -0.526  0.00  0.00    -0.073 A 
ATOM      2  C3  UNL d   1      -1.340   0.210  -1.151  0.00  0.00    -0.002 A 
ATOM      3  C4  UNL d   1      -1.315  -1.002  -0.461  0.00  0.00     0.004 A 
ATOM      4  C5  UNL d   1      -0.875  -1.048   0.862  0.00  0.00    -0.004 A 
ATOM      5  C6  UNL d   1      -0.460   0.121   1.508  0.00  0.00    -0.075 A 
ATOM      6  C7  UNL d   1       0.018   0.088   2.930  0.00  0.00     0.076 C 
ATOM      7  C8  UNL d   1      -0.485   1.334   0.807  0.00  0.00     0.001 A 
ENDROOT
BRANCH   1   8
ATOM      8  C1  UNL d   1      -0.948   2.701  -1.265  0.00  0.00     0.053 C 
ATOM      9  C   UNL d   1       0.228   2.847  -2.218  0.00  0.00     0.018 C 
ENDBRANCH   1   8
TORSDOF 1
ENDMDL
