MODEL 1
REMARK minimizedAffinity -3.40261507
REMARK minimizedRMSD -1
REMARK  1 active torsions:
REMARK  status: ('A' for Active; 'I' for Inactive)
REMARK    1  A    between atoms: N_2  and  C1_3 
ROOT
ATOM      1  C1  UNL d   1      -2.412   2.019   0.695  0.00  0.00     0.143 A 
ATOM      2  C2  UNL d   1      -2.449   0.673   1.075  0.00  0.00    -0.057 A 
ATOM      3  C3  UNL d   1      -1.277  -0.087   1.172  0.00  0.00     0.033 A 
ATOM      4  C4  UNL d   1      -0.046   0.481   0.862  0.00  0.00    -0.042 A 
ATOM      5  C5  UNL d   1       0.013   1.810   0.458  0.00  0.00     0.033 A 
ATOM      6  C6  UNL d   1      -1.161   2.565   0.369  0.00  0.00    -0.057 A 
ENDROOT
BRANCH   1   7
ATOM      7  N   UNL d   1      -3.552   2.799   0.485  0.00  0.00    -0.732 N 
ATOM      8  C   UNL d   1      -4.871   2.257   0.728  0.00  0.00     0.284 C 
ATOM      9  H3  UNL d   1      -3.430   3.758   0.805  0.00  0.00     0.395 HD
ENDBRANCH   1   7
TORSDOF 1
ENDMDL
