MODEL 1
REMARK minimizedAffinity -1.28209531
REMARK minimizedRMSD -1
REMARK  1 active torsions:
REMARK  status: ('A' for Active; 'I' for Inactive)
REMARK    1  A    between atoms: N_2  and  C1_3 
ROOT
ATOM      1  C1  UNL d   1      -3.560   1.865   0.491  0.00  0.00     0.143 A 
ATOM      2  C2  UNL d   1      -3.272   0.670   1.160  0.00  0.00    -0.057 A 
ATOM      3  C3  UNL d   1      -1.958   0.203   1.279  0.00  0.00     0.033 A 
ATOM      4  C4  UNL d   1      -0.907   0.910   0.703  0.00  0.00    -0.042 A 
ATOM      5  C5  UNL d   1      -1.173   2.087   0.012  0.00  0.00     0.033 A 
ATOM      6  C6  UNL d   1      -2.487   2.552  -0.097  0.00  0.00    -0.057 A 
ENDROOT
BRANCH   1   7
ATOM      7  N   UNL d   1      -4.855   2.332   0.255  0.00  0.00    -0.732 N 
ATOM      8  C   UNL d   1      -5.941   1.975   1.143  0.00  0.00     0.284 C 
ATOM      9  H3  UNL d   1      -4.869   3.302  -0.050  0.00  0.00     0.395 HD
ENDBRANCH   1   7
TORSDOF 1
ENDMDL
