MODEL 1
REMARK minimizedAffinity 1.94656861
REMARK minimizedRMSD -1
REMARK  1 active torsions:
REMARK  status: ('A' for Active; 'I' for Inactive)
REMARK    1  A    between atoms: N_2  and  C1_3 
ROOT
ATOM      1  C1  UNL d   1      -1.528   0.452   1.245  0.00  0.00     0.143 A 
ATOM      2  C2  UNL d   1      -2.271   1.625   1.073  0.00  0.00    -0.057 A 
ATOM      3  C3  UNL d   1      -1.646   2.847   0.798  0.00  0.00     0.033 A 
ATOM      4  C4  UNL d   1      -0.259   2.924   0.719  0.00  0.00    -0.042 A 
ATOM      5  C5  UNL d   1       0.501   1.776   0.911  0.00  0.00     0.033 A 
ATOM      6  C6  UNL d   1      -0.129   0.557   1.179  0.00  0.00    -0.057 A 
ENDROOT
BRANCH   1   7
ATOM      7  N   UNL d   1      -2.084  -0.774   1.618  0.00  0.00    -0.732 N 
ATOM      8  C   UNL d   1      -2.971  -0.865   2.758  0.00  0.00     0.284 C 
ATOM      9  H3  UNL d   1      -2.380  -1.326   0.816  0.00  0.00     0.395 HD
ENDBRANCH   1   7
TORSDOF 1
ENDMDL
