MODEL 1
REMARK minimizedAffinity 4.24966049
REMARK minimizedRMSD -1
REMARK  1 active torsions:
REMARK  status: ('A' for Active; 'I' for Inactive)
REMARK    1  A    between atoms: N_2  and  C1_3 
ROOT
ATOM      1  C1  UNL d   1      -2.281   0.985   0.989  0.00  0.00     0.143 A 
ATOM      2  C2  UNL d   1      -1.151   0.694   1.760  0.00  0.00    -0.057 A 
ATOM      3  C3  UNL d   1       0.031   1.434   1.626  0.00  0.00     0.033 A 
ATOM      4  C4  UNL d   1       0.111   2.462   0.693  0.00  0.00    -0.042 A 
ATOM      5  C5  UNL d   1      -0.991   2.753  -0.102  0.00  0.00     0.033 A 
ATOM      6  C6  UNL d   1      -2.170   2.015   0.042  0.00  0.00    -0.057 A 
ENDROOT
BRANCH   1   7
ATOM      7  N   UNL d   1      -3.452   0.223   1.007  0.00  0.00    -0.732 N 
ATOM      8  C   UNL d   1      -4.747   0.861   0.908  0.00  0.00     0.284 C 
ATOM      9  H3  UNL d   1      -3.367  -0.633   0.463  0.00  0.00     0.395 HD
ENDBRANCH   1   7
TORSDOF 1
ENDMDL
