MODEL 1
REMARK minimizedAffinity 2.2825799
REMARK minimizedRMSD -1
REMARK  1 active torsions:
REMARK  status: ('A' for Active; 'I' for Inactive)
REMARK    1  A    between atoms: N_2  and  C1_3 
ROOT
ATOM      1  C1  UNL d   1      -0.944   1.581  -0.063  0.00  0.00     0.143 A 
ATOM      2  C2  UNL d   1       0.447   1.618  -0.210  0.00  0.00    -0.057 A 
ATOM      3  C3  UNL d   1       1.284   0.848   0.608  0.00  0.00     0.033 A 
ATOM      4  C4  UNL d   1       0.743   0.047   1.609  0.00  0.00    -0.042 A 
ATOM      5  C5  UNL d   1      -0.635   0.015   1.789  0.00  0.00     0.033 A 
ATOM      6  C6  UNL d   1      -1.465   0.780   0.965  0.00  0.00    -0.057 A 
ENDROOT
BRANCH   1   7
ATOM      7  N   UNL d   1      -1.823   2.397  -0.779  0.00  0.00    -0.732 N 
ATOM      8  C   UNL d   1      -3.019   2.918  -0.154  0.00  0.00     0.284 C 
ATOM      9  H3  UNL d   1      -1.337   3.068  -1.370  0.00  0.00     0.395 HD
ENDBRANCH   1   7
TORSDOF 1
ENDMDL
