MODEL 1
REMARK minimizedAffinity -3.12469459
REMARK minimizedRMSD -1
REMARK  1 active torsions:
REMARK  status: ('A' for Active; 'I' for Inactive)
REMARK    1  A    between atoms: N_2  and  C1_3 
ROOT
ATOM      1  C1  UNL d   1      -3.071   2.054   0.243  0.00  0.00     0.143 A 
ATOM      2  C2  UNL d   1      -1.854   2.582  -0.200  0.00  0.00    -0.057 A 
ATOM      3  C3  UNL d   1      -0.662   1.856  -0.084  0.00  0.00     0.033 A 
ATOM      4  C4  UNL d   1      -0.663   0.596   0.506  0.00  0.00    -0.042 A 
ATOM      5  C5  UNL d   1      -1.857   0.062   0.976  0.00  0.00     0.033 A 
ATOM      6  C6  UNL d   1      -3.045   0.789   0.851  0.00  0.00    -0.057 A 
ENDROOT
BRANCH   1   7
ATOM      7  N   UNL d   1      -4.273   2.766   0.245  0.00  0.00    -0.732 N 
ATOM      8  C   UNL d   1      -5.488   2.160   0.746  0.00  0.00     0.284 C 
ATOM      9  H3  UNL d   1      -4.149   3.737   0.520  0.00  0.00     0.395 HD
ENDBRANCH   1   7
TORSDOF 1
ENDMDL
