MODEL 1
REMARK minimizedAffinity 1.73394442
REMARK minimizedRMSD -1
REMARK  1 active torsions:
REMARK  status: ('A' for Active; 'I' for Inactive)
REMARK    1  A    between atoms: N_2  and  C1_3 
ROOT
ATOM      1  C1  UNL d   1      -0.539   1.007   0.995  0.00  0.00     0.143 A 
ATOM      2  C2  UNL d   1      -1.581   0.089   0.825  0.00  0.00    -0.057 A 
ATOM      3  C3  UNL d   1      -2.878   0.512   0.511  0.00  0.00     0.033 A 
ATOM      4  C4  UNL d   1      -3.163   1.868   0.389  0.00  0.00    -0.042 A 
ATOM      5  C5  UNL d   1      -2.149   2.800   0.579  0.00  0.00     0.033 A 
ATOM      6  C6  UNL d   1      -0.854   2.371   0.886  0.00  0.00    -0.057 A 
ENDROOT
BRANCH   1   7
ATOM      7  N   UNL d   1       0.749   0.655   1.405  0.00  0.00    -0.732 N 
ATOM      8  C   UNL d   1       1.762   1.669   1.604  0.00  0.00     0.284 C 
ATOM      9  H3  UNL d   1       0.745  -0.074   2.115  0.00  0.00     0.395 HD
ENDBRANCH   1   7
TORSDOF 1
ENDMDL
