MODEL 1
REMARK minimizedAffinity 0.302941382
REMARK minimizedRMSD -1
REMARK  1 active torsions:
REMARK  status: ('A' for Active; 'I' for Inactive)
REMARK    1  A    between atoms: N_2  and  C1_3 
ROOT
ATOM      1  C1  UNL d   1      -2.113   2.390   0.445  0.00  0.00     0.143 A 
ATOM      2  C2  UNL d   1      -2.235   1.028   0.745  0.00  0.00    -0.057 A 
ATOM      3  C3  UNL d   1      -1.106   0.220   0.921  0.00  0.00     0.033 A 
ATOM      4  C4  UNL d   1       0.169   0.753   0.770  0.00  0.00    -0.042 A 
ATOM      5  C5  UNL d   1       0.314   2.098   0.448  0.00  0.00     0.033 A 
ATOM      6  C6  UNL d   1      -0.817   2.902   0.281  0.00  0.00    -0.057 A 
ENDROOT
BRANCH   1   7
ATOM      7  N   UNL d   1      -3.197   3.224   0.162  0.00  0.00    -0.732 N 
ATOM      8  C   UNL d   1      -4.554   2.768   0.376  0.00  0.00     0.284 C 
ATOM      9  H3  UNL d   1      -3.032   4.186   0.447  0.00  0.00     0.395 HD
ENDBRANCH   1   7
TORSDOF 1
ENDMDL
