MODEL 1
REMARK minimizedAffinity -2.6005547
REMARK minimizedRMSD -1
REMARK  1 active torsions:
REMARK  status: ('A' for Active; 'I' for Inactive)
REMARK    1  A    between atoms: N_2  and  C1_3 
ROOT
ATOM      1  C1  UNL d   1      -2.657   1.933   0.628  0.00  0.00     0.143 A 
ATOM      2  C2  UNL d   1      -2.522   0.787   1.419  0.00  0.00    -0.057 A 
ATOM      3  C3  UNL d   1      -1.316   0.078   1.472  0.00  0.00     0.033 A 
ATOM      4  C4  UNL d   1      -0.228   0.489   0.709  0.00  0.00    -0.042 A 
ATOM      5  C5  UNL d   1      -0.346   1.611  -0.104  0.00  0.00     0.033 A 
ATOM      6  C6  UNL d   1      -1.552   2.318  -0.147  0.00  0.00    -0.057 A 
ENDROOT
BRANCH   1   7
ATOM      7  N   UNL d   1      -3.860   2.623   0.458  0.00  0.00    -0.732 N 
ATOM      8  C   UNL d   1      -5.084   2.130   1.051  0.00  0.00     0.284 C 
ATOM      9  H3  UNL d   1      -3.742   3.632   0.526  0.00  0.00     0.395 HD
ENDBRANCH   1   7
TORSDOF 1
ENDMDL
