MODEL 1
REMARK minimizedAffinity -4.17431021
REMARK minimizedRMSD -1
REMARK  1 active torsions:
REMARK  status: ('A' for Active; 'I' for Inactive)
REMARK    1  A    between atoms: N_2  and  C1_3 
ROOT
ATOM      1  C1  UNL d   1      -2.818   1.928   0.202  0.00  0.00     0.143 A 
ATOM      2  C2  UNL d   1      -2.452   0.905   1.084  0.00  0.00    -0.057 A 
ATOM      3  C3  UNL d   1      -1.116   0.511   1.225  0.00  0.00     0.033 A 
ATOM      4  C4  UNL d   1      -0.122   1.116   0.463  0.00  0.00    -0.042 A 
ATOM      5  C5  UNL d   1      -0.465   2.118  -0.438  0.00  0.00     0.033 A 
ATOM      6  C6  UNL d   1      -1.800   2.511  -0.570  0.00  0.00    -0.057 A 
ENDROOT
BRANCH   1   7
ATOM      7  N   UNL d   1      -4.140   2.298  -0.056  0.00  0.00    -0.732 N 
ATOM      8  C   UNL d   1      -5.230   1.700   0.684  0.00  0.00     0.284 C 
ATOM      9  H3  UNL d   1      -4.241   3.299  -0.209  0.00  0.00     0.395 HD
ENDBRANCH   1   7
TORSDOF 1
ENDMDL
