MODEL 1
REMARK minimizedAffinity -0.927018464
REMARK minimizedRMSD -1
REMARK  1 active torsions:
REMARK  status: ('A' for Active; 'I' for Inactive)
REMARK    1  A    between atoms: N_2  and  C1_3 
ROOT
ATOM      1  C1  UNL d   1      -2.455   1.789   0.101  0.00  0.00     0.143 A 
ATOM      2  C2  UNL d   1      -1.249   2.309  -0.383  0.00  0.00    -0.057 A 
ATOM      3  C3  UNL d   1      -0.017   1.794   0.036  0.00  0.00     0.033 A 
ATOM      4  C4  UNL d   1       0.033   0.767   0.973  0.00  0.00    -0.042 A 
ATOM      5  C5  UNL d   1      -1.152   0.252   1.486  0.00  0.00     0.033 A 
ATOM      6  C6  UNL d   1      -2.380   0.766   1.059  0.00  0.00    -0.057 A 
ENDROOT
BRANCH   1   7
ATOM      7  N   UNL d   1      -3.710   2.323  -0.202  0.00  0.00    -0.732 N 
ATOM      8  C   UNL d   1      -4.809   2.197   0.730  0.00  0.00     0.284 C 
ATOM      9  H3  UNL d   1      -3.646   3.235  -0.649  0.00  0.00     0.395 HD
ENDBRANCH   1   7
TORSDOF 1
ENDMDL
