MODEL 1
REMARK minimizedAffinity 0.330121368
REMARK minimizedRMSD -1
REMARK  1 active torsions:
REMARK  status: ('A' for Active; 'I' for Inactive)
REMARK    1  A    between atoms: N_2  and  C1_3 
ROOT
ATOM      1  C1  UNL d   1      -3.494   2.382   0.424  0.00  0.00     0.143 A 
ATOM      2  C2  UNL d   1      -3.285   1.173   1.095  0.00  0.00    -0.057 A 
ATOM      3  C3  UNL d   1      -2.040   0.532   1.065  0.00  0.00     0.033 A 
ATOM      4  C4  UNL d   1      -0.988   1.077   0.336  0.00  0.00    -0.042 A 
ATOM      5  C5  UNL d   1      -1.181   2.266  -0.359  0.00  0.00     0.033 A 
ATOM      6  C6  UNL d   1      -2.424   2.904  -0.319  0.00  0.00    -0.057 A 
ENDROOT
BRANCH   1   7
ATOM      7  N   UNL d   1      -4.735   3.018   0.335  0.00  0.00    -0.732 N 
ATOM      8  C   UNL d   1      -5.929   2.379   0.847  0.00  0.00     0.284 C 
ATOM      9  H3  UNL d   1      -4.678   4.013   0.537  0.00  0.00     0.395 HD
ENDBRANCH   1   7
TORSDOF 1
ENDMDL
