MODEL 1
REMARK minimizedAffinity -3.33883381
REMARK minimizedRMSD -1
REMARK  1 active torsions:
REMARK  status: ('A' for Active; 'I' for Inactive)
REMARK    1  A    between atoms: N_2  and  C1_3 
ROOT
ATOM      1  C1  UNL d   1      -2.449   1.184   0.218  0.00  0.00     0.143 A 
ATOM      2  C2  UNL d   1      -2.058   2.152  -0.712  0.00  0.00    -0.057 A 
ATOM      3  C3  UNL d   1      -0.706   2.385  -0.993  0.00  0.00     0.033 A 
ATOM      4  C4  UNL d   1       0.283   1.670  -0.325  0.00  0.00    -0.042 A 
ATOM      5  C5  UNL d   1      -0.083   0.720   0.622  0.00  0.00     0.033 A 
ATOM      6  C6  UNL d   1      -1.435   0.488   0.894  0.00  0.00    -0.057 A 
ENDROOT
BRANCH   1   7
ATOM      7  N   UNL d   1      -3.773   0.975   0.613  0.00  0.00    -0.732 N 
ATOM      8  C   UNL d   1      -4.767   2.011   0.437  0.00  0.00     0.284 C 
ATOM      9  H3  UNL d   1      -4.103   0.039   0.385  0.00  0.00     0.395 HD
ENDBRANCH   1   7
TORSDOF 1
ENDMDL
