MODEL 1
REMARK minimizedAffinity -2.11389399
REMARK minimizedRMSD -1
REMARK  1 active torsions:
REMARK  status: ('A' for Active; 'I' for Inactive)
REMARK    1  A    between atoms: N_2  and  C1_3 
ROOT
ATOM      1  C1  UNL d   1      -2.755   2.008  -0.047  0.00  0.00     0.143 A 
ATOM      2  C2  UNL d   1      -1.788   2.658  -0.821  0.00  0.00    -0.057 A 
ATOM      3  C3  UNL d   1      -0.474   2.181  -0.893  0.00  0.00     0.033 A 
ATOM      4  C4  UNL d   1      -0.095   1.057  -0.167  0.00  0.00    -0.042 A 
ATOM      5  C5  UNL d   1      -1.033   0.409   0.629  0.00  0.00     0.033 A 
ATOM      6  C6  UNL d   1      -2.346   0.887   0.692  0.00  0.00    -0.057 A 
ENDROOT
BRANCH   1   7
ATOM      7  N   UNL d   1      -4.052   2.490   0.143  0.00  0.00    -0.732 N 
ATOM      8  C   UNL d   1      -5.077   1.643   0.714  0.00  0.00     0.284 C 
ATOM      9  H3  UNL d   1      -4.064   3.447   0.488  0.00  0.00     0.395 HD
ENDBRANCH   1   7
TORSDOF 1
ENDMDL
