MODEL 1
REMARK minimizedAffinity 5.3507638
REMARK minimizedRMSD -1
REMARK  1 active torsions:
REMARK  status: ('A' for Active; 'I' for Inactive)
REMARK    1  A    between atoms: N_2  and  C1_3 
ROOT
ATOM      1  C1  UNL d   1       0.954   1.506   1.872  0.00  0.00     0.143 A 
ATOM      2  C2  UNL d   1       0.408   1.523   3.160  0.00  0.00    -0.057 A 
ATOM      3  C3  UNL d   1      -0.903   1.957   3.387  0.00  0.00     0.033 A 
ATOM      4  C4  UNL d   1      -1.685   2.411   2.330  0.00  0.00    -0.042 A 
ATOM      5  C5  UNL d   1      -1.155   2.426   1.045  0.00  0.00     0.033 A 
ATOM      6  C6  UNL d   1       0.153   1.985   0.824  0.00  0.00    -0.057 A 
ENDROOT
BRANCH   1   7
ATOM      7  N   UNL d   1       2.284   1.179   1.595  0.00  0.00    -0.732 N 
ATOM      8  C   UNL d   1       3.323   2.181   1.684  0.00  0.00     0.284 C 
ATOM      9  H3  UNL d   1       2.547   0.272   1.973  0.00  0.00     0.395 HD
ENDBRANCH   1   7
TORSDOF 1
ENDMDL
