MODEL 1
REMARK minimizedAffinity 17.5272617
REMARK minimizedRMSD -1
REMARK  0 active torsions:
REMARK  status: ('A' for Active; 'I' for Inactive)
ROOT
ATOM      1  C2' OXE d   1      -2.448   3.283  -5.993  0.00  0.00     0.078 C 
ATOM      2  C1' OXE d   1      -1.751   6.000  -5.878  0.00  0.00     0.078 C 
ATOM      3  C1  OXE d   1      -2.127   5.315  -4.588  0.00  0.00    -0.078 A 
ATOM      4  C2  OXE d   1      -2.511   3.997  -4.660  0.00  0.00    -0.078 A 
ATOM      5  C3  OXE d   1      -2.815   3.303  -3.493  0.00  0.00     0.003 A 
ATOM      6  C4  OXE d   1      -2.882   3.974  -2.266  0.00  0.00    -0.002 A 
ATOM      7  C5  OXE d   1      -2.532   5.325  -2.176  0.00  0.00    -0.002 A 
ATOM      8  C6  OXE d   1      -2.112   5.998  -3.318  0.00  0.00     0.003 A 
ENDROOT
TORSDOF 0
ENDMDL
