MODEL 1
REMARK minimizedAffinity 16.6756306
REMARK minimizedRMSD -1
REMARK  0 active torsions:
REMARK  status: ('A' for Active; 'I' for Inactive)
ROOT
ATOM      1  C2' OXE d   1      -3.086   3.408  -5.885  0.00  0.00     0.078 C 
ATOM      2  C1' OXE d   1      -3.632   2.048  -3.490  0.00  0.00     0.078 C 
ATOM      3  C1  OXE d   1      -3.061   3.440  -3.394  0.00  0.00    -0.078 A 
ATOM      4  C2  OXE d   1      -2.753   4.080  -4.570  0.00  0.00    -0.078 A 
ATOM      5  C3  OXE d   1      -2.275   5.387  -4.540  0.00  0.00     0.003 A 
ATOM      6  C4  OXE d   1      -1.960   5.998  -3.320  0.00  0.00    -0.002 A 
ATOM      7  C5  OXE d   1      -2.229   5.349  -2.110  0.00  0.00    -0.002 A 
ATOM      8  C6  OXE d   1      -2.817   4.089  -2.129  0.00  0.00     0.003 A 
ENDROOT
TORSDOF 0
ENDMDL
