MODEL 1
REMARK minimizedAffinity 13.6152954
REMARK minimizedRMSD -1
REMARK  0 active torsions:
REMARK  status: ('A' for Active; 'I' for Inactive)
ROOT
ATOM      1  C2' OXE d   1       5.543  -1.679  -1.674  0.00  0.00     0.078 C 
ATOM      2  C1' OXE d   1       4.426   0.462  -3.106  0.00  0.00     0.078 C 
ATOM      3  C1  OXE d   1       4.954  -0.711  -3.893  0.00  0.00    -0.078 A 
ATOM      4  C2  OXE d   1       5.541  -1.733  -3.187  0.00  0.00    -0.078 A 
ATOM      5  C3  OXE d   1       5.996  -2.864  -3.860  0.00  0.00     0.003 A 
ATOM      6  C4  OXE d   1       5.999  -2.902  -5.260  0.00  0.00    -0.002 A 
ATOM      7  C5  OXE d   1       5.442  -1.853  -6.000  0.00  0.00    -0.002 A 
ATOM      8  C6  OXE d   1       4.878  -0.772  -5.332  0.00  0.00     0.003 A 
ENDROOT
TORSDOF 0
ENDMDL
