MODEL 1
REMARK minimizedAffinity 13.4479856
REMARK minimizedRMSD -1
REMARK  0 active torsions:
REMARK  status: ('A' for Active; 'I' for Inactive)
ROOT
ATOM      1  C2' OXE d   1      -0.929  -2.642   2.503  0.00  0.00     0.078 C 
ATOM      2  C1' OXE d   1      -0.335  -0.468   4.176  0.00  0.00     0.078 C 
ATOM      3  C1  OXE d   1       0.654  -0.810   3.089  0.00  0.00    -0.078 A 
ATOM      4  C2  OXE d   1       0.377  -1.905   2.306  0.00  0.00    -0.078 A 
ATOM      5  C3  OXE d   1       1.228  -2.232   1.254  0.00  0.00     0.003 A 
ATOM      6  C4  OXE d   1       2.440  -1.551   1.084  0.00  0.00    -0.002 A 
ATOM      7  C5  OXE d   1       2.760  -0.458   1.896  0.00  0.00    -0.002 A 
ATOM      8  C6  OXE d   1       1.859  -0.049   2.874  0.00  0.00     0.003 A 
ENDROOT
TORSDOF 0
ENDMDL
