MODEL 1
REMARK minimizedAffinity 21.2092304
REMARK minimizedRMSD -1
REMARK  0 active torsions:
REMARK  status: ('A' for Active; 'I' for Inactive)
ROOT
ATOM      1  C2' OXE d   1       0.372   2.262  -0.402  0.00  0.00     0.078 C 
ATOM      2  C1' OXE d   1       2.939   2.204   0.733  0.00  0.00     0.078 C 
ATOM      3  C1  OXE d   1       2.263   3.544   0.592  0.00  0.00    -0.078 A 
ATOM      4  C2  OXE d   1       1.026   3.568  -0.007  0.00  0.00    -0.078 A 
ATOM      5  C3  OXE d   1       0.334   4.772  -0.113  0.00  0.00     0.003 A 
ATOM      6  C4  OXE d   1       0.950   5.977   0.246  0.00  0.00    -0.002 A 
ATOM      7  C5  OXE d   1       2.225   5.979   0.821  0.00  0.00    -0.002 A 
ATOM      8  C6  OXE d   1       2.876   4.770   1.040  0.00  0.00     0.003 A 
ENDROOT
TORSDOF 0
ENDMDL
