MODEL 1
REMARK minimizedAffinity 23.5112267
REMARK minimizedRMSD -1
REMARK  0 active torsions:
REMARK  status: ('A' for Active; 'I' for Inactive)
ROOT
ATOM      1  C2' OXE d   1      -1.514   3.289  -5.996  0.00  0.00     0.078 C 
ATOM      2  C1' OXE d   1      -1.694   6.000  -5.289  0.00  0.00     0.078 C 
ATOM      3  C1  OXE d   1      -2.015   4.974  -4.231  0.00  0.00    -0.078 A 
ATOM      4  C2  OXE d   1      -1.970   3.651  -4.599  0.00  0.00    -0.078 A 
ATOM      5  C3  OXE d   1      -2.204   2.662  -3.647  0.00  0.00     0.003 A 
ATOM      6  C4  OXE d   1      -2.635   3.005  -2.360  0.00  0.00    -0.002 A 
ATOM      7  C5  OXE d   1      -2.726   4.348  -1.976  0.00  0.00    -0.002 A 
ATOM      8  C6  OXE d   1      -2.380   5.341  -2.885  0.00  0.00     0.003 A 
ENDROOT
TORSDOF 0
ENDMDL
