MODEL 1
REMARK minimizedAffinity 13.9465532
REMARK minimizedRMSD -1
REMARK  0 active torsions:
REMARK  status: ('A' for Active; 'I' for Inactive)
ROOT
ATOM      1  C2' OXE d   1       0.965  -0.541   3.453  0.00  0.00     0.078 C 
ATOM      2  C1' OXE d   1       3.353   0.633   2.559  0.00  0.00     0.078 C 
ATOM      3  C1  OXE d   1       2.798  -0.524   1.766  0.00  0.00    -0.078 A 
ATOM      4  C2  OXE d   1       1.654  -1.123   2.237  0.00  0.00    -0.078 A 
ATOM      5  C3  OXE d   1       1.070  -2.159   1.514  0.00  0.00     0.003 A 
ATOM      6  C4  OXE d   1       1.719  -2.697   0.396  0.00  0.00    -0.002 A 
ATOM      7  C5  OXE d   1       2.906  -2.128  -0.078  0.00  0.00    -0.002 A 
ATOM      8  C6  OXE d   1       3.435  -1.016   0.570  0.00  0.00     0.003 A 
ENDROOT
TORSDOF 0
ENDMDL
