MODEL 1
REMARK minimizedAffinity 15.8651524
REMARK minimizedRMSD -1
REMARK  0 active torsions:
REMARK  status: ('A' for Active; 'I' for Inactive)
ROOT
ATOM      1  C2' OXE d   1      -1.502   5.984  -2.275  0.00  0.00     0.078 C 
ATOM      2  C1' OXE d   1      -2.057   3.232  -2.248  0.00  0.00     0.078 C 
ATOM      3  C1  OXE d   1      -2.108   3.947  -3.575  0.00  0.00    -0.078 A 
ATOM      4  C2  OXE d   1      -1.881   5.302  -3.572  0.00  0.00    -0.078 A 
ATOM      5  C3  OXE d   1      -1.863   6.000  -4.777  0.00  0.00     0.003 A 
ATOM      6  C4  OXE d   1      -2.224   5.364  -5.970  0.00  0.00    -0.002 A 
ATOM      7  C5  OXE d   1      -2.498   3.992  -5.989  0.00  0.00    -0.002 A 
ATOM      8  C6  OXE d   1      -2.403   3.262  -4.810  0.00  0.00     0.003 A 
ENDROOT
TORSDOF 0
ENDMDL
