MODEL 1
REMARK minimizedAffinity 19.6232376
REMARK minimizedRMSD -1
REMARK  0 active torsions:
REMARK  status: ('A' for Active; 'I' for Inactive)
ROOT
ATOM      1  C2' OXE d   1       2.961  -5.539   1.747  0.00  0.00     0.078 C 
ATOM      2  C1' OXE d   1       1.065  -4.405   3.479  0.00  0.00     0.078 C 
ATOM      3  C1  OXE d   1       2.339  -4.940   4.083  0.00  0.00    -0.078 A 
ATOM      4  C2  OXE d   1       3.240  -5.536   3.234  0.00  0.00    -0.078 A 
ATOM      5  C3  OXE d   1       4.456  -5.997   3.732  0.00  0.00     0.003 A 
ATOM      6  C4  OXE d   1       4.702  -5.999   5.110  0.00  0.00    -0.002 A 
ATOM      7  C5  OXE d   1       3.780  -5.434   5.997  0.00  0.00    -0.002 A 
ATOM      8  C6  OXE d   1       2.615  -4.863   5.497  0.00  0.00     0.003 A 
ENDROOT
TORSDOF 0
ENDMDL
