MODEL 1
REMARK minimizedAffinity 5.64708757
REMARK minimizedRMSD -1
REMARK  0 active torsions:
REMARK  status: ('A' for Active; 'I' for Inactive)
ROOT
ATOM      1  C2' OXE d   1      -1.124  -0.804   3.964  0.00  0.00     0.078 C 
ATOM      2  C1' OXE d   1      -1.399  -2.850   2.062  0.00  0.00     0.078 C 
ATOM      3  C1  OXE d   1      -0.076  -2.129   2.133  0.00  0.00    -0.078 A 
ATOM      4  C2  OXE d   1       0.034  -1.098   3.035  0.00  0.00    -0.078 A 
ATOM      5  C3  OXE d   1       1.250  -0.436   3.179  0.00  0.00     0.003 A 
ATOM      6  C4  OXE d   1       2.313  -0.707   2.309  0.00  0.00    -0.002 A 
ATOM      7  C5  OXE d   1       2.208  -1.726   1.357  0.00  0.00    -0.002 A 
ATOM      8  C6  OXE d   1       1.038  -2.474   1.284  0.00  0.00     0.003 A 
ENDROOT
TORSDOF 0
ENDMDL
