MODEL 1
REMARK minimizedAffinity 12.0078878
REMARK minimizedRMSD -1
REMARK  0 active torsions:
REMARK  status: ('A' for Active; 'I' for Inactive)
ROOT
ATOM      1  C2' OXE d   1      -0.778  -0.745   4.673  0.00  0.00     0.078 C 
ATOM      2  C1' OXE d   1      -1.400  -3.056   3.206  0.00  0.00     0.078 C 
ATOM      3  C1  OXE d   1      -0.287  -2.176   2.694  0.00  0.00    -0.078 A 
ATOM      4  C2  OXE d   1      -0.021  -1.023   3.392  0.00  0.00    -0.078 A 
ATOM      5  C3  OXE d   1       1.032  -0.203   2.994  0.00  0.00     0.003 A 
ATOM      6  C4  OXE d   1       1.720  -0.462   1.803  0.00  0.00    -0.002 A 
ATOM      7  C5  OXE d   1       1.438  -1.610   1.055  0.00  0.00    -0.002 A 
ATOM      8  C6  OXE d   1       0.469  -2.498   1.508  0.00  0.00     0.003 A 
ENDROOT
TORSDOF 0
ENDMDL
