MODEL 1
REMARK minimizedAffinity 14.5033512
REMARK minimizedRMSD -1
REMARK  0 active torsions:
REMARK  status: ('A' for Active; 'I' for Inactive)
ROOT
ATOM      1  C2' OXE d   1       0.436  -0.418   4.522  0.00  0.00     0.078 C 
ATOM      2  C1' OXE d   1       0.255  -1.826   2.100  0.00  0.00     0.078 C 
ATOM      3  C1  OXE d   1       1.573  -1.176   2.439  0.00  0.00    -0.078 A 
ATOM      4  C2  OXE d   1       1.639  -0.450   3.603  0.00  0.00    -0.078 A 
ATOM      5  C3  OXE d   1       2.846   0.124   3.990  0.00  0.00     0.003 A 
ATOM      6  C4  OXE d   1       3.951   0.099   3.130  0.00  0.00    -0.002 A 
ATOM      7  C5  OXE d   1       3.893  -0.602   1.921  0.00  0.00    -0.002 A 
ATOM      8  C6  OXE d   1       2.727  -1.279   1.581  0.00  0.00     0.003 A 
ENDROOT
TORSDOF 0
ENDMDL
