MODEL 1
REMARK minimizedAffinity 19.2072086
REMARK minimizedRMSD -1
REMARK  0 active torsions:
REMARK  status: ('A' for Active; 'I' for Inactive)
ROOT
ATOM      1  C2' OXE d   1      -2.256   3.241  -5.981  0.00  0.00     0.078 C 
ATOM      2  C1' OXE d   1      -1.749   6.000  -5.863  0.00  0.00     0.078 C 
ATOM      3  C1  OXE d   1      -2.159   5.304  -4.589  0.00  0.00    -0.078 A 
ATOM      4  C2  OXE d   1      -2.450   3.963  -4.666  0.00  0.00    -0.078 A 
ATOM      5  C3  OXE d   1      -2.780   3.262  -3.509  0.00  0.00     0.003 A 
ATOM      6  C4  OXE d   1      -2.967   3.939  -2.299  0.00  0.00    -0.002 A 
ATOM      7  C5  OXE d   1      -2.715   5.312  -2.207  0.00  0.00    -0.002 A 
ATOM      8  C6  OXE d   1      -2.270   6.000  -3.330  0.00  0.00     0.003 A 
ENDROOT
TORSDOF 0
ENDMDL
