MODEL 1
REMARK minimizedAffinity 8.84246159
REMARK minimizedRMSD -1
REMARK  0 active torsions:
REMARK  status: ('A' for Active; 'I' for Inactive)
ROOT
ATOM      1  C2' OXE d   1       3.479   0.033   2.213  0.00  0.00     0.078 C 
ATOM      2  C1' OXE d   1       1.047  -1.216   1.574  0.00  0.00     0.078 C 
ATOM      3  C1  OXE d   1       1.229  -0.708   2.983  0.00  0.00    -0.078 A 
ATOM      4  C2  OXE d   1       2.440  -0.141   3.299  0.00  0.00    -0.078 A 
ATOM      5  C3  OXE d   1       2.640   0.393   4.569  0.00  0.00     0.003 A 
ATOM      6  C4  OXE d   1       1.678   0.219   5.571  0.00  0.00    -0.002 A 
ATOM      7  C5  OXE d   1       0.453  -0.392   5.281  0.00  0.00    -0.002 A 
ATOM      8  C6  OXE d   1       0.197  -0.822   3.984  0.00  0.00     0.003 A 
ENDROOT
TORSDOF 0
ENDMDL
