MODEL 1
REMARK minimizedAffinity 23.3518581
REMARK minimizedRMSD -1
REMARK  0 active torsions:
REMARK  status: ('A' for Active; 'I' for Inactive)
ROOT
ATOM      1  C2' OXE d   1       0.070  -0.108   3.848  0.00  0.00     0.078 C 
ATOM      2  C1' OXE d   1       0.435  -1.541   1.462  0.00  0.00     0.078 C 
ATOM      3  C1  OXE d   1       1.540  -0.613   1.901  0.00  0.00    -0.078 A 
ATOM      4  C2  OXE d   1       1.333   0.119   3.046  0.00  0.00    -0.078 A 
ATOM      5  C3  OXE d   1       2.342   0.950   3.525  0.00  0.00     0.003 A 
ATOM      6  C4  OXE d   1       3.503   1.162   2.772  0.00  0.00    -0.002 A 
ATOM      7  C5  OXE d   1       3.717   0.456   1.583  0.00  0.00    -0.002 A 
ATOM      8  C6  OXE d   1       2.766  -0.465   1.157  0.00  0.00     0.003 A 
ENDROOT
TORSDOF 0
ENDMDL
