MODEL 1
REMARK minimizedAffinity 6.39212084
REMARK minimizedRMSD -1
REMARK  0 active torsions:
REMARK  status: ('A' for Active; 'I' for Inactive)
ROOT
ATOM      1  C2' OXE d   1      -1.513  -3.017   3.004  0.00  0.00     0.078 C 
ATOM      2  C1' OXE d   1      -0.538  -0.675   4.206  0.00  0.00     0.078 C 
ATOM      3  C1  OXE d   1       0.235  -1.243   3.042  0.00  0.00    -0.078 A 
ATOM      4  C2  OXE d   1      -0.223  -2.415   2.490  0.00  0.00    -0.078 A 
ATOM      5  C3  OXE d   1       0.421  -2.952   1.379  0.00  0.00     0.003 A 
ATOM      6  C4  OXE d   1       1.619  -2.394   0.916  0.00  0.00    -0.002 A 
ATOM      7  C5  OXE d   1       2.125  -1.223   1.490  0.00  0.00    -0.002 A 
ATOM      8  C6  OXE d   1       1.423  -0.612   2.523  0.00  0.00     0.003 A 
ENDROOT
TORSDOF 0
ENDMDL
