MODEL 1
REMARK minimizedAffinity 7.2536912
REMARK minimizedRMSD -1
REMARK  0 active torsions:
REMARK  status: ('A' for Active; 'I' for Inactive)
ROOT
ATOM      1  C2' OXE d   1      -0.764  -0.603   4.304  0.00  0.00     0.078 C 
ATOM      2  C1' OXE d   1      -1.248  -2.933   2.815  0.00  0.00     0.078 C 
ATOM      3  C1  OXE d   1       0.042  -2.193   2.564  0.00  0.00    -0.078 A 
ATOM      4  C2  OXE d   1       0.250  -1.028   3.263  0.00  0.00    -0.078 A 
ATOM      5  C3  OXE d   1       1.447  -0.336   3.110  0.00  0.00     0.003 A 
ATOM      6  C4  OXE d   1       2.375  -0.731   2.138  0.00  0.00    -0.002 A 
ATOM      7  C5  OXE d   1       2.165  -1.892   1.387  0.00  0.00    -0.002 A 
ATOM      8  C6  OXE d   1       1.026  -2.656   1.617  0.00  0.00     0.003 A 
ENDROOT
TORSDOF 0
ENDMDL
