MODEL 1
REMARK minimizedAffinity 4.93870735
REMARK minimizedRMSD -1
REMARK  0 active torsions:
REMARK  status: ('A' for Active; 'I' for Inactive)
ROOT
ATOM      1  C2' OXE d   1      -0.738  -1.029   5.223  0.00  0.00     0.078 C 
ATOM      2  C1' OXE d   1      -1.805  -2.923   3.446  0.00  0.00     0.078 C 
ATOM      3  C1  OXE d   1      -0.570  -2.171   3.016  0.00  0.00    -0.078 A 
ATOM      4  C2  OXE d   1      -0.082  -1.213   3.872  0.00  0.00    -0.078 A 
ATOM      5  C3  OXE d   1       1.086  -0.530   3.547  0.00  0.00     0.003 A 
ATOM      6  C4  OXE d   1       1.681  -0.699   2.291  0.00  0.00    -0.002 A 
ATOM      7  C5  OXE d   1       1.178  -1.642   1.388  0.00  0.00    -0.002 A 
ATOM      8  C6  OXE d   1       0.080  -2.415   1.752  0.00  0.00     0.003 A 
ENDROOT
TORSDOF 0
ENDMDL
