MODEL 1
REMARK minimizedAffinity 10.253129
REMARK minimizedRMSD -1
REMARK  0 active torsions:
REMARK  status: ('A' for Active; 'I' for Inactive)
ROOT
ATOM      1  C2' OXE d   1       0.439  -0.800   3.895  0.00  0.00     0.078 C 
ATOM      2  C1' OXE d   1       3.068  -0.011   3.303  0.00  0.00     0.078 C 
ATOM      3  C1  OXE d   1       2.411  -1.015   2.388  0.00  0.00    -0.078 A 
ATOM      4  C2  OXE d   1       1.142  -1.430   2.712  0.00  0.00    -0.078 A 
ATOM      5  C3  OXE d   1       0.470  -2.313   1.871  0.00  0.00     0.003 A 
ATOM      6  C4  OXE d   1       1.131  -2.899   0.785  0.00  0.00    -0.002 A 
ATOM      7  C5  OXE d   1       2.438  -2.520   0.460  0.00  0.00    -0.002 A 
ATOM      8  C6  OXE d   1       3.076  -1.549   1.225  0.00  0.00     0.003 A 
ENDROOT
TORSDOF 0
ENDMDL
