MODEL 1
REMARK minimizedAffinity 8.23546028
REMARK minimizedRMSD -1
REMARK  0 active torsions:
REMARK  status: ('A' for Active; 'I' for Inactive)
ROOT
ATOM      1  C   UNL d   1       5.534   5.117  -1.707  0.00  0.00     0.172 C 
ATOM      2  N   UNL d   1       4.779   4.384  -2.696  0.00  0.00    -0.070 N 
ATOM      3  C1  UNL d   1       5.129   4.224  -4.010  0.00  0.00    -0.004 A 
ATOM      4  C2  UNL d   1       4.153   3.464  -4.617  0.00  0.00    -0.047 A 
ATOM      5  C3  UNL d   1       3.183   3.157  -3.634  0.00  0.00    -0.047 A 
ATOM      6  C4  UNL d   1       3.595   3.739  -2.454  0.00  0.00    -0.004 A 
ENDROOT
TORSDOF 0
ENDMDL
