MODEL 1
REMARK minimizedAffinity 13.3006172
REMARK minimizedRMSD -1
REMARK  0 active torsions:
REMARK  status: ('A' for Active; 'I' for Inactive)
ROOT
ATOM      1  C   UNL d   1       6.000   4.621  -4.126  0.00  0.00     0.172 C 
ATOM      2  N   UNL d   1       4.871   3.832  -3.691  0.00  0.00    -0.070 N 
ATOM      3  C1  UNL d   1       4.111   3.018  -4.488  0.00  0.00    -0.004 A 
ATOM      4  C2  UNL d   1       3.138   2.445  -3.699  0.00  0.00    -0.047 A 
ATOM      5  C3  UNL d   1       3.319   2.932  -2.382  0.00  0.00    -0.047 A 
ATOM      6  C4  UNL d   1       4.399   3.789  -2.406  0.00  0.00    -0.004 A 
ENDROOT
TORSDOF 0
ENDMDL
