MODEL 1
REMARK minimizedAffinity 6.04057169
REMARK minimizedRMSD -1
REMARK  0 active torsions:
REMARK  status: ('A' for Active; 'I' for Inactive)
ROOT
ATOM      1  C   UNL d   1       2.475  -4.877   0.385  0.00  0.00     0.172 C 
ATOM      2  N   UNL d   1       3.792  -4.373   0.077  0.00  0.00    -0.070 N 
ATOM      3  C1  UNL d   1       4.975  -4.921   0.496  0.00  0.00    -0.004 A 
ATOM      4  C2  UNL d   1       6.000  -4.150  -0.009  0.00  0.00    -0.047 A 
ATOM      5  C3  UNL d   1       5.413  -3.102  -0.757  0.00  0.00    -0.047 A 
ATOM      6  C4  UNL d   1       4.045  -3.264  -0.687  0.00  0.00    -0.004 A 
ENDROOT
TORSDOF 0
ENDMDL
