MODEL 1
REMARK minimizedAffinity -0.496560067
REMARK minimizedRMSD -1
REMARK  0 active torsions:
REMARK  status: ('A' for Active; 'I' for Inactive)
ROOT
ATOM      1  C   UNL d   1      -1.899  -5.371  -6.000  0.00  0.00     0.172 C 
ATOM      2  N   UNL d   1      -0.781  -5.240  -5.095  0.00  0.00    -0.070 N 
ATOM      3  C1  UNL d   1      -0.691  -4.347  -4.061  0.00  0.00    -0.004 A 
ATOM      4  C2  UNL d   1       0.525  -4.540  -3.442  0.00  0.00    -0.047 A 
ATOM      5  C3  UNL d   1       1.189  -5.585  -4.128  0.00  0.00    -0.047 A 
ATOM      6  C4  UNL d   1       0.358  -6.000  -5.147  0.00  0.00    -0.004 A 
ENDROOT
TORSDOF 0
ENDMDL
