MODEL 1
REMARK minimizedAffinity 2.70284367
REMARK minimizedRMSD -1
REMARK  0 active torsions:
REMARK  status: ('A' for Active; 'I' for Inactive)
ROOT
ATOM      1  C   UNL d   1      -1.123   4.428  -4.483  0.00  0.00     0.172 C 
ATOM      2  N   UNL d   1       0.042   4.128  -3.685  0.00  0.00    -0.070 N 
ATOM      3  C1  UNL d   1       0.536   4.903  -2.670  0.00  0.00    -0.004 A 
ATOM      4  C2  UNL d   1       1.651   4.273  -2.162  0.00  0.00    -0.047 A 
ATOM      5  C3  UNL d   1       1.835   3.078  -2.898  0.00  0.00    -0.047 A 
ATOM      6  C4  UNL d   1       0.824   3.013  -3.834  0.00  0.00    -0.004 A 
ENDROOT
TORSDOF 0
ENDMDL
