MODEL 1
REMARK minimizedAffinity 13.8216562
REMARK minimizedRMSD -1
REMARK  0 active torsions:
REMARK  status: ('A' for Active; 'I' for Inactive)
ROOT
ATOM      1  C   UNL d   1      -2.633  -1.608   0.054  0.00  0.00     0.172 C 
ATOM      2  N   UNL d   1      -2.840  -3.001   0.373  0.00  0.00    -0.070 N 
ATOM      3  C1  UNL d   1      -2.105  -4.049  -0.113  0.00  0.00    -0.004 A 
ATOM      4  C2  UNL d   1      -2.615  -5.209   0.429  0.00  0.00    -0.047 A 
ATOM      5  C3  UNL d   1      -3.693  -4.845   1.270  0.00  0.00    -0.047 A 
ATOM      6  C4  UNL d   1      -3.811  -3.472   1.217  0.00  0.00    -0.004 A 
ENDROOT
TORSDOF 0
ENDMDL
