MODEL 1
REMARK minimizedAffinity 8.5287075
REMARK minimizedRMSD -1
REMARK  0 active torsions:
REMARK  status: ('A' for Active; 'I' for Inactive)
ROOT
ATOM      1  C   UNL d   1       5.730   4.355  -2.039  0.00  0.00     0.172 C 
ATOM      2  N   UNL d   1       4.719   3.844  -2.934  0.00  0.00    -0.070 N 
ATOM      3  C1  UNL d   1       3.427   3.544  -2.592  0.00  0.00    -0.004 A 
ATOM      4  C2  UNL d   1       2.786   3.087  -3.723  0.00  0.00    -0.047 A 
ATOM      5  C3  UNL d   1       3.726   3.111  -4.781  0.00  0.00    -0.047 A 
ATOM      6  C4  UNL d   1       4.914   3.584  -4.265  0.00  0.00    -0.004 A 
ENDROOT
TORSDOF 0
ENDMDL
