MODEL 1
REMARK minimizedAffinity 5.21469688
REMARK minimizedRMSD -1
REMARK  0 active torsions:
REMARK  status: ('A' for Active; 'I' for Inactive)
ROOT
ATOM      1  C   UNL d   1       2.196   2.801  -2.964  0.00  0.00     0.172 C 
ATOM      2  N   UNL d   1       3.310   3.366  -3.689  0.00  0.00    -0.070 N 
ATOM      3  C1  UNL d   1       3.586   3.161  -5.014  0.00  0.00    -0.004 A 
ATOM      4  C2  UNL d   1       4.726   3.872  -5.322  0.00  0.00    -0.047 A 
ATOM      5  C3  UNL d   1       5.150   4.525  -4.140  0.00  0.00    -0.047 A 
ATOM      6  C4  UNL d   1       4.255   4.195  -3.145  0.00  0.00    -0.004 A 
ENDROOT
TORSDOF 0
ENDMDL
