MODEL 1
REMARK minimizedAffinity 7.72877932
REMARK minimizedRMSD -1
REMARK  0 active torsions:
REMARK  status: ('A' for Active; 'I' for Inactive)
ROOT
ATOM      1  C   UNL d   1       1.293  -2.561   4.349  0.00  0.00     0.172 C 
ATOM      2  N   UNL d   1       0.338  -1.784   3.594  0.00  0.00    -0.070 N 
ATOM      3  C1  UNL d   1      -0.234  -0.608   4.000  0.00  0.00    -0.004 A 
ATOM      4  C2  UNL d   1      -1.084  -0.186   3.001  0.00  0.00    -0.047 A 
ATOM      5  C3  UNL d   1      -1.022  -1.141   1.959  0.00  0.00    -0.047 A 
ATOM      6  C4  UNL d   1      -0.134  -2.120   2.353  0.00  0.00    -0.004 A 
ENDROOT
TORSDOF 0
ENDMDL
