MODEL 1
REMARK minimizedAffinity 10.328475
REMARK minimizedRMSD -1
REMARK  0 active torsions:
REMARK  status: ('A' for Active; 'I' for Inactive)
ROOT
ATOM      1  C   UNL d   1       0.323  -5.322  -4.231  0.00  0.00     0.172 C 
ATOM      2  N   UNL d   1      -1.026  -5.592  -4.671  0.00  0.00    -0.070 N 
ATOM      3  C1  UNL d   1      -2.121  -5.718  -3.859  0.00  0.00    -0.004 A 
ATOM      4  C2  UNL d   1      -3.213  -5.971  -4.660  0.00  0.00    -0.047 A 
ATOM      5  C3  UNL d   1      -2.759  -5.999  -6.000  0.00  0.00    -0.047 A 
ATOM      6  C4  UNL d   1      -1.401  -5.761  -5.978  0.00  0.00    -0.004 A 
ENDROOT
TORSDOF 0
ENDMDL
