MODEL 1
REMARK minimizedAffinity 4.84093046
REMARK minimizedRMSD -1
REMARK  0 active torsions:
REMARK  status: ('A' for Active; 'I' for Inactive)
ROOT
ATOM      1  C   UNL d   1       5.226   4.990  -2.557  0.00  0.00     0.172 C 
ATOM      2  N   UNL d   1       3.900   4.427  -2.647  0.00  0.00    -0.070 N 
ATOM      3  C1  UNL d   1       2.751   5.010  -2.183  0.00  0.00    -0.004 A 
ATOM      4  C2  UNL d   1       1.703   4.159  -2.461  0.00  0.00    -0.047 A 
ATOM      5  C3  UNL d   1       2.241   3.025  -3.115  0.00  0.00    -0.047 A 
ATOM      6  C4  UNL d   1       3.602   3.217  -3.217  0.00  0.00    -0.004 A 
ENDROOT
TORSDOF 0
ENDMDL
