MODEL 1
REMARK minimizedAffinity 7.71655703
REMARK minimizedRMSD -1
REMARK  0 active torsions:
REMARK  status: ('A' for Active; 'I' for Inactive)
ROOT
ATOM      1  C   UNL d   1      -4.622  -4.578   1.678  0.00  0.00     0.172 C 
ATOM      2  N   UNL d   1      -3.363  -3.875   1.596  0.00  0.00    -0.070 N 
ATOM      3  C1  UNL d   1      -3.158  -2.563   1.931  0.00  0.00    -0.004 A 
ATOM      4  C2  UNL d   1      -1.829  -2.274   1.713  0.00  0.00    -0.047 A 
ATOM      5  C3  UNL d   1      -1.213  -3.453   1.229  0.00  0.00    -0.047 A 
ATOM      6  C4  UNL d   1      -2.186  -4.428   1.166  0.00  0.00    -0.004 A 
ENDROOT
TORSDOF 0
ENDMDL
