MODEL 1
REMARK minimizedAffinity 6.1027503
REMARK minimizedRMSD -1
REMARK  0 active torsions:
REMARK  status: ('A' for Active; 'I' for Inactive)
ROOT
ATOM      1  C   UNL d   1      -4.297   2.298   1.611  0.00  0.00     0.124 A 
ATOM      2  C1  UNL d   1      -4.916   3.376   0.994  0.00  0.00     0.062 A 
ATOM      3  C2  UNL d   1      -5.403   4.434   1.757  0.00  0.00     0.162 A 
ATOM      4  C3  UNL d   1      -5.272   4.419   3.145  0.00  0.00    -0.034 A 
ATOM      5  C4  UNL d   1      -4.649   3.331   3.759  0.00  0.00     0.162 A 
ATOM      6  C5  UNL d   1      -4.165   2.276   2.992  0.00  0.00     0.062 A 
ATOM      7  F   UNL d   1      -3.567   1.235   3.590  0.00  0.00    -0.097 F 
ATOM      8  F1  UNL d   1      -4.507   3.285   5.092  0.00  0.00    -0.096 F 
ATOM      9  I   UNL d   1      -5.999   5.999   4.289  0.00  0.00    -0.060 I 
ATOM     10  F2  UNL d   1      -5.997   5.463   1.134  0.00  0.00    -0.096 F 
ATOM     11  F3  UNL d   1      -5.047   3.399  -0.340  0.00  0.00    -0.097 F 
ATOM     12  F4  UNL d   1      -3.831   1.281   0.875  0.00  0.00    -0.092 F 
ENDROOT
TORSDOF 0
ENDMDL
