MODEL 1
REMARK minimizedAffinity 14.8654757
REMARK minimizedRMSD -1
REMARK  0 active torsions:
REMARK  status: ('A' for Active; 'I' for Inactive)
ROOT
ATOM      1  C   UNL d   1       2.736   3.536  -0.002  0.00  0.00     0.124 A 
ATOM      2  C1  UNL d   1       3.795   3.973   0.782  0.00  0.00     0.062 A 
ATOM      3  C2  UNL d   1       3.796   3.733   2.153  0.00  0.00     0.162 A 
ATOM      4  C3  UNL d   1       2.735   3.052   2.749  0.00  0.00    -0.034 A 
ATOM      5  C4  UNL d   1       1.673   2.617   1.955  0.00  0.00     0.162 A 
ATOM      6  C5  UNL d   1       1.676   2.859   0.585  0.00  0.00     0.062 A 
ATOM      7  F   UNL d   1       0.652   2.437  -0.171  0.00  0.00    -0.097 F 
ATOM      8  F1  UNL d   1       0.636   1.959   2.495  0.00  0.00    -0.096 F 
ATOM      9  I   UNL d   1       2.733   2.691   4.799  0.00  0.00    -0.060 I 
ATOM     10  F2  UNL d   1       4.833   4.165   2.886  0.00  0.00    -0.096 F 
ATOM     11  F3  UNL d   1       4.819   4.628   0.218  0.00  0.00    -0.097 F 
ATOM     12  F4  UNL d   1       2.736   3.770  -1.321  0.00  0.00    -0.092 F 
ENDROOT
TORSDOF 0
ENDMDL
