MODEL 1
REMARK minimizedAffinity 8.06719398
REMARK minimizedRMSD -1
REMARK  0 active torsions:
REMARK  status: ('A' for Active; 'I' for Inactive)
ROOT
ATOM      1  C   UNL d   1      -5.805   2.376   2.392  0.00  0.00     0.124 A 
ATOM      2  C1  UNL d   1      -5.784   2.086   3.749  0.00  0.00     0.062 A 
ATOM      3  C2  UNL d   1      -5.761   3.116   4.685  0.00  0.00     0.162 A 
ATOM      4  C3  UNL d   1      -5.760   4.446   4.267  0.00  0.00    -0.034 A 
ATOM      5  C4  UNL d   1      -5.781   4.730   2.900  0.00  0.00     0.162 A 
ATOM      6  C5  UNL d   1      -5.803   3.697   1.969  0.00  0.00     0.062 A 
ATOM      7  F   UNL d   1      -5.824   3.980   0.658  0.00  0.00    -0.097 F 
ATOM      8  F1  UNL d   1      -5.780   5.999   2.464  0.00  0.00    -0.096 F 
ATOM      9  I   UNL d   1      -5.726   5.990   5.663  0.00  0.00    -0.060 I 
ATOM     10  F2  UNL d   1      -5.741   2.806   5.990  0.00  0.00    -0.096 F 
ATOM     11  F3  UNL d   1      -5.785   0.809   4.161  0.00  0.00    -0.097 F 
ATOM     12  F4  UNL d   1      -5.826   1.383   1.494  0.00  0.00    -0.092 F 
ENDROOT
TORSDOF 0
ENDMDL
