MODEL 1
REMARK minimizedAffinity 3.06736016
REMARK minimizedRMSD -1
REMARK  0 active torsions:
REMARK  status: ('A' for Active; 'I' for Inactive)
ROOT
ATOM      1  C   UNL d   1      -4.504   2.697   2.398  0.00  0.00     0.124 A 
ATOM      2  C1  UNL d   1      -4.328   2.437   3.750  0.00  0.00     0.062 A 
ATOM      3  C2  UNL d   1      -4.714   3.378   4.700  0.00  0.00     0.162 A 
ATOM      4  C3  UNL d   1      -5.280   4.589   4.301  0.00  0.00    -0.034 A 
ATOM      5  C4  UNL d   1      -5.452   4.844   2.940  0.00  0.00     0.162 A 
ATOM      6  C5  UNL d   1      -5.065   3.900   1.994  0.00  0.00     0.062 A 
ATOM      7  F   UNL d   1      -5.236   4.153   0.688  0.00  0.00    -0.097 F 
ATOM      8  F1  UNL d   1      -5.993   5.998   2.521  0.00  0.00    -0.096 F 
ATOM      9  I   UNL d   1      -5.857   6.000   5.718  0.00  0.00    -0.060 I 
ATOM     10  F2  UNL d   1      -4.532   3.100   6.000  0.00  0.00    -0.096 F 
ATOM     11  F3  UNL d   1      -3.785   1.276   4.143  0.00  0.00    -0.097 F 
ATOM     12  F4  UNL d   1      -4.131   1.790   1.486  0.00  0.00    -0.092 F 
ENDROOT
TORSDOF 0
ENDMDL
