MODEL 1
REMARK minimizedAffinity 5.06403732
REMARK minimizedRMSD -1
REMARK  0 active torsions:
REMARK  status: ('A' for Active; 'I' for Inactive)
ROOT
ATOM      1  C   UNL d   1      -2.340  -0.814  -1.283  0.00  0.00     0.124 A 
ATOM      2  C1  UNL d   1      -2.682  -0.704   0.058  0.00  0.00     0.062 A 
ATOM      3  C2  UNL d   1      -1.701  -0.457   1.013  0.00  0.00     0.162 A 
ATOM      4  C3  UNL d   1      -0.367  -0.316   0.631  0.00  0.00    -0.034 A 
ATOM      5  C4  UNL d   1      -0.029  -0.429  -0.719  0.00  0.00     0.162 A 
ATOM      6  C5  UNL d   1      -1.014  -0.676  -1.670  0.00  0.00     0.062 A 
ATOM      7  F   UNL d   1      -0.681  -0.782  -2.964  0.00  0.00    -0.097 F 
ATOM      8  F1  UNL d   1       1.244  -0.300  -1.120  0.00  0.00    -0.096 F 
ATOM      9  I   UNL d   1       1.104   0.053   2.057  0.00  0.00    -0.060 I 
ATOM     10  F2  UNL d   1      -2.061  -0.355   2.301  0.00  0.00    -0.096 F 
ATOM     11  F3  UNL d   1      -3.962  -0.837   0.434  0.00  0.00    -0.097 F 
ATOM     12  F4  UNL d   1      -3.286  -1.052  -2.200  0.00  0.00    -0.092 F 
ENDROOT
TORSDOF 0
ENDMDL
