MODEL 1
REMARK minimizedAffinity 8.74423695
REMARK minimizedRMSD -1
REMARK  0 active torsions:
REMARK  status: ('A' for Active; 'I' for Inactive)
ROOT
ATOM      1  C   UNL d   1      -5.241   3.880   1.498  0.00  0.00     0.124 A 
ATOM      2  C1  UNL d   1      -5.394   4.836   2.492  0.00  0.00     0.062 A 
ATOM      3  C2  UNL d   1      -4.923   4.590   3.778  0.00  0.00     0.162 A 
ATOM      4  C3  UNL d   1      -4.292   3.382   4.078  0.00  0.00    -0.034 A 
ATOM      5  C4  UNL d   1      -4.143   2.425   3.073  0.00  0.00     0.162 A 
ATOM      6  C5  UNL d   1      -4.616   2.675   1.789  0.00  0.00     0.062 A 
ATOM      7  F   UNL d   1      -4.467   1.750   0.830  0.00  0.00    -0.097 F 
ATOM      8  F1  UNL d   1      -3.541   1.253   3.327  0.00  0.00    -0.096 F 
ATOM      9  I   UNL d   1      -3.586   3.011   6.000  0.00  0.00    -0.060 I 
ATOM     10  F2  UNL d   1      -5.084   5.532   4.719  0.00  0.00    -0.096 F 
ATOM     11  F3  UNL d   1      -5.999   6.000   2.214  0.00  0.00    -0.097 F 
ATOM     12  F4  UNL d   1      -5.697   4.118   0.261  0.00  0.00    -0.092 F 
ENDROOT
TORSDOF 0
ENDMDL
