MODEL 1
REMARK minimizedAffinity 9.98487186
REMARK minimizedRMSD -1
REMARK  0 active torsions:
REMARK  status: ('A' for Active; 'I' for Inactive)
ROOT
ATOM      1  C   UNL d   1      -2.183  -1.100   1.326  0.00  0.00     0.124 A 
ATOM      2  C1  UNL d   1      -1.647  -0.917   0.059  0.00  0.00     0.062 A 
ATOM      3  C2  UNL d   1      -0.647   0.028  -0.149  0.00  0.00     0.162 A 
ATOM      4  C3  UNL d   1      -0.175   0.798   0.914  0.00  0.00    -0.034 A 
ATOM      5  C4  UNL d   1      -0.720   0.610   2.186  0.00  0.00     0.162 A 
ATOM      6  C5  UNL d   1      -1.719  -0.336   2.388  0.00  0.00     0.062 A 
ATOM      7  F   UNL d   1      -2.236  -0.511   3.613  0.00  0.00    -0.097 F 
ATOM      8  F1  UNL d   1      -0.289   1.333   3.230  0.00  0.00    -0.096 F 
ATOM      9  I   UNL d   1       1.320   2.213   0.608  0.00  0.00    -0.060 I 
ATOM     10  F2  UNL d   1      -0.148   0.183  -1.384  0.00  0.00    -0.096 F 
ATOM     11  F3  UNL d   1      -2.095  -1.653  -0.969  0.00  0.00    -0.097 F 
ATOM     12  F4  UNL d   1      -3.146  -2.010   1.523  0.00  0.00    -0.092 F 
ENDROOT
TORSDOF 0
ENDMDL
