MODEL 1
REMARK minimizedAffinity 4.15788269
REMARK minimizedRMSD -1
REMARK  0 active torsions:
REMARK  status: ('A' for Active; 'I' for Inactive)
ROOT
ATOM      1  C   UNL d   1      -4.456   3.922   1.175  0.00  0.00     0.124 A 
ATOM      2  C1  UNL d   1      -3.997   2.862   1.945  0.00  0.00     0.062 A 
ATOM      3  C2  UNL d   1      -4.209   2.852   3.320  0.00  0.00     0.162 A 
ATOM      4  C3  UNL d   1      -4.884   3.906   3.936  0.00  0.00    -0.034 A 
ATOM      5  C4  UNL d   1      -5.342   4.969   3.156  0.00  0.00     0.162 A 
ATOM      6  C5  UNL d   1      -5.128   4.974   1.781  0.00  0.00     0.062 A 
ATOM      7  F   UNL d   1      -5.572   5.999   1.040  0.00  0.00    -0.097 F 
ATOM      8  F1  UNL d   1      -5.996   5.998   3.715  0.00  0.00    -0.096 F 
ATOM      9  I   UNL d   1      -5.203   3.895   5.992  0.00  0.00    -0.060 I 
ATOM     10  F2  UNL d   1      -3.754   1.815   4.039  0.00  0.00    -0.096 F 
ATOM     11  F3  UNL d   1      -3.346   1.845   1.362  0.00  0.00    -0.097 F 
ATOM     12  F4  UNL d   1      -4.250   3.930  -0.148  0.00  0.00    -0.092 F 
ENDROOT
TORSDOF 0
ENDMDL
