MODEL 1
REMARK minimizedAffinity 17.7674541
REMARK minimizedRMSD -1
REMARK  0 active torsions:
REMARK  status: ('A' for Active; 'I' for Inactive)
ROOT
ATOM      1  C   UNL d   1       3.993   3.640  -0.056  0.00  0.00     0.124 A 
ATOM      2  C1  UNL d   1       4.010   2.937  -1.253  0.00  0.00     0.062 A 
ATOM      3  C2  UNL d   1       3.075   1.933  -1.488  0.00  0.00     0.162 A 
ATOM      4  C3  UNL d   1       2.113   1.627  -0.525  0.00  0.00    -0.034 A 
ATOM      5  C4  UNL d   1       2.103   2.338   0.677  0.00  0.00     0.162 A 
ATOM      6  C5  UNL d   1       3.040   3.340   0.907  0.00  0.00     0.062 A 
ATOM      7  F   UNL d   1       3.023   4.018   2.064  0.00  0.00    -0.097 F 
ATOM      8  F1  UNL d   1       1.193   2.070   1.625  0.00  0.00    -0.096 F 
ATOM      9  I   UNL d   1       0.713   0.127  -0.873  0.00  0.00    -0.060 I 
ATOM     10  F2  UNL d   1       3.114   1.270  -2.653  0.00  0.00    -0.096 F 
ATOM     11  F3  UNL d   1       4.930   3.224  -2.185  0.00  0.00    -0.097 F 
ATOM     12  F4  UNL d   1       4.895   4.604   0.168  0.00  0.00    -0.092 F 
ENDROOT
TORSDOF 0
ENDMDL
