MODEL 1
REMARK minimizedAffinity 12.1396971
REMARK minimizedRMSD -1
REMARK  0 active torsions:
REMARK  status: ('A' for Active; 'I' for Inactive)
ROOT
ATOM      1  C   UNL d   1      -4.239   2.374   4.397  0.00  0.00     0.124 A 
ATOM      2  C1  UNL d   1      -4.858   2.093   3.187  0.00  0.00     0.062 A 
ATOM      3  C2  UNL d   1      -5.352   3.126   2.396  0.00  0.00     0.162 A 
ATOM      4  C3  UNL d   1      -5.229   4.452   2.813  0.00  0.00    -0.034 A 
ATOM      5  C4  UNL d   1      -4.605   4.727   4.031  0.00  0.00     0.162 A 
ATOM      6  C5  UNL d   1      -4.113   3.691   4.818  0.00  0.00     0.062 A 
ATOM      7  F   UNL d   1      -3.515   3.965   5.986  0.00  0.00    -0.097 F 
ATOM      8  F1  UNL d   1      -4.470   5.990   4.462  0.00  0.00    -0.096 F 
ATOM      9  I   UNL d   1      -5.966   6.000   1.633  0.00  0.00    -0.060 I 
ATOM     10  F2  UNL d   1      -5.946   2.825   1.232  0.00  0.00    -0.096 F 
ATOM     11  F3  UNL d   1      -4.982   0.822   2.779  0.00  0.00    -0.097 F 
ATOM     12  F4  UNL d   1      -3.765   1.378   5.156  0.00  0.00    -0.092 F 
ENDROOT
TORSDOF 0
ENDMDL
