MODEL 1
REMARK minimizedAffinity 10.6529102
REMARK minimizedRMSD -1
REMARK  0 active torsions:
REMARK  status: ('A' for Active; 'I' for Inactive)
ROOT
ATOM      1  C   UNL d   1      -5.212   4.968   4.055  0.00  0.00     0.124 A 
ATOM      2  C1  UNL d   1      -5.389   4.966   2.678  0.00  0.00     0.062 A 
ATOM      3  C2  UNL d   1      -4.933   3.895   1.915  0.00  0.00     0.162 A 
ATOM      4  C3  UNL d   1      -4.297   2.815   2.527  0.00  0.00    -0.034 A 
ATOM      5  C4  UNL d   1      -4.122   2.824   3.912  0.00  0.00     0.162 A 
ATOM      6  C5  UNL d   1      -4.579   3.897   4.670  0.00  0.00     0.062 A 
ATOM      7  F   UNL d   1      -4.408   3.897   6.000  0.00  0.00    -0.097 F 
ATOM      8  F1  UNL d   1      -3.514   1.802   4.532  0.00  0.00    -0.096 F 
ATOM      9  I   UNL d   1      -3.614   1.212   1.389  0.00  0.00    -0.060 I 
ATOM     10  F2  UNL d   1      -5.118   3.921   0.586  0.00  0.00    -0.096 F 
ATOM     11  F3  UNL d   1      -6.000   6.000   2.081  0.00  0.00    -0.097 F 
ATOM     12  F4  UNL d   1      -5.651   6.000   4.786  0.00  0.00    -0.092 F 
ENDROOT
TORSDOF 0
ENDMDL
