MODEL 1
REMARK minimizedAffinity 4.792943
REMARK minimizedRMSD -1
REMARK  0 active torsions:
REMARK  status: ('A' for Active; 'I' for Inactive)
ROOT
ATOM      1  C   UNL d   1      -5.902   2.378   2.382  0.00  0.00     0.124 A 
ATOM      2  C1  UNL d   1      -5.924   2.094   3.741  0.00  0.00     0.062 A 
ATOM      3  C2  UNL d   1      -5.867   3.126   4.672  0.00  0.00     0.162 A 
ATOM      4  C3  UNL d   1      -5.789   4.453   4.249  0.00  0.00    -0.034 A 
ATOM      5  C4  UNL d   1      -5.767   4.730   2.881  0.00  0.00     0.162 A 
ATOM      6  C5  UNL d   1      -5.823   3.695   1.954  0.00  0.00     0.062 A 
ATOM      7  F   UNL d   1      -5.801   3.971   0.641  0.00  0.00    -0.097 F 
ATOM      8  F1  UNL d   1      -5.692   5.995   2.439  0.00  0.00    -0.096 F 
ATOM      9  I   UNL d   1      -5.705   6.000   5.639  0.00  0.00    -0.060 I 
ATOM     10  F2  UNL d   1      -5.891   2.823   5.979  0.00  0.00    -0.096 F 
ATOM     11  F3  UNL d   1      -5.999   0.822   4.157  0.00  0.00    -0.097 F 
ATOM     12  F4  UNL d   1      -5.955   1.382   1.488  0.00  0.00    -0.092 F 
ENDROOT
TORSDOF 0
ENDMDL
