MODEL 1
REMARK minimizedAffinity 2.8169148
REMARK minimizedRMSD -1
REMARK  0 active torsions:
REMARK  status: ('A' for Active; 'I' for Inactive)
ROOT
ATOM      1  C   UNL d   1      -4.682   4.385   2.248  0.00  0.00     0.124 A 
ATOM      2  C1  UNL d   1      -4.543   4.779   3.571  0.00  0.00     0.062 A 
ATOM      3  C2  UNL d   1      -4.895   3.912   4.601  0.00  0.00     0.162 A 
ATOM      4  C3  UNL d   1      -5.389   2.640   4.312  0.00  0.00    -0.034 A 
ATOM      5  C4  UNL d   1      -5.528   2.250   2.978  0.00  0.00     0.162 A 
ATOM      6  C5  UNL d   1      -5.174   3.121   1.953  0.00  0.00     0.062 A 
ATOM      7  F   UNL d   1      -5.310   2.738   0.675  0.00  0.00    -0.097 F 
ATOM      8  F1  UNL d   1      -6.000   1.035   2.665  0.00  0.00    -0.096 F 
ATOM      9  I   UNL d   1      -5.917   1.340   5.849  0.00  0.00    -0.060 I 
ATOM     10  F2  UNL d   1      -4.750   4.320   5.870  0.00  0.00    -0.096 F 
ATOM     11  F3  UNL d   1      -4.068   6.000   3.859  0.00  0.00    -0.097 F 
ATOM     12  F4  UNL d   1      -4.343   5.222   1.259  0.00  0.00    -0.092 F 
ENDROOT
TORSDOF 0
ENDMDL
