MODEL 1
REMARK minimizedAffinity 10.2650671
REMARK minimizedRMSD -1
REMARK  0 active torsions:
REMARK  status: ('A' for Active; 'I' for Inactive)
ROOT
ATOM      1  C   UNL d   1      -4.698   2.595   4.260  0.00  0.00     0.124 A 
ATOM      2  C1  UNL d   1      -4.602   2.321   2.903  0.00  0.00     0.062 A 
ATOM      3  C2  UNL d   1      -4.962   3.285   1.966  0.00  0.00     0.162 A 
ATOM      4  C3  UNL d   1      -5.420   4.535   2.384  0.00  0.00    -0.034 A 
ATOM      5  C4  UNL d   1      -5.514   4.804   3.750  0.00  0.00     0.162 A 
ATOM      6  C5  UNL d   1      -5.153   3.836   4.682  0.00  0.00     0.062 A 
ATOM      7  F   UNL d   1      -5.246   4.104   5.993  0.00  0.00    -0.097 F 
ATOM      8  F1  UNL d   1      -5.950   5.995   4.186  0.00  0.00    -0.096 F 
ATOM      9  I   UNL d   1      -5.959   5.980   0.986  0.00  0.00    -0.060 I 
ATOM     10  F2  UNL d   1      -4.860   2.992   0.661  0.00  0.00    -0.096 F 
ATOM     11  F3  UNL d   1      -4.164   1.122   2.492  0.00  0.00    -0.097 F 
ATOM     12  F4  UNL d   1      -4.352   1.665   5.159  0.00  0.00    -0.092 F 
ENDROOT
TORSDOF 0
ENDMDL
