MODEL 1
REMARK minimizedAffinity 3.15814352
REMARK minimizedRMSD -1
REMARK  0 active torsions:
REMARK  status: ('A' for Active; 'I' for Inactive)
ROOT
ATOM      1  C   UNL d   1      -4.070   2.949   2.364  0.00  0.00     0.124 A 
ATOM      2  C1  UNL d   1      -3.930   2.524   3.678  0.00  0.00     0.062 A 
ATOM      3  C2  UNL d   1      -4.478   3.269   4.717  0.00  0.00     0.162 A 
ATOM      4  C3  UNL d   1      -5.173   4.448   4.447  0.00  0.00    -0.034 A 
ATOM      5  C4  UNL d   1      -5.309   4.870   3.123  0.00  0.00     0.162 A 
ATOM      6  C5  UNL d   1      -4.759   4.121   2.088  0.00  0.00     0.062 A 
ATOM      7  F   UNL d   1      -4.895   4.534   0.819  0.00  0.00    -0.097 F 
ATOM      8  F1  UNL d   1      -5.971   5.999   2.828  0.00  0.00    -0.096 F 
ATOM      9  I   UNL d   1      -5.995   5.566   5.998  0.00  0.00    -0.060 I 
ATOM     10  F2  UNL d   1      -4.328   2.835   5.977  0.00  0.00    -0.096 F 
ATOM     11  F3  UNL d   1      -3.264   1.392   3.947  0.00  0.00    -0.097 F 
ATOM     12  F4  UNL d   1      -3.540   2.230   1.366  0.00  0.00    -0.092 F 
ENDROOT
TORSDOF 0
ENDMDL
