MODEL 1
REMARK minimizedAffinity 3.87015033
REMARK minimizedRMSD -1
REMARK  0 active torsions:
REMARK  status: ('A' for Active; 'I' for Inactive)
ROOT
ATOM      1  C   UNL d   1      -4.329   3.007   4.833  0.00  0.00     0.124 A 
ATOM      2  C1  UNL d   1      -3.924   2.441   3.632  0.00  0.00     0.062 A 
ATOM      3  C2  UNL d   1      -4.218   3.072   2.427  0.00  0.00     0.162 A 
ATOM      4  C3  UNL d   1      -4.919   4.278   2.416  0.00  0.00    -0.034 A 
ATOM      5  C4  UNL d   1      -5.324   4.841   3.628  0.00  0.00     0.162 A 
ATOM      6  C5  UNL d   1      -5.028   4.206   4.830  0.00  0.00     0.062 A 
ATOM      7  F   UNL d   1      -5.420   4.754   5.990  0.00  0.00    -0.097 F 
ATOM      8  F1  UNL d   1      -6.000   5.999   3.654  0.00  0.00    -0.096 F 
ATOM      9  I   UNL d   1      -5.360   5.225   0.616  0.00  0.00    -0.060 I 
ATOM     10  F2  UNL d   1      -3.815   2.503   1.282  0.00  0.00    -0.096 F 
ATOM     11  F3  UNL d   1      -3.250   1.283   3.633  0.00  0.00    -0.097 F 
ATOM     12  F4  UNL d   1      -4.046   2.397   5.992  0.00  0.00    -0.092 F 
ENDROOT
TORSDOF 0
ENDMDL
