MODEL 1
REMARK minimizedAffinity 8.21983337
REMARK minimizedRMSD -1
REMARK  0 active torsions:
REMARK  status: ('A' for Active; 'I' for Inactive)
ROOT
ATOM      1  C   UNL d   1      -4.457   2.661   4.218  0.00  0.00     0.124 A 
ATOM      2  C1  UNL d   1      -4.330   2.426   2.856  0.00  0.00     0.062 A 
ATOM      3  C2  UNL d   1      -4.767   3.377   1.938  0.00  0.00     0.162 A 
ATOM      4  C3  UNL d   1      -5.334   4.573   2.380  0.00  0.00    -0.034 A 
ATOM      5  C4  UNL d   1      -5.458   4.802   3.751  0.00  0.00     0.162 A 
ATOM      6  C5  UNL d   1      -5.021   3.848   4.664  0.00  0.00     0.062 A 
ATOM      7  F   UNL d   1      -5.144   4.077   5.980  0.00  0.00    -0.097 F 
ATOM      8  F1  UNL d   1      -5.999   5.941   4.209  0.00  0.00    -0.096 F 
ATOM      9  I   UNL d   1      -5.988   5.997   1.010  0.00  0.00    -0.060 I 
ATOM     10  F2  UNL d   1      -4.632   3.123   0.628  0.00  0.00    -0.096 F 
ATOM     11  F3  UNL d   1      -3.787   1.280   2.423  0.00  0.00    -0.097 F 
ATOM     12  F4  UNL d   1      -4.037   1.744   5.099  0.00  0.00    -0.092 F 
ENDROOT
TORSDOF 0
ENDMDL
