MODEL 1
REMARK minimizedAffinity 0.593347609
REMARK minimizedRMSD -1
REMARK  0 active torsions:
REMARK  status: ('A' for Active; 'I' for Inactive)
ROOT
ATOM      1  C   UNL d   1      -0.818  -0.811  -1.376  0.00  0.00     0.124 A 
ATOM      2  C1  UNL d   1      -2.126  -0.990  -0.949  0.00  0.00     0.062 A 
ATOM      3  C2  UNL d   1      -2.399  -1.205   0.399  0.00  0.00     0.162 A 
ATOM      4  C3  UNL d   1      -1.360  -1.240   1.330  0.00  0.00    -0.034 A 
ATOM      5  C4  UNL d   1      -0.047  -1.060   0.892  0.00  0.00     0.162 A 
ATOM      6  C5  UNL d   1       0.220  -0.846  -0.456  0.00  0.00     0.062 A 
ATOM      7  F   UNL d   1       1.485  -0.673  -0.868  0.00  0.00    -0.097 F 
ATOM      8  F1  UNL d   1       0.975  -1.089   1.760  0.00  0.00    -0.096 F 
ATOM      9  I   UNL d   1      -1.763  -1.561   3.347  0.00  0.00    -0.060 I 
ATOM     10  F2  UNL d   1      -3.672  -1.375   0.785  0.00  0.00    -0.096 F 
ATOM     11  F3  UNL d   1      -3.131  -0.957  -1.836  0.00  0.00    -0.097 F 
ATOM     12  F4  UNL d   1      -0.559  -0.605  -2.674  0.00  0.00    -0.092 F 
ENDROOT
TORSDOF 0
ENDMDL
