MODEL 1
REMARK minimizedAffinity 4.35365677
REMARK minimizedRMSD -1
REMARK  0 active torsions:
REMARK  status: ('A' for Active; 'I' for Inactive)
ROOT
ATOM      1  C   UNL d   1      -3.883   1.560   3.679  0.00  0.00     0.124 A 
ATOM      2  C1  UNL d   1      -4.412   2.086   4.849  0.00  0.00     0.062 A 
ATOM      3  C2  UNL d   1      -5.013   3.342   4.844  0.00  0.00     0.162 A 
ATOM      4  C3  UNL d   1      -5.090   4.080   3.662  0.00  0.00    -0.034 A 
ATOM      5  C4  UNL d   1      -4.556   3.544   2.489  0.00  0.00     0.162 A 
ATOM      6  C5  UNL d   1      -3.956   2.289   2.500  0.00  0.00     0.062 A 
ATOM      7  F   UNL d   1      -3.446   1.782   1.368  0.00  0.00    -0.097 F 
ATOM      8  F1  UNL d   1      -4.613   4.226   1.336  0.00  0.00    -0.096 F 
ATOM      9  I   UNL d   1      -5.988   5.957   3.649  0.00  0.00    -0.060 I 
ATOM     10  F2  UNL d   1      -5.515   3.826   5.989  0.00  0.00    -0.096 F 
ATOM     11  F3  UNL d   1      -4.342   1.384   5.990  0.00  0.00    -0.097 F 
ATOM     12  F4  UNL d   1      -3.305   0.352   3.687  0.00  0.00    -0.092 F 
ENDROOT
TORSDOF 0
ENDMDL
