MODEL 1
REMARK minimizedAffinity 7.3564477
REMARK minimizedRMSD -1
REMARK  0 active torsions:
REMARK  status: ('A' for Active; 'I' for Inactive)
ROOT
ATOM      1  C   UNL d   1      -5.637   4.721   2.469  0.00  0.00     0.124 A 
ATOM      2  C1  UNL d   1      -5.411   3.490   1.869  0.00  0.00     0.062 A 
ATOM      3  C2  UNL d   1      -5.258   2.348   2.650  0.00  0.00     0.162 A 
ATOM      4  C3  UNL d   1      -5.331   2.431   4.040  0.00  0.00    -0.034 A 
ATOM      5  C4  UNL d   1      -5.558   3.673   4.637  0.00  0.00     0.162 A 
ATOM      6  C5  UNL d   1      -5.711   4.811   3.852  0.00  0.00     0.062 A 
ATOM      7  F   UNL d   1      -5.929   6.000   4.434  0.00  0.00    -0.097 F 
ATOM      8  F1  UNL d   1      -5.635   3.788   5.971  0.00  0.00    -0.096 F 
ATOM      9  I   UNL d   1      -5.103   0.726   5.211  0.00  0.00    -0.060 I 
ATOM     10  F2  UNL d   1      -5.040   1.172   2.043  0.00  0.00    -0.096 F 
ATOM     11  F3  UNL d   1      -5.338   3.401   0.533  0.00  0.00    -0.097 F 
ATOM     12  F4  UNL d   1      -5.783   5.819   1.716  0.00  0.00    -0.092 F 
ENDROOT
TORSDOF 0
ENDMDL
