MODEL 1
REMARK minimizedAffinity 6.20378065
REMARK minimizedRMSD -1
REMARK  0 active torsions:
REMARK  status: ('A' for Active; 'I' for Inactive)
ROOT
ATOM      1  C   UNL d   1       0.194  -0.961   3.302  0.00  0.00     0.078 C 
ATOM      2  C1  UNL d   1       0.137   0.429   2.741  0.00  0.00    -0.077 A 
ATOM      3  C2  UNL d   1       1.303   1.185   2.566  0.00  0.00    -0.001 A 
ATOM      4  C3  UNL d   1       1.234   2.480   2.052  0.00  0.00     0.003 A 
ATOM      5  C4  UNL d   1       0.001   3.032   1.710  0.00  0.00    -0.005 A 
ATOM      6  C5  UNL d   1      -1.165   2.289   1.882  0.00  0.00     0.003 A 
ATOM      7  C6  UNL d   1      -1.097   0.993   2.396  0.00  0.00    -0.001 A 
ENDROOT
TORSDOF 0
ENDMDL
