MODEL 1
REMARK minimizedAffinity 7.02512217
REMARK minimizedRMSD -1
REMARK  0 active torsions:
REMARK  status: ('A' for Active; 'I' for Inactive)
ROOT
ATOM      1  C   UNL d   1       3.750   4.505   2.081  0.00  0.00     0.078 C 
ATOM      2  C1  UNL d   1       3.313   3.103   1.777  0.00  0.00    -0.077 A 
ATOM      3  C2  UNL d   1       3.982   2.331   0.819  0.00  0.00    -0.001 A 
ATOM      4  C3  UNL d   1       3.558   1.031   0.539  0.00  0.00     0.003 A 
ATOM      5  C4  UNL d   1       2.462   0.492   1.211  0.00  0.00    -0.005 A 
ATOM      6  C5  UNL d   1       1.789   1.254   2.164  0.00  0.00     0.003 A 
ATOM      7  C6  UNL d   1       2.212   2.554   2.446  0.00  0.00    -0.001 A 
ENDROOT
TORSDOF 0
ENDMDL
