MODEL 1
REMARK minimizedAffinity 12.2927914
REMARK minimizedRMSD -1
REMARK  0 active torsions:
REMARK  status: ('A' for Active; 'I' for Inactive)
ROOT
ATOM      1  C   UNL d   1       1.502   2.631  -2.518  0.00  0.00     0.078 C 
ATOM      2  C1  UNL d   1       1.715   1.281  -1.900  0.00  0.00    -0.077 A 
ATOM      3  C2  UNL d   1       1.341   0.113  -2.575  0.00  0.00    -0.001 A 
ATOM      4  C3  UNL d   1       1.536  -1.137  -1.984  0.00  0.00     0.003 A 
ATOM      5  C4  UNL d   1       2.105  -1.230  -0.715  0.00  0.00    -0.005 A 
ATOM      6  C5  UNL d   1       2.478  -0.072  -0.035  0.00  0.00     0.003 A 
ATOM      7  C6  UNL d   1       2.284   1.178  -0.625  0.00  0.00    -0.001 A 
ENDROOT
TORSDOF 0
ENDMDL
