MODEL 1
REMARK minimizedAffinity -0.355540454
REMARK minimizedRMSD -1
REMARK  0 active torsions:
REMARK  status: ('A' for Active; 'I' for Inactive)
ROOT
ATOM      1  C   UNL d   1       2.110   0.279  -3.079  0.00  0.00     0.078 C 
ATOM      2  C1  UNL d   1       2.510  -0.539  -1.887  0.00  0.00    -0.077 A 
ATOM      3  C2  UNL d   1       1.673  -1.546  -1.390  0.00  0.00    -0.001 A 
ATOM      4  C3  UNL d   1       2.054  -2.293  -0.274  0.00  0.00     0.003 A 
ATOM      5  C4  UNL d   1       3.272  -2.040   0.355  0.00  0.00    -0.005 A 
ATOM      6  C5  UNL d   1       4.110  -1.039  -0.132  0.00  0.00     0.003 A 
ATOM      7  C6  UNL d   1       3.731  -0.291  -1.247  0.00  0.00    -0.001 A 
ENDROOT
TORSDOF 0
ENDMDL
