MODEL 1
REMARK minimizedAffinity 13.1929321
REMARK minimizedRMSD -1
REMARK  0 active torsions:
REMARK  status: ('A' for Active; 'I' for Inactive)
ROOT
ATOM      1  C   UNL d   1      -5.991  -3.382   1.774  0.00  0.00     0.078 C 
ATOM      2  C1  UNL d   1      -5.995  -2.193   2.688  0.00  0.00    -0.077 A 
ATOM      3  C2  UNL d   1      -5.983  -0.890   2.176  0.00  0.00    -0.001 A 
ATOM      4  C3  UNL d   1      -5.976   0.207   3.038  0.00  0.00     0.003 A 
ATOM      5  C4  UNL d   1      -5.981   0.013   4.418  0.00  0.00    -0.005 A 
ATOM      6  C5  UNL d   1      -5.991  -1.280   4.937  0.00  0.00     0.003 A 
ATOM      7  C6  UNL d   1      -5.997  -2.379   4.076  0.00  0.00    -0.001 A 
ENDROOT
TORSDOF 0
ENDMDL
