MODEL 1
REMARK minimizedAffinity 3.69878674
REMARK minimizedRMSD -1
REMARK  0 active torsions:
REMARK  status: ('A' for Active; 'I' for Inactive)
ROOT
ATOM      1  C   UNL d   1       2.627  -3.338  -0.452  0.00  0.00     0.078 C 
ATOM      2  C1  UNL d   1       1.268  -3.271  -1.084  0.00  0.00    -0.077 A 
ATOM      3  C2  UNL d   1       0.641  -2.041  -1.317  0.00  0.00    -0.001 A 
ATOM      4  C3  UNL d   1      -0.628  -1.994  -1.897  0.00  0.00     0.003 A 
ATOM      5  C4  UNL d   1      -1.281  -3.174  -2.247  0.00  0.00    -0.005 A 
ATOM      6  C5  UNL d   1      -0.666  -4.403  -2.017  0.00  0.00     0.003 A 
ATOM      7  C6  UNL d   1       0.603  -4.452  -1.437  0.00  0.00    -0.001 A 
ENDROOT
TORSDOF 0
ENDMDL
