MODEL 1
REMARK minimizedAffinity 7.98344469
REMARK minimizedRMSD -1
REMARK  0 active torsions:
REMARK  status: ('A' for Active; 'I' for Inactive)
ROOT
ATOM      1  C   UNL d   1      -2.626  -2.427  -2.556  0.00  0.00     0.078 C 
ATOM      2  C1  UNL d   1      -1.839  -3.674  -2.828  0.00  0.00    -0.077 A 
ATOM      3  C2  UNL d   1      -0.803  -4.073  -1.976  0.00  0.00    -0.001 A 
ATOM      4  C3  UNL d   1      -0.073  -5.232  -2.246  0.00  0.00     0.003 A 
ATOM      5  C4  UNL d   1      -0.371  -6.000  -3.370  0.00  0.00    -0.005 A 
ATOM      6  C5  UNL d   1      -1.399  -5.610  -4.225  0.00  0.00     0.003 A 
ATOM      7  C6  UNL d   1      -2.130  -4.451  -3.956  0.00  0.00    -0.001 A 
ENDROOT
TORSDOF 0
ENDMDL
