MODEL 1
REMARK minimizedAffinity 9.20979691
REMARK minimizedRMSD -1
REMARK  0 active torsions:
REMARK  status: ('A' for Active; 'I' for Inactive)
ROOT
ATOM      1  C   UNL d   1       1.470  -1.227  -1.658  0.00  0.00     0.078 C 
ATOM      2  C1  UNL d   1       0.264  -2.092  -1.875  0.00  0.00    -0.077 A 
ATOM      3  C2  UNL d   1       0.365  -3.488  -1.857  0.00  0.00    -0.001 A 
ATOM      4  C3  UNL d   1      -0.764  -4.281  -2.069  0.00  0.00     0.003 A 
ATOM      5  C4  UNL d   1      -2.002  -3.686  -2.303  0.00  0.00    -0.005 A 
ATOM      6  C5  UNL d   1      -2.113  -2.297  -2.324  0.00  0.00     0.003 A 
ATOM      7  C6  UNL d   1      -0.984  -1.503  -2.112  0.00  0.00    -0.001 A 
ENDROOT
TORSDOF 0
ENDMDL
