MODEL 1
REMARK minimizedAffinity 14.104454
REMARK minimizedRMSD -1
REMARK  0 active torsions:
REMARK  status: ('A' for Active; 'I' for Inactive)
ROOT
ATOM      1  C   UNL d   1       3.307   5.283   6.000  0.00  0.00     0.078 C 
ATOM      2  C1  UNL d   1       3.198   3.939   5.344  0.00  0.00    -0.077 A 
ATOM      3  C2  UNL d   1       2.605   3.797   4.084  0.00  0.00    -0.001 A 
ATOM      4  C3  UNL d   1       2.501   2.538   3.490  0.00  0.00     0.003 A 
ATOM      5  C4  UNL d   1       2.988   1.411   4.149  0.00  0.00    -0.005 A 
ATOM      6  C5  UNL d   1       3.579   1.542   5.404  0.00  0.00     0.003 A 
ATOM      7  C6  UNL d   1       3.683   2.800   6.000  0.00  0.00    -0.001 A 
ENDROOT
TORSDOF 0
ENDMDL
