MODEL 1
REMARK minimizedAffinity 9.28563213
REMARK minimizedRMSD -1
REMARK  0 active torsions:
REMARK  status: ('A' for Active; 'I' for Inactive)
ROOT
ATOM      1  C   UNL d   1       1.092  -1.892  -1.383  0.00  0.00     0.078 C 
ATOM      2  C1  UNL d   1      -0.242  -2.331  -1.908  0.00  0.00    -0.077 A 
ATOM      3  C2  UNL d   1      -1.164  -1.401  -2.404  0.00  0.00    -0.001 A 
ATOM      4  C3  UNL d   1      -2.406  -1.823  -2.880  0.00  0.00     0.003 A 
ATOM      5  C4  UNL d   1      -2.739  -3.176  -2.865  0.00  0.00    -0.005 A 
ATOM      6  C5  UNL d   1      -1.829  -4.109  -2.372  0.00  0.00     0.003 A 
ATOM      7  C6  UNL d   1      -0.586  -3.689  -1.895  0.00  0.00    -0.001 A 
ENDROOT
TORSDOF 0
ENDMDL
