MODEL 1
REMARK minimizedAffinity 5.45574903
REMARK minimizedRMSD -1
REMARK  0 active torsions:
REMARK  status: ('A' for Active; 'I' for Inactive)
ROOT
ATOM      1  C   UNL d   1       1.958  -2.499  -0.497  0.00  0.00     0.078 C 
ATOM      2  C1  UNL d   1       0.803  -2.858  -1.385  0.00  0.00    -0.077 A 
ATOM      3  C2  UNL d   1       0.475  -2.070  -2.494  0.00  0.00    -0.001 A 
ATOM      4  C3  UNL d   1      -0.609  -2.410  -3.306  0.00  0.00     0.003 A 
ATOM      5  C4  UNL d   1      -1.373  -3.539  -3.016  0.00  0.00    -0.005 A 
ATOM      6  C5  UNL d   1      -1.054  -4.328  -1.912  0.00  0.00     0.003 A 
ATOM      7  C6  UNL d   1       0.028  -3.989  -1.100  0.00  0.00    -0.001 A 
ENDROOT
TORSDOF 0
ENDMDL
