MODEL 1
REMARK minimizedAffinity 5.57459784
REMARK minimizedRMSD -1
REMARK  0 active torsions:
REMARK  status: ('A' for Active; 'I' for Inactive)
ROOT
ATOM      1  C   UNL d   1       1.831   2.045  -2.616  0.00  0.00     0.078 C 
ATOM      2  C1  UNL d   1       1.834   3.419  -2.014  0.00  0.00    -0.077 A 
ATOM      3  C2  UNL d   1       1.431   3.627  -0.690  0.00  0.00    -0.001 A 
ATOM      4  C3  UNL d   1       1.430   4.912  -0.146  0.00  0.00     0.003 A 
ATOM      5  C4  UNL d   1       1.829   6.000  -0.920  0.00  0.00    -0.005 A 
ATOM      6  C5  UNL d   1       2.230   5.803  -2.240  0.00  0.00     0.003 A 
ATOM      7  C6  UNL d   1       2.232   4.518  -2.785  0.00  0.00    -0.001 A 
ENDROOT
TORSDOF 0
ENDMDL
