MODEL 1
REMARK minimizedAffinity 0.576259494
REMARK minimizedRMSD -1
REMARK  0 active torsions:
REMARK  status: ('A' for Active; 'I' for Inactive)
ROOT
ATOM      1  C   UNL d   1      -0.817  -3.882  -1.956  0.00  0.00     0.078 C 
ATOM      2  C1  UNL d   1       0.292  -2.879  -1.842  0.00  0.00    -0.077 A 
ATOM      3  C2  UNL d   1       1.122  -2.847  -0.715  0.00  0.00    -0.001 A 
ATOM      4  C3  UNL d   1       2.145  -1.902  -0.617  0.00  0.00     0.003 A 
ATOM      5  C4  UNL d   1       2.346  -0.981  -1.643  0.00  0.00    -0.005 A 
ATOM      6  C5  UNL d   1       1.524  -1.003  -2.768  0.00  0.00     0.003 A 
ATOM      7  C6  UNL d   1       0.501  -1.948  -2.867  0.00  0.00    -0.001 A 
ENDROOT
TORSDOF 0
ENDMDL
