MODEL 1
REMARK minimizedAffinity -4.90528631
REMARK minimizedRMSD -1
REMARK  0 active torsions:
REMARK  status: ('A' for Active; 'I' for Inactive)
ROOT
ATOM      1  C   UNL d   1       0.023   1.142   0.664  0.00  0.00     0.078 C 
ATOM      2  C1  UNL d   1       0.729   0.144  -0.205  0.00  0.00    -0.077 A 
ATOM      3  C2  UNL d   1       0.508  -1.230  -0.050  0.00  0.00    -0.001 A 
ATOM      4  C3  UNL d   1       1.179  -2.148  -0.859  0.00  0.00     0.003 A 
ATOM      5  C4  UNL d   1       2.076  -1.703  -1.827  0.00  0.00    -0.005 A 
ATOM      6  C5  UNL d   1       2.304  -0.338  -1.987  0.00  0.00     0.003 A 
ATOM      7  C6  UNL d   1       1.634   0.582  -1.179  0.00  0.00    -0.001 A 
ENDROOT
TORSDOF 0
ENDMDL
