MODEL 1
REMARK minimizedAffinity -3.69792247
REMARK minimizedRMSD -1
REMARK  0 active torsions:
REMARK  status: ('A' for Active; 'I' for Inactive)
ROOT
ATOM      1  N1  IND d   1      -3.273   3.844  -2.213  0.00  0.00    -0.196 N 
ATOM      2  C2  IND d   1      -4.211   2.864  -2.386  0.00  0.00     0.054 A 
ATOM      3  C3  IND d   1      -3.613   1.684  -2.661  0.00  0.00    -0.031 A 
ATOM      4  C4  IND d   1      -1.106   1.108  -2.777  0.00  0.00     0.051 A 
ATOM      5  C5  IND d   1       0.134   1.680  -2.726  0.00  0.00    -0.031 A 
ATOM      6  C6  IND d   1       0.306   3.029  -2.494  0.00  0.00     0.015 A 
ATOM      7  C7  IND d   1      -0.761   3.858  -2.292  0.00  0.00    -0.016 A 
ATOM      8  C8  IND d   1      -2.022   3.282  -2.350  0.00  0.00    -0.047 A 
ATOM      9  C9  IND d   1      -2.204   1.921  -2.628  0.00  0.00    -0.096 A 
ATOM     10  HN1 IND d   1      -3.436   4.671  -2.047  0.00  0.00     0.298 HD
ENDROOT
TORSDOF 0
ENDMDL
