MODEL 1
REMARK minimizedAffinity -4.29999208
REMARK minimizedRMSD -1
REMARK  0 active torsions:
REMARK  status: ('A' for Active; 'I' for Inactive)
ROOT
ATOM      1  N1  IND d   1       2.120  -1.265   2.061  0.00  0.00    -0.196 N 
ATOM      2  C2  IND d   1       1.560  -1.197   3.306  0.00  0.00     0.054 A 
ATOM      3  C3  IND d   1       0.302  -0.708   3.229  0.00  0.00    -0.031 A 
ATOM      4  C4  IND d   1      -1.074  -0.052   1.154  0.00  0.00     0.051 A 
ATOM      5  C5  IND d   1      -0.977   0.093  -0.201  0.00  0.00    -0.031 A 
ATOM      6  C6  IND d   1       0.180  -0.217  -0.886  0.00  0.00     0.015 A 
ATOM      7  C7  IND d   1       1.284  -0.695  -0.240  0.00  0.00    -0.016 A 
ATOM      8  C8  IND d   1       1.192  -0.837   1.138  0.00  0.00    -0.047 A 
ATOM      9  C9  IND d   1       0.034  -0.484   1.844  0.00  0.00    -0.096 A 
ATOM     10  HN1 IND d   1       2.919  -1.531   1.884  0.00  0.00     0.298 HD
ENDROOT
TORSDOF 0
ENDMDL
