MODEL 1
REMARK minimizedAffinity -3.36983562
REMARK minimizedRMSD -1
REMARK  0 active torsions:
REMARK  status: ('A' for Active; 'I' for Inactive)
ROOT
ATOM      1  N1  IND d   1      -0.889  -1.030   0.149  0.00  0.00    -0.196 N 
ATOM      2  C2  IND d   1      -1.003  -0.052  -0.800  0.00  0.00     0.054 A 
ATOM      3  C3  IND d   1      -0.137   0.954  -0.544  0.00  0.00    -0.031 A 
ATOM      4  C4  IND d   1       1.631   1.157   1.316  0.00  0.00     0.051 A 
ATOM      5  C5  IND d   1       2.086   0.531   2.443  0.00  0.00    -0.031 A 
ATOM      6  C6  IND d   1       1.564  -0.673   2.869  0.00  0.00     0.015 A 
ATOM      7  C7  IND d   1       0.571  -1.305   2.175  0.00  0.00    -0.016 A 
ATOM      8  C8  IND d   1       0.101  -0.668   1.035  0.00  0.00    -0.047 A 
ATOM      9  C9  IND d   1       0.597   0.575   0.621  0.00  0.00    -0.096 A 
ATOM     10  HN1 IND d   1      -1.358  -1.750   0.185  0.00  0.00     0.298 HD
ENDROOT
TORSDOF 0
ENDMDL
