MODEL 1
REMARK minimizedAffinity -2.65452933
REMARK minimizedRMSD -1
REMARK  0 active torsions:
REMARK  status: ('A' for Active; 'I' for Inactive)
ROOT
ATOM      1  N1  IND d   1       1.352  -0.542  -0.682  0.00  0.00    -0.196 N 
ATOM      2  C2  IND d   1       0.423  -0.026  -1.543  0.00  0.00     0.054 A 
ATOM      3  C3  IND d   1      -0.661   0.406  -0.861  0.00  0.00    -0.031 A 
ATOM      4  C4  IND d   1      -1.084   0.458   1.678  0.00  0.00     0.051 A 
ATOM      5  C5  IND d   1      -0.541   0.062   2.868  0.00  0.00    -0.031 A 
ATOM      6  C6  IND d   1       0.686  -0.565   2.938  0.00  0.00     0.015 A 
ATOM      7  C7  IND d   1       1.425  -0.811   1.816  0.00  0.00    -0.016 A 
ATOM      8  C8  IND d   1       0.874  -0.417   0.604  0.00  0.00    -0.047 A 
ATOM      9  C9  IND d   1      -0.390   0.181   0.523  0.00  0.00    -0.096 A 
ATOM     10  HN1 IND d   1       2.107  -0.887  -0.906  0.00  0.00     0.298 HD
ENDROOT
TORSDOF 0
ENDMDL
