MODEL 1
REMARK minimizedAffinity -2.44942355
REMARK minimizedRMSD -1
REMARK  0 active torsions:
REMARK  status: ('A' for Active; 'I' for Inactive)
ROOT
ATOM      1  N1  IND d   1      -0.115   1.187   1.839  0.00  0.00    -0.196 N 
ATOM      2  C2  IND d   1       0.330   0.158   2.622  0.00  0.00     0.054 A 
ATOM      3  C3  IND d   1       0.652  -0.910   1.857  0.00  0.00    -0.031 A 
ATOM      4  C4  IND d   1       0.625  -1.154  -0.706  0.00  0.00     0.051 A 
ATOM      5  C5  IND d   1       0.260  -0.495  -1.847  0.00  0.00    -0.031 A 
ATOM      6  C6  IND d   1      -0.256   0.784  -1.817  0.00  0.00     0.015 A 
ATOM      7  C7  IND d   1      -0.417   1.460  -0.641  0.00  0.00    -0.016 A 
ATOM      8  C8  IND d   1      -0.054   0.792   0.520  0.00  0.00    -0.047 A 
ATOM      9  C9  IND d   1       0.430  -0.522   0.500  0.00  0.00    -0.096 A 
ATOM     10  HN1 IND d   1      -0.387   1.952   2.122  0.00  0.00     0.298 HD
ENDROOT
TORSDOF 0
ENDMDL
