MODEL 1
REMARK minimizedAffinity 5.13044739
REMARK minimizedRMSD -1
REMARK  0 active torsions:
REMARK  status: ('A' for Active; 'I' for Inactive)
ROOT
ATOM      1  C   UNL d   1      -3.783  -0.969  -0.897  0.00  0.00     0.023 A 
ATOM      2  C1  UNL d   1      -2.613  -1.407  -1.518  0.00  0.00     0.003 A 
ATOM      3  C2  UNL d   1      -1.458  -1.619  -0.762  0.00  0.00     0.048 A 
ATOM      4  C3  UNL d   1      -1.480  -1.392   0.614  0.00  0.00     0.023 A 
ATOM      5  C4  UNL d   1      -2.649  -0.955   1.239  0.00  0.00     0.048 A 
ATOM      6  C5  UNL d   1      -3.801  -0.744   0.479  0.00  0.00     0.003 A 
ATOM      7  I   UNL d   1       0.237  -1.707   1.741  0.00  0.00    -0.146 I 
ENDROOT
TORSDOF 0
ENDMDL
