MODEL 1
REMARK minimizedAffinity 5.63044357
REMARK minimizedRMSD -1
REMARK  0 active torsions:
REMARK  status: ('A' for Active; 'I' for Inactive)
ROOT
ATOM      1  C   UNL d   1       1.545  -1.576   1.306  0.00  0.00     0.023 A 
ATOM      2  C1  UNL d   1       2.013  -0.296   1.603  0.00  0.00     0.003 A 
ATOM      3  C2  UNL d   1       1.154   0.649   2.167  0.00  0.00     0.048 A 
ATOM      4  C3  UNL d   1      -0.172   0.307   2.432  0.00  0.00     0.023 A 
ATOM      5  C4  UNL d   1      -0.644  -0.972   2.137  0.00  0.00     0.048 A 
ATOM      6  C5  UNL d   1       0.218  -1.914   1.573  0.00  0.00     0.003 A 
ATOM      7  I   UNL d   1      -1.453   1.713   3.271  0.00  0.00    -0.146 I 
ENDROOT
TORSDOF 0
ENDMDL
