MODEL 1
REMARK minimizedAffinity 10.8239708
REMARK minimizedRMSD -1
REMARK  0 active torsions:
REMARK  status: ('A' for Active; 'I' for Inactive)
ROOT
ATOM      1  C   UNL d   1       1.163  -2.248   1.712  0.00  0.00     0.023 A 
ATOM      2  C1  UNL d   1       1.863  -1.183   2.279  0.00  0.00     0.003 A 
ATOM      3  C2  UNL d   1       1.173  -0.061   2.744  0.00  0.00     0.048 A 
ATOM      4  C3  UNL d   1      -0.216  -0.012   2.641  0.00  0.00     0.023 A 
ATOM      5  C4  UNL d   1      -0.921  -1.076   2.075  0.00  0.00     0.048 A 
ATOM      6  C5  UNL d   1      -0.227  -2.194   1.611  0.00  0.00     0.003 A 
ATOM      7  I   UNL d   1      -1.245   1.657   3.333  0.00  0.00    -0.146 I 
ENDROOT
TORSDOF 0
ENDMDL
