MODEL 1
REMARK minimizedAffinity 6.87589979
REMARK minimizedRMSD -1
REMARK  0 active torsions:
REMARK  status: ('A' for Active; 'I' for Inactive)
ROOT
ATOM      1  C   UNL d   1       4.040   5.876   5.999  0.00  0.00     0.023 A 
ATOM      2  C1  UNL d   1       3.256   4.874   5.427  0.00  0.00     0.003 A 
ATOM      3  C2  UNL d   1       3.816   3.987   4.506  0.00  0.00     0.048 A 
ATOM      4  C3  UNL d   1       5.163   4.106   4.163  0.00  0.00     0.023 A 
ATOM      5  C4  UNL d   1       5.952   5.106   4.734  0.00  0.00     0.048 A 
ATOM      6  C5  UNL d   1       5.386   5.991   5.653  0.00  0.00     0.003 A 
ATOM      7  I   UNL d   1       6.000   2.786   2.793  0.00  0.00    -0.146 I 
ENDROOT
TORSDOF 0
ENDMDL
