MODEL 1
REMARK minimizedAffinity -0.81595099
REMARK minimizedRMSD -1
REMARK  0 active torsions:
REMARK  status: ('A' for Active; 'I' for Inactive)
ROOT
ATOM      1  C   UNL d   1      -4.140   5.454  -1.328  0.00  0.00     0.023 A 
ATOM      2  C1  UNL d   1      -5.403   5.999  -1.095  0.00  0.00     0.003 A 
ATOM      3  C2  UNL d   1      -5.938   5.999   0.194  0.00  0.00     0.048 A 
ATOM      4  C3  UNL d   1      -5.205   5.452   1.247  0.00  0.00     0.023 A 
ATOM      5  C4  UNL d   1      -3.941   4.906   1.019  0.00  0.00     0.048 A 
ATOM      6  C5  UNL d   1      -3.410   4.907  -0.272  0.00  0.00     0.003 A 
ATOM      7  I   UNL d   1      -6.000   5.450   3.168  0.00  0.00    -0.146 I 
ENDROOT
TORSDOF 0
ENDMDL
