MODEL 1
REMARK minimizedAffinity 10.0916433
REMARK minimizedRMSD -1
REMARK  0 active torsions:
REMARK  status: ('A' for Active; 'I' for Inactive)
ROOT
ATOM      1  C   UNL d   1      -5.787   5.659  -5.651  0.00  0.00     0.023 A 
ATOM      2  C1  UNL d   1      -4.732   6.000  -4.804  0.00  0.00     0.003 A 
ATOM      3  C2  UNL d   1      -3.889   5.006  -4.302  0.00  0.00     0.048 A 
ATOM      4  C3  UNL d   1      -4.106   3.674  -4.652  0.00  0.00     0.023 A 
ATOM      5  C4  UNL d   1      -5.159   3.329  -5.500  0.00  0.00     0.048 A 
ATOM      6  C5  UNL d   1      -6.000   4.325  -5.999  0.00  0.00     0.003 A 
ATOM      7  I   UNL d   1      -2.853   2.194  -3.906  0.00  0.00    -0.146 I 
ENDROOT
TORSDOF 0
ENDMDL
