MODEL 1
REMARK minimizedAffinity 15.4402895
REMARK minimizedRMSD -1
REMARK  0 active torsions:
REMARK  status: ('A' for Active; 'I' for Inactive)
ROOT
ATOM      1  C   UNL d   1      -2.389  -1.704   1.646  0.00  0.00     0.023 A 
ATOM      2  C1  UNL d   1      -1.342  -2.423   1.068  0.00  0.00     0.003 A 
ATOM      3  C2  UNL d   1      -1.215  -2.478  -0.321  0.00  0.00     0.048 A 
ATOM      4  C3  UNL d   1      -2.138  -1.812  -1.127  0.00  0.00     0.023 A 
ATOM      5  C4  UNL d   1      -3.186  -1.091  -0.554  0.00  0.00     0.048 A 
ATOM      6  C5  UNL d   1      -3.310  -1.039   0.836  0.00  0.00     0.003 A 
ATOM      7  I   UNL d   1      -1.950  -1.892  -3.196  0.00  0.00    -0.146 I 
ENDROOT
TORSDOF 0
ENDMDL
