MODEL 1
REMARK minimizedAffinity 12.6875172
REMARK minimizedRMSD -1
REMARK  0 active torsions:
REMARK  status: ('A' for Active; 'I' for Inactive)
ROOT
ATOM      1  C   UNL d   1       5.997   0.569  -4.661  0.00  0.00     0.023 A 
ATOM      2  C1  UNL d   1       5.176   1.651  -4.343  0.00  0.00     0.003 A 
ATOM      3  C2  UNL d   1       4.099   1.478  -3.471  0.00  0.00     0.048 A 
ATOM      4  C3  UNL d   1       3.849   0.222  -2.921  0.00  0.00     0.023 A 
ATOM      5  C4  UNL d   1       4.668  -0.864  -3.236  0.00  0.00     0.048 A 
ATOM      6  C5  UNL d   1       5.744  -0.687  -4.108  0.00  0.00     0.003 A 
ATOM      7  I   UNL d   1       2.246  -0.037  -1.623  0.00  0.00    -0.146 I 
ENDROOT
TORSDOF 0
ENDMDL
