MODEL 1
REMARK minimizedAffinity 14.9538908
REMARK minimizedRMSD -1
REMARK  0 active torsions:
REMARK  status: ('A' for Active; 'I' for Inactive)
ROOT
ATOM      1  C   UNL d   1       5.563   5.656   1.493  0.00  0.00     0.023 A 
ATOM      2  C1  UNL d   1       5.136   4.560   2.243  0.00  0.00     0.003 A 
ATOM      3  C2  UNL d   1       4.562   3.457   1.607  0.00  0.00     0.048 A 
ATOM      4  C3  UNL d   1       4.419   3.457   0.220  0.00  0.00     0.023 A 
ATOM      5  C4  UNL d   1       4.846   4.550  -0.535  0.00  0.00     0.048 A 
ATOM      6  C5  UNL d   1       5.418   5.651   0.106  0.00  0.00     0.003 A 
ATOM      7  I   UNL d   1       3.566   1.816  -0.729  0.00  0.00    -0.146 I 
ENDROOT
TORSDOF 0
ENDMDL
