MODEL 1
REMARK minimizedAffinity 5.3207984
REMARK minimizedRMSD -1
REMARK  0 active torsions:
REMARK  status: ('A' for Active; 'I' for Inactive)
ROOT
ATOM      1  C   UNL d   1      -5.998   5.668  -4.860  0.00  0.00     0.023 A 
ATOM      2  C1  UNL d   1      -4.883   6.000  -4.090  0.00  0.00     0.003 A 
ATOM      3  C2  UNL d   1      -3.767   5.161  -4.076  0.00  0.00     0.048 A 
ATOM      4  C3  UNL d   1      -3.772   3.991  -4.835  0.00  0.00     0.023 A 
ATOM      5  C4  UNL d   1      -4.884   3.655  -5.608  0.00  0.00     0.048 A 
ATOM      6  C5  UNL d   1      -5.998   4.497  -5.618  0.00  0.00     0.003 A 
ATOM      7  I   UNL d   1      -2.112   2.741  -4.816  0.00  0.00    -0.146 I 
ENDROOT
TORSDOF 0
ENDMDL
