MODEL 1
REMARK minimizedAffinity 15.2441607
REMARK minimizedRMSD -1
REMARK  0 active torsions:
REMARK  status: ('A' for Active; 'I' for Inactive)
ROOT
ATOM      1  C   UNL d   1      -1.260  -2.317  -0.885  0.00  0.00     0.023 A 
ATOM      2  C1  UNL d   1      -1.795  -1.152  -0.336  0.00  0.00     0.003 A 
ATOM      3  C2  UNL d   1      -1.864  -0.999   1.050  0.00  0.00     0.048 A 
ATOM      4  C3  UNL d   1      -1.395  -2.015   1.882  0.00  0.00     0.023 A 
ATOM      5  C4  UNL d   1      -0.857  -3.183   1.337  0.00  0.00     0.048 A 
ATOM      6  C5  UNL d   1      -0.791  -3.332  -0.050  0.00  0.00     0.003 A 
ATOM      7  I   UNL d   1      -1.496  -1.790   3.945  0.00  0.00    -0.146 I 
ENDROOT
TORSDOF 0
ENDMDL
