MODEL 1
REMARK minimizedAffinity 7.95365191
REMARK minimizedRMSD -1
REMARK  0 active torsions:
REMARK  status: ('A' for Active; 'I' for Inactive)
ROOT
ATOM      1  C   UNL d   1      -0.833  -0.873   0.183  0.00  0.00     0.023 A 
ATOM      2  C1  UNL d   1      -1.134  -1.030   1.536  0.00  0.00     0.003 A 
ATOM      3  C2  UNL d   1      -2.340  -1.621   1.920  0.00  0.00     0.048 A 
ATOM      4  C3  UNL d   1      -3.240  -2.052   0.945  0.00  0.00     0.023 A 
ATOM      5  C4  UNL d   1      -2.942  -1.898  -0.410  0.00  0.00     0.048 A 
ATOM      6  C5  UNL d   1      -1.736  -1.306  -0.789  0.00  0.00     0.003 A 
ATOM      7  I   UNL d   1      -5.035  -2.931   1.514  0.00  0.00    -0.146 I 
ENDROOT
TORSDOF 0
ENDMDL
