MODEL 1
REMARK minimizedAffinity 15.9952316
REMARK minimizedRMSD -1
REMARK  0 active torsions:
REMARK  status: ('A' for Active; 'I' for Inactive)
ROOT
ATOM      1  C   UNL d   1      -1.541  -2.146   2.153  0.00  0.00     0.023 A 
ATOM      2  C1  UNL d   1      -1.796  -0.944   1.493  0.00  0.00     0.003 A 
ATOM      3  C2  UNL d   1      -1.526  -0.824   0.128  0.00  0.00     0.048 A 
ATOM      4  C3  UNL d   1      -1.002  -1.912  -0.570  0.00  0.00     0.023 A 
ATOM      5  C4  UNL d   1      -0.746  -3.117   0.086  0.00  0.00     0.048 A 
ATOM      6  C5  UNL d   1      -1.017  -3.231   1.451  0.00  0.00     0.003 A 
ATOM      7  I   UNL d   1      -0.599  -1.736  -2.602  0.00  0.00    -0.146 I 
ENDROOT
TORSDOF 0
ENDMDL
