MODEL 1
REMARK minimizedAffinity 12.2900105
REMARK minimizedRMSD -1
REMARK  0 active torsions:
REMARK  status: ('A' for Active; 'I' for Inactive)
ROOT
ATOM      1  C   UNL d   1      -1.764  -3.440   5.690  0.00  0.00     0.023 A 
ATOM      2  C1  UNL d   1      -0.823  -2.445   5.954  0.00  0.00     0.003 A 
ATOM      3  C2  UNL d   1      -1.215  -1.105   5.998  0.00  0.00     0.048 A 
ATOM      4  C3  UNL d   1      -2.550  -0.769   5.777  0.00  0.00     0.023 A 
ATOM      5  C4  UNL d   1      -3.495  -1.761   5.513  0.00  0.00     0.048 A 
ATOM      6  C5  UNL d   1      -3.098  -3.099   5.470  0.00  0.00     0.003 A 
ATOM      7  I   UNL d   1      -3.137   1.224   5.841  0.00  0.00    -0.146 I 
ENDROOT
TORSDOF 0
ENDMDL
