MODEL 1
REMARK minimizedAffinity 5.83842564
REMARK minimizedRMSD -1
REMARK  0 active torsions:
REMARK  status: ('A' for Active; 'I' for Inactive)
ROOT
ATOM      1  C   UNL d   1      -2.204  -2.977   5.985  0.00  0.00     0.023 A 
ATOM      2  C1  UNL d   1      -1.211  -1.997   5.992  0.00  0.00     0.003 A 
ATOM      3  C2  UNL d   1      -1.562  -0.646   5.995  0.00  0.00     0.048 A 
ATOM      4  C3  UNL d   1      -2.908  -0.281   5.992  0.00  0.00     0.023 A 
ATOM      5  C4  UNL d   1      -3.905  -1.258   5.986  0.00  0.00     0.048 A 
ATOM      6  C5  UNL d   1      -3.549  -2.608   5.982  0.00  0.00     0.003 A 
ATOM      7  I   UNL d   1      -3.434   1.730   5.997  0.00  0.00    -0.146 I 
ENDROOT
TORSDOF 0
ENDMDL
