MODEL 1
REMARK minimizedAffinity 3.45927358
REMARK minimizedRMSD -1
REMARK  0 active torsions:
REMARK  status: ('A' for Active; 'I' for Inactive)
ROOT
ATOM      1  C   UNL d   1      -0.332   3.955  -1.986  0.00  0.00     0.124 A 
ATOM      2  C1  UNL d   1       0.284   4.441  -0.841  0.00  0.00     0.062 A 
ATOM      3  C2  UNL d   1       0.150   3.764   0.367  0.00  0.00     0.162 A 
ATOM      4  C3  UNL d   1      -0.603   2.592   0.437  0.00  0.00    -0.034 A 
ATOM      5  C4  UNL d   1      -1.220   2.109  -0.718  0.00  0.00     0.162 A 
ATOM      6  C5  UNL d   1      -1.083   2.790  -1.924  0.00  0.00     0.062 A 
ATOM      7  F   UNL d   1      -1.679   2.318  -3.029  0.00  0.00    -0.097 F 
ATOM      8  F1  UNL d   1      -1.951   0.985  -0.686  0.00  0.00    -0.096 F 
ATOM      9  I   UNL d   1      -0.806   1.576   2.242  0.00  0.00    -0.060 I 
ATOM     10  F2  UNL d   1       0.757   4.257   1.457  0.00  0.00    -0.096 F 
ATOM     11  F3  UNL d   1       1.010   5.567  -0.899  0.00  0.00    -0.097 F 
ATOM     12  F4  UNL d   1      -0.202   4.609  -3.148  0.00  0.00    -0.092 F 
ENDROOT
TORSDOF 0
ENDMDL
