MODEL 1
REMARK minimizedAffinity 16.245554
REMARK minimizedRMSD -1
REMARK  0 active torsions:
REMARK  status: ('A' for Active; 'I' for Inactive)
ROOT
ATOM      1  C   UNL d   1      -0.247   3.858  -0.328  0.00  0.00     0.124 A 
ATOM      2  C1  UNL d   1       0.350   2.717   0.188  0.00  0.00     0.062 A 
ATOM      3  C2  UNL d   1      -0.302   1.962   1.158  0.00  0.00     0.162 A 
ATOM      4  C3  UNL d   1      -1.561   2.347   1.620  0.00  0.00    -0.034 A 
ATOM      5  C4  UNL d   1      -2.156   3.497   1.098  0.00  0.00     0.162 A 
ATOM      6  C5  UNL d   1      -1.499   4.248   0.128  0.00  0.00     0.062 A 
ATOM      7  F   UNL d   1      -2.078   5.351  -0.369  0.00  0.00    -0.097 F 
ATOM      8  F1  UNL d   1      -3.365   3.895   1.519  0.00  0.00    -0.096 F 
ATOM      9  I   UNL d   1      -2.541   1.221   3.071  0.00  0.00    -0.060 I 
ATOM     10  F2  UNL d   1       0.299   0.863   1.638  0.00  0.00    -0.096 F 
ATOM     11  F3  UNL d   1       1.560   2.339  -0.250  0.00  0.00    -0.097 F 
ATOM     12  F4  UNL d   1       0.383   4.583  -1.261  0.00  0.00    -0.092 F 
ENDROOT
TORSDOF 0
ENDMDL
