MODEL 1
REMARK minimizedAffinity 3.18278217
REMARK minimizedRMSD -1
REMARK  0 active torsions:
REMARK  status: ('A' for Active; 'I' for Inactive)
ROOT
ATOM      1  C   UNL d   1       0.373   3.059   2.360  0.00  0.00     0.124 A 
ATOM      2  C1  UNL d   1       0.924   4.094   1.617  0.00  0.00     0.062 A 
ATOM      3  C2  UNL d   1       0.629   4.218   0.263  0.00  0.00     0.162 A 
ATOM      4  C3  UNL d   1      -0.223   3.305  -0.358  0.00  0.00    -0.034 A 
ATOM      5  C4  UNL d   1      -0.773   2.266   0.395  0.00  0.00     0.162 A 
ATOM      6  C5  UNL d   1      -0.475   2.146   1.748  0.00  0.00     0.062 A 
ATOM      7  F   UNL d   1      -1.008   1.146   2.464  0.00  0.00    -0.097 F 
ATOM      8  F1  UNL d   1      -1.596   1.370  -0.171  0.00  0.00    -0.096 F 
ATOM      9  I   UNL d   1      -0.668   3.487  -2.383  0.00  0.00    -0.060 I 
ATOM     10  F2  UNL d   1       1.175   5.228  -0.430  0.00  0.00    -0.096 F 
ATOM     11  F3  UNL d   1       1.744   4.977   2.205  0.00  0.00    -0.097 F 
ATOM     12  F4  UNL d   1       0.660   2.942   3.663  0.00  0.00    -0.092 F 
ENDROOT
TORSDOF 0
ENDMDL
