MODEL 1
REMARK minimizedAffinity 5.62364197
REMARK minimizedRMSD -1
REMARK  0 active torsions:
REMARK  status: ('A' for Active; 'I' for Inactive)
ROOT
ATOM      1  C   UNL d   1       0.569   2.862   2.685  0.00  0.00     0.124 A 
ATOM      2  C1  UNL d   1      -0.367   2.018   2.104  0.00  0.00     0.062 A 
ATOM      3  C2  UNL d   1      -0.671   2.136   0.751  0.00  0.00     0.162 A 
ATOM      4  C3  UNL d   1      -0.039   3.103  -0.031  0.00  0.00    -0.034 A 
ATOM      5  C4  UNL d   1       0.900   3.949   0.561  0.00  0.00     0.162 A 
ATOM      6  C5  UNL d   1       1.201   3.827   1.914  0.00  0.00     0.062 A 
ATOM      7  F   UNL d   1       2.105   4.644   2.474  0.00  0.00    -0.097 F 
ATOM      8  F1  UNL d   1       1.527   4.890  -0.161  0.00  0.00    -0.096 F 
ATOM      9  I   UNL d   1      -0.492   3.283  -2.054  0.00  0.00    -0.060 I 
ATOM     10  F2  UNL d   1      -1.579   1.307   0.216  0.00  0.00    -0.096 F 
ATOM     11  F3  UNL d   1      -0.980   1.085   2.847  0.00  0.00    -0.097 F 
ATOM     12  F4  UNL d   1       0.860   2.747   3.987  0.00  0.00    -0.092 F 
ENDROOT
TORSDOF 0
ENDMDL
