MODEL 1
REMARK minimizedAffinity 17.6917152
REMARK minimizedRMSD -1
REMARK  0 active torsions:
REMARK  status: ('A' for Active; 'I' for Inactive)
ROOT
ATOM      1  C   UNL d   1      -0.004   4.102  -2.264  0.00  0.00     0.124 A 
ATOM      2  C1  UNL d   1      -0.786   2.955  -2.232  0.00  0.00     0.062 A 
ATOM      3  C2  UNL d   1      -0.808   2.155  -1.093  0.00  0.00     0.162 A 
ATOM      4  C3  UNL d   1      -0.045   2.499   0.023  0.00  0.00    -0.034 A 
ATOM      5  C4  UNL d   1       0.739   3.653  -0.018  0.00  0.00     0.162 A 
ATOM      6  C5  UNL d   1       0.757   4.449  -1.158  0.00  0.00     0.062 A 
ATOM      7  F   UNL d   1       1.513   5.557  -1.187  0.00  0.00    -0.097 F 
ATOM      8  F1  UNL d   1       1.484   4.012   1.038  0.00  0.00    -0.096 F 
ATOM      9  I   UNL d   1      -0.075   1.305   1.727  0.00  0.00    -0.060 I 
ATOM     10  F2  UNL d   1      -1.572   1.053  -1.090  0.00  0.00    -0.096 F 
ATOM     11  F3  UNL d   1      -1.522   2.617  -3.300  0.00  0.00    -0.097 F 
ATOM     12  F4  UNL d   1       0.015   4.870  -3.362  0.00  0.00    -0.092 F 
ENDROOT
TORSDOF 0
ENDMDL
