MODEL 1
REMARK minimizedAffinity 22.1477928
REMARK minimizedRMSD -1
REMARK  0 active torsions:
REMARK  status: ('A' for Active; 'I' for Inactive)
ROOT
ATOM      1  C   UNL d   1       0.108   3.875  -1.797  0.00  0.00     0.124 A 
ATOM      2  C1  UNL d   1      -0.761   3.532  -2.824  0.00  0.00     0.062 A 
ATOM      3  C2  UNL d   1      -1.671   2.493  -2.653  0.00  0.00     0.162 A 
ATOM      4  C3  UNL d   1      -1.719   1.791  -1.449  0.00  0.00    -0.034 A 
ATOM      5  C4  UNL d   1      -0.842   2.141  -0.421  0.00  0.00     0.162 A 
ATOM      6  C5  UNL d   1       0.066   3.179  -0.597  0.00  0.00     0.062 A 
ATOM      7  F   UNL d   1       0.904   3.509   0.397  0.00  0.00    -0.097 F 
ATOM      8  F1  UNL d   1      -0.862   1.486   0.749  0.00  0.00    -0.096 F 
ATOM      9  I   UNL d   1      -3.080   0.237  -1.189  0.00  0.00    -0.060 I 
ATOM     10  F2  UNL d   1      -2.498   2.183  -3.662  0.00  0.00    -0.096 F 
ATOM     11  F3  UNL d   1      -0.722   4.202  -3.985  0.00  0.00    -0.097 F 
ATOM     12  F4  UNL d   1       0.984   4.874  -1.964  0.00  0.00    -0.092 F 
ENDROOT
TORSDOF 0
ENDMDL
