MODEL 1
REMARK minimizedAffinity 13.6989946
REMARK minimizedRMSD -1
REMARK  0 active torsions:
REMARK  status: ('A' for Active; 'I' for Inactive)
ROOT
ATOM      1  C   UNL d   1      -0.840   3.437  -2.213  0.00  0.00     0.124 A 
ATOM      2  C1  UNL d   1      -1.709   2.391  -1.932  0.00  0.00     0.062 A 
ATOM      3  C2  UNL d   1      -1.774   1.861  -0.647  0.00  0.00     0.162 A 
ATOM      4  C3  UNL d   1      -0.967   2.375   0.369  0.00  0.00    -0.034 A 
ATOM      5  C4  UNL d   1      -0.095   3.426   0.078  0.00  0.00     0.162 A 
ATOM      6  C5  UNL d   1      -0.034   3.953  -1.208  0.00  0.00     0.062 A 
ATOM      7  F   UNL d   1       0.806   4.963  -1.477  0.00  0.00    -0.097 F 
ATOM      8  F1  UNL d   1       0.694   3.945   1.031  0.00  0.00    -0.096 F 
ATOM      9  I   UNL d   1      -1.060   1.585   2.291  0.00  0.00    -0.060 I 
ATOM     10  F2  UNL d   1      -2.622   0.851  -0.404  0.00  0.00    -0.096 F 
ATOM     11  F3  UNL d   1      -2.488   1.890  -2.901  0.00  0.00    -0.097 F 
ATOM     12  F4  UNL d   1      -0.780   3.945  -3.450  0.00  0.00    -0.092 F 
ENDROOT
TORSDOF 0
ENDMDL
