MODEL 1
REMARK minimizedAffinity 19.4162884
REMARK minimizedRMSD -1
REMARK  0 active torsions:
REMARK  status: ('A' for Active; 'I' for Inactive)
ROOT
ATOM      1  C   UNL d   1      -4.724  -3.994   4.893  0.00  0.00     0.124 A 
ATOM      2  C1  UNL d   1      -5.349  -4.463   3.746  0.00  0.00     0.062 A 
ATOM      3  C2  UNL d   1      -5.383  -3.679   2.597  0.00  0.00     0.162 A 
ATOM      4  C3  UNL d   1      -4.789  -2.417   2.588  0.00  0.00    -0.034 A 
ATOM      5  C4  UNL d   1      -4.163  -1.951   3.745  0.00  0.00     0.162 A 
ATOM      6  C5  UNL d   1      -4.131  -2.739   4.892  0.00  0.00     0.062 A 
ATOM      7  F   UNL d   1      -3.527  -2.283   5.999  0.00  0.00    -0.097 F 
ATOM      8  F1  UNL d   1      -3.582  -0.743   3.771  0.00  0.00    -0.096 F 
ATOM      9  I   UNL d   1      -4.838  -1.242   0.871  0.00  0.00    -0.060 I 
ATOM     10  F2  UNL d   1      -5.994  -4.158   1.503  0.00  0.00    -0.096 F 
ATOM     11  F3  UNL d   1      -5.923  -5.675   3.746  0.00  0.00    -0.097 F 
ATOM     12  F4  UNL d   1      -4.693  -4.750   5.998  0.00  0.00    -0.092 F 
ENDROOT
TORSDOF 0
ENDMDL
