MODEL 1
REMARK minimizedAffinity 20.8480282
REMARK minimizedRMSD -1
REMARK  0 active torsions:
REMARK  status: ('A' for Active; 'I' for Inactive)
ROOT
ATOM      1  C   UNL d   1       0.394   2.790   2.156  0.00  0.00     0.124 A 
ATOM      2  C1  UNL d   1       1.009   3.752   1.368  0.00  0.00     0.062 A 
ATOM      3  C2  UNL d   1       0.652   3.893   0.030  0.00  0.00     0.162 A 
ATOM      4  C3  UNL d   1      -0.326   3.070  -0.529  0.00  0.00    -0.034 A 
ATOM      5  C4  UNL d   1      -0.939   2.104   0.270  0.00  0.00     0.162 A 
ATOM      6  C5  UNL d   1      -0.579   1.967   1.607  0.00  0.00     0.062 A 
ATOM      7  F   UNL d   1      -1.175   1.036   2.367  0.00  0.00    -0.097 F 
ATOM      8  F1  UNL d   1      -1.883   1.295  -0.234  0.00  0.00    -0.096 F 
ATOM      9  I   UNL d   1      -0.862   3.278  -2.529  0.00  0.00    -0.060 I 
ATOM     10  F2  UNL d   1       1.263   4.832  -0.709  0.00  0.00    -0.096 F 
ATOM     11  F3  UNL d   1       1.950   4.548   1.896  0.00  0.00    -0.097 F 
ATOM     12  F4  UNL d   1       0.739   2.656   3.443  0.00  0.00    -0.092 F 
ENDROOT
TORSDOF 0
ENDMDL
