MODEL 1
REMARK minimizedAffinity 2.09183502
REMARK minimizedRMSD -1
REMARK  0 active torsions:
REMARK  status: ('A' for Active; 'I' for Inactive)
ROOT
ATOM      1  C   UNL d   1      -1.581  -2.427   4.539  0.00  0.00     0.124 A 
ATOM      2  C1  UNL d   1      -1.810  -3.576   3.794  0.00  0.00     0.062 A 
ATOM      3  C2  UNL d   1      -3.070  -4.167   3.788  0.00  0.00     0.162 A 
ATOM      4  C3  UNL d   1      -4.112  -3.610   4.529  0.00  0.00    -0.034 A 
ATOM      5  C4  UNL d   1      -3.874  -2.455   5.276  0.00  0.00     0.162 A 
ATOM      6  C5  UNL d   1      -2.613  -1.868   5.279  0.00  0.00     0.062 A 
ATOM      7  F   UNL d   1      -2.395  -0.758   5.999  0.00  0.00    -0.097 F 
ATOM      8  F1  UNL d   1      -4.854  -1.893   6.000  0.00  0.00    -0.096 F 
ATOM      9  I   UNL d   1      -5.998  -4.491   4.522  0.00  0.00    -0.060 I 
ATOM     10  F2  UNL d   1      -3.262  -5.277   3.059  0.00  0.00    -0.096 F 
ATOM     11  F3  UNL d   1      -0.814  -4.119   3.079  0.00  0.00    -0.097 F 
ATOM     12  F4  UNL d   1      -0.368  -1.861   4.544  0.00  0.00    -0.092 F 
ENDROOT
TORSDOF 0
ENDMDL
