MODEL 1
REMARK minimizedAffinity 10.2226734
REMARK minimizedRMSD -1
REMARK  0 active torsions:
REMARK  status: ('A' for Active; 'I' for Inactive)
ROOT
ATOM      1  C   UNL d   1      -1.238   1.227   3.031  0.00  0.00     0.124 A 
ATOM      2  C1  UNL d   1      -0.299   2.248   3.029  0.00  0.00     0.062 A 
ATOM      3  C2  UNL d   1       0.130   2.803   1.827  0.00  0.00     0.162 A 
ATOM      4  C3  UNL d   1      -0.382   2.338   0.615  0.00  0.00    -0.034 A 
ATOM      5  C4  UNL d   1      -1.327   1.309   0.626  0.00  0.00     0.162 A 
ATOM      6  C5  UNL d   1      -1.751   0.758   1.830  0.00  0.00     0.062 A 
ATOM      7  F   UNL d   1      -2.659  -0.229   1.830  0.00  0.00    -0.097 F 
ATOM      8  F1  UNL d   1      -1.839   0.838  -0.521  0.00  0.00    -0.096 F 
ATOM      9  I   UNL d   1       0.255   3.164  -1.185  0.00  0.00    -0.060 I 
ATOM     10  F2  UNL d   1       1.039   3.789   1.855  0.00  0.00    -0.096 F 
ATOM     11  F3  UNL d   1       0.199   2.702   4.189  0.00  0.00    -0.097 F 
ATOM     12  F4  UNL d   1      -1.648   0.694   4.190  0.00  0.00    -0.092 F 
ENDROOT
TORSDOF 0
ENDMDL
