MODEL 1
REMARK minimizedAffinity 7.0852437
REMARK minimizedRMSD -1
REMARK  0 active torsions:
REMARK  status: ('A' for Active; 'I' for Inactive)
ROOT
ATOM      1  C   UNL d   1      -3.262   0.894  -2.488  0.00  0.00     0.124 A 
ATOM      2  C1  UNL d   1      -3.096   0.488  -1.171  0.00  0.00     0.062 A 
ATOM      3  C2  UNL d   1      -3.834  -0.580  -0.670  0.00  0.00     0.162 A 
ATOM      4  C3  UNL d   1      -4.745  -1.251  -1.486  0.00  0.00    -0.034 A 
ATOM      5  C4  UNL d   1      -4.907  -0.835  -2.809  0.00  0.00     0.162 A 
ATOM      6  C5  UNL d   1      -4.167   0.233  -3.306  0.00  0.00     0.062 A 
ATOM      7  F   UNL d   1      -4.329   0.624  -4.578  0.00  0.00    -0.097 F 
ATOM      8  F1  UNL d   1      -5.775  -1.457  -3.622  0.00  0.00    -0.096 F 
ATOM      9  I   UNL d   1      -5.851  -2.848  -0.741  0.00  0.00    -0.060 I 
ATOM     10  F2  UNL d   1      -3.653  -0.952   0.606  0.00  0.00    -0.096 F 
ATOM     11  F3  UNL d   1      -2.222   1.126  -0.379  0.00  0.00    -0.097 F 
ATOM     12  F4  UNL d   1      -2.551   1.923  -2.967  0.00  0.00    -0.092 F 
ENDROOT
TORSDOF 0
ENDMDL
