MODEL 1
REMARK minimizedAffinity 8.41287041
REMARK minimizedRMSD -1
REMARK  0 active torsions:
REMARK  status: ('A' for Active; 'I' for Inactive)
ROOT
ATOM      1  C   UNL d   1      -1.183   1.176   3.480  0.00  0.00     0.124 A 
ATOM      2  C1  UNL d   1      -0.222   2.176   3.546  0.00  0.00     0.062 A 
ATOM      3  C2  UNL d   1       0.214   2.805   2.383  0.00  0.00     0.162 A 
ATOM      4  C3  UNL d   1      -0.311   2.438   1.144  0.00  0.00    -0.034 A 
ATOM      5  C4  UNL d   1      -1.276   1.431   1.086  0.00  0.00     0.162 A 
ATOM      6  C5  UNL d   1      -1.709   0.804   2.250  0.00  0.00     0.062 A 
ATOM      7  F   UNL d   1      -2.637  -0.161   2.185  0.00  0.00    -0.097 F 
ATOM      8  F1  UNL d   1      -1.802   1.052  -0.089  0.00  0.00    -0.096 F 
ATOM      9  I   UNL d   1       0.338   3.377  -0.596  0.00  0.00    -0.060 I 
ATOM     10  F2  UNL d   1       1.143   3.768   2.477  0.00  0.00    -0.096 F 
ATOM     11  F3  UNL d   1       0.288   2.536   4.732  0.00  0.00    -0.097 F 
ATOM     12  F4  UNL d   1      -1.600   0.571   4.599  0.00  0.00    -0.092 F 
ENDROOT
TORSDOF 0
ENDMDL
