MODEL 1
REMARK minimizedAffinity 5.65919352
REMARK minimizedRMSD -1
REMARK  0 active torsions:
REMARK  status: ('A' for Active; 'I' for Inactive)
ROOT
ATOM      1  C1  DEN d   1      -0.803  -3.179  -1.749  0.00  0.00     0.130 A 
ATOM      2  C2  DEN d   1      -0.913  -4.514  -1.168  0.00  0.00    -0.031 A 
ATOM      3  C3  DEN d   1       0.278  -4.745  -0.326  0.00  0.00     0.027 A 
ATOM      4  C4  DEN d   1       2.268  -3.172   0.137  0.00  0.00     0.027 A 
ATOM      5  C5  DEN d   1       2.812  -1.937  -0.143  0.00  0.00    -0.003 A 
ATOM      6  C6  DEN d   1       2.211  -1.051  -0.997  0.00  0.00     0.001 A 
ATOM      7  C7  DEN d   1       1.006  -1.369  -1.568  0.00  0.00     0.017 A 
ATOM      8  C8  DEN d   1       0.455  -2.614  -1.296  0.00  0.00    -0.094 A 
ATOM      9  C9  DEN d   1       1.073  -3.491  -0.420  0.00  0.00    -0.072 A 
ENDROOT
TORSDOF 0
ENDMDL
