MODEL 1
REMARK minimizedAffinity 1.27672577
REMARK minimizedRMSD -1
REMARK  0 active torsions:
REMARK  status: ('A' for Active; 'I' for Inactive)
ROOT
ATOM      1  C1  DEN d   1      -5.678   1.119  -0.896  0.00  0.00     0.130 A 
ATOM      2  C2  DEN d   1      -4.940  -0.085  -0.524  0.00  0.00    -0.031 A 
ATOM      3  C3  DEN d   1      -4.130  -0.502  -1.687  0.00  0.00     0.027 A 
ATOM      4  C4  DEN d   1      -3.945   0.597  -4.013  0.00  0.00     0.027 A 
ATOM      5  C5  DEN d   1      -4.391   1.632  -4.804  0.00  0.00    -0.003 A 
ATOM      6  C6  DEN d   1      -5.316   2.542  -4.363  0.00  0.00     0.001 A 
ATOM      7  C7  DEN d   1      -5.791   2.460  -3.081  0.00  0.00     0.017 A 
ATOM      8  C8  DEN d   1      -5.351   1.415  -2.280  0.00  0.00    -0.094 A 
ATOM      9  C9  DEN d   1      -4.406   0.512  -2.739  0.00  0.00    -0.072 A 
ENDROOT
TORSDOF 0
ENDMDL
