MODEL 1
REMARK minimizedAffinity 8.55655575
REMARK minimizedRMSD -1
REMARK  0 active torsions:
REMARK  status: ('A' for Active; 'I' for Inactive)
ROOT
ATOM      1  C1  DEN d   1       0.109   2.862  -0.015  0.00  0.00     0.130 A 
ATOM      2  C2  DEN d   1       1.329   2.126   0.306  0.00  0.00    -0.031 A 
ATOM      3  C3  DEN d   1       1.208   1.623   1.689  0.00  0.00     0.027 A 
ATOM      4  C4  DEN d   1      -0.740   1.907   3.355  0.00  0.00     0.027 A 
ATOM      5  C5  DEN d   1      -1.987   2.463   3.540  0.00  0.00    -0.003 A 
ATOM      6  C6  DEN d   1      -2.602   3.214   2.573  0.00  0.00     0.001 A 
ATOM      7  C7  DEN d   1      -1.991   3.391   1.360  0.00  0.00     0.017 A 
ATOM      8  C8  DEN d   1      -0.731   2.839   1.169  0.00  0.00    -0.094 A 
ATOM      9  C9  DEN d   1      -0.131   2.073   2.154  0.00  0.00    -0.072 A 
ENDROOT
TORSDOF 0
ENDMDL
