MODEL 1
REMARK minimizedAffinity 5.4206481
REMARK minimizedRMSD -1
REMARK  0 active torsions:
REMARK  status: ('A' for Active; 'I' for Inactive)
ROOT
ATOM      1  C1  DEN d   1      -0.604   3.653   1.549  0.00  0.00     0.130 A 
ATOM      2  C2  DEN d   1      -0.980   3.875   0.155  0.00  0.00    -0.031 A 
ATOM      3  C3  DEN d   1       0.016   3.199  -0.700  0.00  0.00     0.027 A 
ATOM      4  C4  DEN d   1       2.091   1.834  -0.005  0.00  0.00     0.027 A 
ATOM      5  C5  DEN d   1       2.829   1.380   1.066  0.00  0.00    -0.003 A 
ATOM      6  C6  DEN d   1       2.496   1.678   2.361  0.00  0.00     0.001 A 
ATOM      7  C7  DEN d   1       1.371   2.414   2.620  0.00  0.00     0.017 A 
ATOM      8  C8  DEN d   1       0.626   2.882   1.546  0.00  0.00    -0.094 A 
ATOM      9  C9  DEN d   1       0.972   2.560   0.244  0.00  0.00    -0.072 A 
ENDROOT
TORSDOF 0
ENDMDL
