MODEL 1
REMARK minimizedAffinity 6.03407288
REMARK minimizedRMSD -1
REMARK  0 active torsions:
REMARK  status: ('A' for Active; 'I' for Inactive)
ROOT
ATOM      1  C1  DEN d   1      -0.062  -4.109   0.321  0.00  0.00     0.130 A 
ATOM      2  C2  DEN d   1      -0.429  -4.032  -1.091  0.00  0.00    -0.031 A 
ATOM      3  C3  DEN d   1       0.450  -3.037  -1.737  0.00  0.00     0.027 A 
ATOM      4  C4  DEN d   1       2.335  -1.618  -0.696  0.00  0.00     0.027 A 
ATOM      5  C5  DEN d   1       3.008  -1.327   0.470  0.00  0.00    -0.003 A 
ATOM      6  C6  DEN d   1       2.685  -1.913   1.665  0.00  0.00     0.001 A 
ATOM      7  C7  DEN d   1       1.691  -2.854   1.712  0.00  0.00     0.017 A 
ATOM      8  C8  DEN d   1       1.003  -3.148   0.542  0.00  0.00    -0.094 A 
ATOM      9  C9  DEN d   1       1.353  -2.553  -0.658  0.00  0.00    -0.072 A 
ENDROOT
TORSDOF 0
ENDMDL
