MODEL 1
REMARK minimizedAffinity 4.86165142
REMARK minimizedRMSD -1
REMARK  0 active torsions:
REMARK  status: ('A' for Active; 'I' for Inactive)
ROOT
ATOM      1  C1  DEN d   1      -0.426  -0.774  -1.558  0.00  0.00     0.130 A 
ATOM      2  C2  DEN d   1      -1.155  -2.035  -1.453  0.00  0.00    -0.031 A 
ATOM      3  C3  DEN d   1      -0.304  -2.994  -0.720  0.00  0.00     0.027 A 
ATOM      4  C4  DEN d   1       2.056  -2.649   0.262  0.00  0.00     0.027 A 
ATOM      5  C5  DEN d   1       3.088  -1.749   0.413  0.00  0.00    -0.003 A 
ATOM      6  C6  DEN d   1       3.036  -0.484  -0.107  0.00  0.00     0.001 A 
ATOM      7  C7  DEN d   1       1.909  -0.066  -0.765  0.00  0.00     0.017 A 
ATOM      8  C8  DEN d   1       0.867  -0.969  -0.928  0.00  0.00    -0.094 A 
ATOM      9  C9  DEN d   1       0.934  -2.241  -0.384  0.00  0.00    -0.072 A 
ENDROOT
TORSDOF 0
ENDMDL
