MODEL 1
REMARK minimizedAffinity -3.90831566
REMARK minimizedRMSD -1
REMARK  0 active torsions:
REMARK  status: ('A' for Active; 'I' for Inactive)
ROOT
ATOM      1  C1  BNZ d   1       0.157   0.854  -0.041  0.00  0.00     0.000 A 
ATOM      2  C2  BNZ d   1       1.076  -0.149  -0.206  0.00  0.00     0.000 A 
ATOM      3  C3  BNZ d   1       0.949  -1.332   0.466  0.00  0.00     0.000 A 
ATOM      4  C4  BNZ d   1      -0.072  -1.497   1.331  0.00  0.00     0.000 A 
ATOM      5  C5  BNZ d   1      -1.001  -0.493   1.516  0.00  0.00     0.000 A 
ATOM      6  C6  BNZ d   1      -0.892   0.683   0.809  0.00  0.00     0.000 A 
ENDROOT
TORSDOF 0
ENDMDL
