MODEL 1
REMARK minimizedAffinity -2.91542149
REMARK minimizedRMSD -1
REMARK  0 active torsions:
REMARK  status: ('A' for Active; 'I' for Inactive)
ROOT
ATOM      1  C1  BNZ d   1       1.121  -0.351  -0.031  0.00  0.00     0.000 A 
ATOM      2  C2  BNZ d   1      -0.125   0.119   0.291  0.00  0.00     0.000 A 
ATOM      3  C3  BNZ d   1      -0.979  -0.628   1.053  0.00  0.00     0.000 A 
ATOM      4  C4  BNZ d   1      -0.603  -1.858   1.458  0.00  0.00     0.000 A 
ATOM      5  C5  BNZ d   1       0.646  -2.350   1.134  0.00  0.00     0.000 A 
ATOM      6  C6  BNZ d   1       1.518  -1.579   0.399  0.00  0.00     0.000 A 
ENDROOT
TORSDOF 0
ENDMDL
