MODEL 1
REMARK minimizedAffinity -4.45987606
REMARK minimizedRMSD -1
REMARK  0 active torsions:
REMARK  status: ('A' for Active; 'I' for Inactive)
ROOT
ATOM      1  C1  BNZ d   1      -0.233  -0.220   0.882  0.00  0.00     0.000 A 
ATOM      2  C2  BNZ d   1       0.041  -1.432   1.457  0.00  0.00     0.000 A 
ATOM      3  C3  BNZ d   1       1.178  -2.119   1.134  0.00  0.00     0.000 A 
ATOM      4  C4  BNZ d   1       2.018  -1.612   0.208  0.00  0.00     0.000 A 
ATOM      5  C5  BNZ d   1       1.750  -0.395  -0.387  0.00  0.00     0.000 A 
ATOM      6  C6  BNZ d   1       0.625   0.311  -0.031  0.00  0.00     0.000 A 
ENDROOT
TORSDOF 0
ENDMDL
