MODEL 1
REMARK minimizedAffinity -2.70609307
REMARK minimizedRMSD -1
REMARK  0 active torsions:
REMARK  status: ('A' for Active; 'I' for Inactive)
ROOT
ATOM      1  C1  BNZ d   1      -0.144   1.113  -0.190  0.00  0.00     0.000 A 
ATOM      2  C2  BNZ d   1       1.062   0.553  -0.521  0.00  0.00     0.000 A 
ATOM      3  C3  BNZ d   1       1.392  -0.702  -0.092  0.00  0.00     0.000 A 
ATOM      4  C4  BNZ d   1       0.536  -1.378   0.700  0.00  0.00     0.000 A 
ATOM      5  C5  BNZ d   1      -0.679  -0.824   1.050  0.00  0.00     0.000 A 
ATOM      6  C6  BNZ d   1      -1.025   0.424   0.584  0.00  0.00     0.000 A 
ENDROOT
TORSDOF 0
ENDMDL
