MODEL 1
REMARK minimizedAffinity -2.5984726
REMARK minimizedRMSD -1
REMARK  0 active torsions:
REMARK  status: ('A' for Active; 'I' for Inactive)
ROOT
ATOM      1  C1  BNZ d   1       0.726   0.152  -0.027  0.00  0.00     0.000 A 
ATOM      2  C2  BNZ d   1      -0.484   0.472   0.527  0.00  0.00     0.000 A 
ATOM      3  C3  BNZ d   1      -1.042  -0.317   1.494  0.00  0.00     0.000 A 
ATOM      4  C4  BNZ d   1      -0.410  -1.445   1.875  0.00  0.00     0.000 A 
ATOM      5  C5  BNZ d   1       0.807  -1.787   1.319  0.00  0.00     0.000 A 
ATOM      6  C6  BNZ d   1       1.384  -0.970   0.374  0.00  0.00     0.000 A 
ENDROOT
TORSDOF 0
ENDMDL
