MODEL 1
REMARK minimizedAffinity -4.29830885
REMARK minimizedRMSD -1
REMARK  0 active torsions:
REMARK  status: ('A' for Active; 'I' for Inactive)
ROOT
ATOM      1  C1  BNZ d   1       0.134  -2.465   0.799  0.00  0.00     0.000 A 
ATOM      2  C2  BNZ d   1       1.499  -2.528   0.892  0.00  0.00     0.000 A 
ATOM      3  C3  BNZ d   1       2.267  -1.416   0.686  0.00  0.00     0.000 A 
ATOM      4  C4  BNZ d   1       1.672  -0.254   0.349  0.00  0.00     0.000 A 
ATOM      5  C5  BNZ d   1       0.298  -0.176   0.242  0.00  0.00     0.000 A 
ATOM      6  C6  BNZ d   1      -0.474  -1.288   0.489  0.00  0.00     0.000 A 
ENDROOT
TORSDOF 0
ENDMDL
