MODEL 1
REMARK minimizedAffinity -3.24745107
REMARK minimizedRMSD -1
REMARK  0 active torsions:
REMARK  status: ('A' for Active; 'I' for Inactive)
ROOT
ATOM      1  C1  BNZ d   1      -0.360  -1.969   1.048  0.00  0.00     0.000 A 
ATOM      2  C2  BNZ d   1      -1.341  -1.025   1.192  0.00  0.00     0.000 A 
ATOM      3  C3  BNZ d   1      -1.243   0.187   0.567  0.00  0.00     0.000 A 
ATOM      4  C4  BNZ d   1      -0.148   0.468  -0.167  0.00  0.00     0.000 A 
ATOM      5  C5  BNZ d   1       0.854  -0.470  -0.314  0.00  0.00     0.000 A 
ATOM      6  C6  BNZ d   1       0.734  -1.704   0.284  0.00  0.00     0.000 A 
ENDROOT
TORSDOF 0
ENDMDL
