MODEL 1
REMARK minimizedAffinity -2.79963708
REMARK minimizedRMSD -1
REMARK  0 active torsions:
REMARK  status: ('A' for Active; 'I' for Inactive)
ROOT
ATOM      1  C1  BNZ d   1       3.453   3.801  -1.010  0.00  0.00     0.000 A 
ATOM      2  C2  BNZ d   1       2.173   4.149  -1.348  0.00  0.00     0.000 A 
ATOM      3  C3  BNZ d   1       1.114   3.763  -0.574  0.00  0.00     0.000 A 
ATOM      4  C4  BNZ d   1       1.334   2.996   0.514  0.00  0.00     0.000 A 
ATOM      5  C5  BNZ d   1       2.618   2.629   0.863  0.00  0.00     0.000 A 
ATOM      6  C6  BNZ d   1       3.684   3.052   0.103  0.00  0.00     0.000 A 
ENDROOT
TORSDOF 0
ENDMDL
