MODEL 1
REMARK minimizedAffinity -3.25350666
REMARK minimizedRMSD -1
REMARK  0 active torsions:
REMARK  status: ('A' for Active; 'I' for Inactive)
ROOT
ATOM      1  C1  BNZ d   1       0.140  -2.536   1.173  0.00  0.00     0.000 A 
ATOM      2  C2  BNZ d   1       1.477  -2.579   0.877  0.00  0.00     0.000 A 
ATOM      3  C3  BNZ d   1       2.083  -1.542   0.225  0.00  0.00     0.000 A 
ATOM      4  C4  BNZ d   1       1.345  -0.483  -0.167  0.00  0.00     0.000 A 
ATOM      5  C5  BNZ d   1      -0.006  -0.429   0.116  0.00  0.00     0.000 A 
ATOM      6  C6  BNZ d   1      -0.604  -1.457   0.808  0.00  0.00     0.000 A 
ENDROOT
TORSDOF 0
ENDMDL
