MODEL 1
REMARK minimizedAffinity -2.31599498
REMARK minimizedRMSD -1
REMARK  0 active torsions:
REMARK  status: ('A' for Active; 'I' for Inactive)
ROOT
ATOM      1  C1  BNZ d   1      -0.349  -1.792   0.244  0.00  0.00     0.000 A 
ATOM      2  C2  BNZ d   1      -0.226  -0.737  -0.621  0.00  0.00     0.000 A 
ATOM      3  C3  BNZ d   1      -0.578   0.527  -0.237  0.00  0.00     0.000 A 
ATOM      4  C4  BNZ d   1      -1.090   0.728   0.995  0.00  0.00     0.000 A 
ATOM      5  C5  BNZ d   1      -1.229  -0.327   1.874  0.00  0.00     0.000 A 
ATOM      6  C6  BNZ d   1      -0.836  -1.592   1.498  0.00  0.00     0.000 A 
ENDROOT
TORSDOF 0
ENDMDL
