MODEL 1
REMARK minimizedAffinity -4.77821016
REMARK minimizedRMSD -1
REMARK  0 active torsions:
REMARK  status: ('A' for Active; 'I' for Inactive)
ROOT
ATOM      1  C1  BNZ d   1      -0.523  -2.078   1.566  0.00  0.00     0.000 A 
ATOM      2  C2  BNZ d   1       0.668  -2.713   1.336  0.00  0.00     0.000 A 
ATOM      3  C3  BNZ d   1       1.645  -2.116   0.589  0.00  0.00     0.000 A 
ATOM      4  C4  BNZ d   1       1.415  -0.905   0.041  0.00  0.00     0.000 A 
ATOM      5  C5  BNZ d   1       0.215  -0.257   0.257  0.00  0.00     0.000 A 
ATOM      6  C6  BNZ d   1      -0.751  -0.844   1.042  0.00  0.00     0.000 A 
ENDROOT
TORSDOF 0
ENDMDL
