MODEL 1
REMARK minimizedAffinity -2.45096111
REMARK minimizedRMSD -1
REMARK  0 active torsions:
REMARK  status: ('A' for Active; 'I' for Inactive)
ROOT
ATOM      1  C1  BNZ d   1       0.113  -2.233   1.079  0.00  0.00     0.000 A 
ATOM      2  C2  BNZ d   1      -0.956  -1.384   0.976  0.00  0.00     0.000 A 
ATOM      3  C3  BNZ d   1      -0.855  -0.211   0.280  0.00  0.00     0.000 A 
ATOM      4  C4  BNZ d   1       0.325   0.128  -0.278  0.00  0.00     0.000 A 
ATOM      5  C5  BNZ d   1       1.415  -0.713  -0.175  0.00  0.00     0.000 A 
ATOM      6  C6  BNZ d   1       1.298  -1.910   0.493  0.00  0.00     0.000 A 
ENDROOT
TORSDOF 0
ENDMDL
