MODEL 1
REMARK minimizedAffinity -2.4281044
REMARK minimizedRMSD -1
REMARK  0 active torsions:
REMARK  status: ('A' for Active; 'I' for Inactive)
ROOT
ATOM      1  C1  BNZ d   1      -1.181  -0.362   1.705  0.00  0.00     0.000 A 
ATOM      2  C2  BNZ d   1      -1.183   0.849   1.065  0.00  0.00     0.000 A 
ATOM      3  C3  BNZ d   1      -0.183   1.182   0.194  0.00  0.00     0.000 A 
ATOM      4  C4  BNZ d   1       0.837   0.322  -0.004  0.00  0.00     0.000 A 
ATOM      5  C5  BNZ d   1       0.858  -0.899   0.642  0.00  0.00     0.000 A 
ATOM      6  C6  BNZ d   1      -0.170  -1.246   1.487  0.00  0.00     0.000 A 
ENDROOT
TORSDOF 0
ENDMDL
