MODEL 1
REMARK minimizedAffinity -1.67097592
REMARK minimizedRMSD -1
REMARK  0 active torsions:
REMARK  status: ('A' for Active; 'I' for Inactive)
ROOT
ATOM      1  C1  BNZ d   1       1.827  -0.775   0.074  0.00  0.00     0.000 A 
ATOM      2  C2  BNZ d   1       2.307  -1.876   0.732  0.00  0.00     0.000 A 
ATOM      3  C3  BNZ d   1       1.452  -2.779   1.301  0.00  0.00     0.000 A 
ATOM      4  C4  BNZ d   1       0.123  -2.560   1.245  0.00  0.00     0.000 A 
ATOM      5  C5  BNZ d   1      -0.376  -1.450   0.593  0.00  0.00     0.000 A 
ATOM      6  C6  BNZ d   1       0.485  -0.563  -0.012  0.00  0.00     0.000 A 
ENDROOT
TORSDOF 0
ENDMDL
