MODEL 1
REMARK minimizedAffinity -3.43078184
REMARK minimizedRMSD -1
REMARK  0 active torsions:
REMARK  status: ('A' for Active; 'I' for Inactive)
ROOT
ATOM      1  C1  BNZ d   1       1.839   0.422  -0.267  0.00  0.00     0.000 A 
ATOM      2  C2  BNZ d   1       1.797  -0.893   0.113  0.00  0.00     0.000 A 
ATOM      3  C3  BNZ d   1       0.603  -1.538   0.274  0.00  0.00     0.000 A 
ATOM      4  C4  BNZ d   1      -0.547  -0.857   0.094  0.00  0.00     0.000 A 
ATOM      5  C5  BNZ d   1      -0.522   0.472  -0.280  0.00  0.00     0.000 A 
ATOM      6  C6  BNZ d   1       0.683   1.107  -0.479  0.00  0.00     0.000 A 
ENDROOT
TORSDOF 0
ENDMDL
