MODEL 1
REMARK minimizedAffinity -3.71988821
REMARK minimizedRMSD -1
REMARK  0 active torsions:
REMARK  status: ('A' for Active; 'I' for Inactive)
ROOT
ATOM      1  C1  BNZ d   1      -0.316  -1.823   0.347  0.00  0.00     0.000 A 
ATOM      2  C2  BNZ d   1       0.300  -2.880   0.962  0.00  0.00     0.000 A 
ATOM      3  C3  BNZ d   1       1.581  -2.769   1.427  0.00  0.00     0.000 A 
ATOM      4  C4  BNZ d   1       2.256  -1.617   1.241  0.00  0.00     0.000 A 
ATOM      5  C5  BNZ d   1       1.652  -0.546   0.614  0.00  0.00     0.000 A 
ATOM      6  C6  BNZ d   1       0.349  -0.648   0.182  0.00  0.00     0.000 A 
ENDROOT
TORSDOF 0
ENDMDL
