MODEL 1
REMARK minimizedAffinity -4.97062731
REMARK minimizedRMSD -1
REMARK  2 active torsions:
REMARK  status: ('A' for Active; 'I' for Inactive)
REMARK    1  A    between atoms: C2'_3  and  C1'_4 
REMARK    2  A    between atoms: C1'_4  and  C1_5 
ROOT
ATOM      1  C1  I4B d   1       1.228  -4.575  -0.121  0.00  0.00    -0.075 A 
ATOM      2  C2  I4B d   1       0.211  -5.483   0.036  0.00  0.00     0.003 A 
ATOM      3  C3  I4B d   1      -0.879  -5.497  -0.868  0.00  0.00     0.002 A 
ATOM      4  C4  I4B d   1      -0.935  -4.559  -1.878  0.00  0.00    -0.004 A 
ATOM      5  C5  I4B d   1       0.108  -3.653  -2.050  0.00  0.00     0.002 A 
ATOM      6  C6  I4B d   1       1.203  -3.669  -1.174  0.00  0.00     0.003 A 
ENDROOT
BRANCH   1   7
ATOM      7  C1' I4B d   1       2.347  -4.567   0.871  0.00  0.00     0.060 C 
BRANCH   7   8
ATOM      8  C2' I4B d   1       3.077  -5.891   0.763  0.00  0.00    -0.013 C 
ATOM      9  C4' I4B d   1       3.818  -6.000  -0.543  0.00  0.00     0.013 C 
ATOM     10  C3' I4B d   1       4.015  -5.999   1.928  0.00  0.00     0.013 C 
ENDBRANCH   7   8
ENDBRANCH   1   7
TORSDOF 2
ENDMDL
