MODEL 1
REMARK minimizedAffinity -3.52712607
REMARK minimizedRMSD -1
REMARK  2 active torsions:
REMARK  status: ('A' for Active; 'I' for Inactive)
REMARK    1  A    between atoms: C2'_3  and  C1'_4 
REMARK    2  A    between atoms: C1'_4  and  C1_5 
ROOT
ATOM      1  C1  I4B d   1       0.109  -0.968  -1.041  0.00  0.00    -0.075 A 
ATOM      2  C2  I4B d   1      -0.719  -0.601  -0.009  0.00  0.00     0.003 A 
ATOM      3  C3  I4B d   1      -1.361   0.661  -0.024  0.00  0.00     0.002 A 
ATOM      4  C4  I4B d   1      -1.109   1.539  -1.058  0.00  0.00    -0.004 A 
ATOM      5  C5  I4B d   1      -0.288   1.156  -2.115  0.00  0.00     0.002 A 
ATOM      6  C6  I4B d   1       0.315  -0.110  -2.113  0.00  0.00     0.003 A 
ENDROOT
BRANCH   1   7
ATOM      7  C1' I4B d   1       0.796  -2.295  -0.976  0.00  0.00     0.060 C 
BRANCH   7   8
ATOM      8  C2' I4B d   1      -0.256  -3.354  -0.722  0.00  0.00    -0.013 C 
ATOM      9  C4' I4B d   1      -0.909  -3.794  -2.006  0.00  0.00     0.013 C 
ATOM     10  C3' I4B d   1       0.406  -4.508  -0.029  0.00  0.00     0.013 C 
ENDBRANCH   7   8
ENDBRANCH   1   7
TORSDOF 2
ENDMDL
