MODEL 1
REMARK minimizedAffinity -4.17667866
REMARK minimizedRMSD -1
REMARK  2 active torsions:
REMARK  status: ('A' for Active; 'I' for Inactive)
REMARK    1  A    between atoms: C2'_3  and  C1'_4 
REMARK    2  A    between atoms: C1'_4  and  C1_5 
ROOT
ATOM      1  C1  I4B d   1      -1.138   1.050  -0.024  0.00  0.00    -0.075 A 
ATOM      2  C2  I4B d   1      -1.343   1.558   1.234  0.00  0.00     0.003 A 
ATOM      3  C3  I4B d   1      -1.389   2.959   1.439  0.00  0.00     0.002 A 
ATOM      4  C4  I4B d   1      -1.176   3.809   0.373  0.00  0.00    -0.004 A 
ATOM      5  C5  I4B d   1      -0.991   3.292  -0.906  0.00  0.00     0.002 A 
ATOM      6  C6  I4B d   1      -0.984   1.904  -1.109  0.00  0.00     0.003 A 
ENDROOT
BRANCH   1   7
ATOM      7  C1' I4B d   1      -1.063  -0.433  -0.199  0.00  0.00     0.060 C 
BRANCH   7   8
ATOM      8  C2' I4B d   1       0.288  -0.764  -0.801  0.00  0.00    -0.013 C 
ATOM      9  C4' I4B d   1       1.409  -0.216   0.040  0.00  0.00     0.013 C 
ATOM     10  C3' I4B d   1       0.385  -2.255  -0.928  0.00  0.00     0.013 C 
ENDBRANCH   7   8
ENDBRANCH   1   7
TORSDOF 2
ENDMDL
