MODEL 1
REMARK minimizedAffinity 7.86483049
REMARK minimizedRMSD -1
REMARK  2 active torsions:
REMARK  status: ('A' for Active; 'I' for Inactive)
REMARK    1  A    between atoms: C2'_3  and  C1'_4 
REMARK    2  A    between atoms: C1'_4  and  C1_5 
ROOT
ATOM      1  C1  I4B d   1       1.122  -0.607   3.808  0.00  0.00    -0.075 A 
ATOM      2  C2  I4B d   1       0.869  -1.355   2.685  0.00  0.00     0.003 A 
ATOM      3  C3  I4B d   1      -0.087  -0.916   1.737  0.00  0.00     0.002 A 
ATOM      4  C4  I4B d   1      -0.798   0.243   1.975  0.00  0.00    -0.004 A 
ATOM      5  C5  I4B d   1      -0.524   1.011   3.103  0.00  0.00     0.002 A 
ATOM      6  C6  I4B d   1       0.450   0.590   4.020  0.00  0.00     0.003 A 
ENDROOT
BRANCH   1   7
ATOM      7  C1' I4B d   1       2.114  -1.117   4.805  0.00  0.00     0.060 C 
BRANCH   7   8
ATOM      8  C2' I4B d   1       1.962  -2.623   4.886  0.00  0.00    -0.013 C 
ATOM      9  C4' I4B d   1       2.913  -3.213   5.894  0.00  0.00     0.013 C 
ATOM     10  C3' I4B d   1       0.538  -2.927   5.242  0.00  0.00     0.013 C 
ENDBRANCH   7   8
ENDBRANCH   1   7
TORSDOF 2
ENDMDL
