MODEL 1
REMARK minimizedAffinity 14.6637383
REMARK minimizedRMSD -1
REMARK  2 active torsions:
REMARK  status: ('A' for Active; 'I' for Inactive)
REMARK    1  A    between atoms: C2'_3  and  C1'_4 
REMARK    2  A    between atoms: C1'_4  and  C1_5 
ROOT
ATOM      1  C1  I4B d   1       5.654   2.088   3.858  0.00  0.00    -0.075 A 
ATOM      2  C2  I4B d   1       5.012   1.746   5.022  0.00  0.00     0.003 A 
ATOM      3  C3  I4B d   1       4.703   2.737   5.984  0.00  0.00     0.002 A 
ATOM      4  C4  I4B d   1       5.098   4.042   5.767  0.00  0.00    -0.004 A 
ATOM      5  C5  I4B d   1       5.729   4.391   4.576  0.00  0.00     0.002 A 
ATOM      6  C6  I4B d   1       5.998   3.411   3.610  0.00  0.00     0.003 A 
ENDROOT
BRANCH   1   7
ATOM      7  C1' I4B d   1       5.994   1.010   2.878  0.00  0.00     0.060 C 
BRANCH   7   8
ATOM      8  C2' I4B d   1       5.869   1.591   1.484  0.00  0.00    -0.013 C 
ATOM      9  C4' I4B d   1       5.758   0.503   0.448  0.00  0.00     0.013 C 
ATOM     10  C3' I4B d   1       4.666   2.486   1.461  0.00  0.00     0.013 C 
ENDBRANCH   7   8
ENDBRANCH   1   7
TORSDOF 2
ENDMDL
