MODEL 1
REMARK minimizedAffinity 14.0786276
REMARK minimizedRMSD -1
REMARK  2 active torsions:
REMARK  status: ('A' for Active; 'I' for Inactive)
REMARK    1  A    between atoms: C2'_3  and  C1'_4 
REMARK    2  A    between atoms: C1'_4  and  C1_5 
ROOT
ATOM      1  C1  I4B d   1      -3.286   5.196  -1.070  0.00  0.00    -0.075 A 
ATOM      2  C2  I4B d   1      -3.726   3.997  -0.565  0.00  0.00     0.003 A 
ATOM      3  C3  I4B d   1      -5.059   3.575  -0.788  0.00  0.00     0.002 A 
ATOM      4  C4  I4B d   1      -5.927   4.401  -1.474  0.00  0.00    -0.004 A 
ATOM      5  C5  I4B d   1      -5.473   5.605  -2.005  0.00  0.00     0.002 A 
ATOM      6  C6  I4B d   1      -4.141   6.000  -1.812  0.00  0.00     0.003 A 
ENDROOT
BRANCH   1   7
ATOM      7  C1' I4B d   1      -1.882   5.625  -0.786  0.00  0.00     0.060 C 
BRANCH   7   8
ATOM      8  C2' I4B d   1      -1.431   4.939   0.487  0.00  0.00    -0.013 C 
ATOM      9  C4' I4B d   1      -0.219   4.080   0.245  0.00  0.00     0.013 C 
ATOM     10  C3' I4B d   1      -1.148   6.000   1.509  0.00  0.00     0.013 C 
ENDBRANCH   7   8
ENDBRANCH   1   7
TORSDOF 2
ENDMDL
