MODEL 1
REMARK minimizedAffinity 16.7512665
REMARK minimizedRMSD -1
REMARK  2 active torsions:
REMARK  status: ('A' for Active; 'I' for Inactive)
REMARK    1  A    between atoms: C2'_3  and  C1'_4 
REMARK    2  A    between atoms: C1'_4  and  C1_5 
ROOT
ATOM      1  C1  I4B d   1       2.436  -0.246   3.713  0.00  0.00    -0.075 A 
ATOM      2  C2  I4B d   1       1.496   0.702   3.394  0.00  0.00     0.003 A 
ATOM      3  C3  I4B d   1       0.482   0.411   2.449  0.00  0.00     0.002 A 
ATOM      4  C4  I4B d   1       0.475  -0.815   1.816  0.00  0.00    -0.004 A 
ATOM      5  C5  I4B d   1       1.414  -1.783   2.158  0.00  0.00     0.002 A 
ATOM      6  C6  I4B d   1       2.394  -1.502   3.121  0.00  0.00     0.003 A 
ENDROOT
BRANCH   1   7
ATOM      7  C1' I4B d   1       3.512   0.106   4.690  0.00  0.00     0.060 C 
BRANCH   7   8
ATOM      8  C2' I4B d   1       4.137   1.413   4.245  0.00  0.00    -0.013 C 
ATOM      9  C4' I4B d   1       4.463   2.290   5.425  0.00  0.00     0.013 C 
ATOM     10  C3' I4B d   1       5.368   1.092   3.452  0.00  0.00     0.013 C 
ENDBRANCH   7   8
ENDBRANCH   1   7
TORSDOF 2
ENDMDL
