MODEL 1
REMARK minimizedAffinity 13.1473713
REMARK minimizedRMSD -1
REMARK  2 active torsions:
REMARK  status: ('A' for Active; 'I' for Inactive)
REMARK    1  A    between atoms: C2'_3  and  C1'_4 
REMARK    2  A    between atoms: C1'_4  and  C1_5 
ROOT
ATOM      1  C1  I4B d   1       2.949  -2.029  -4.348  0.00  0.00    -0.075 A 
ATOM      2  C2  I4B d   1       2.492  -3.164  -4.969  0.00  0.00     0.003 A 
ATOM      3  C3  I4B d   1       3.391  -4.206  -5.302  0.00  0.00     0.002 A 
ATOM      4  C4  I4B d   1       4.738  -4.050  -5.043  0.00  0.00    -0.004 A 
ATOM      5  C5  I4B d   1       5.196  -2.908  -4.392  0.00  0.00     0.002 A 
ATOM      6  C6  I4B d   1       4.295  -1.896  -4.031  0.00  0.00     0.003 A 
ENDROOT
BRANCH   1   7
ATOM      7  C1' I4B d   1       1.977  -0.934  -4.040  0.00  0.00     0.060 C 
BRANCH   7   8
ATOM      8  C2' I4B d   1       0.579  -1.476  -4.259  0.00  0.00    -0.013 C 
ATOM      9  C4' I4B d   1      -0.307  -1.192  -3.075  0.00  0.00     0.013 C 
ATOM     10  C3' I4B d   1       0.032  -0.853  -5.508  0.00  0.00     0.013 C 
ENDBRANCH   7   8
ENDBRANCH   1   7
TORSDOF 2
ENDMDL
