MODEL 1
REMARK minimizedAffinity 17.3905354
REMARK minimizedRMSD -1
REMARK  2 active torsions:
REMARK  status: ('A' for Active; 'I' for Inactive)
REMARK    1  A    between atoms: C2'_3  and  C1'_4 
REMARK    2  A    between atoms: C1'_4  and  C1_5 
ROOT
ATOM      1  C1  I4B d   1      -0.044  -1.153  -3.727  0.00  0.00    -0.075 A 
ATOM      2  C2  I4B d   1      -1.337  -1.231  -4.181  0.00  0.00     0.003 A 
ATOM      3  C3  I4B d   1      -2.379  -1.612  -3.302  0.00  0.00     0.002 A 
ATOM      4  C4  I4B d   1      -2.078  -1.953  -1.999  0.00  0.00    -0.004 A 
ATOM      5  C5  I4B d   1      -0.770  -1.851  -1.534  0.00  0.00     0.002 A 
ATOM      6  C6  I4B d   1       0.252  -1.436  -2.400  0.00  0.00     0.003 A 
ENDROOT
BRANCH   1   7
ATOM      7  C1' I4B d   1       1.037  -0.779  -4.691  0.00  0.00     0.060 C 
BRANCH   7   8
ATOM      8  C2' I4B d   1       2.341  -0.701  -3.923  0.00  0.00    -0.013 C 
ATOM      9  C4' I4B d   1       3.075  -2.015  -3.960  0.00  0.00     0.013 C 
ATOM     10  C3' I4B d   1       3.167   0.398  -4.524  0.00  0.00     0.013 C 
ENDBRANCH   7   8
ENDBRANCH   1   7
TORSDOF 2
ENDMDL
