MODEL 1
REMARK minimizedAffinity 0.106743947
REMARK minimizedRMSD -1
REMARK  1 active torsions:
REMARK  status: ('A' for Active; 'I' for Inactive)
REMARK    1  A    between atoms: C1_2  and  C2_3 
ROOT
ATOM      1  C2  UNL d   1       0.782   0.041  -0.664  0.00  0.00    -0.076 A 
ATOM      2  C3  UNL d   1      -0.515  -0.465  -0.473  0.00  0.00     0.004 A 
ATOM      3  C4  UNL d   1      -0.771  -1.833  -0.562  0.00  0.00    -0.003 A 
ATOM      4  C5  UNL d   1       0.266  -2.715  -0.842  0.00  0.00     0.000 A 
ATOM      5  C6  UNL d   1       1.562  -2.232  -1.017  0.00  0.00     0.000 A 
ATOM      6  C7  UNL d   1       1.840  -0.858  -0.915  0.00  0.00    -0.073 A 
ATOM      7  C8  UNL d   1       3.256  -0.391  -1.119  0.00  0.00     0.078 C 
ENDROOT
BRANCH   1   8
ATOM      8  C1  UNL d   1       0.995   1.536  -0.584  0.00  0.00     0.053 C 
ATOM      9  C   UNL d   1       0.153   2.300  -1.594  0.00  0.00     0.018 C 
ENDBRANCH   1   8
TORSDOF 1
ENDMDL
