MODEL 1
REMARK minimizedAffinity -2.72899222
REMARK minimizedRMSD -1
REMARK  1 active torsions:
REMARK  status: ('A' for Active; 'I' for Inactive)
REMARK    1  A    between atoms: C1_2  and  C2_3 
ROOT
ATOM      1  C2  UNL d   1       0.282   0.446  -0.974  0.00  0.00    -0.076 A 
ATOM      2  C3  UNL d   1       1.361  -0.351  -1.395  0.00  0.00     0.004 A 
ATOM      3  C4  UNL d   1       1.499  -1.665  -0.951  0.00  0.00    -0.003 A 
ATOM      4  C5  UNL d   1       0.560  -2.204  -0.079  0.00  0.00     0.000 A 
ATOM      5  C6  UNL d   1      -0.527  -1.434   0.335  0.00  0.00     0.000 A 
ATOM      6  C7  UNL d   1      -0.689  -0.113  -0.116  0.00  0.00    -0.073 A 
ATOM      7  C8  UNL d   1      -1.877   0.674   0.368  0.00  0.00     0.078 C 
ENDROOT
BRANCH   1   8
ATOM      8  C1  UNL d   1       0.199   1.872  -1.467  0.00  0.00     0.053 C 
ATOM      9  C   UNL d   1       1.127   2.138  -2.642  0.00  0.00     0.018 C 
ENDBRANCH   1   8
TORSDOF 1
ENDMDL
