MODEL 1
REMARK minimizedAffinity -2.92985106
REMARK minimizedRMSD -1
REMARK  1 active torsions:
REMARK  status: ('A' for Active; 'I' for Inactive)
REMARK    1  A    between atoms: C1_2  and  C2_3 
ROOT
ATOM      1  C2  UNL d   1       0.111   0.167  -0.026  0.00  0.00    -0.076 A 
ATOM      2  C3  UNL d   1      -0.007  -1.230   0.068  0.00  0.00     0.004 A 
ATOM      3  C4  UNL d   1       0.873  -2.072  -0.611  0.00  0.00    -0.003 A 
ATOM      4  C5  UNL d   1       1.885  -1.529  -1.396  0.00  0.00     0.000 A 
ATOM      5  C6  UNL d   1       2.027  -0.145  -1.486  0.00  0.00     0.000 A 
ATOM      6  C7  UNL d   1       1.159   0.718  -0.794  0.00  0.00    -0.073 A 
ATOM      7  C8  UNL d   1       1.355   2.203  -0.932  0.00  0.00     0.078 C 
ENDROOT
BRANCH   1   8
ATOM      8  C1  UNL d   1      -0.888   1.029   0.712  0.00  0.00     0.053 C 
ATOM      9  C   UNL d   1      -1.736   0.231   1.691  0.00  0.00     0.018 C 
ENDBRANCH   1   8
TORSDOF 1
ENDMDL
