MODEL 1
REMARK minimizedAffinity -3.65932918
REMARK minimizedRMSD -1
REMARK  1 active torsions:
REMARK  status: ('A' for Active; 'I' for Inactive)
REMARK    1  A    between atoms: C1_2  and  C2_3 
ROOT
ATOM      1  C2  UNL d   1       0.593   0.133  -0.780  0.00  0.00    -0.076 A 
ATOM      2  C3  UNL d   1       0.943  -1.118  -0.244  0.00  0.00     0.004 A 
ATOM      3  C4  UNL d   1       2.137  -1.743  -0.602  0.00  0.00    -0.003 A 
ATOM      4  C5  UNL d   1       3.000  -1.125  -1.500  0.00  0.00     0.000 A 
ATOM      5  C6  UNL d   1       2.677   0.125  -2.027  0.00  0.00     0.000 A 
ATOM      6  C7  UNL d   1       1.485   0.775  -1.665  0.00  0.00    -0.073 A 
ATOM      7  C8  UNL d   1       1.184   2.120  -2.268  0.00  0.00     0.078 C 
ENDROOT
BRANCH   1   8
ATOM      8  C1  UNL d   1      -0.727   0.750  -0.376  0.00  0.00     0.053 C 
ATOM      9  C   UNL d   1      -1.137   0.375   1.040  0.00  0.00     0.018 C 
ENDBRANCH   1   8
TORSDOF 1
ENDMDL
