MODEL 1
REMARK minimizedAffinity -4.61200571
REMARK minimizedRMSD -1
REMARK  1 active torsions:
REMARK  status: ('A' for Active; 'I' for Inactive)
REMARK    1  A    between atoms: C1_2  and  C2_3 
ROOT
ATOM      1  C2  UNL d   1       0.764   0.271  -1.201  0.00  0.00    -0.076 A 
ATOM      2  C3  UNL d   1       1.442  -0.780  -0.562  0.00  0.00     0.004 A 
ATOM      3  C4  UNL d   1       2.767  -1.077  -0.879  0.00  0.00    -0.003 A 
ATOM      4  C5  UNL d   1       3.435  -0.327  -1.840  0.00  0.00     0.000 A 
ATOM      5  C6  UNL d   1       2.783   0.732  -2.472  0.00  0.00     0.000 A 
ATOM      6  C7  UNL d   1       1.453   1.055  -2.152  0.00  0.00    -0.073 A 
ATOM      7  C8  UNL d   1       0.796   2.203  -2.869  0.00  0.00     0.078 C 
ENDROOT
BRANCH   1   8
ATOM      8  C1  UNL d   1      -0.681   0.530  -0.836  0.00  0.00     0.053 C 
ATOM      9  C   UNL d   1      -1.070  -0.111   0.487  0.00  0.00     0.018 C 
ENDBRANCH   1   8
TORSDOF 1
ENDMDL
