MODEL 1
REMARK minimizedAffinity -2.504071
REMARK minimizedRMSD -1
REMARK  1 active torsions:
REMARK  status: ('A' for Active; 'I' for Inactive)
REMARK    1  A    between atoms: C1_2  and  C2_3 
ROOT
ATOM      1  C2  UNL d   1      -0.528  -0.667   1.028  0.00  0.00    -0.076 A 
ATOM      2  C3  UNL d   1      -0.481   0.429   1.907  0.00  0.00     0.004 A 
ATOM      3  C4  UNL d   1      -1.620   0.846   2.594  0.00  0.00    -0.003 A 
ATOM      4  C5  UNL d   1      -2.824   0.175   2.413  0.00  0.00     0.000 A 
ATOM      5  C6  UNL d   1      -2.884  -0.925   1.558  0.00  0.00     0.000 A 
ATOM      6  C7  UNL d   1      -1.742  -1.369   0.870  0.00  0.00    -0.073 A 
ATOM      7  C8  UNL d   1      -1.866  -2.557  -0.044  0.00  0.00     0.078 C 
ENDROOT
BRANCH   1   8
ATOM      8  C1  UNL d   1       0.733  -1.057   0.289  0.00  0.00     0.053 C 
ATOM      9  C   UNL d   1       0.927  -0.261  -0.992  0.00  0.00     0.018 C 
ENDBRANCH   1   8
TORSDOF 1
ENDMDL
