MODEL 1
REMARK minimizedAffinity -3.05782723
REMARK minimizedRMSD -1
REMARK  1 active torsions:
REMARK  status: ('A' for Active; 'I' for Inactive)
REMARK    1  A    between atoms: C1_2  and  C2_3 
ROOT
ATOM      1  C2  UNL d   1      -1.773   0.287   1.709  0.00  0.00    -0.076 A 
ATOM      2  C3  UNL d   1      -0.688   0.813   2.433  0.00  0.00     0.004 A 
ATOM      3  C4  UNL d   1      -0.816   1.135   3.783  0.00  0.00    -0.003 A 
ATOM      4  C5  UNL d   1      -2.030   0.937   4.431  0.00  0.00     0.000 A 
ATOM      5  C6  UNL d   1      -3.111   0.400   3.733  0.00  0.00     0.000 A 
ATOM      6  C7  UNL d   1      -2.995   0.054   2.376  0.00  0.00    -0.073 A 
ATOM      7  C8  UNL d   1      -4.195  -0.515   1.670  0.00  0.00     0.078 C 
ENDROOT
BRANCH   1   8
ATOM      8  C1  UNL d   1      -1.583  -0.018   0.240  0.00  0.00     0.053 C 
ATOM      9  C   UNL d   1      -0.253  -0.697  -0.046  0.00  0.00     0.018 C 
ENDBRANCH   1   8
TORSDOF 1
ENDMDL
