MODEL 1
REMARK minimizedAffinity -4.70834827
REMARK minimizedRMSD -1
REMARK  1 active torsions:
REMARK  status: ('A' for Active; 'I' for Inactive)
REMARK    1  A    between atoms: C1_2  and  C2_3 
ROOT
ATOM      1  C2  UNL d   1      -0.173   0.100  -0.450  0.00  0.00    -0.076 A 
ATOM      2  C3  UNL d   1       0.592   1.097  -1.081  0.00  0.00     0.004 A 
ATOM      3  C4  UNL d   1       1.870   0.821  -1.564  0.00  0.00    -0.003 A 
ATOM      4  C5  UNL d   1       2.404  -0.455  -1.425  0.00  0.00     0.000 A 
ATOM      5  C6  UNL d   1       1.652  -1.460  -0.818  0.00  0.00     0.000 A 
ATOM      6  C7  UNL d   1       0.355  -1.204  -0.340  0.00  0.00    -0.073 A 
ATOM      7  C8  UNL d   1      -0.409  -2.324   0.311  0.00  0.00     0.078 C 
ENDROOT
BRANCH   1   8
ATOM      8  C1  UNL d   1      -1.542   0.465   0.078  0.00  0.00     0.053 C 
ATOM      9  C   UNL d   1      -1.541   0.709   1.579  0.00  0.00     0.018 C 
ENDBRANCH   1   8
TORSDOF 1
ENDMDL
