MODEL 1
REMARK minimizedAffinity -0.446851581
REMARK minimizedRMSD -1
REMARK  2 active torsions:
REMARK  status: ('A' for Active; 'I' for Inactive)
REMARK    1  A    between atoms: C1_2  and  C2_3 
REMARK    2  A    between atoms: C2_3  and  C3_4 
ROOT
ATOM      1  C3  UNL d   1      -0.253   0.267   1.022  0.00  0.00    -0.075 A 
ATOM      2  C4  UNL d   1       0.529   1.407   1.262  0.00  0.00     0.002 A 
ATOM      3  C5  UNL d   1       1.503   1.804   0.345  0.00  0.00     0.002 A 
ATOM      4  C6  UNL d   1       1.714   1.063  -0.816  0.00  0.00    -0.004 A 
ATOM      5  C7  UNL d   1       0.954  -0.080  -1.056  0.00  0.00     0.002 A 
ATOM      6  C8  UNL d   1      -0.024  -0.477  -0.143  0.00  0.00     0.002 A 
ENDROOT
BRANCH   1   7
ATOM      7  C2  UNL d   1      -1.328  -0.151   1.997  0.00  0.00     0.056 C 
BRANCH   7   8
ATOM      8  C1  UNL d   1      -2.501   0.830   2.089  0.00  0.00     0.007 C 
ATOM      9  C   UNL d   1      -3.770   0.314   1.423  0.00  0.00     0.009 C 
ENDBRANCH   7   8
ENDBRANCH   1   7
TORSDOF 2
ENDMDL
