MODEL 1
REMARK minimizedAffinity -2.91523528
REMARK minimizedRMSD -1
REMARK  2 active torsions:
REMARK  status: ('A' for Active; 'I' for Inactive)
REMARK    1  A    between atoms: C1_2  and  C2_3 
REMARK    2  A    between atoms: C2_3  and  C3_4 
ROOT
ATOM      1  C3  UNL d   1       0.563  -0.143   0.334  0.00  0.00    -0.075 A 
ATOM      2  C4  UNL d   1       1.188   1.001  -0.184  0.00  0.00     0.002 A 
ATOM      3  C5  UNL d   1       1.693   1.006  -1.484  0.00  0.00     0.002 A 
ATOM      4  C6  UNL d   1       1.591  -0.134  -2.278  0.00  0.00    -0.004 A 
ATOM      5  C7  UNL d   1       0.987  -1.282  -1.769  0.00  0.00     0.002 A 
ATOM      6  C8  UNL d   1       0.476  -1.288  -0.470  0.00  0.00     0.002 A 
ENDROOT
BRANCH   1   7
ATOM      7  C2  UNL d   1      -0.012  -0.145   1.730  0.00  0.00     0.056 C 
BRANCH   7   8
ATOM      8  C1  UNL d   1      -1.540  -0.031   1.775  0.00  0.00     0.007 C 
ATOM      9  C   UNL d   1      -2.038   0.940   2.837  0.00  0.00     0.009 C 
ENDBRANCH   7   8
ENDBRANCH   1   7
TORSDOF 2
ENDMDL
