MODEL 1
REMARK minimizedAffinity -3.10931015
REMARK minimizedRMSD -1
REMARK  2 active torsions:
REMARK  status: ('A' for Active; 'I' for Inactive)
REMARK    1  A    between atoms: C1_2  and  C2_3 
REMARK    2  A    between atoms: C2_3  and  C3_4 
ROOT
ATOM      1  C3  UNL d   1      -0.824   0.557  -0.759  0.00  0.00    -0.075 A 
ATOM      2  C4  UNL d   1      -0.137   1.702  -0.331  0.00  0.00     0.002 A 
ATOM      3  C5  UNL d   1       1.252   1.775  -0.435  0.00  0.00     0.002 A 
ATOM      4  C6  UNL d   1       1.972   0.703  -0.958  0.00  0.00    -0.004 A 
ATOM      5  C7  UNL d   1       1.301  -0.447  -1.371  0.00  0.00     0.002 A 
ATOM      6  C8  UNL d   1      -0.090  -0.521  -1.271  0.00  0.00     0.002 A 
ENDROOT
BRANCH   1   7
ATOM      7  C2  UNL d   1      -2.330   0.484  -0.676  0.00  0.00     0.056 C 
BRANCH   7   8
ATOM      8  C1  UNL d   1      -2.900   0.893   0.687  0.00  0.00     0.007 C 
ATOM      9  C   UNL d   1      -4.159   0.124   1.066  0.00  0.00     0.009 C 
ENDBRANCH   7   8
ENDBRANCH   1   7
TORSDOF 2
ENDMDL
