MODEL 1
REMARK minimizedAffinity 4.72522402
REMARK minimizedRMSD -1
REMARK  2 active torsions:
REMARK  status: ('A' for Active; 'I' for Inactive)
REMARK    1  A    between atoms: C1_2  and  C2_3 
REMARK    2  A    between atoms: C2_3  and  C3_4 
ROOT
ATOM      1  C3  UNL d   1      -3.616  -3.872  -5.975  0.00  0.00    -0.075 A 
ATOM      2  C4  UNL d   1      -3.120  -2.560  -5.993  0.00  0.00     0.002 A 
ATOM      3  C5  UNL d   1      -3.994  -1.472  -5.999  0.00  0.00     0.002 A 
ATOM      4  C6  UNL d   1      -5.371  -1.681  -5.998  0.00  0.00    -0.004 A 
ATOM      5  C7  UNL d   1      -5.875  -2.980  -5.996  0.00  0.00     0.002 A 
ATOM      6  C8  UNL d   1      -5.003  -4.070  -5.986  0.00  0.00     0.002 A 
ENDROOT
BRANCH   1   7
ATOM      7  C2  UNL d   1      -2.676  -5.053  -5.938  0.00  0.00     0.056 C 
BRANCH   7   8
ATOM      8  C1  UNL d   1      -1.821  -5.130  -4.669  0.00  0.00     0.007 C 
ATOM      9  C   UNL d   1      -0.506  -5.870  -4.876  0.00  0.00     0.009 C 
ENDBRANCH   7   8
ENDBRANCH   1   7
TORSDOF 2
ENDMDL
