MODEL 1
REMARK minimizedAffinity 2.17328358
REMARK minimizedRMSD -1
REMARK  2 active torsions:
REMARK  status: ('A' for Active; 'I' for Inactive)
REMARK    1  A    between atoms: C1_2  and  C2_3 
REMARK    2  A    between atoms: C2_3  and  C3_4 
ROOT
ATOM      1  C3  UNL d   1      -0.101  -0.172   0.530  0.00  0.00    -0.075 A 
ATOM      2  C4  UNL d   1       0.838   0.411  -0.333  0.00  0.00     0.002 A 
ATOM      3  C5  UNL d   1       1.271  -0.268  -1.472  0.00  0.00     0.002 A 
ATOM      4  C6  UNL d   1       0.778  -1.539  -1.758  0.00  0.00    -0.004 A 
ATOM      5  C7  UNL d   1      -0.143  -2.135  -0.899  0.00  0.00     0.002 A 
ATOM      6  C8  UNL d   1      -0.581  -1.456   0.239  0.00  0.00     0.002 A 
ENDROOT
BRANCH   1   7
ATOM      7  C2  UNL d   1      -0.595   0.569   1.749  0.00  0.00     0.056 C 
BRANCH   7   8
ATOM      8  C1  UNL d   1      -2.083   0.933   1.698  0.00  0.00     0.007 C 
ATOM      9  C   UNL d   1      -2.513   1.863   2.825  0.00  0.00     0.009 C 
ENDBRANCH   7   8
ENDBRANCH   1   7
TORSDOF 2
ENDMDL
