MODEL 1
REMARK minimizedAffinity -0.444391787
REMARK minimizedRMSD -1
REMARK  2 active torsions:
REMARK  status: ('A' for Active; 'I' for Inactive)
REMARK    1  A    between atoms: C1_2  and  C2_3 
REMARK    2  A    between atoms: C2_3  and  C3_4 
ROOT
ATOM      1  C3  UNL d   1       1.152   0.498  -1.218  0.00  0.00    -0.075 A 
ATOM      2  C4  UNL d   1       0.479   0.006  -0.090  0.00  0.00     0.002 A 
ATOM      3  C5  UNL d   1      -0.194  -1.215  -0.142  0.00  0.00     0.002 A 
ATOM      4  C6  UNL d   1      -0.212  -1.953  -1.324  0.00  0.00    -0.004 A 
ATOM      5  C7  UNL d   1       0.439  -1.466  -2.455  0.00  0.00     0.002 A 
ATOM      6  C8  UNL d   1       1.117  -0.247  -2.404  0.00  0.00     0.002 A 
ENDROOT
BRANCH   1   7
ATOM      7  C2  UNL d   1       1.907   1.804  -1.158  0.00  0.00     0.056 C 
BRANCH   7   8
ATOM      8  C1  UNL d   1       1.463   2.730  -0.021  0.00  0.00     0.007 C 
ATOM      9  C   UNL d   1       1.731   4.202  -0.306  0.00  0.00     0.009 C 
ENDBRANCH   7   8
ENDBRANCH   1   7
TORSDOF 2
ENDMDL
