MODEL 1
REMARK minimizedAffinity -3.48670125
REMARK minimizedRMSD -1
REMARK  2 active torsions:
REMARK  status: ('A' for Active; 'I' for Inactive)
REMARK    1  A    between atoms: C1_2  and  C2_3 
REMARK    2  A    between atoms: C2_3  and  C3_4 
ROOT
ATOM      1  C3  UNL d   1      -3.912  -0.810  -5.998  0.00  0.00    -0.075 A 
ATOM      2  C4  UNL d   1      -5.287  -1.084  -6.000  0.00  0.00     0.002 A 
ATOM      3  C5  UNL d   1      -5.747  -2.401  -5.981  0.00  0.00     0.002 A 
ATOM      4  C6  UNL d   1      -4.841  -3.458  -5.971  0.00  0.00    -0.004 A 
ATOM      5  C7  UNL d   1      -3.472  -3.198  -5.986  0.00  0.00     0.002 A 
ATOM      6  C8  UNL d   1      -3.009  -1.881  -6.000  0.00  0.00     0.002 A 
ENDROOT
BRANCH   1   7
ATOM      7  C2  UNL d   1      -3.407   0.613  -5.988  0.00  0.00     0.056 C 
BRANCH   7   8
ATOM      8  C1  UNL d   1      -4.511   1.665  -5.828  0.00  0.00     0.007 C 
ATOM      9  C   UNL d   1      -3.973   3.084  -5.700  0.00  0.00     0.009 C 
ENDBRANCH   7   8
ENDBRANCH   1   7
TORSDOF 2
ENDMDL
