MODEL 1
REMARK minimizedAffinity -2.97894764
REMARK minimizedRMSD -1
REMARK  2 active torsions:
REMARK  status: ('A' for Active; 'I' for Inactive)
REMARK    1  A    between atoms: C1_2  and  C2_3 
REMARK    2  A    between atoms: C2_3  and  C3_4 
ROOT
ATOM      1  C3  UNL d   1      -3.895   2.149  -5.990  0.00  0.00    -0.075 A 
ATOM      2  C4  UNL d   1      -3.032   3.254  -5.967  0.00  0.00     0.002 A 
ATOM      3  C5  UNL d   1      -3.544   4.552  -5.931  0.00  0.00     0.002 A 
ATOM      4  C6  UNL d   1      -4.921   4.760  -5.929  0.00  0.00    -0.004 A 
ATOM      5  C7  UNL d   1      -5.788   3.670  -5.968  0.00  0.00     0.002 A 
ATOM      6  C8  UNL d   1      -5.279   2.371  -6.000  0.00  0.00     0.002 A 
ENDROOT
BRANCH   1   7
ATOM      7  C2  UNL d   1      -3.348   0.741  -5.999  0.00  0.00     0.056 C 
BRANCH   7   8
ATOM      8  C1  UNL d   1      -4.425  -0.347  -5.952  0.00  0.00     0.007 C 
ATOM      9  C   UNL d   1      -3.855  -1.759  -5.992  0.00  0.00     0.009 C 
ENDBRANCH   7   8
ENDBRANCH   1   7
TORSDOF 2
ENDMDL
