MODEL 1
REMARK minimizedAffinity -2.17767119
REMARK minimizedRMSD -1
REMARK  2 active torsions:
REMARK  status: ('A' for Active; 'I' for Inactive)
REMARK    1  A    between atoms: C1_2  and  C2_3 
REMARK    2  A    between atoms: C2_3  and  C3_4 
ROOT
ATOM      1  C3  UNL d   1      -4.681   1.066  -5.987  0.00  0.00    -0.075 A 
ATOM      2  C4  UNL d   1      -3.298   1.301  -6.000  0.00  0.00     0.002 A 
ATOM      3  C5  UNL d   1      -2.802   2.605  -5.995  0.00  0.00     0.002 A 
ATOM      4  C6  UNL d   1      -3.679   3.688  -5.988  0.00  0.00    -0.004 A 
ATOM      5  C7  UNL d   1      -5.054   3.465  -5.993  0.00  0.00     0.002 A 
ATOM      6  C8  UNL d   1      -5.554   2.162  -5.993  0.00  0.00     0.002 A 
ENDROOT
BRANCH   1   7
ATOM      7  C2  UNL d   1      -5.224  -0.343  -5.962  0.00  0.00     0.056 C 
BRANCH   7   8
ATOM      8  C1  UNL d   1      -4.144  -1.429  -6.000  0.00  0.00     0.007 C 
ATOM      9  C   UNL d   1      -4.685  -2.824  -5.716  0.00  0.00     0.009 C 
ENDBRANCH   7   8
ENDBRANCH   1   7
TORSDOF 2
ENDMDL
