MODEL 1
REMARK minimizedAffinity 18.1052113
REMARK minimizedRMSD -1
REMARK  2 active torsions:
REMARK  status: ('A' for Active; 'I' for Inactive)
REMARK    1  A    between atoms: C1_2  and  C2_3 
REMARK    2  A    between atoms: C2_3  and  C3_4 
ROOT
ATOM      1  C3  UNL d   1      -3.335   2.237   4.036  0.00  0.00    -0.075 A 
ATOM      2  C4  UNL d   1      -2.567   3.342   3.642  0.00  0.00     0.002 A 
ATOM      3  C5  UNL d   1      -2.513   3.726   2.302  0.00  0.00     0.002 A 
ATOM      4  C6  UNL d   1      -3.217   3.007   1.339  0.00  0.00    -0.004 A 
ATOM      5  C7  UNL d   1      -3.970   1.897   1.716  0.00  0.00     0.002 A 
ATOM      6  C8  UNL d   1      -4.029   1.513   3.057  0.00  0.00     0.002 A 
ENDROOT
BRANCH   1   7
ATOM      7  C2  UNL d   1      -3.421   1.834   5.488  0.00  0.00     0.056 C 
BRANCH   7   8
ATOM      8  C1  UNL d   1      -2.194   1.071   5.998  0.00  0.00     0.007 C 
ATOM      9  C   UNL d   1      -2.383  -0.440   5.997  0.00  0.00     0.009 C 
ENDBRANCH   7   8
ENDBRANCH   1   7
TORSDOF 2
ENDMDL
