MODEL 1
REMARK minimizedAffinity 15.9385767
REMARK minimizedRMSD -1
REMARK  2 active torsions:
REMARK  status: ('A' for Active; 'I' for Inactive)
REMARK    1  A    between atoms: C1_2  and  C2_3 
REMARK    2  A    between atoms: C2_3  and  C3_4 
ROOT
ATOM      1  C3  UNL d   1       1.029   5.367   3.238  0.00  0.00    -0.075 A 
ATOM      2  C4  UNL d   1       2.211   5.393   3.993  0.00  0.00     0.002 A 
ATOM      3  C5  UNL d   1       2.175   5.688   5.356  0.00  0.00     0.002 A 
ATOM      4  C6  UNL d   1       0.961   5.970   5.979  0.00  0.00    -0.004 A 
ATOM      5  C7  UNL d   1      -0.217   5.963   5.235  0.00  0.00     0.002 A 
ATOM      6  C8  UNL d   1      -0.184   5.664   3.872  0.00  0.00     0.002 A 
ENDROOT
BRANCH   1   7
ATOM      7  C2  UNL d   1       1.058   5.021   1.769  0.00  0.00     0.056 C 
BRANCH   7   8
ATOM      8  C1  UNL d   1       0.796   3.540   1.472  0.00  0.00     0.007 C 
ATOM      9  C   UNL d   1       0.773   3.221  -0.017  0.00  0.00     0.009 C 
ENDBRANCH   7   8
ENDBRANCH   1   7
TORSDOF 2
ENDMDL
