MODEL 1
REMARK minimizedAffinity -1.03047061
REMARK minimizedRMSD -1
REMARK  2 active torsions:
REMARK  status: ('A' for Active; 'I' for Inactive)
REMARK    1  A    between atoms: C1_2  and  C2_3 
REMARK    2  A    between atoms: C2_3  and  C3_4 
ROOT
ATOM      1  C3  UNL d   1       0.479   0.374   0.842  0.00  0.00    -0.075 A 
ATOM      2  C4  UNL d   1       1.021  -0.916   0.745  0.00  0.00     0.002 A 
ATOM      3  C5  UNL d   1       1.926  -1.230  -0.269  0.00  0.00     0.002 A 
ATOM      4  C6  UNL d   1       2.292  -0.263  -1.204  0.00  0.00    -0.004 A 
ATOM      5  C7  UNL d   1       1.747   1.016  -1.127  0.00  0.00     0.002 A 
ATOM      6  C8  UNL d   1       0.844   1.334  -0.111  0.00  0.00     0.002 A 
ENDROOT
BRANCH   1   7
ATOM      7  C2  UNL d   1      -0.479   0.728   1.954  0.00  0.00     0.056 C 
BRANCH   7   8
ATOM      8  C1  UNL d   1      -0.208  -0.011   3.269  0.00  0.00     0.007 C 
ATOM      9  C   UNL d   1      -1.274   0.236   4.328  0.00  0.00     0.009 C 
ENDBRANCH   7   8
ENDBRANCH   1   7
TORSDOF 2
ENDMDL
