MODEL 1
REMARK minimizedAffinity 10.9649267
REMARK minimizedRMSD -1
REMARK  0 active torsions:
REMARK  status: ('A' for Active; 'I' for Inactive)
ROOT
ATOM      1  C2' OXE d   1       3.696   5.998   4.119  0.00  0.00     0.078 C 
ATOM      2  C1' OXE d   1       4.615   3.346   4.053  0.00  0.00     0.078 C 
ATOM      3  C1  OXE d   1       3.196   3.610   3.616  0.00  0.00    -0.078 A 
ATOM      4  C2  OXE d   1       2.740   4.904   3.696  0.00  0.00    -0.078 A 
ATOM      5  C3  OXE d   1       1.456   5.211   3.254  0.00  0.00     0.003 A 
ATOM      6  C4  OXE d   1       0.575   4.192   2.874  0.00  0.00    -0.002 A 
ATOM      7  C5  OXE d   1       1.006   2.862   2.823  0.00  0.00    -0.002 A 
ATOM      8  C6  OXE d   1       2.324   2.560   3.150  0.00  0.00     0.003 A 
ENDROOT
TORSDOF 0
ENDMDL
