MODEL 1
REMARK minimizedAffinity 14.2848692
REMARK minimizedRMSD -1
REMARK  0 active torsions:
REMARK  status: ('A' for Active; 'I' for Inactive)
ROOT
ATOM      1  C2' OXE d   1      -5.325   0.879  -0.225  0.00  0.00     0.078 C 
ATOM      2  C1' OXE d   1      -3.766  -0.845  -1.799  0.00  0.00     0.078 C 
ATOM      3  C1  OXE d   1      -4.524   0.254  -2.500  0.00  0.00    -0.078 A 
ATOM      4  C2  OXE d   1      -5.322   1.064  -1.728  0.00  0.00    -0.078 A 
ATOM      5  C3  OXE d   1      -6.000   2.127  -2.316  0.00  0.00     0.003 A 
ATOM      6  C4  OXE d   1      -5.999   2.285  -3.708  0.00  0.00    -0.002 A 
ATOM      7  C5  OXE d   1      -5.225   1.447  -4.517  0.00  0.00    -0.002 A 
ATOM      8  C6  OXE d   1      -4.450   0.455  -3.926  0.00  0.00     0.003 A 
ENDROOT
TORSDOF 0
ENDMDL
