MODEL 1
REMARK minimizedAffinity 2.08067346
REMARK minimizedRMSD -1
REMARK  0 active torsions:
REMARK  status: ('A' for Active; 'I' for Inactive)
ROOT
ATOM      1  C2' OXE d   1       0.005  -5.988   5.999  0.00  0.00     0.078 C 
ATOM      2  C1' OXE d   1      -1.695  -5.144   3.932  0.00  0.00     0.078 C 
ATOM      3  C1  OXE d   1      -0.690  -4.154   4.464  0.00  0.00    -0.078 A 
ATOM      4  C2  OXE d   1       0.107  -4.561   5.508  0.00  0.00    -0.078 A 
ATOM      5  C3  OXE d   1       1.088  -3.705   6.000  0.00  0.00     0.003 A 
ATOM      6  C4  OXE d   1       1.169  -2.383   5.546  0.00  0.00    -0.002 A 
ATOM      7  C5  OXE d   1       0.341  -1.936   4.512  0.00  0.00    -0.002 A 
ATOM      8  C6  OXE d   1      -0.563  -2.819   3.932  0.00  0.00     0.003 A 
ENDROOT
TORSDOF 0
ENDMDL
