MODEL 1
REMARK minimizedAffinity 2.4128828
REMARK minimizedRMSD -1
REMARK  0 active torsions:
REMARK  status: ('A' for Active; 'I' for Inactive)
ROOT
ATOM      1  C2' OXE d   1      -3.546   5.920   0.895  0.00  0.00     0.078 C 
ATOM      2  C1' OXE d   1      -1.771   5.997   3.068  0.00  0.00     0.078 C 
ATOM      3  C1  OXE d   1      -3.249   5.971   3.368  0.00  0.00    -0.078 A 
ATOM      4  C2  OXE d   1      -4.111   5.980   2.298  0.00  0.00    -0.078 A 
ATOM      5  C3  OXE d   1      -5.483   5.901   2.517  0.00  0.00     0.003 A 
ATOM      6  C4  OXE d   1      -5.998   5.968   3.818  0.00  0.00    -0.002 A 
ATOM      7  C5  OXE d   1      -5.138   5.999   4.921  0.00  0.00    -0.002 A 
ATOM      8  C6  OXE d   1      -3.764   5.958   4.715  0.00  0.00     0.003 A 
ENDROOT
TORSDOF 0
ENDMDL
