MODEL 1
REMARK minimizedAffinity 7.0863862
REMARK minimizedRMSD -1
REMARK  0 active torsions:
REMARK  status: ('A' for Active; 'I' for Inactive)
ROOT
ATOM      1  C2' OXE d   1      -5.869   5.997   4.367  0.00  0.00     0.078 C 
ATOM      2  C1' OXE d   1      -3.067   5.994   4.190  0.00  0.00     0.078 C 
ATOM      3  C1  OXE d   1      -3.853   5.984   2.903  0.00  0.00    -0.078 A 
ATOM      4  C2  OXE d   1      -5.223   5.938   2.999  0.00  0.00    -0.078 A 
ATOM      5  C3  OXE d   1      -5.997   5.982   1.843  0.00  0.00     0.003 A 
ATOM      6  C4  OXE d   1      -5.392   5.917   0.582  0.00  0.00    -0.002 A 
ATOM      7  C5  OXE d   1      -3.998   5.923   0.462  0.00  0.00    -0.002 A 
ATOM      8  C6  OXE d   1      -3.216   5.999   1.609  0.00  0.00     0.003 A 
ENDROOT
TORSDOF 0
ENDMDL
