MODEL 1
REMARK minimizedAffinity 4.99633169
REMARK minimizedRMSD -1
REMARK  0 active torsions:
REMARK  status: ('A' for Active; 'I' for Inactive)
ROOT
ATOM      1  C2' OXE d   1      -3.035   5.950   5.068  0.00  0.00     0.078 C 
ATOM      2  C1' OXE d   1      -5.841   5.978   5.139  0.00  0.00     0.078 C 
ATOM      3  C1  OXE d   1      -5.172   5.966   3.788  0.00  0.00    -0.078 A 
ATOM      4  C2  OXE d   1      -3.798   6.000   3.762  0.00  0.00    -0.078 A 
ATOM      5  C3  OXE d   1      -3.130   5.935   2.543  0.00  0.00     0.003 A 
ATOM      6  C4  OXE d   1      -3.843   5.992   1.340  0.00  0.00    -0.002 A 
ATOM      7  C5  OXE d   1      -5.242   5.998   1.343  0.00  0.00    -0.002 A 
ATOM      8  C6  OXE d   1      -5.920   5.943   2.556  0.00  0.00     0.003 A 
ENDROOT
TORSDOF 0
ENDMDL
