MODEL 1
REMARK minimizedAffinity -3.1796174
REMARK minimizedRMSD -1
REMARK  0 active torsions:
REMARK  status: ('A' for Active; 'I' for Inactive)
ROOT
ATOM      1  C2' OXE d   1      -4.607   5.888   5.800  0.00  0.00     0.078 C 
ATOM      2  C1' OXE d   1      -2.229   5.906   4.310  0.00  0.00     0.078 C 
ATOM      3  C1  OXE d   1      -3.533   5.936   3.553  0.00  0.00    -0.078 A 
ATOM      4  C2  OXE d   1      -4.692   5.880   4.289  0.00  0.00    -0.078 A 
ATOM      5  C3  OXE d   1      -5.923   5.961   3.644  0.00  0.00     0.003 A 
ATOM      6  C4  OXE d   1      -5.993   5.943   2.246  0.00  0.00    -0.002 A 
ATOM      7  C5  OXE d   1      -4.824   5.960   1.476  0.00  0.00    -0.002 A 
ATOM      8  C6  OXE d   1      -3.589   6.000   2.114  0.00  0.00     0.003 A 
ENDROOT
TORSDOF 0
ENDMDL
