MODEL 1
REMARK minimizedAffinity 1.58629167
REMARK minimizedRMSD -1
REMARK  0 active torsions:
REMARK  status: ('A' for Active; 'I' for Inactive)
ROOT
ATOM      1  C2' OXE d   1      -4.300   5.832   0.702  0.00  0.00     0.078 C 
ATOM      2  C1' OXE d   1      -2.067   5.981   2.396  0.00  0.00     0.078 C 
ATOM      3  C1  OXE d   1      -3.433   5.949   3.034  0.00  0.00    -0.078 A 
ATOM      4  C2  OXE d   1      -4.522   5.923   2.196  0.00  0.00    -0.078 A 
ATOM      5  C3  OXE d   1      -5.803   5.837   2.733  0.00  0.00     0.003 A 
ATOM      6  C4  OXE d   1      -6.000   5.933   4.116  0.00  0.00    -0.002 A 
ATOM      7  C5  OXE d   1      -4.906   6.000   4.986  0.00  0.00    -0.002 A 
ATOM      8  C6  OXE d   1      -3.618   5.966   4.465  0.00  0.00     0.003 A 
ENDROOT
TORSDOF 0
ENDMDL
