MODEL 1
REMARK minimizedAffinity 6.39049721
REMARK minimizedRMSD -1
REMARK  0 active torsions:
REMARK  status: ('A' for Active; 'I' for Inactive)
ROOT
ATOM      1  C2' OXE d   1       0.414  -2.066   4.093  0.00  0.00     0.078 C 
ATOM      2  C1' OXE d   1       2.028  -3.374   5.980  0.00  0.00     0.078 C 
ATOM      3  C1  OXE d   1       0.773  -4.074   5.523  0.00  0.00    -0.078 A 
ATOM      4  C2  OXE d   1      -0.035  -3.406   4.635  0.00  0.00    -0.078 A 
ATOM      5  C3  OXE d   1      -1.177  -4.029   4.139  0.00  0.00     0.003 A 
ATOM      6  C4  OXE d   1      -1.590  -5.264   4.652  0.00  0.00    -0.002 A 
ATOM      7  C5  OXE d   1      -0.802  -5.944   5.587  0.00  0.00    -0.002 A 
ATOM      8  C6  OXE d   1       0.402  -5.383   6.000  0.00  0.00     0.003 A 
ENDROOT
TORSDOF 0
ENDMDL
