MODEL 1
REMARK minimizedAffinity 0.668701947
REMARK minimizedRMSD -1
REMARK  0 active torsions:
REMARK  status: ('A' for Active; 'I' for Inactive)
ROOT
ATOM      1  C2' OXE d   1      -4.533   5.945   0.759  0.00  0.00     0.078 C 
ATOM      2  C1' OXE d   1      -2.172   5.986   2.276  0.00  0.00     0.078 C 
ATOM      3  C1  OXE d   1      -3.484   5.963   3.018  0.00  0.00    -0.078 A 
ATOM      4  C2  OXE d   1      -4.635   5.990   2.268  0.00  0.00    -0.078 A 
ATOM      5  C3  OXE d   1      -5.873   5.916   2.901  0.00  0.00     0.003 A 
ATOM      6  C4  OXE d   1      -5.959   5.968   4.298  0.00  0.00    -0.002 A 
ATOM      7  C5  OXE d   1      -4.799   5.981   5.081  0.00  0.00    -0.002 A 
ATOM      8  C6  OXE d   1      -3.556   5.936   4.458  0.00  0.00     0.003 A 
ENDROOT
TORSDOF 0
ENDMDL
