MODEL 1
REMARK minimizedAffinity 4.44382572
REMARK minimizedRMSD -1
REMARK  0 active torsions:
REMARK  status: ('A' for Active; 'I' for Inactive)
ROOT
ATOM      1  C2' OXE d   1      -4.325   5.890   0.269  0.00  0.00     0.078 C 
ATOM      2  C1' OXE d   1      -2.079   6.000   1.948  0.00  0.00     0.078 C 
ATOM      3  C1  OXE d   1      -3.441   5.967   2.596  0.00  0.00    -0.078 A 
ATOM      4  C2  OXE d   1      -4.536   5.961   1.766  0.00  0.00    -0.078 A 
ATOM      5  C3  OXE d   1      -5.814   5.876   2.311  0.00  0.00     0.003 A 
ATOM      6  C4  OXE d   1      -6.000   5.953   3.697  0.00  0.00    -0.002 A 
ATOM      7  C5  OXE d   1      -4.899   6.000   4.559  0.00  0.00    -0.002 A 
ATOM      8  C6  OXE d   1      -3.615   5.965   4.028  0.00  0.00     0.003 A 
ENDROOT
TORSDOF 0
ENDMDL
