MODEL 1
REMARK minimizedAffinity 0.99923116
REMARK minimizedRMSD -1
REMARK  0 active torsions:
REMARK  status: ('A' for Active; 'I' for Inactive)
ROOT
ATOM      1  C2' OXE d   1       3.194  -0.894   1.513  0.00  0.00     0.078 C 
ATOM      2  C1' OXE d   1       5.999  -0.822   1.582  0.00  0.00     0.078 C 
ATOM      3  C1  OXE d   1       5.290   0.205   0.736  0.00  0.00    -0.078 A 
ATOM      4  C2  OXE d   1       3.919   0.133   0.671  0.00  0.00    -0.078 A 
ATOM      5  C3  OXE d   1       3.212   1.090  -0.051  0.00  0.00     0.003 A 
ATOM      6  C4  OXE d   1       3.890   2.031  -0.835  0.00  0.00    -0.002 A 
ATOM      7  C5  OXE d   1       5.287   2.096  -0.815  0.00  0.00    -0.002 A 
ATOM      8  C6  OXE d   1       5.999   1.220  -0.003  0.00  0.00     0.003 A 
ENDROOT
TORSDOF 0
ENDMDL
