MODEL 1
REMARK minimizedAffinity 23.5171719
REMARK minimizedRMSD -1
REMARK  0 active torsions:
REMARK  status: ('A' for Active; 'I' for Inactive)
ROOT
ATOM      1  C1  DEN d   1      -3.689   5.930   2.209  0.00  0.00     0.130 A 
ATOM      2  C2  DEN d   1      -5.110   5.880   2.543  0.00  0.00    -0.031 A 
ATOM      3  C3  DEN d   1      -5.233   5.881   4.015  0.00  0.00     0.027 A 
ATOM      4  C4  DEN d   1      -3.372   5.960   5.799  0.00  0.00     0.027 A 
ATOM      5  C5  DEN d   1      -2.010   6.000   5.999  0.00  0.00    -0.003 A 
ATOM      6  C6  DEN d   1      -1.118   5.985   4.960  0.00  0.00     0.001 A 
ATOM      7  C7  DEN d   1      -1.580   5.974   3.670  0.00  0.00     0.017 A 
ATOM      8  C8  DEN d   1      -2.952   5.927   3.460  0.00  0.00    -0.094 A 
ATOM      9  C9  DEN d   1      -3.837   5.955   4.524  0.00  0.00    -0.072 A 
ENDROOT
TORSDOF 0
ENDMDL
