MODEL 1
REMARK minimizedAffinity 12.4489698
REMARK minimizedRMSD -1
REMARK  0 active torsions:
REMARK  status: ('A' for Active; 'I' for Inactive)
ROOT
ATOM      1  C1  DEN d   1      -1.275   3.989   4.538  0.00  0.00     0.130 A 
ATOM      2  C2  DEN d   1      -1.622   5.352   4.146  0.00  0.00    -0.031 A 
ATOM      3  C3  DEN d   1      -2.407   5.281   2.897  0.00  0.00     0.027 A 
ATOM      4  C4  DEN d   1      -3.119   3.205   1.543  0.00  0.00     0.027 A 
ATOM      5  C5  DEN d   1      -3.049   1.831   1.475  0.00  0.00    -0.003 A 
ATOM      6  C6  DEN d   1      -2.360   1.088   2.397  0.00  0.00     0.001 A 
ATOM      7  C7  DEN d   1      -1.750   1.713   3.453  0.00  0.00     0.017 A 
ATOM      8  C8  DEN d   1      -1.810   3.099   3.524  0.00  0.00    -0.094 A 
ATOM      9  C9  DEN d   1      -2.522   3.830   2.589  0.00  0.00    -0.072 A 
ENDROOT
TORSDOF 0
ENDMDL
