MODEL 1
REMARK minimizedAffinity 11.6144695
REMARK minimizedRMSD -1
REMARK  0 active torsions:
REMARK  status: ('A' for Active; 'I' for Inactive)
ROOT
ATOM      1  C1  DEN d   1      -3.442   3.712   2.569  0.00  0.00     0.130 A 
ATOM      2  C2  DEN d   1      -4.807   4.120   2.248  0.00  0.00    -0.031 A 
ATOM      3  C3  DEN d   1      -5.246   5.090   3.271  0.00  0.00     0.027 A 
ATOM      4  C4  DEN d   1      -3.950   6.000   5.307  0.00  0.00     0.027 A 
ATOM      5  C5  DEN d   1      -2.761   5.938   6.000  0.00  0.00    -0.003 A 
ATOM      6  C6  DEN d   1      -1.737   5.112   5.620  0.00  0.00     0.001 A 
ATOM      7  C7  DEN d   1      -1.865   4.346   4.492  0.00  0.00     0.017 A 
ATOM      8  C8  DEN d   1      -3.063   4.398   3.792  0.00  0.00    -0.094 A 
ATOM      9  C9  DEN d   1      -4.082   5.248   4.185  0.00  0.00    -0.072 A 
ENDROOT
TORSDOF 0
ENDMDL
