MODEL 1
REMARK minimizedAffinity 4.55086565
REMARK minimizedRMSD -1
REMARK  0 active torsions:
REMARK  status: ('A' for Active; 'I' for Inactive)
ROOT
ATOM      1  C1  DEN d   1       2.531   5.548  -0.688  0.00  0.00     0.130 A 
ATOM      2  C2  DEN d   1       3.089   5.118  -1.967  0.00  0.00    -0.031 A 
ATOM      3  C3  DEN d   1       4.540   4.915  -1.786  0.00  0.00     0.027 A 
ATOM      4  C4  DEN d   1       5.969   5.217   0.340  0.00  0.00     0.027 A 
ATOM      5  C5  DEN d   1       5.942   5.579   1.668  0.00  0.00    -0.003 A 
ATOM      6  C6  DEN d   1       4.791   5.986   2.291  0.00  0.00     0.001 A 
ATOM      7  C7  DEN d   1       3.611   5.997   1.596  0.00  0.00     0.017 A 
ATOM      8  C8  DEN d   1       3.632   5.640   0.254  0.00  0.00    -0.094 A 
ATOM      9  C9  DEN d   1       4.803   5.220  -0.354  0.00  0.00    -0.072 A 
ENDROOT
TORSDOF 0
ENDMDL
