MODEL 1
REMARK minimizedAffinity 10.580205
REMARK minimizedRMSD -1
REMARK  0 active torsions:
REMARK  status: ('A' for Active; 'I' for Inactive)
ROOT
ATOM      1  C1  DEN d   1      -2.651   3.278   1.465  0.00  0.00     0.130 A 
ATOM      2  C2  DEN d   1      -2.662   3.502   2.907  0.00  0.00    -0.031 A 
ATOM      3  C3  DEN d   1      -2.716   2.186   3.574  0.00  0.00     0.027 A 
ATOM      4  C4  DEN d   1      -2.781  -0.166   2.518  0.00  0.00     0.027 A 
ATOM      5  C5  DEN d   1      -2.802  -0.863   1.330  0.00  0.00    -0.003 A 
ATOM      6  C6  DEN d   1      -2.808  -0.233   0.114  0.00  0.00     0.001 A 
ATOM      7  C7  DEN d   1      -2.748   1.134   0.057  0.00  0.00     0.017 A 
ATOM      8  C8  DEN d   1      -2.734   1.844   1.251  0.00  0.00    -0.094 A 
ATOM      9  C9  DEN d   1      -2.716   1.188   2.470  0.00  0.00    -0.072 A 
ENDROOT
TORSDOF 0
ENDMDL
