MODEL 1
REMARK minimizedAffinity 12.8081837
REMARK minimizedRMSD -1
REMARK  0 active torsions:
REMARK  status: ('A' for Active; 'I' for Inactive)
ROOT
ATOM      1  C1  DEN d   1       3.816   5.996   4.458  0.00  0.00     0.130 A 
ATOM      2  C2  DEN d   1       4.959   5.682   5.311  0.00  0.00    -0.031 A 
ATOM      3  C3  DEN d   1       5.972   4.998   4.483  0.00  0.00     0.027 A 
ATOM      4  C4  DEN d   1       5.885   4.402   1.975  0.00  0.00     0.027 A 
ATOM      5  C5  DEN d   1       5.115   4.456   0.834  0.00  0.00    -0.003 A 
ATOM      6  C6  DEN d   1       3.855   4.992   0.829  0.00  0.00     0.001 A 
ATOM      7  C7  DEN d   1       3.344   5.537   1.978  0.00  0.00     0.017 A 
ATOM      8  C8  DEN d   1       4.112   5.479   3.133  0.00  0.00    -0.094 A 
ATOM      9  C9  DEN d   1       5.389   4.944   3.115  0.00  0.00    -0.072 A 
ENDROOT
TORSDOF 0
ENDMDL
