MODEL 1
REMARK minimizedAffinity 8.91331387
REMARK minimizedRMSD -1
REMARK  0 active torsions:
REMARK  status: ('A' for Active; 'I' for Inactive)
ROOT
ATOM      1  C1  DEN d   1       0.591  -0.842  -2.225  0.00  0.00     0.130 A 
ATOM      2  C2  DEN d   1       1.043   0.172  -3.173  0.00  0.00    -0.031 A 
ATOM      3  C3  DEN d   1       0.091   1.300  -3.125  0.00  0.00     0.027 A 
ATOM      4  C4  DEN d   1      -2.026   1.574  -1.677  0.00  0.00     0.027 A 
ATOM      5  C5  DEN d   1      -2.824   0.972  -0.729  0.00  0.00    -0.003 A 
ATOM      6  C6  DEN d   1      -2.560  -0.281  -0.242  0.00  0.00     0.001 A 
ATOM      7  C7  DEN d   1      -1.446  -0.954  -0.669  0.00  0.00     0.017 A 
ATOM      8  C8  DEN d   1      -0.641  -0.357  -1.630  0.00  0.00    -0.094 A 
ATOM      9  C9  DEN d   1      -0.918   0.915  -2.101  0.00  0.00    -0.072 A 
ENDROOT
TORSDOF 0
ENDMDL
