MODEL 1
REMARK minimizedAffinity 13.1588354
REMARK minimizedRMSD -1
REMARK  0 active torsions:
REMARK  status: ('A' for Active; 'I' for Inactive)
ROOT
ATOM      1  C1  DEN d   1      -0.494   6.000  -1.784  0.00  0.00     0.130 A 
ATOM      2  C2  DEN d   1      -0.021   5.973  -0.402  0.00  0.00    -0.031 A 
ATOM      3  C3  DEN d   1       1.455   5.956  -0.426  0.00  0.00     0.027 A 
ATOM      4  C4  DEN d   1       3.046   5.974  -2.456  0.00  0.00     0.027 A 
ATOM      5  C5  DEN d   1       3.110   5.983  -3.832  0.00  0.00    -0.003 A 
ATOM      6  C6  DEN d   1       1.986   5.965  -4.616  0.00  0.00     0.001 A 
ATOM      7  C7  DEN d   1       0.749   5.982  -4.028  0.00  0.00     0.017 A 
ATOM      8  C8  DEN d   1       0.676   5.964  -2.641  0.00  0.00    -0.094 A 
ATOM      9  C9  DEN d   1       1.824   5.995  -1.867  0.00  0.00    -0.072 A 
ENDROOT
TORSDOF 0
ENDMDL
