MODEL 1
REMARK minimizedAffinity -0.947730124
REMARK minimizedRMSD -1
REMARK  0 active torsions:
REMARK  status: ('A' for Active; 'I' for Inactive)
ROOT
ATOM      1  C1  DEN d   1      -3.294   0.279   2.693  0.00  0.00     0.130 A 
ATOM      2  C2  DEN d   1      -1.888   0.337   2.301  0.00  0.00    -0.031 A 
ATOM      3  C3  DEN d   1      -1.771  -0.223   0.940  0.00  0.00     0.027 A 
ATOM      4  C4  DEN d   1      -3.620  -1.165  -0.592  0.00  0.00     0.027 A 
ATOM      5  C5  DEN d   1      -4.967  -1.435  -0.690  0.00  0.00    -0.003 A 
ATOM      6  C6  DEN d   1      -5.838  -1.185   0.336  0.00  0.00     0.001 A 
ATOM      7  C7  DEN d   1      -5.379  -0.608   1.491  0.00  0.00     0.017 A 
ATOM      8  C8  DEN d   1      -4.021  -0.340   1.600  0.00  0.00    -0.094 A 
ATOM      9  C9  DEN d   1      -3.158  -0.589   0.546  0.00  0.00    -0.072 A 
ENDROOT
TORSDOF 0
ENDMDL
