MODEL 1
REMARK minimizedAffinity 6.11970758
REMARK minimizedRMSD -1
REMARK  0 active torsions:
REMARK  status: ('A' for Active; 'I' for Inactive)
ROOT
ATOM      1  C1  DEN d   1      -2.682   1.624   4.184  0.00  0.00     0.130 A 
ATOM      2  C2  DEN d   1      -1.894   1.284   3.003  0.00  0.00    -0.031 A 
ATOM      3  C3  DEN d   1      -2.649   0.284   2.222  0.00  0.00     0.027 A 
ATOM      4  C4  DEN d   1      -4.952  -0.764   2.723  0.00  0.00     0.027 A 
ATOM      5  C5  DEN d   1      -6.000  -0.797   3.617  0.00  0.00    -0.003 A 
ATOM      6  C6  DEN d   1      -6.000  -0.057   4.770  0.00  0.00     0.001 A 
ATOM      7  C7  DEN d   1      -4.951   0.782   5.038  0.00  0.00     0.017 A 
ATOM      8  C8  DEN d   1      -3.887   0.815   4.145  0.00  0.00    -0.094 A 
ATOM      9  C9  DEN d   1      -3.912   0.069   2.979  0.00  0.00    -0.072 A 
ENDROOT
TORSDOF 0
ENDMDL
