MODEL 1
REMARK minimizedAffinity -1.23407388
REMARK minimizedRMSD -1
REMARK  1 active torsions:
REMARK  status: ('A' for Active; 'I' for Inactive)
REMARK    1  A    between atoms: C3_4  and  O_7 
ROOT
ATOM      1  C   UNL d   1      -1.251  -1.924   2.727  0.00  0.00    -0.033 A 
ATOM      2  C1  UNL d   1      -1.762  -1.609   1.466  0.00  0.00     0.039 A 
ATOM      3  C2  UNL d   1      -1.638  -2.519   0.414  0.00  0.00    -0.080 A 
ATOM      4  C3  UNL d   1      -1.003  -3.738   0.635  0.00  0.00     0.150 A 
ATOM      5  C4  UNL d   1      -0.495  -4.059   1.890  0.00  0.00    -0.007 A 
ATOM      6  C5  UNL d   1      -0.619  -3.149   2.939  0.00  0.00     0.039 A 
ENDROOT
BRANCH   4   7
ATOM      7  O   UNL d   1      -0.854  -4.655  -0.362  0.00  0.00    -0.526 OA
ATOM      8  H5  UNL d   1      -1.227  -4.285  -1.179  0.00  0.00     0.418 HD
ENDBRANCH   4   7
TORSDOF 1
ENDMDL
