MODEL 1
REMARK minimizedAffinity -1.51958895
REMARK minimizedRMSD -1
REMARK  1 active torsions:
REMARK  status: ('A' for Active; 'I' for Inactive)
REMARK    1  A    between atoms: C3_4  and  O_7 
ROOT
ATOM      1  C   UNL d   1       4.795   0.233   5.901  0.00  0.00    -0.033 A 
ATOM      2  C1  UNL d   1       3.581   0.922   5.918  0.00  0.00     0.039 A 
ATOM      3  C2  UNL d   1       3.570   2.318   5.949  0.00  0.00    -0.080 A 
ATOM      4  C3  UNL d   1       4.777   3.011   5.960  0.00  0.00     0.150 A 
ATOM      5  C4  UNL d   1       5.990   2.331   5.939  0.00  0.00    -0.007 A 
ATOM      6  C5  UNL d   1       6.000   0.937   5.910  0.00  0.00     0.039 A 
ENDROOT
BRANCH   4   7
ATOM      7  O   UNL d   1       4.816   4.374   5.994  0.00  0.00    -0.526 OA
ATOM      8  H5  UNL d   1       3.904   4.707   6.035  0.00  0.00     0.418 HD
ENDBRANCH   4   7
TORSDOF 1
ENDMDL
