MODEL 1
REMARK minimizedAffinity 13.5626726
REMARK minimizedRMSD -1
REMARK  1 active torsions:
REMARK  status: ('A' for Active; 'I' for Inactive)
REMARK    1  A    between atoms: C3_4  and  O_7 
ROOT
ATOM      1  C   UNL d   1      -1.749  -5.996   5.749  0.00  0.00    -0.033 A 
ATOM      2  C1  UNL d   1      -0.775  -5.027   5.999  0.00  0.00     0.039 A 
ATOM      3  C2  UNL d   1      -0.671  -3.909   5.170  0.00  0.00    -0.080 A 
ATOM      4  C3  UNL d   1      -1.547  -3.770   4.096  0.00  0.00     0.150 A 
ATOM      5  C4  UNL d   1      -2.522  -4.729   3.844  0.00  0.00    -0.007 A 
ATOM      6  C5  UNL d   1      -2.624  -5.846   4.672  0.00  0.00     0.039 A 
ENDROOT
BRANCH   4   7
ATOM      7  O   UNL d   1      -1.481  -2.698   3.257  0.00  0.00    -0.526 OA
ATOM      8  H5  UNL d   1      -0.741  -2.133   3.536  0.00  0.00     0.418 HD
ENDBRANCH   4   7
TORSDOF 1
ENDMDL
