MODEL 1
REMARK minimizedAffinity 9.90641785
REMARK minimizedRMSD -1
REMARK  1 active torsions:
REMARK  status: ('A' for Active; 'I' for Inactive)
REMARK    1  A    between atoms: C3_4  and  O_7 
ROOT
ATOM      1  C   UNL d   1      -6.000   5.815  -4.671  0.00  0.00    -0.033 A 
ATOM      2  C1  UNL d   1      -4.977   5.958  -3.731  0.00  0.00     0.039 A 
ATOM      3  C2  UNL d   1      -3.955   5.010  -3.660  0.00  0.00    -0.080 A 
ATOM      4  C3  UNL d   1      -3.965   3.926  -4.533  0.00  0.00     0.150 A 
ATOM      5  C4  UNL d   1      -4.979   3.780  -5.475  0.00  0.00    -0.007 A 
ATOM      6  C5  UNL d   1      -6.000   4.726  -5.544  0.00  0.00     0.039 A 
ENDROOT
BRANCH   4   7
ATOM      7  O   UNL d   1      -2.991   2.973  -4.499  0.00  0.00    -0.526 OA
ATOM      8  H5  UNL d   1      -2.374   3.190  -3.780  0.00  0.00     0.418 HD
ENDBRANCH   4   7
TORSDOF 1
ENDMDL
