MODEL 1
REMARK minimizedAffinity -0.436876923
REMARK minimizedRMSD -1
REMARK  1 active torsions:
REMARK  status: ('A' for Active; 'I' for Inactive)
REMARK    1  A    between atoms: C3_4  and  O_7 
ROOT
ATOM      1  C   UNL d   1      -5.998   4.860   1.384  0.00  0.00    -0.033 A 
ATOM      2  C1  UNL d   1      -5.233   3.728   1.095  0.00  0.00     0.039 A 
ATOM      3  C2  UNL d   1      -4.367   3.730   0.000  0.00  0.00    -0.080 A 
ATOM      4  C3  UNL d   1      -4.274   4.868  -0.797  0.00  0.00     0.150 A 
ATOM      5  C4  UNL d   1      -5.031   6.000  -0.513  0.00  0.00    -0.007 A 
ATOM      6  C5  UNL d   1      -5.896   5.996   0.581  0.00  0.00     0.039 A 
ENDROOT
BRANCH   4   7
ATOM      7  O   UNL d   1      -3.446   4.915  -1.879  0.00  0.00    -0.526 OA
ATOM      8  H5  UNL d   1      -3.008   4.052  -1.969  0.00  0.00     0.418 HD
ENDBRANCH   4   7
TORSDOF 1
ENDMDL
