MODEL 1
REMARK minimizedAffinity 15.129734
REMARK minimizedRMSD -1
REMARK  1 active torsions:
REMARK  status: ('A' for Active; 'I' for Inactive)
REMARK    1  A    between atoms: C3_4  and  O_7 
ROOT
ATOM      1  C   UNL d   1       5.322   2.541  -0.682  0.00  0.00    -0.033 A 
ATOM      2  C1  UNL d   1       5.999   3.724  -0.985  0.00  0.00     0.039 A 
ATOM      3  C2  UNL d   1       5.703   4.898  -0.290  0.00  0.00    -0.080 A 
ATOM      4  C3  UNL d   1       4.730   4.875   0.706  0.00  0.00     0.150 A 
ATOM      5  C4  UNL d   1       4.055   3.700   1.016  0.00  0.00    -0.007 A 
ATOM      6  C5  UNL d   1       4.351   2.529   0.319  0.00  0.00     0.039 A 
ENDROOT
BRANCH   4   7
ATOM      7  O   UNL d   1       4.404   5.997   1.408  0.00  0.00    -0.526 OA
ATOM      8  H5  UNL d   1       4.931   6.739   1.066  0.00  0.00     0.418 HD
ENDBRANCH   4   7
TORSDOF 1
ENDMDL
