MODEL 1
REMARK minimizedAffinity 10.9331999
REMARK minimizedRMSD -1
REMARK  1 active torsions:
REMARK  status: ('A' for Active; 'I' for Inactive)
REMARK    1  A    between atoms: C3_4  and  O_7 
ROOT
ATOM      1  C   UNL d   1      -2.141  -1.622  -0.948  0.00  0.00    -0.033 A 
ATOM      2  C1  UNL d   1      -1.768  -1.348  -2.265  0.00  0.00     0.039 A 
ATOM      3  C2  UNL d   1      -0.449  -0.999  -2.561  0.00  0.00    -0.080 A 
ATOM      4  C3  UNL d   1       0.487  -0.928  -1.533  0.00  0.00     0.150 A 
ATOM      5  C4  UNL d   1       0.123  -1.204  -0.219  0.00  0.00    -0.007 A 
ATOM      6  C5  UNL d   1      -1.195  -1.552   0.075  0.00  0.00     0.039 A 
ENDROOT
BRANCH   4   7
ATOM      7  O   UNL d   1       1.785  -0.587  -1.772  0.00  0.00    -0.526 OA
ATOM      8  H5  UNL d   1       1.883  -0.397  -2.720  0.00  0.00     0.418 HD
ENDBRANCH   4   7
TORSDOF 1
ENDMDL
