MODEL 1
REMARK minimizedAffinity 8.57487106
REMARK minimizedRMSD -1
REMARK  1 active torsions:
REMARK  status: ('A' for Active; 'I' for Inactive)
REMARK    1  A    between atoms: C3_4  and  O_7 
ROOT
ATOM      1  C   UNL d   1      -5.652   5.999   0.171  0.00  0.00    -0.033 A 
ATOM      2  C1  UNL d   1      -6.000   5.053   1.138  0.00  0.00     0.039 A 
ATOM      3  C2  UNL d   1      -5.186   3.940   1.352  0.00  0.00    -0.080 A 
ATOM      4  C3  UNL d   1      -4.028   3.784   0.595  0.00  0.00     0.150 A 
ATOM      5  C4  UNL d   1      -3.673   4.724  -0.366  0.00  0.00    -0.007 A 
ATOM      6  C5  UNL d   1      -4.488   5.835  -0.580  0.00  0.00     0.039 A 
ENDROOT
BRANCH   4   7
ATOM      7  O   UNL d   1      -3.204   2.711   0.765  0.00  0.00    -0.526 OA
ATOM      8  H5  UNL d   1      -3.590   2.131   1.443  0.00  0.00     0.418 HD
ENDBRANCH   4   7
TORSDOF 1
ENDMDL
