MODEL 1
REMARK minimizedAffinity 6.15669012
REMARK minimizedRMSD -1
REMARK  1 active torsions:
REMARK  status: ('A' for Active; 'I' for Inactive)
REMARK    1  A    between atoms: C3_4  and  O_7 
ROOT
ATOM      1  C   UNL d   1      -5.200   5.608   0.280  0.00  0.00    -0.033 A 
ATOM      2  C1  UNL d   1      -3.879   5.212   0.063  0.00  0.00     0.039 A 
ATOM      3  C2  UNL d   1      -3.354   5.203  -1.230  0.00  0.00    -0.080 A 
ATOM      4  C3  UNL d   1      -4.159   5.592  -2.297  0.00  0.00     0.150 A 
ATOM      5  C4  UNL d   1      -5.475   5.992  -2.088  0.00  0.00    -0.007 A 
ATOM      6  C5  UNL d   1      -5.998   5.999  -0.796  0.00  0.00     0.039 A 
ENDROOT
BRANCH   4   7
ATOM      7  O   UNL d   1      -3.692   5.596  -3.578  0.00  0.00    -0.526 OA
ATOM      8  H5  UNL d   1      -2.777   5.269  -3.573  0.00  0.00     0.418 HD
ENDBRANCH   4   7
TORSDOF 1
ENDMDL
