MODEL 1
REMARK minimizedAffinity 12.4809256
REMARK minimizedRMSD -1
REMARK  1 active torsions:
REMARK  status: ('A' for Active; 'I' for Inactive)
REMARK    1  A    between atoms: C3_4  and  O_7 
ROOT
ATOM      1  C   UNL d   1      -1.697  -3.151  -1.714  0.00  0.00    -0.033 A 
ATOM      2  C1  UNL d   1      -1.545  -2.968  -3.090  0.00  0.00     0.039 A 
ATOM      3  C2  UNL d   1      -2.125  -1.863  -3.717  0.00  0.00    -0.080 A 
ATOM      4  C3  UNL d   1      -2.851  -0.950  -2.958  0.00  0.00     0.150 A 
ATOM      5  C4  UNL d   1      -3.003  -1.124  -1.586  0.00  0.00    -0.007 A 
ATOM      6  C5  UNL d   1      -2.424  -2.228  -0.962  0.00  0.00     0.039 A 
ENDROOT
BRANCH   4   7
ATOM      7  O   UNL d   1      -3.439   0.141  -3.527  0.00  0.00    -0.526 OA
ATOM      8  H5  UNL d   1      -3.274   0.115  -4.484  0.00  0.00     0.418 HD
ENDBRANCH   4   7
TORSDOF 1
ENDMDL
