MODEL 1
REMARK minimizedAffinity 0.577883661
REMARK minimizedRMSD -1
REMARK  1 active torsions:
REMARK  status: ('A' for Active; 'I' for Inactive)
REMARK    1  A    between atoms: C3_4  and  O_7 
ROOT
ATOM      1  C   UNL d   1      -5.119   5.123   1.533  0.00  0.00    -0.033 A 
ATOM      2  C1  UNL d   1      -6.000   5.710   0.622  0.00  0.00     0.039 A 
ATOM      3  C2  UNL d   1      -5.574   6.000  -0.676  0.00  0.00    -0.080 A 
ATOM      4  C3  UNL d   1      -4.268   5.696  -1.050  0.00  0.00     0.150 A 
ATOM      5  C4  UNL d   1      -3.387   5.108  -0.149  0.00  0.00    -0.007 A 
ATOM      6  C5  UNL d   1      -3.813   4.820   1.147  0.00  0.00     0.039 A 
ENDROOT
BRANCH   4   7
ATOM      7  O   UNL d   1      -3.806   5.964  -2.305  0.00  0.00    -0.526 OA
ATOM      8  H5  UNL d   1      -4.516   6.396  -2.808  0.00  0.00     0.418 HD
ENDBRANCH   4   7
TORSDOF 1
ENDMDL
