MODEL 1
REMARK minimizedAffinity 10.555788
REMARK minimizedRMSD -1
REMARK  1 active torsions:
REMARK  status: ('A' for Active; 'I' for Inactive)
REMARK    1  A    between atoms: C3_4  and  O_7 
ROOT
ATOM      1  C   UNL d   1      -0.744  -2.557   5.255  0.00  0.00    -0.033 A 
ATOM      2  C1  UNL d   1      -0.411  -3.690   6.000  0.00  0.00     0.039 A 
ATOM      3  C2  UNL d   1      -1.247  -4.808   5.984  0.00  0.00    -0.080 A 
ATOM      4  C3  UNL d   1      -2.410  -4.781   5.220  0.00  0.00     0.150 A 
ATOM      5  C4  UNL d   1      -2.746  -3.657   4.473  0.00  0.00    -0.007 A 
ATOM      6  C5  UNL d   1      -1.911  -2.541   4.491  0.00  0.00     0.039 A 
ENDROOT
BRANCH   4   7
ATOM      7  O   UNL d   1      -3.260  -5.847   5.177  0.00  0.00    -0.526 OA
ATOM      8  H5  UNL d   1      -2.914  -6.540   5.764  0.00  0.00     0.418 HD
ENDBRANCH   4   7
TORSDOF 1
ENDMDL
