MODEL 1
REMARK minimizedAffinity 9.1421299
REMARK minimizedRMSD -1
REMARK  1 active torsions:
REMARK  status: ('A' for Active; 'I' for Inactive)
REMARK    1  A    between atoms: C3_4  and  O_7 
ROOT
ATOM      1  C   UNL d   1      -2.987  -0.925  -0.196  0.00  0.00    -0.033 A 
ATOM      2  C1  UNL d   1      -3.073  -1.290   1.148  0.00  0.00     0.039 A 
ATOM      3  C2  UNL d   1      -2.243  -2.292   1.656  0.00  0.00    -0.080 A 
ATOM      4  C3  UNL d   1      -1.332  -2.918   0.810  0.00  0.00     0.150 A 
ATOM      5  C4  UNL d   1      -1.238  -2.556  -0.530  0.00  0.00    -0.007 A 
ATOM      6  C5  UNL d   1      -2.068  -1.557  -1.035  0.00  0.00     0.039 A 
ENDROOT
BRANCH   4   7
ATOM      7  O   UNL d   1      -0.505  -3.905   1.259  0.00  0.00    -0.526 OA
ATOM      8  H5  UNL d   1      -0.702  -4.069   2.196  0.00  0.00     0.418 HD
ENDBRANCH   4   7
TORSDOF 1
ENDMDL
