MODEL 1
REMARK minimizedAffinity 3.7852366
REMARK minimizedRMSD -1
REMARK  1 active torsions:
REMARK  status: ('A' for Active; 'I' for Inactive)
REMARK    1  A    between atoms: C3_4  and  O_7 
ROOT
ATOM      1  C   UNL d   1      -2.872  -0.943   0.193  0.00  0.00    -0.033 A 
ATOM      2  C1  UNL d   1      -1.927  -1.350  -0.751  0.00  0.00     0.039 A 
ATOM      3  C2  UNL d   1      -0.903  -2.225  -0.383  0.00  0.00    -0.080 A 
ATOM      4  C3  UNL d   1      -0.836  -2.686   0.929  0.00  0.00     0.150 A 
ATOM      5  C4  UNL d   1      -1.776  -2.288   1.873  0.00  0.00    -0.007 A 
ATOM      6  C5  UNL d   1      -2.797  -1.413   1.505  0.00  0.00     0.039 A 
ENDROOT
BRANCH   4   7
ATOM      7  O   UNL d   1       0.148  -3.538   1.335  0.00  0.00    -0.526 OA
ATOM      8  H5  UNL d   1       0.742  -3.704   0.584  0.00  0.00     0.418 HD
ENDBRANCH   4   7
TORSDOF 1
ENDMDL
