MODEL 1
REMARK minimizedAffinity 7.24525166
REMARK minimizedRMSD -1
REMARK  1 active torsions:
REMARK  status: ('A' for Active; 'I' for Inactive)
REMARK    1  A    between atoms: C3_4  and  O_7 
ROOT
ATOM      1  C   UNL d   1       5.162   1.910   0.304  0.00  0.00    -0.033 A 
ATOM      2  C1  UNL d   1       5.948   2.332  -0.770  0.00  0.00     0.039 A 
ATOM      3  C2  UNL d   1       5.999   3.686  -1.109  0.00  0.00    -0.080 A 
ATOM      4  C3  UNL d   1       5.263   4.605  -0.367  0.00  0.00     0.150 A 
ATOM      5  C4  UNL d   1       4.481   4.191   0.707  0.00  0.00    -0.007 A 
ATOM      6  C5  UNL d   1       4.430   2.839   1.043  0.00  0.00     0.039 A 
ENDROOT
BRANCH   4   7
ATOM      7  O   UNL d   1       5.278   5.935  -0.663  0.00  0.00    -0.526 OA
ATOM      8  H5  UNL d   1       5.838   6.070  -1.446  0.00  0.00     0.418 HD
ENDBRANCH   4   7
TORSDOF 1
ENDMDL
