MODEL 1
REMARK minimizedAffinity 4.12093878
REMARK minimizedRMSD -1
REMARK  1 active torsions:
REMARK  status: ('A' for Active; 'I' for Inactive)
REMARK    1  A    between atoms: C3_4  and  O_7 
ROOT
ATOM      1  C   UNL d   1      -2.255  -2.629   5.238  0.00  0.00    -0.033 A 
ATOM      2  C1  UNL d   1      -1.270  -1.683   4.948  0.00  0.00     0.039 A 
ATOM      3  C2  UNL d   1      -1.512  -0.327   5.177  0.00  0.00    -0.080 A 
ATOM      4  C3  UNL d   1      -2.742   0.068   5.697  0.00  0.00     0.150 A 
ATOM      5  C4  UNL d   1      -3.726  -0.869   5.992  0.00  0.00    -0.007 A 
ATOM      6  C5  UNL d   1      -3.482  -2.222   5.762  0.00  0.00     0.039 A 
ENDROOT
BRANCH   4   7
ATOM      7  O   UNL d   1      -3.026   1.381   5.934  0.00  0.00    -0.526 OA
ATOM      8  H5  UNL d   1      -2.264   1.916   5.656  0.00  0.00     0.418 HD
ENDBRANCH   4   7
TORSDOF 1
ENDMDL
