MODEL 1
REMARK minimizedAffinity 3.50025272
REMARK minimizedRMSD -1
REMARK  0 active torsions:
REMARK  status: ('A' for Active; 'I' for Inactive)
ROOT
ATOM      1  C   UNL d   1      -1.683  -5.700  -5.689  0.00  0.00     0.172 C 
ATOM      2  N   UNL d   1      -3.034  -5.204  -5.803  0.00  0.00    -0.070 N 
ATOM      3  C1  UNL d   1      -4.164  -5.974  -5.876  0.00  0.00    -0.004 A 
ATOM      4  C2  UNL d   1      -5.247  -5.127  -5.975  0.00  0.00    -0.047 A 
ATOM      5  C3  UNL d   1      -4.750  -3.802  -5.962  0.00  0.00    -0.047 A 
ATOM      6  C4  UNL d   1      -3.377  -3.879  -5.855  0.00  0.00    -0.004 A 
ENDROOT
TORSDOF 0
ENDMDL
