MODEL 1
REMARK minimizedAffinity -0.0304100867
REMARK minimizedRMSD -1
REMARK  0 active torsions:
REMARK  status: ('A' for Active; 'I' for Inactive)
ROOT
ATOM      1  C   UNL d   1      -2.298  -4.542  -5.828  0.00  0.00     0.172 C 
ATOM      2  N   UNL d   1      -3.722  -4.777  -5.871  0.00  0.00    -0.070 N 
ATOM      3  C1  UNL d   1      -4.333  -6.000  -5.790  0.00  0.00    -0.004 A 
ATOM      4  C2  UNL d   1      -5.694  -5.798  -5.867  0.00  0.00    -0.047 A 
ATOM      5  C3  UNL d   1      -5.909  -4.406  -6.000  0.00  0.00    -0.047 A 
ATOM      6  C4  UNL d   1      -4.671  -3.797  -5.999  0.00  0.00    -0.004 A 
ENDROOT
TORSDOF 0
ENDMDL
