MODEL 1
REMARK minimizedAffinity 2.71873045
REMARK minimizedRMSD -1
REMARK  0 active torsions:
REMARK  status: ('A' for Active; 'I' for Inactive)
ROOT
ATOM      1  C   UNL d   1      -5.999  -2.999   4.501  0.00  0.00     0.172 C 
ATOM      2  N   UNL d   1      -5.157  -2.073   3.781  0.00  0.00    -0.070 N 
ATOM      3  C1  UNL d   1      -5.506  -0.804   3.405  0.00  0.00    -0.004 A 
ATOM      4  C2  UNL d   1      -4.432  -0.249   2.743  0.00  0.00    -0.047 A 
ATOM      5  C3  UNL d   1      -3.402  -1.219   2.720  0.00  0.00    -0.047 A 
ATOM      6  C4  UNL d   1      -3.878  -2.338   3.370  0.00  0.00    -0.004 A 
ENDROOT
TORSDOF 0
ENDMDL
