MODEL 1
REMARK minimizedAffinity 3.81132865
REMARK minimizedRMSD -1
REMARK  0 active torsions:
REMARK  status: ('A' for Active; 'I' for Inactive)
ROOT
ATOM      1  C   UNL d   1      -4.118  -2.411  -5.999  0.00  0.00     0.172 C 
ATOM      2  N   UNL d   1      -4.033  -3.853  -5.988  0.00  0.00    -0.070 N 
ATOM      3  C1  UNL d   1      -2.875  -4.584  -5.965  0.00  0.00    -0.004 A 
ATOM      4  C2  UNL d   1      -3.219  -5.918  -5.960  0.00  0.00    -0.047 A 
ATOM      5  C3  UNL d   1      -4.632  -5.992  -5.982  0.00  0.00    -0.047 A 
ATOM      6  C4  UNL d   1      -5.110  -4.699  -5.998  0.00  0.00    -0.004 A 
ENDROOT
TORSDOF 0
ENDMDL
