MODEL 1
REMARK minimizedAffinity 4.13719082
REMARK minimizedRMSD -1
REMARK  0 active torsions:
REMARK  status: ('A' for Active; 'I' for Inactive)
ROOT
ATOM      1  C   UNL d   1      -0.333  -4.489  -2.975  0.00  0.00     0.172 C 
ATOM      2  N   UNL d   1      -1.068  -4.910  -4.144  0.00  0.00    -0.070 N 
ATOM      3  C1  UNL d   1      -2.276  -4.408  -4.550  0.00  0.00    -0.004 A 
ATOM      4  C2  UNL d   1      -2.641  -5.068  -5.704  0.00  0.00    -0.047 A 
ATOM      5  C3  UNL d   1      -1.617  -6.000  -6.000  0.00  0.00    -0.047 A 
ATOM      6  C4  UNL d   1      -0.657  -5.881  -5.018  0.00  0.00    -0.004 A 
ENDROOT
TORSDOF 0
ENDMDL
