MODEL 1
REMARK minimizedAffinity 3.80337453
REMARK minimizedRMSD -1
REMARK  0 active torsions:
REMARK  status: ('A' for Active; 'I' for Inactive)
ROOT
ATOM      1  C   UNL d   1      -1.264   5.819  -0.735  0.00  0.00     0.172 C 
ATOM      2  N   UNL d   1      -1.015   4.397  -0.691  0.00  0.00    -0.070 N 
ATOM      3  C1  UNL d   1      -0.681   3.612  -1.762  0.00  0.00    -0.004 A 
ATOM      4  C2  UNL d   1      -0.529   2.320  -1.307  0.00  0.00    -0.047 A 
ATOM      5  C3  UNL d   1      -0.782   2.329   0.086  0.00  0.00    -0.047 A 
ATOM      6  C4  UNL d   1      -1.080   3.628   0.440  0.00  0.00    -0.004 A 
ENDROOT
TORSDOF 0
ENDMDL
