MODEL 1
REMARK minimizedAffinity 1.37653387
REMARK minimizedRMSD -1
REMARK  0 active torsions:
REMARK  status: ('A' for Active; 'I' for Inactive)
ROOT
ATOM      1  C   UNL d   1      -2.017   6.000   0.668  0.00  0.00     0.172 C 
ATOM      2  N   UNL d   1      -0.997   5.142   0.113  0.00  0.00    -0.070 N 
ATOM      3  C1  UNL d   1      -0.786   3.831   0.450  0.00  0.00    -0.004 A 
ATOM      4  C2  UNL d   1       0.275   3.369  -0.298  0.00  0.00    -0.047 A 
ATOM      5  C3  UNL d   1       0.717   4.438  -1.113  0.00  0.00    -0.047 A 
ATOM      6  C4  UNL d   1      -0.088   5.524  -0.838  0.00  0.00    -0.004 A 
ENDROOT
TORSDOF 0
ENDMDL
