MODEL 1
REMARK minimizedAffinity 0.661518037
REMARK minimizedRMSD -1
REMARK  0 active torsions:
REMARK  status: ('A' for Active; 'I' for Inactive)
ROOT
ATOM      1  C   UNL d   1      -2.846   5.998   1.303  0.00  0.00     0.172 C 
ATOM      2  N   UNL d   1      -1.971   5.777   0.176  0.00  0.00    -0.070 N 
ATOM      3  C1  UNL d   1      -0.683   5.316   0.243  0.00  0.00    -0.004 A 
ATOM      4  C2  UNL d   1      -0.194   5.242  -1.043  0.00  0.00    -0.047 A 
ATOM      5  C3  UNL d   1      -1.223   5.675  -1.913  0.00  0.00    -0.047 A 
ATOM      6  C4  UNL d   1      -2.311   6.000  -1.132  0.00  0.00    -0.004 A 
ENDROOT
TORSDOF 0
ENDMDL
