MODEL 1
REMARK minimizedAffinity 3.06398845
REMARK minimizedRMSD -1
REMARK  0 active torsions:
REMARK  status: ('A' for Active; 'I' for Inactive)
ROOT
ATOM      1  C   UNL d   1       1.351  -1.832   0.008  0.00  0.00     0.077 C 
ATOM      2  C1  UNL d   1       2.137  -1.071  -1.017  0.00  0.00    -0.074 A 
ATOM      3  C2  UNL d   1       2.261  -1.546  -2.327  0.00  0.00    -0.005 A 
ATOM      4  C3  UNL d   1       2.988  -0.821  -3.272  0.00  0.00     0.006 A 
ATOM      5  C4  UNL d   1       3.597   0.383  -2.917  0.00  0.00    -0.005 A 
ATOM      6  C5  UNL d   1       3.483   0.874  -1.613  0.00  0.00    -0.074 A 
ATOM      7  C6  UNL d   1       4.124   2.171  -1.218  0.00  0.00     0.077 C 
ATOM      8  C7  UNL d   1       2.746   0.144  -0.671  0.00  0.00    -0.001 A 
ENDROOT
TORSDOF 0
ENDMDL
