MODEL 1
REMARK minimizedAffinity -1.30912459
REMARK minimizedRMSD -1
REMARK  0 active torsions:
REMARK  status: ('A' for Active; 'I' for Inactive)
ROOT
ATOM      1  C   UNL d   1       1.129   2.423   1.015  0.00  0.00     0.077 C 
ATOM      2  C1  UNL d   1       1.888   1.381   0.249  0.00  0.00    -0.074 A 
ATOM      3  C2  UNL d   1       1.485   0.041   0.264  0.00  0.00    -0.005 A 
ATOM      4  C3  UNL d   1       2.195  -0.915  -0.461  0.00  0.00     0.006 A 
ATOM      5  C4  UNL d   1       3.313  -0.543  -1.208  0.00  0.00    -0.005 A 
ATOM      6  C5  UNL d   1       3.730   0.792  -1.237  0.00  0.00    -0.074 A 
ATOM      7  C6  UNL d   1       4.924   1.210  -2.042  0.00  0.00     0.077 C 
ATOM      8  C7  UNL d   1       3.007   1.748  -0.511  0.00  0.00    -0.001 A 
ENDROOT
TORSDOF 0
ENDMDL
