MODEL 1
REMARK minimizedAffinity 1.18152606
REMARK minimizedRMSD -1
REMARK  0 active torsions:
REMARK  status: ('A' for Active; 'I' for Inactive)
ROOT
ATOM      1  C   UNL d   1       4.890   1.679  -1.713  0.00  0.00     0.077 C 
ATOM      2  C1  UNL d   1       3.659   1.293  -0.947  0.00  0.00    -0.074 A 
ATOM      3  C2  UNL d   1       3.091   2.166  -0.013  0.00  0.00    -0.005 A 
ATOM      4  C3  UNL d   1       1.941   1.798   0.684  0.00  0.00     0.006 A 
ATOM      5  C4  UNL d   1       1.348   0.555   0.456  0.00  0.00    -0.005 A 
ATOM      6  C5  UNL d   1       1.902  -0.330  -0.475  0.00  0.00    -0.074 A 
ATOM      7  C6  UNL d   1       1.271  -1.665  -0.740  0.00  0.00     0.077 C 
ATOM      8  C7  UNL d   1       3.054   0.050  -1.177  0.00  0.00    -0.001 A 
ENDROOT
TORSDOF 0
ENDMDL
