MODEL 1
REMARK minimizedAffinity 5.79855728
REMARK minimizedRMSD -1
REMARK  0 active torsions:
REMARK  status: ('A' for Active; 'I' for Inactive)
ROOT
ATOM      1  C   UNL d   1       2.244  -1.101  -0.755  0.00  0.00     0.077 C 
ATOM      2  C1  UNL d   1       2.737   0.305  -0.582  0.00  0.00    -0.074 A 
ATOM      3  C2  UNL d   1       1.881   1.317  -0.135  0.00  0.00    -0.005 A 
ATOM      4  C3  UNL d   1       2.357   2.618   0.030  0.00  0.00     0.006 A 
ATOM      5  C4  UNL d   1       3.690   2.920  -0.249  0.00  0.00    -0.005 A 
ATOM      6  C5  UNL d   1       4.561   1.921  -0.695  0.00  0.00    -0.074 A 
ATOM      7  C6  UNL d   1       5.999   2.225  -0.990  0.00  0.00     0.077 C 
ATOM      8  C7  UNL d   1       4.077   0.614  -0.852  0.00  0.00    -0.001 A 
ENDROOT
TORSDOF 0
ENDMDL
