MODEL 1
REMARK minimizedAffinity -0.838695645
REMARK minimizedRMSD -1
REMARK  0 active torsions:
REMARK  status: ('A' for Active; 'I' for Inactive)
ROOT
ATOM      1  C   UNL d   1       1.516  -1.370   0.345  0.00  0.00     0.077 C 
ATOM      2  C1  UNL d   1       2.259  -0.140  -0.086  0.00  0.00    -0.074 A 
ATOM      3  C2  UNL d   1       1.578   0.967  -0.601  0.00  0.00    -0.005 A 
ATOM      4  C3  UNL d   1       2.281   2.107  -0.989  0.00  0.00     0.006 A 
ATOM      5  C4  UNL d   1       3.670   2.152  -0.867  0.00  0.00    -0.005 A 
ATOM      6  C5  UNL d   1       4.368   1.054  -0.353  0.00  0.00    -0.074 A 
ATOM      7  C6  UNL d   1       5.861   1.089  -0.205  0.00  0.00     0.077 C 
ATOM      8  C7  UNL d   1       3.654  -0.085   0.041  0.00  0.00    -0.001 A 
ENDROOT
TORSDOF 0
ENDMDL
