MODEL 1
REMARK minimizedAffinity 1.80023766
REMARK minimizedRMSD -1
REMARK  0 active torsions:
REMARK  status: ('A' for Active; 'I' for Inactive)
ROOT
ATOM      1  C   UNL d   1       4.530   2.357  -0.662  0.00  0.00     0.077 C 
ATOM      2  C1  UNL d   1       3.322   1.471  -0.600  0.00  0.00    -0.074 A 
ATOM      3  C2  UNL d   1       2.091   1.964  -0.156  0.00  0.00    -0.005 A 
ATOM      4  C3  UNL d   1       0.974   1.130  -0.113  0.00  0.00     0.006 A 
ATOM      5  C4  UNL d   1       1.076  -0.203  -0.511  0.00  0.00    -0.005 A 
ATOM      6  C5  UNL d   1       2.299  -0.714  -0.958  0.00  0.00    -0.074 A 
ATOM      7  C6  UNL d   1       2.424  -2.142  -1.399  0.00  0.00     0.077 C 
ATOM      8  C7  UNL d   1       3.415   0.132  -1.006  0.00  0.00    -0.001 A 
ENDROOT
TORSDOF 0
ENDMDL
