MODEL 1
REMARK minimizedAffinity 6.01575994
REMARK minimizedRMSD -1
REMARK  0 active torsions:
REMARK  status: ('A' for Active; 'I' for Inactive)
ROOT
ATOM      1  C   UNL d   1      -0.001  -1.882   2.965  0.00  0.00     0.077 C 
ATOM      2  C1  UNL d   1      -0.067  -1.804   1.469  0.00  0.00    -0.074 A 
ATOM      3  C2  UNL d   1      -1.213  -2.210   0.778  0.00  0.00    -0.005 A 
ATOM      4  C3  UNL d   1      -1.264  -2.123  -0.613  0.00  0.00     0.006 A 
ATOM      5  C4  UNL d   1      -0.171  -1.629  -1.326  0.00  0.00    -0.005 A 
ATOM      6  C5  UNL d   1       0.983  -1.217  -0.652  0.00  0.00    -0.074 A 
ATOM      7  C6  UNL d   1       2.163  -0.674  -1.403  0.00  0.00     0.077 C 
ATOM      8  C7  UNL d   1       1.024  -1.301   0.746  0.00  0.00    -0.001 A 
ENDROOT
TORSDOF 0
ENDMDL
