MODEL 1
REMARK minimizedAffinity 1.39232743
REMARK minimizedRMSD -1
REMARK  0 active torsions:
REMARK  status: ('A' for Active; 'I' for Inactive)
ROOT
ATOM      1  N1  IND d   1      -3.583  -2.097  -1.719  0.00  0.00    -0.196 N 
ATOM      2  C2  IND d   1      -3.925  -2.064  -0.396  0.00  0.00     0.054 A 
ATOM      3  C3  IND d   1      -2.819  -2.141   0.377  0.00  0.00    -0.031 A 
ATOM      4  C4  IND d   1      -0.341  -2.225  -0.316  0.00  0.00     0.051 A 
ATOM      5  C5  IND d   1       0.468  -2.314  -1.414  0.00  0.00    -0.031 A 
ATOM      6  C6  IND d   1      -0.042  -2.332  -2.696  0.00  0.00     0.015 A 
ATOM      7  C7  IND d   1      -1.386  -2.251  -2.929  0.00  0.00    -0.016 A 
ATOM      8  C8  IND d   1      -2.211  -2.168  -1.816  0.00  0.00    -0.047 A 
ATOM      9  C9  IND d   1      -1.702  -2.192  -0.511  0.00  0.00    -0.096 A 
ATOM     10  HN1 IND d   1      -4.133  -2.077  -2.380  0.00  0.00     0.298 HD
ENDROOT
TORSDOF 0
ENDMDL
