MODEL 1
REMARK minimizedAffinity -4.29443359
REMARK minimizedRMSD -1
REMARK  0 active torsions:
REMARK  status: ('A' for Active; 'I' for Inactive)
ROOT
ATOM      1  N1  IND d   1       0.003   0.498  -1.208  0.00  0.00    -0.196 N 
ATOM      2  C2  IND d   1       0.811  -0.026  -2.178  0.00  0.00     0.054 A 
ATOM      3  C3  IND d   1       2.030   0.558  -2.141  0.00  0.00    -0.031 A 
ATOM      4  C4  IND d   1       2.948   2.323  -0.507  0.00  0.00     0.051 A 
ATOM      5  C5  IND d   1       2.572   3.132   0.528  0.00  0.00    -0.031 A 
ATOM      6  C6  IND d   1       1.294   3.102   1.049  0.00  0.00     0.015 A 
ATOM      7  C7  IND d   1       0.345   2.250   0.560  0.00  0.00    -0.016 A 
ATOM      8  C8  IND d   1       0.722   1.432  -0.495  0.00  0.00    -0.047 A 
ATOM      9  C9  IND d   1       2.005   1.487  -1.056  0.00  0.00    -0.096 A 
ATOM     10  HN1 IND d   1      -0.817   0.281  -1.067  0.00  0.00     0.298 HD
ENDROOT
TORSDOF 0
ENDMDL
