MODEL 1
REMARK minimizedAffinity 5.91004992
REMARK minimizedRMSD -1
REMARK  0 active torsions:
REMARK  status: ('A' for Active; 'I' for Inactive)
ROOT
ATOM      1  N1  IND d   1      -0.595  -3.458   1.502  0.00  0.00    -0.196 N 
ATOM      2  C2  IND d   1      -1.484  -3.722   0.498  0.00  0.00     0.054 A 
ATOM      3  C3  IND d   1      -2.088  -2.582   0.092  0.00  0.00    -0.031 A 
ATOM      4  C4  IND d   1      -1.694  -0.159   0.866  0.00  0.00     0.051 A 
ATOM      5  C5  IND d   1      -1.005   0.580   1.787  0.00  0.00    -0.031 A 
ATOM      6  C6  IND d   1      -0.124  -0.002   2.676  0.00  0.00     0.015 A 
ATOM      7  C7  IND d   1       0.110  -1.348   2.670  0.00  0.00    -0.016 A 
ATOM      8  C8  IND d   1      -0.593  -2.101   1.741  0.00  0.00    -0.047 A 
ATOM      9  C9  IND d   1      -1.520  -1.522   0.864  0.00  0.00    -0.096 A 
ATOM     10  HN1 IND d   1      -0.116  -4.041   1.915  0.00  0.00     0.298 HD
ENDROOT
TORSDOF 0
ENDMDL
