MODEL 1
REMARK minimizedAffinity -4.38949394
REMARK minimizedRMSD -1
REMARK  0 active torsions:
REMARK  status: ('A' for Active; 'I' for Inactive)
ROOT
ATOM      1  N1  IND d   1      -0.728  -1.081   1.328  0.00  0.00    -0.196 N 
ATOM      2  C2  IND d   1      -0.498  -2.408   1.093  0.00  0.00     0.054 A 
ATOM      3  C3  IND d   1       0.242  -2.565  -0.028  0.00  0.00    -0.031 A 
ATOM      4  C4  IND d   1       1.269  -0.781  -1.573  0.00  0.00     0.051 A 
ATOM      5  C5  IND d   1       1.304   0.569  -1.786  0.00  0.00    -0.031 A 
ATOM      6  C6  IND d   1       0.653   1.455  -0.954  0.00  0.00     0.015 A 
ATOM      7  C7  IND d   1      -0.052   1.024   0.135  0.00  0.00    -0.016 A 
ATOM      8  C8  IND d   1      -0.095  -0.346   0.350  0.00  0.00    -0.047 A 
ATOM      9  C9  IND d   1       0.528  -1.254  -0.516  0.00  0.00    -0.096 A 
ATOM     10  HN1 IND d   1      -1.190  -0.760   1.979  0.00  0.00     0.298 HD
ENDROOT
TORSDOF 0
ENDMDL
