MODEL 1
REMARK minimizedAffinity 0.218157619
REMARK minimizedRMSD -1
REMARK  0 active torsions:
REMARK  status: ('A' for Active; 'I' for Inactive)
ROOT
ATOM      1  N1  IND d   1       2.731   1.004  -0.896  0.00  0.00    -0.196 N 
ATOM      2  C2  IND d   1       4.071   1.245  -1.016  0.00  0.00     0.054 A 
ATOM      3  C3  IND d   1       4.448   2.236  -0.178  0.00  0.00    -0.031 A 
ATOM      4  C4  IND d   1       3.053   3.533   1.554  0.00  0.00     0.051 A 
ATOM      5  C5  IND d   1       1.772   3.692   2.005  0.00  0.00    -0.031 A 
ATOM      6  C6  IND d   1       0.725   2.945   1.504  0.00  0.00     0.015 A 
ATOM      7  C7  IND d   1       0.923   2.001   0.537  0.00  0.00    -0.016 A 
ATOM      8  C8  IND d   1       2.220   1.842   0.072  0.00  0.00    -0.047 A 
ATOM      9  C9  IND d   1       3.280   2.626   0.546  0.00  0.00    -0.096 A 
ATOM     10  HN1 IND d   1       2.282   0.427  -1.348  0.00  0.00     0.298 HD
ENDROOT
TORSDOF 0
ENDMDL
