MODEL 1
REMARK minimizedAffinity 1.46380019
REMARK minimizedRMSD -1
REMARK  0 active torsions:
REMARK  status: ('A' for Active; 'I' for Inactive)
ROOT
ATOM      1  N1  IND d   1      -0.765   0.419  -0.810  0.00  0.00    -0.196 N 
ATOM      2  C2  IND d   1      -0.685   0.886   0.472  0.00  0.00     0.054 A 
ATOM      3  C3  IND d   1       0.576   1.287   0.749  0.00  0.00    -0.031 A 
ATOM      4  C4  IND d   1       2.643   1.361  -0.785  0.00  0.00     0.051 A 
ATOM      5  C5  IND d   1       3.072   1.005  -2.032  0.00  0.00    -0.031 A 
ATOM      6  C6  IND d   1       2.226   0.425  -2.956  0.00  0.00     0.015 A 
ATOM      7  C7  IND d   1       0.911   0.190  -2.669  0.00  0.00    -0.016 A 
ATOM      8  C8  IND d   1       0.474   0.545  -1.401  0.00  0.00    -0.047 A 
ATOM      9  C9  IND d   1       1.338   1.094  -0.444  0.00  0.00    -0.096 A 
ATOM     10  HN1 IND d   1      -1.470   0.099  -1.185  0.00  0.00     0.298 HD
ENDROOT
TORSDOF 0
ENDMDL
