MODEL 1
REMARK minimizedAffinity -3.59033084
REMARK minimizedRMSD -1
REMARK  0 active torsions:
REMARK  status: ('A' for Active; 'I' for Inactive)
ROOT
ATOM      1  N1  IND d   1       0.533   0.923  -0.478  0.00  0.00    -0.196 N 
ATOM      2  C2  IND d   1       1.017   0.721  -1.740  0.00  0.00     0.054 A 
ATOM      3  C3  IND d   1       0.829  -0.563  -2.117  0.00  0.00    -0.031 A 
ATOM      4  C4  IND d   1      -0.344  -2.480  -0.861  0.00  0.00     0.051 A 
ATOM      5  C5  IND d   1      -0.916  -2.789   0.341  0.00  0.00    -0.031 A 
ATOM      6  C6  IND d   1      -1.040  -1.857   1.351  0.00  0.00     0.015 A 
ATOM      7  C7  IND d   1      -0.604  -0.572   1.191  0.00  0.00    -0.016 A 
ATOM      8  C8  IND d   1      -0.016  -0.257  -0.025  0.00  0.00    -0.047 A 
ATOM      9  C9  IND d   1       0.151  -1.210  -1.038  0.00  0.00    -0.096 A 
ATOM     10  HN1 IND d   1       0.566   1.663  -0.041  0.00  0.00     0.298 HD
ENDROOT
TORSDOF 0
ENDMDL
