MODEL 1
REMARK minimizedAffinity -5.32970905
REMARK minimizedRMSD -1
REMARK  0 active torsions:
REMARK  status: ('A' for Active; 'I' for Inactive)
ROOT
ATOM      1  N1  IND d   1       0.138  -0.175  -2.464  0.00  0.00    -0.196 N 
ATOM      2  C2  IND d   1       1.341  -0.098  -3.108  0.00  0.00     0.054 A 
ATOM      3  C3  IND d   1       2.193   0.693  -2.418  0.00  0.00    -0.031 A 
ATOM      4  C4  IND d   1       1.858   1.880  -0.159  0.00  0.00     0.051 A 
ATOM      5  C5  IND d   1       0.912   2.135   0.794  0.00  0.00    -0.031 A 
ATOM      6  C6  IND d   1      -0.365   1.620   0.710  0.00  0.00     0.015 A 
ATOM      7  C7  IND d   1      -0.742   0.818  -0.330  0.00  0.00    -0.016 A 
ATOM      8  C8  IND d   1       0.213   0.563  -1.303  0.00  0.00    -0.047 A 
ATOM      9  C9  IND d   1       1.498   1.118  -1.245  0.00  0.00    -0.096 A 
ATOM     10  HN1 IND d   1      -0.551  -0.612  -2.737  0.00  0.00     0.298 HD
ENDROOT
TORSDOF 0
ENDMDL
