MODEL 1
REMARK minimizedAffinity -0.0830587745
REMARK minimizedRMSD -1
REMARK  0 active torsions:
REMARK  status: ('A' for Active; 'I' for Inactive)
ROOT
ATOM      1  N1  IND d   1      -0.038  -0.144   0.221  0.00  0.00    -0.196 N 
ATOM      2  C2  IND d   1      -1.059   0.286   1.023  0.00  0.00     0.054 A 
ATOM      3  C3  IND d   1      -0.760   1.488   1.563  0.00  0.00    -0.031 A 
ATOM      4  C4  IND d   1       1.305   2.980   1.189  0.00  0.00     0.051 A 
ATOM      5  C5  IND d   1       2.524   2.997   0.571  0.00  0.00    -0.031 A 
ATOM      6  C6  IND d   1       2.958   1.948  -0.214  0.00  0.00     0.015 A 
ATOM      7  C7  IND d   1       2.182   0.843  -0.419  0.00  0.00    -0.016 A 
ATOM      8  C8  IND d   1       0.947   0.819   0.213  0.00  0.00    -0.047 A 
ATOM      9  C9  IND d   1       0.518   1.862   1.045  0.00  0.00    -0.096 A 
ATOM     10  HN1 IND d   1      -0.015  -0.890  -0.205  0.00  0.00     0.298 HD
ENDROOT
TORSDOF 0
ENDMDL
