MODEL 1
REMARK minimizedAffinity -4.88744497
REMARK minimizedRMSD -1
REMARK  0 active torsions:
REMARK  status: ('A' for Active; 'I' for Inactive)
ROOT
ATOM      1  N1  IND d   1       0.623   1.102  -1.387  0.00  0.00    -0.196 N 
ATOM      2  C2  IND d   1       1.047   0.452  -2.512  0.00  0.00     0.054 A 
ATOM      3  C3  IND d   1       1.000  -0.886  -2.329  0.00  0.00    -0.031 A 
ATOM      4  C4  IND d   1       0.166  -2.230  -0.298  0.00  0.00     0.051 A 
ATOM      5  C5  IND d   1      -0.284  -2.078   0.984  0.00  0.00    -0.031 A 
ATOM      6  C6  IND d   1      -0.460  -0.833   1.551  0.00  0.00     0.015 A 
ATOM      7  C7  IND d   1      -0.203   0.312   0.851  0.00  0.00    -0.016 A 
ATOM      8  C8  IND d   1       0.260   0.161  -0.448  0.00  0.00    -0.047 A 
ATOM      9  C9  IND d   1       0.482  -1.101  -1.015  0.00  0.00    -0.096 A 
ATOM     10  HN1 IND d   1       0.589   1.955  -1.282  0.00  0.00     0.298 HD
ENDROOT
TORSDOF 0
ENDMDL
