MODEL 1
REMARK minimizedAffinity 0.183692917
REMARK minimizedRMSD -1
REMARK  0 active torsions:
REMARK  status: ('A' for Active; 'I' for Inactive)
ROOT
ATOM      1  N1  IND d   1      -1.503  -0.225   2.432  0.00  0.00    -0.196 N 
ATOM      2  C2  IND d   1      -2.130   0.885   2.925  0.00  0.00     0.054 A 
ATOM      3  C3  IND d   1      -2.018   1.914   2.054  0.00  0.00    -0.031 A 
ATOM      4  C4  IND d   1      -0.935   1.970  -0.280  0.00  0.00     0.051 A 
ATOM      5  C5  IND d   1      -0.201   1.208  -1.146  0.00  0.00    -0.031 A 
ATOM      6  C6  IND d   1       0.140  -0.097  -0.859  0.00  0.00     0.015 A 
ATOM      7  C7  IND d   1      -0.250  -0.696   0.305  0.00  0.00    -0.016 A 
ATOM      8  C8  IND d   1      -0.989   0.076   1.190  0.00  0.00    -0.047 A 
ATOM      9  C9  IND d   1      -1.302   1.415   0.923  0.00  0.00    -0.096 A 
ATOM     10  HN1 IND d   1      -1.439  -0.984   2.832  0.00  0.00     0.298 HD
ENDROOT
TORSDOF 0
ENDMDL
