MODEL 1
REMARK minimizedAffinity -4.87561607
REMARK minimizedRMSD -1
REMARK  0 active torsions:
REMARK  status: ('A' for Active; 'I' for Inactive)
ROOT
ATOM      1  N1  IND d   1       0.344   0.995   0.320  0.00  0.00    -0.196 N 
ATOM      2  C2  IND d   1       1.309   1.035  -0.646  0.00  0.00     0.054 A 
ATOM      3  C3  IND d   1       1.609  -0.216  -1.063  0.00  0.00    -0.031 A 
ATOM      4  C4  IND d   1       0.567  -2.465  -0.369  0.00  0.00     0.051 A 
ATOM      5  C5  IND d   1      -0.326  -3.014   0.509  0.00  0.00    -0.031 A 
ATOM      6  C6  IND d   1      -1.058  -2.238   1.384  0.00  0.00     0.015 A 
ATOM      7  C7  IND d   1      -0.932  -0.878   1.407  0.00  0.00    -0.016 A 
ATOM      8  C8  IND d   1      -0.021  -0.318   0.522  0.00  0.00    -0.047 A 
ATOM      9  C9  IND d   1       0.755  -1.104  -0.339  0.00  0.00    -0.096 A 
ATOM     10  HN1 IND d   1       0.019   1.676   0.733  0.00  0.00     0.298 HD
ENDROOT
TORSDOF 0
ENDMDL
