MODEL 1
REMARK minimizedAffinity 3.1940012
REMARK minimizedRMSD -1
REMARK  0 active torsions:
REMARK  status: ('A' for Active; 'I' for Inactive)
ROOT
ATOM      1  N1  IND d   1       0.076   0.987  -0.372  0.00  0.00    -0.196 N 
ATOM      2  C2  IND d   1       0.072   2.209   0.241  0.00  0.00     0.054 A 
ATOM      3  C3  IND d   1      -0.453   2.111   1.483  0.00  0.00    -0.031 A 
ATOM      4  C4  IND d   1      -1.275   0.027   2.751  0.00  0.00     0.051 A 
ATOM      5  C5  IND d   1      -1.504  -1.311   2.591  0.00  0.00    -0.031 A 
ATOM      6  C6  IND d   1      -1.209  -1.965   1.413  0.00  0.00     0.015 A 
ATOM      7  C7  IND d   1      -0.662  -1.305   0.349  0.00  0.00    -0.016 A 
ATOM      8  C8  IND d   1      -0.435   0.055   0.506  0.00  0.00    -0.047 A 
ATOM      9  C9  IND d   1      -0.771   0.733   1.685  0.00  0.00    -0.096 A 
ATOM     10  HN1 IND d   1       0.350   0.827  -1.170  0.00  0.00     0.298 HD
ENDROOT
TORSDOF 0
ENDMDL
