MODEL 1
REMARK minimizedAffinity 9.26701641
REMARK minimizedRMSD -1
REMARK  0 active torsions:
REMARK  status: ('A' for Active; 'I' for Inactive)
ROOT
ATOM      1  N1  IND d   1      -0.075   5.656   3.883  0.00  0.00    -0.196 N 
ATOM      2  C2  IND d   1      -1.394   5.996   3.769  0.00  0.00     0.054 A 
ATOM      3  C3  IND d   1      -1.932   5.428   2.666  0.00  0.00    -0.031 A 
ATOM      4  C4  IND d   1      -0.859   3.823   0.964  0.00  0.00     0.051 A 
ATOM      5  C5  IND d   1       0.336   3.249   0.629  0.00  0.00    -0.031 A 
ATOM      6  C6  IND d   1       1.477   3.451   1.378  0.00  0.00     0.015 A 
ATOM      7  C7  IND d   1       1.463   4.227   2.502  0.00  0.00    -0.016 A 
ATOM      8  C8  IND d   1       0.254   4.817   2.841  0.00  0.00    -0.047 A 
ATOM      9  C9  IND d   1      -0.898   4.651   2.061  0.00  0.00    -0.096 A 
ATOM     10  HN1 IND d   1       0.460   5.922   4.502  0.00  0.00     0.298 HD
ENDROOT
TORSDOF 0
ENDMDL
