MODEL 1
REMARK minimizedAffinity 0.758855999
REMARK minimizedRMSD -1
REMARK  0 active torsions:
REMARK  status: ('A' for Active; 'I' for Inactive)
ROOT
ATOM      1  N1  IND d   1      -0.844  -1.458  -0.868  0.00  0.00    -0.196 N 
ATOM      2  C2  IND d   1      -1.000  -2.590  -0.118  0.00  0.00     0.054 A 
ATOM      3  C3  IND d   1      -1.126  -2.274   1.190  0.00  0.00    -0.031 A 
ATOM      4  C4  IND d   1      -1.209   0.041   2.313  0.00  0.00     0.051 A 
ATOM      5  C5  IND d   1      -1.072   1.374   2.044  0.00  0.00    -0.031 A 
ATOM      6  C6  IND d   1      -0.850   1.841   0.765  0.00  0.00     0.015 A 
ATOM      7  C7  IND d   1      -0.768   0.989  -0.300  0.00  0.00    -0.016 A 
ATOM      8  C8  IND d   1      -0.900  -0.366  -0.030  0.00  0.00    -0.047 A 
ATOM      9  C9  IND d   1      -1.082  -0.849   1.272  0.00  0.00    -0.096 A 
ATOM     10  HN1 IND d   1      -0.730  -1.432  -1.720  0.00  0.00     0.298 HD
ENDROOT
TORSDOF 0
ENDMDL
