MODEL 1
REMARK minimizedAffinity -4.1632247
REMARK minimizedRMSD -1
REMARK  0 active torsions:
REMARK  status: ('A' for Active; 'I' for Inactive)
ROOT
ATOM      1  N1  IND d   1       0.443   0.963   1.188  0.00  0.00    -0.196 N 
ATOM      2  C2  IND d   1       0.968   1.437   0.018  0.00  0.00     0.054 A 
ATOM      3  C3  IND d   1       0.741   0.562  -0.988  0.00  0.00    -0.031 A 
ATOM      4  C4  IND d   1      -0.560  -1.659  -0.960  0.00  0.00     0.051 A 
ATOM      5  C5  IND d   1      -1.192  -2.527  -0.114  0.00  0.00    -0.031 A 
ATOM      6  C6  IND d   1      -1.316  -2.269   1.236  0.00  0.00     0.015 A 
ATOM      7  C7  IND d   1      -0.820  -1.123   1.791  0.00  0.00    -0.016 A 
ATOM      8  C8  IND d   1      -0.172  -0.243   0.936  0.00  0.00    -0.047 A 
ATOM      9  C9  IND d   1      -0.005  -0.520  -0.427  0.00  0.00    -0.096 A 
ATOM     10  HN1 IND d   1       0.490   1.354   1.953  0.00  0.00     0.298 HD
ENDROOT
TORSDOF 0
ENDMDL
