MODEL 1
REMARK minimizedAffinity 8.4332304
REMARK minimizedRMSD -1
REMARK  0 active torsions:
REMARK  status: ('A' for Active; 'I' for Inactive)
ROOT
ATOM      1  N1  IND d   1       0.973   0.683   0.133  0.00  0.00    -0.196 N 
ATOM      2  C2  IND d   1      -0.325   0.591   0.551  0.00  0.00     0.054 A 
ATOM      3  C3  IND d   1      -0.610   1.585   1.422  0.00  0.00    -0.031 A 
ATOM      4  C4  IND d   1       0.871   3.532   2.224  0.00  0.00     0.051 A 
ATOM      5  C5  IND d   1       2.145   4.019   2.146  0.00  0.00    -0.031 A 
ATOM      6  C6  IND d   1       3.114   3.407   1.376  0.00  0.00     0.015 A 
ATOM      7  C7  IND d   1       2.838   2.288   0.642  0.00  0.00    -0.016 A 
ATOM      8  C8  IND d   1       1.547   1.787   0.724  0.00  0.00    -0.047 A 
ATOM      9  C9  IND d   1       0.572   2.379   1.538  0.00  0.00    -0.096 A 
ATOM     10  HN1 IND d   1       1.366   0.142  -0.408  0.00  0.00     0.298 HD
ENDROOT
TORSDOF 0
ENDMDL
