MODEL 1
REMARK minimizedAffinity -1.59643292
REMARK minimizedRMSD -1
REMARK  0 active torsions:
REMARK  status: ('A' for Active; 'I' for Inactive)
ROOT
ATOM      1  C4' PXY d   1       1.152  -1.955  -2.333  0.00  0.00     0.077 C 
ATOM      2  C1' PXY d   1      -1.083   0.502   2.398  0.00  0.00     0.077 C 
ATOM      3  C1  PXY d   1      -0.486  -0.136   1.160  0.00  0.00    -0.082 A 
ATOM      4  C2  PXY d   1      -1.282  -0.539   0.183  0.00  0.00     0.003 A 
ATOM      5  C3  PXY d   1      -0.761  -1.147  -0.930  0.00  0.00     0.003 A 
ATOM      6  C4  PXY d   1       0.593  -1.297  -1.068  0.00  0.00    -0.082 A 
ATOM      7  C5  PXY d   1       1.413  -0.878  -0.081  0.00  0.00     0.003 A 
ATOM      8  C6  PXY d   1       0.861  -0.301   1.059  0.00  0.00     0.003 A 
ENDROOT
TORSDOF 0
ENDMDL
