MODEL 1
REMARK minimizedAffinity -4.87568235
REMARK minimizedRMSD -1
REMARK  0 active torsions:
REMARK  status: ('A' for Active; 'I' for Inactive)
ROOT
ATOM      1  C4' PXY d   1       0.502  -2.897  -2.436  0.00  0.00     0.077 C 
ATOM      2  C1' PXY d   1      -1.005  -0.031   2.353  0.00  0.00     0.077 C 
ATOM      3  C1  PXY d   1      -0.617  -0.793   1.101  0.00  0.00    -0.082 A 
ATOM      4  C2  PXY d   1       0.523  -0.512   0.491  0.00  0.00     0.003 A 
ATOM      5  C3  PXY d   1       0.874  -1.168  -0.660  0.00  0.00     0.003 A 
ATOM      6  C4  PXY d   1       0.075  -2.160  -1.163  0.00  0.00    -0.082 A 
ATOM      7  C5  PXY d   1      -1.085  -2.460  -0.541  0.00  0.00     0.003 A 
ATOM      8  C6  PXY d   1      -1.443  -1.753   0.603  0.00  0.00     0.003 A 
ENDROOT
TORSDOF 0
ENDMDL
