MODEL 1
REMARK minimizedAffinity -1.81928527
REMARK minimizedRMSD -1
REMARK  0 active torsions:
REMARK  status: ('A' for Active; 'I' for Inactive)
ROOT
ATOM      1  C4' PXY d   1       0.785  -3.100  -2.151  0.00  0.00     0.077 C 
ATOM      2  C1' PXY d   1      -0.293   1.087   1.686  0.00  0.00     0.077 C 
ATOM      3  C1  PXY d   1      -0.000  -0.005   0.675  0.00  0.00    -0.082 A 
ATOM      4  C2  PXY d   1      -0.984  -0.776   0.241  0.00  0.00     0.003 A 
ATOM      5  C3  PXY d   1      -0.731  -1.789  -0.648  0.00  0.00     0.003 A 
ATOM      6  C4  PXY d   1       0.533  -1.980  -1.139  0.00  0.00    -0.082 A 
ATOM      7  C5  PXY d   1       1.540  -1.190  -0.709  0.00  0.00     0.003 A 
ATOM      8  C6  PXY d   1       1.270  -0.194   0.225  0.00  0.00     0.003 A 
ENDROOT
TORSDOF 0
ENDMDL
