MODEL 1
REMARK minimizedAffinity -4.1025939
REMARK minimizedRMSD -1
REMARK  0 active torsions:
REMARK  status: ('A' for Active; 'I' for Inactive)
ROOT
ATOM      1  C4' PXY d   1       0.787  -2.853  -1.321  0.00  0.00     0.077 C 
ATOM      2  C1' PXY d   1      -1.102   1.514   1.962  0.00  0.00     0.077 C 
ATOM      3  C1  PXY d   1      -0.603   0.377   1.092  0.00  0.00    -0.082 A 
ATOM      4  C2  PXY d   1      -1.116  -0.834   1.240  0.00  0.00     0.003 A 
ATOM      5  C3  PXY d   1      -0.654  -1.880   0.483  0.00  0.00     0.003 A 
ATOM      6  C4  PXY d   1       0.307  -1.674  -0.471  0.00  0.00    -0.082 A 
ATOM      7  C5  PXY d   1       0.827  -0.439  -0.635  0.00  0.00     0.003 A 
ATOM      8  C6  PXY d   1       0.374   0.601   0.171  0.00  0.00     0.003 A 
ENDROOT
TORSDOF 0
ENDMDL
