MODEL 1
REMARK minimizedAffinity -2.21955061
REMARK minimizedRMSD -1
REMARK  0 active torsions:
REMARK  status: ('A' for Active; 'I' for Inactive)
ROOT
ATOM      1  C4' PXY d   1      -0.782   0.223   1.985  0.00  0.00     0.077 C 
ATOM      2  C1' PXY d   1       1.131  -2.503  -2.741  0.00  0.00     0.077 C 
ATOM      3  C1  PXY d   1       0.619  -1.796  -1.501  0.00  0.00    -0.082 A 
ATOM      4  C2  PXY d   1       1.032  -0.568  -1.231  0.00  0.00     0.003 A 
ATOM      5  C3  PXY d   1       0.604   0.074  -0.097  0.00  0.00     0.003 A 
ATOM      6  C4  PXY d   1      -0.298  -0.526   0.740  0.00  0.00    -0.082 A 
ATOM      7  C5  PXY d   1      -0.734  -1.774   0.465  0.00  0.00     0.003 A 
ATOM      8  C6  PXY d   1      -0.255  -2.425  -0.669  0.00  0.00     0.003 A 
ENDROOT
TORSDOF 0
ENDMDL
