MODEL 1
REMARK minimizedAffinity -4.44410276
REMARK minimizedRMSD -1
REMARK  0 active torsions:
REMARK  status: ('A' for Active; 'I' for Inactive)
ROOT
ATOM      1  C4' PXY d   1      -0.538   0.768   2.188  0.00  0.00     0.077 C 
ATOM      2  C1' PXY d   1       0.579  -2.586  -2.386  0.00  0.00     0.077 C 
ATOM      3  C1  PXY d   1       0.299  -1.705  -1.184  0.00  0.00    -0.082 A 
ATOM      4  C2  PXY d   1      -0.879  -1.772  -0.584  0.00  0.00     0.003 A 
ATOM      5  C3  PXY d   1      -1.160  -0.960   0.484  0.00  0.00     0.003 A 
ATOM      6  C4  PXY d   1      -0.208  -0.109   0.977  0.00  0.00    -0.082 A 
ATOM      7  C5  PXY d   1       1.000  -0.043   0.377  0.00  0.00     0.003 A 
ATOM      8  C6  PXY d   1       1.251  -0.846  -0.731  0.00  0.00     0.003 A 
ENDROOT
TORSDOF 0
ENDMDL
