MODEL 1
REMARK minimizedAffinity -1.13782883
REMARK minimizedRMSD -1
REMARK  0 active torsions:
REMARK  status: ('A' for Active; 'I' for Inactive)
ROOT
ATOM      1  C4' PXY d   1       0.593  -2.364  -2.049  0.00  0.00     0.077 C 
ATOM      2  C1' PXY d   1      -1.027   0.999   2.365  0.00  0.00     0.077 C 
ATOM      3  C1  PXY d   1      -0.591   0.124   1.206  0.00  0.00    -0.082 A 
ATOM      4  C2  PXY d   1      -1.497  -0.558   0.524  0.00  0.00     0.003 A 
ATOM      5  C3  PXY d   1      -1.118  -1.378  -0.506  0.00  0.00     0.003 A 
ATOM      6  C4  PXY d   1       0.198  -1.461  -0.877  0.00  0.00    -0.082 A 
ATOM      7  C5  PXY d   1       1.127  -0.760  -0.194  0.00  0.00     0.003 A 
ATOM      8  C6  PXY d   1       0.726   0.035   0.876  0.00  0.00     0.003 A 
ENDROOT
TORSDOF 0
ENDMDL
