MODEL 1
REMARK minimizedAffinity -2.28122735
REMARK minimizedRMSD -1
REMARK  0 active torsions:
REMARK  status: ('A' for Active; 'I' for Inactive)
ROOT
ATOM      1  C4' PXY d   1       0.599  -3.108  -1.684  0.00  0.00     0.077 C 
ATOM      2  C1' PXY d   1      -1.277   0.967   1.962  0.00  0.00     0.077 C 
ATOM      3  C1  PXY d   1      -0.782  -0.092   0.997  0.00  0.00    -0.082 A 
ATOM      4  C2  PXY d   1      -1.229  -1.333   1.102  0.00  0.00     0.003 A 
ATOM      5  C3  PXY d   1      -0.768  -2.311   0.258  0.00  0.00     0.003 A 
ATOM      6  C4  PXY d   1       0.120  -2.003  -0.738  0.00  0.00    -0.082 A 
ATOM      7  C5  PXY d   1       0.573  -0.738  -0.858  0.00  0.00     0.003 A 
ATOM      8  C6  PXY d   1       0.123   0.231   0.034  0.00  0.00     0.003 A 
ENDROOT
TORSDOF 0
ENDMDL
