MODEL 1
REMARK minimizedAffinity -3.7161262
REMARK minimizedRMSD -1
REMARK  0 active torsions:
REMARK  status: ('A' for Active; 'I' for Inactive)
ROOT
ATOM      1  C4' PXY d   1      -1.202   1.144   2.031  0.00  0.00     0.077 C 
ATOM      2  C1' PXY d   1       0.944  -2.435  -1.969  0.00  0.00     0.077 C 
ATOM      3  C1  PXY d   1       0.369  -1.499  -0.924  0.00  0.00    -0.082 A 
ATOM      4  C2  PXY d   1       1.100  -0.493  -0.474  0.00  0.00     0.003 A 
ATOM      5  C3  PXY d   1       0.608   0.344   0.495  0.00  0.00     0.003 A 
ATOM      6  C4  PXY d   1      -0.666   0.180   0.969  0.00  0.00    -0.082 A 
ATOM      7  C5  PXY d   1      -1.422  -0.838   0.508  0.00  0.00     0.003 A 
ATOM      8  C6  PXY d   1      -0.889  -1.701  -0.446  0.00  0.00     0.003 A 
ENDROOT
TORSDOF 0
ENDMDL
