MODEL 1
REMARK minimizedAffinity -0.660260797
REMARK minimizedRMSD -1
REMARK  0 active torsions:
REMARK  status: ('A' for Active; 'I' for Inactive)
ROOT
ATOM      1  C4' PXY d   1       1.037  -2.381  -2.033  0.00  0.00     0.077 C 
ATOM      2  C1' PXY d   1      -1.072   0.729   2.359  0.00  0.00     0.077 C 
ATOM      3  C1  PXY d   1      -0.518  -0.075   1.200  0.00  0.00    -0.082 A 
ATOM      4  C2  PXY d   1      -0.745  -1.378   1.141  0.00  0.00     0.003 A 
ATOM      5  C3  PXY d   1      -0.225  -2.126   0.117  0.00  0.00     0.003 A 
ATOM      6  C4  PXY d   1       0.490  -1.527  -0.886  0.00  0.00    -0.082 A 
ATOM      7  C5  PXY d   1       0.716  -0.197  -0.838  0.00  0.00     0.003 A 
ATOM      8  C6  PXY d   1       0.214   0.538   0.232  0.00  0.00     0.003 A 
ENDROOT
TORSDOF 0
ENDMDL
