MODEL 1
REMARK minimizedAffinity -3.74962378
REMARK minimizedRMSD -1
REMARK  0 active torsions:
REMARK  status: ('A' for Active; 'I' for Inactive)
ROOT
ATOM      1  C4' PXY d   1      -0.290   0.439   1.935  0.00  0.00     0.077 C 
ATOM      2  C1' PXY d   1       0.212  -3.316  -2.431  0.00  0.00     0.077 C 
ATOM      3  C1  PXY d   1       0.067  -2.332  -1.287  0.00  0.00    -0.082 A 
ATOM      4  C2  PXY d   1       1.058  -1.499  -1.011  0.00  0.00     0.003 A 
ATOM      5  C3  PXY d   1       0.956  -0.625   0.040  0.00  0.00     0.003 A 
ATOM      6  C4  PXY d   1      -0.192  -0.565   0.784  0.00  0.00    -0.082 A 
ATOM      7  C5  PXY d   1      -1.211  -1.404   0.502  0.00  0.00     0.003 A 
ATOM      8  C6  PXY d   1      -1.072  -2.313  -0.543  0.00  0.00     0.003 A 
ENDROOT
TORSDOF 0
ENDMDL
