MODEL 1
REMARK minimizedAffinity -2.77378273
REMARK minimizedRMSD -1
REMARK  0 active torsions:
REMARK  status: ('A' for Active; 'I' for Inactive)
ROOT
ATOM      1  C4' PXY d   1       1.235  -2.808  -2.129  0.00  0.00     0.077 C 
ATOM      2  C1' PXY d   1      -0.487   0.736   2.101  0.00  0.00     0.077 C 
ATOM      3  C1  PXY d   1      -0.026  -0.185   0.989  0.00  0.00    -0.082 A 
ATOM      4  C2  PXY d   1      -0.867  -1.074   0.485  0.00  0.00     0.003 A 
ATOM      5  C3  PXY d   1      -0.457  -1.936  -0.499  0.00  0.00     0.003 A 
ATOM      6  C4  PXY d   1       0.811  -1.851  -1.011  0.00  0.00    -0.082 A 
ATOM      7  C5  PXY d   1       1.671  -0.940  -0.510  0.00  0.00     0.003 A 
ATOM      8  C6  PXY d   1       1.248  -0.101   0.518  0.00  0.00     0.003 A 
ENDROOT
TORSDOF 0
ENDMDL
