MODEL 1
REMARK minimizedAffinity -4.94210005
REMARK minimizedRMSD -1
REMARK  0 active torsions:
REMARK  status: ('A' for Active; 'I' for Inactive)
ROOT
ATOM      1  C4' PXY d   1      -0.758  -1.894   2.564  0.00  0.00     0.077 C 
ATOM      2  C1' PXY d   1       0.295   2.887  -0.509  0.00  0.00     0.077 C 
ATOM      3  C1  PXY d   1       0.024   1.626   0.287  0.00  0.00    -0.082 A 
ATOM      4  C2  PXY d   1      -0.897   1.638   1.237  0.00  0.00     0.003 A 
ATOM      5  C3  PXY d   1      -1.133   0.515   1.989  0.00  0.00     0.003 A 
ATOM      6  C4  PXY d   1      -0.457  -0.647   1.729  0.00  0.00    -0.082 A 
ATOM      7  C5  PXY d   1       0.476  -0.670   0.754  0.00  0.00     0.003 A 
ATOM      8  C6  PXY d   1       0.730   0.491   0.030  0.00  0.00     0.003 A 
ENDROOT
TORSDOF 0
ENDMDL
