MODEL 1
REMARK minimizedAffinity -4.64668131
REMARK minimizedRMSD -1
REMARK  0 active torsions:
REMARK  status: ('A' for Active; 'I' for Inactive)
ROOT
ATOM      1  C4' PXY d   1      -0.758   0.706   2.008  0.00  0.00     0.077 C 
ATOM      2  C1' PXY d   1       0.954  -2.746  -2.301  0.00  0.00     0.077 C 
ATOM      3  C1  PXY d   1       0.517  -1.839  -1.167  0.00  0.00    -0.082 A 
ATOM      4  C2  PXY d   1      -0.706  -1.949  -0.675  0.00  0.00     0.003 A 
ATOM      5  C3  PXY d   1      -1.128  -1.115   0.328  0.00  0.00     0.003 A 
ATOM      6  C4  PXY d   1      -0.271  -0.195   0.870  0.00  0.00    -0.082 A 
ATOM      7  C5  PXY d   1       0.982  -0.083   0.381  0.00  0.00     0.003 A 
ATOM      8  C6  PXY d   1       1.377  -0.911  -0.666  0.00  0.00     0.003 A 
ENDROOT
TORSDOF 0
ENDMDL
