MODEL 1
REMARK minimizedAffinity -5.68354988
REMARK minimizedRMSD -1
REMARK  0 active torsions:
REMARK  status: ('A' for Active; 'I' for Inactive)
ROOT
ATOM      1  C4' PXY d   1       0.414   4.822   0.211  0.00  0.00     0.077 C 
ATOM      2  C1' PXY d   1      -1.066  -0.764   0.364  0.00  0.00     0.077 C 
ATOM      3  C1  PXY d   1      -0.668   0.698   0.316  0.00  0.00    -0.082 A 
ATOM      4  C2  PXY d   1      -0.992   1.498   1.319  0.00  0.00     0.003 A 
ATOM      5  C3  PXY d   1      -0.668   2.830   1.277  0.00  0.00     0.003 A 
ATOM      6  C4  PXY d   1       0.041   3.337   0.222  0.00  0.00    -0.082 A 
ATOM      7  C5  PXY d   1       0.385   2.525  -0.801  0.00  0.00     0.003 A 
ATOM      8  C6  PXY d   1       0.011   1.185  -0.758  0.00  0.00     0.003 A 
ENDROOT
TORSDOF 0
ENDMDL
