MODEL 1
REMARK minimizedAffinity -2.40673351
REMARK minimizedRMSD -1
REMARK  0 active torsions:
REMARK  status: ('A' for Active; 'I' for Inactive)
ROOT
ATOM      1  C4' PXY d   1       0.733  -1.594  -3.207  0.00  0.00     0.077 C 
ATOM      2  C1' PXY d   1      -0.808   0.478   1.965  0.00  0.00     0.077 C 
ATOM      3  C1  PXY d   1      -0.392  -0.064   0.612  0.00  0.00    -0.082 A 
ATOM      4  C2  PXY d   1      -1.238  -0.008  -0.404  0.00  0.00     0.003 A 
ATOM      5  C3  PXY d   1      -0.889  -0.522  -1.626  0.00  0.00     0.003 A 
ATOM      6  C4  PXY d   1       0.358  -1.051  -1.825  0.00  0.00    -0.082 A 
ATOM      7  C5  PXY d   1       1.231  -1.102  -0.797  0.00  0.00     0.003 A 
ATOM      8  C6  PXY d   1       0.843  -0.612   0.447  0.00  0.00     0.003 A 
ENDROOT
TORSDOF 0
ENDMDL
