MODEL 1
REMARK minimizedAffinity -2.58885527
REMARK minimizedRMSD -1
REMARK  0 active torsions:
REMARK  status: ('A' for Active; 'I' for Inactive)
ROOT
ATOM      1  C4' PXY d   1       1.231  -2.186  -1.226  0.00  0.00     0.077 C 
ATOM      2  C1' PXY d   1      -1.000   1.709   2.416  0.00  0.00     0.077 C 
ATOM      3  C1  PXY d   1      -0.416   0.696   1.451  0.00  0.00    -0.082 A 
ATOM      4  C2  PXY d   1      -0.523  -0.596   1.715  0.00  0.00     0.003 A 
ATOM      5  C3  PXY d   1       0.027  -1.525   0.869  0.00  0.00     0.003 A 
ATOM      6  C4  PXY d   1       0.648  -1.129  -0.285  0.00  0.00    -0.082 A 
ATOM      7  C5  PXY d   1       0.752   0.188  -0.566  0.00  0.00     0.003 A 
ATOM      8  C6  PXY d   1       0.223   1.116   0.326  0.00  0.00     0.003 A 
ENDROOT
TORSDOF 0
ENDMDL
