MODEL 1
REMARK minimizedAffinity -3.52238035
REMARK minimizedRMSD -1
REMARK  0 active torsions:
REMARK  status: ('A' for Active; 'I' for Inactive)
ROOT
ATOM      1  C4' PXY d   1       0.302  -2.923  -1.618  0.00  0.00     0.077 C 
ATOM      2  C1' PXY d   1      -0.832   1.487   1.944  0.00  0.00     0.077 C 
ATOM      3  C1  PXY d   1      -0.528   0.338   1.002  0.00  0.00    -0.082 A 
ATOM      4  C2  PXY d   1      -1.331  -0.713   0.971  0.00  0.00     0.003 A 
ATOM      5  C3  PXY d   1      -1.053  -1.774   0.148  0.00  0.00     0.003 A 
ATOM      6  C4  PXY d   1       0.029  -1.736  -0.690  0.00  0.00    -0.082 A 
ATOM      7  C5  PXY d   1       0.847  -0.663  -0.672  0.00  0.00     0.003 A 
ATOM      8  C6  PXY d   1       0.571   0.386   0.200  0.00  0.00     0.003 A 
ENDROOT
TORSDOF 0
ENDMDL
