MODEL 1
REMARK minimizedAffinity -3.17663646
REMARK minimizedRMSD -1
REMARK  0 active torsions:
REMARK  status: ('A' for Active; 'I' for Inactive)
ROOT
ATOM      1  C4' PXY d   1       0.727  -2.336  -1.555  0.00  0.00     0.077 C 
ATOM      2  C1' PXY d   1      -1.044   2.032   1.791  0.00  0.00     0.077 C 
ATOM      3  C1  PXY d   1      -0.580   0.895   0.903  0.00  0.00    -0.082 A 
ATOM      4  C2  PXY d   1      -0.790  -0.356   1.279  0.00  0.00     0.003 A 
ATOM      5  C3  PXY d   1      -0.348  -1.397   0.504  0.00  0.00     0.003 A 
ATOM      6  C4  PXY d   1       0.267  -1.155  -0.695  0.00  0.00    -0.082 A 
ATOM      7  C5  PXY d   1       0.475   0.118  -1.091  0.00  0.00     0.003 A 
ATOM      8  C6  PXY d   1       0.056   1.161  -0.270  0.00  0.00     0.003 A 
ENDROOT
TORSDOF 0
ENDMDL
