MODEL 1
REMARK minimizedAffinity -2.76535225
REMARK minimizedRMSD -1
REMARK  0 active torsions:
REMARK  status: ('A' for Active; 'I' for Inactive)
ROOT
ATOM      1  C4' PXY d   1      -0.620   3.626   1.463  0.00  0.00     0.077 C 
ATOM      2  C1' PXY d   1       0.398  -1.690  -0.564  0.00  0.00     0.077 C 
ATOM      3  C1  PXY d   1       0.121  -0.301  -0.026  0.00  0.00    -0.082 A 
ATOM      4  C2  PXY d   1       0.540   0.758  -0.700  0.00  0.00     0.003 A 
ATOM      5  C3  PXY d   1       0.326   2.021  -0.211  0.00  0.00     0.003 A 
ATOM      6  C4  PXY d   1      -0.371   2.204   0.953  0.00  0.00    -0.082 A 
ATOM      7  C5  PXY d   1      -0.812   1.130   1.641  0.00  0.00     0.003 A 
ATOM      8  C6  PXY d   1      -0.548  -0.145   1.149  0.00  0.00     0.003 A 
ENDROOT
TORSDOF 0
ENDMDL
