MODEL 1
REMARK minimizedAffinity -2.26668835
REMARK minimizedRMSD -1
REMARK  1 active torsions:
REMARK  status: ('A' for Active; 'I' for Inactive)
REMARK    1  A    between atoms: C1_2  and  C2_3 
ROOT
ATOM      1  C2  UNL d   1      -0.361  -0.452   0.554  0.00  0.00    -0.073 A 
ATOM      2  C3  UNL d   1       0.717  -0.173  -0.294  0.00  0.00    -0.002 A 
ATOM      3  C4  UNL d   1       0.965  -0.979  -1.406  0.00  0.00     0.004 A 
ATOM      4  C5  UNL d   1       0.136  -2.066  -1.685  0.00  0.00    -0.004 A 
ATOM      5  C6  UNL d   1      -0.953  -2.353  -0.855  0.00  0.00    -0.075 A 
ATOM      6  C7  UNL d   1      -1.853  -3.519  -1.140  0.00  0.00     0.076 C 
ATOM      7  C8  UNL d   1      -1.194  -1.541   0.261  0.00  0.00     0.001 A 
ENDROOT
BRANCH   1   8
ATOM      8  C1  UNL d   1      -0.637   0.419   1.753  0.00  0.00     0.053 C 
ATOM      9  C   UNL d   1      -1.400   1.680   1.378  0.00  0.00     0.018 C 
ENDBRANCH   1   8
TORSDOF 1
ENDMDL
