MODEL 1
REMARK minimizedAffinity -1.47064149
REMARK minimizedRMSD -1
REMARK  1 active torsions:
REMARK  status: ('A' for Active; 'I' for Inactive)
REMARK    1  A    between atoms: C1_2  and  C2_3 
ROOT
ATOM      1  C2  UNL d   1       2.670  -0.641   1.198  0.00  0.00    -0.073 A 
ATOM      2  C3  UNL d   1       1.966  -0.473   2.396  0.00  0.00    -0.002 A 
ATOM      3  C4  UNL d   1       0.652  -0.003   2.381  0.00  0.00     0.004 A 
ATOM      4  C5  UNL d   1       0.027   0.296   1.170  0.00  0.00    -0.004 A 
ATOM      5  C6  UNL d   1       0.710   0.123  -0.038  0.00  0.00    -0.075 A 
ATOM      6  C7  UNL d   1       0.052   0.442  -1.348  0.00  0.00     0.076 C 
ATOM      7  C8  UNL d   1       2.030  -0.347  -0.015  0.00  0.00     0.001 A 
ENDROOT
BRANCH   1   8
ATOM      8  C1  UNL d   1       4.087  -1.154   1.208  0.00  0.00     0.053 C 
ATOM      9  C   UNL d   1       4.614  -1.342   2.622  0.00  0.00     0.018 C 
ENDBRANCH   1   8
TORSDOF 1
ENDMDL
