MODEL 1
REMARK minimizedAffinity -3.83641529
REMARK minimizedRMSD -1
REMARK  1 active torsions:
REMARK  status: ('A' for Active; 'I' for Inactive)
REMARK    1  A    between atoms: C1_2  and  C2_3 
ROOT
ATOM      1  C2  UNL d   1      -0.137   0.122  -0.242  0.00  0.00    -0.073 A 
ATOM      2  C3  UNL d   1       0.385  -0.133   1.031  0.00  0.00    -0.002 A 
ATOM      3  C4  UNL d   1       0.331   0.846   2.024  0.00  0.00     0.004 A 
ATOM      4  C5  UNL d   1      -0.250   2.085   1.757  0.00  0.00    -0.004 A 
ATOM      5  C6  UNL d   1      -0.788   2.355   0.495  0.00  0.00    -0.075 A 
ATOM      6  C7  UNL d   1      -1.415   3.684   0.191  0.00  0.00     0.076 C 
ATOM      7  C8  UNL d   1      -0.728   1.368  -0.498  0.00  0.00     0.001 A 
ENDROOT
BRANCH   1   8
ATOM      8  C1  UNL d   1      -0.087  -0.934  -1.316  0.00  0.00     0.053 C 
ATOM      9  C   UNL d   1      -0.268  -2.333  -0.748  0.00  0.00     0.018 C 
ENDBRANCH   1   8
TORSDOF 1
ENDMDL
