MODEL 1
REMARK minimizedAffinity -1.37716699
REMARK minimizedRMSD -1
REMARK  1 active torsions:
REMARK  status: ('A' for Active; 'I' for Inactive)
REMARK    1  A    between atoms: C1_2  and  C2_3 
ROOT
ATOM      1  C2  UNL d   1       0.133  -0.534  -0.991  0.00  0.00    -0.073 A 
ATOM      2  C3  UNL d   1       0.540   0.020  -2.211  0.00  0.00    -0.002 A 
ATOM      3  C4  UNL d   1       0.174   1.323  -2.550  0.00  0.00     0.004 A 
ATOM      4  C5  UNL d   1      -0.595   2.088  -1.673  0.00  0.00    -0.004 A 
ATOM      5  C6  UNL d   1      -1.002   1.556  -0.445  0.00  0.00    -0.075 A 
ATOM      6  C7  UNL d   1      -1.832   2.364   0.509  0.00  0.00     0.076 C 
ATOM      7  C8  UNL d   1      -0.633   0.246  -0.112  0.00  0.00     0.001 A 
ENDROOT
BRANCH   1   8
ATOM      8  C1  UNL d   1       0.531  -1.938  -0.618  0.00  0.00     0.053 C 
ATOM      9  C   UNL d   1      -0.117  -2.974  -1.523  0.00  0.00     0.018 C 
ENDBRANCH   1   8
TORSDOF 1
ENDMDL
