MODEL 1
REMARK minimizedAffinity 0.00935247913
REMARK minimizedRMSD -1
REMARK  1 active torsions:
REMARK  status: ('A' for Active; 'I' for Inactive)
REMARK    1  A    between atoms: C1_2  and  C2_3 
ROOT
ATOM      1  C2  UNL d   1       0.674   0.013   0.959  0.00  0.00    -0.073 A 
ATOM      2  C3  UNL d   1       0.412  -0.314  -0.376  0.00  0.00    -0.002 A 
ATOM      3  C4  UNL d   1      -0.457   0.471  -1.136  0.00  0.00     0.004 A 
ATOM      4  C5  UNL d   1      -1.065   1.592  -0.572  0.00  0.00    -0.004 A 
ATOM      5  C6  UNL d   1      -0.805   1.942   0.757  0.00  0.00    -0.075 A 
ATOM      6  C7  UNL d   1      -1.453   3.144   1.379  0.00  0.00     0.076 C 
ATOM      7  C8  UNL d   1       0.065   1.147   1.515  0.00  0.00     0.001 A 
ENDROOT
BRANCH   1   8
ATOM      8  C1  UNL d   1       1.616  -0.828   1.782  0.00  0.00     0.053 C 
ATOM      9  C   UNL d   1       3.014  -0.868   1.185  0.00  0.00     0.018 C 
ENDBRANCH   1   8
TORSDOF 1
ENDMDL
