MODEL 1
REMARK minimizedAffinity 11.0891504
REMARK minimizedRMSD -1
REMARK  1 active torsions:
REMARK  status: ('A' for Active; 'I' for Inactive)
REMARK    1  A    between atoms: C1_2  and  C2_3 
ROOT
ATOM      1  C2  UNL d   1      -2.774   1.504   2.839  0.00  0.00    -0.073 A 
ATOM      2  C3  UNL d   1      -3.028   0.142   3.031  0.00  0.00    -0.002 A 
ATOM      3  C4  UNL d   1      -2.135  -0.817   2.550  0.00  0.00     0.004 A 
ATOM      4  C5  UNL d   1      -0.977  -0.423   1.878  0.00  0.00    -0.004 A 
ATOM      5  C6  UNL d   1      -0.700   0.934   1.687  0.00  0.00    -0.075 A 
ATOM      6  C7  UNL d   1       0.540   1.374   0.965  0.00  0.00     0.076 C 
ATOM      7  C8  UNL d   1      -1.603   1.891   2.171  0.00  0.00     0.001 A 
ENDROOT
BRANCH   1   8
ATOM      8  C1  UNL d   1      -3.732   2.543   3.363  0.00  0.00     0.053 C 
ATOM      9  C   UNL d   1      -4.994   1.917   3.934  0.00  0.00     0.018 C 
ENDBRANCH   1   8
TORSDOF 1
ENDMDL
