MODEL 1
REMARK minimizedAffinity 10.0448799
REMARK minimizedRMSD -1
REMARK  1 active torsions:
REMARK  status: ('A' for Active; 'I' for Inactive)
REMARK    1  A    between atoms: C1_2  and  C2_3 
ROOT
ATOM      1  C2  UNL d   1      -0.248  -2.067  -4.275  0.00  0.00    -0.073 A 
ATOM      2  C3  UNL d   1      -0.603  -3.043  -5.214  0.00  0.00    -0.002 A 
ATOM      3  C4  UNL d   1      -1.886  -3.591  -5.209  0.00  0.00     0.004 A 
ATOM      4  C5  UNL d   1      -2.828  -3.166  -4.273  0.00  0.00    -0.004 A 
ATOM      5  C6  UNL d   1      -2.497  -2.184  -3.334  0.00  0.00    -0.075 A 
ATOM      6  C7  UNL d   1      -3.498  -1.717  -2.319  0.00  0.00     0.076 C 
ATOM      7  C8  UNL d   1      -1.205  -1.640  -3.343  0.00  0.00     0.001 A 
ENDROOT
BRANCH   1   8
ATOM      8  C1  UNL d   1       1.134  -1.467  -4.280  0.00  0.00     0.053 C 
ATOM      9  C   UNL d   1       1.655  -1.226  -2.872  0.00  0.00     0.018 C 
ENDBRANCH   1   8
TORSDOF 1
ENDMDL
