MODEL 1
REMARK minimizedAffinity 5.86639309
REMARK minimizedRMSD -1
REMARK  1 active torsions:
REMARK  status: ('A' for Active; 'I' for Inactive)
REMARK    1  A    between atoms: C1_2  and  C2_3 
ROOT
ATOM      1  C2  UNL d   1      -0.443   0.906   2.037  0.00  0.00    -0.073 A 
ATOM      2  C3  UNL d   1      -0.566   0.627   0.671  0.00  0.00    -0.002 A 
ATOM      3  C4  UNL d   1       0.519   0.813  -0.187  0.00  0.00     0.004 A 
ATOM      4  C5  UNL d   1       1.737   1.274   0.311  0.00  0.00    -0.004 A 
ATOM      5  C6  UNL d   1       1.884   1.547   1.675  0.00  0.00    -0.075 A 
ATOM      6  C7  UNL d   1       3.187   2.046   2.227  0.00  0.00     0.076 C 
ATOM      7  C8  UNL d   1       0.789   1.360   2.530  0.00  0.00     0.001 A 
ENDROOT
BRANCH   1   8
ATOM      8  C1  UNL d   1      -1.609   0.701   2.968  0.00  0.00     0.053 C 
ATOM      9  C   UNL d   1      -1.712  -0.740   3.443  0.00  0.00     0.018 C 
ENDBRANCH   1   8
TORSDOF 1
ENDMDL
