MODEL 1
REMARK minimizedAffinity 12.0015554
REMARK minimizedRMSD -1
REMARK  1 active torsions:
REMARK  status: ('A' for Active; 'I' for Inactive)
REMARK    1  A    between atoms: C1_2  and  C2_3 
ROOT
ATOM      1  C2  UNL d   1       2.715   2.855  -5.000  0.00  0.00    -0.073 A 
ATOM      2  C3  UNL d   1       3.704   2.682  -5.975  0.00  0.00    -0.002 A 
ATOM      3  C4  UNL d   1       4.473   1.518  -6.000  0.00  0.00     0.004 A 
ATOM      4  C5  UNL d   1       4.256   0.513  -5.056  0.00  0.00    -0.004 A 
ATOM      5  C6  UNL d   1       3.264   0.663  -4.082  0.00  0.00    -0.075 A 
ATOM      6  C7  UNL d   1       3.021  -0.407  -3.059  0.00  0.00     0.076 C 
ATOM      7  C8  UNL d   1       2.498   1.836  -4.062  0.00  0.00     0.001 A 
ENDROOT
BRANCH   1   8
ATOM      8  C1  UNL d   1       1.878   4.108  -4.973  0.00  0.00     0.053 C 
ATOM      9  C   UNL d   1       0.757   4.067  -6.000  0.00  0.00     0.018 C 
ENDBRANCH   1   8
TORSDOF 1
ENDMDL
