MODEL 1
REMARK minimizedAffinity 3.93459201
REMARK minimizedRMSD -1
REMARK  1 active torsions:
REMARK  status: ('A' for Active; 'I' for Inactive)
REMARK    1  A    between atoms: C1_2  and  C2_3 
ROOT
ATOM      1  C2  UNL d   1       0.982  -5.998   3.229  0.00  0.00    -0.073 A 
ATOM      2  C3  UNL d   1       1.349  -5.983   1.879  0.00  0.00    -0.002 A 
ATOM      3  C4  UNL d   1       0.372  -5.980   0.882  0.00  0.00     0.004 A 
ATOM      4  C5  UNL d   1      -0.980  -5.986   1.225  0.00  0.00    -0.004 A 
ATOM      5  C6  UNL d   1      -1.367  -5.990   2.568  0.00  0.00    -0.075 A 
ATOM      6  C7  UNL d   1      -2.817  -5.998   2.953  0.00  0.00     0.076 C 
ATOM      7  C8  UNL d   1      -0.380  -5.995   3.563  0.00  0.00     0.001 A 
ENDROOT
BRANCH   1   8
ATOM      8  C1  UNL d   1       2.033  -5.995   4.308  0.00  0.00     0.053 C 
ATOM      9  C   UNL d   1       1.421  -5.952   5.700  0.00  0.00     0.018 C 
ENDBRANCH   1   8
TORSDOF 1
ENDMDL
