MODEL 1
REMARK minimizedAffinity 14.0675745
REMARK minimizedRMSD -1
REMARK  1 active torsions:
REMARK  status: ('A' for Active; 'I' for Inactive)
REMARK    1  A    between atoms: C1_2  and  C2_3 
ROOT
ATOM      1  C2  UNL d   1       1.962   2.715  -3.423  0.00  0.00    -0.073 A 
ATOM      2  C3  UNL d   1       1.864   3.444  -2.233  0.00  0.00    -0.002 A 
ATOM      3  C4  UNL d   1       1.557   4.805  -2.263  0.00  0.00     0.004 A 
ATOM      4  C5  UNL d   1       1.340   5.449  -3.481  0.00  0.00    -0.004 A 
ATOM      5  C6  UNL d   1       1.422   4.735  -4.681  0.00  0.00    -0.075 A 
ATOM      6  C7  UNL d   1       1.192   5.413  -5.999  0.00  0.00     0.076 C 
ATOM      7  C8  UNL d   1       1.733   3.369  -4.642  0.00  0.00     0.001 A 
ENDROOT
BRANCH   1   8
ATOM      8  C1  UNL d   1       2.287   1.244  -3.396  0.00  0.00     0.053 C 
ATOM      9  C   UNL d   1       3.729   0.970  -3.793  0.00  0.00     0.018 C 
ENDBRANCH   1   8
TORSDOF 1
ENDMDL
