MODEL 1
REMARK minimizedAffinity 6.54035759
REMARK minimizedRMSD -1
REMARK  1 active torsions:
REMARK  status: ('A' for Active; 'I' for Inactive)
REMARK    1  A    between atoms: C1_2  and  C2_3 
ROOT
ATOM      1  C2  UNL d   1       2.236  -0.707  -2.131  0.00  0.00    -0.073 A 
ATOM      2  C3  UNL d   1       3.268   0.080  -2.655  0.00  0.00    -0.002 A 
ATOM      3  C4  UNL d   1       3.501   0.112  -4.031  0.00  0.00     0.004 A 
ATOM      4  C5  UNL d   1       2.702  -0.636  -4.896  0.00  0.00    -0.004 A 
ATOM      5  C6  UNL d   1       1.659  -1.419  -4.392  0.00  0.00    -0.075 A 
ATOM      6  C7  UNL d   1       0.791  -2.231  -5.309  0.00  0.00     0.076 C 
ATOM      7  C8  UNL d   1       1.433  -1.448  -3.009  0.00  0.00     0.001 A 
ENDROOT
BRANCH   1   8
ATOM      8  C1  UNL d   1       1.977  -0.740  -0.647  0.00  0.00     0.053 C 
ATOM      9  C   UNL d   1       0.515  -0.483  -0.318  0.00  0.00     0.018 C 
ENDBRANCH   1   8
TORSDOF 1
ENDMDL
