MODEL 1
REMARK minimizedAffinity 11.7495327
REMARK minimizedRMSD -1
REMARK  1 active torsions:
REMARK  status: ('A' for Active; 'I' for Inactive)
REMARK    1  A    between atoms: C1_2  and  C2_3 
ROOT
ATOM      1  C2  UNL d   1       0.045   0.517   1.946  0.00  0.00    -0.073 A 
ATOM      2  C3  UNL d   1      -0.292   0.971   0.666  0.00  0.00    -0.002 A 
ATOM      3  C4  UNL d   1       0.539   1.868  -0.006  0.00  0.00     0.004 A 
ATOM      4  C5  UNL d   1       1.719   2.314   0.592  0.00  0.00    -0.004 A 
ATOM      5  C6  UNL d   1       2.079   1.862   1.865  0.00  0.00    -0.075 A 
ATOM      6  C7  UNL d   1       3.343   2.333   2.522  0.00  0.00     0.076 C 
ATOM      7  C8  UNL d   1       1.237   0.963   2.534  0.00  0.00     0.001 A 
ENDROOT
BRANCH   1   8
ATOM      8  C1  UNL d   1      -0.847  -0.457   2.672  0.00  0.00     0.053 C 
ATOM      9  C   UNL d   1      -1.118  -1.706   1.848  0.00  0.00     0.018 C 
ENDBRANCH   1   8
TORSDOF 1
ENDMDL
