MODEL 1
REMARK minimizedAffinity 2.72781181
REMARK minimizedRMSD -1
REMARK  1 active torsions:
REMARK  status: ('A' for Active; 'I' for Inactive)
REMARK    1  A    between atoms: C1_2  and  C2_3 
ROOT
ATOM      1  C2  UNL d   1      -0.019  -1.612  -3.971  0.00  0.00    -0.073 A 
ATOM      2  C3  UNL d   1      -0.979  -0.610  -3.790  0.00  0.00    -0.002 A 
ATOM      3  C4  UNL d   1      -2.304  -0.945  -3.509  0.00  0.00     0.004 A 
ATOM      4  C5  UNL d   1      -2.681  -2.283  -3.398  0.00  0.00    -0.004 A 
ATOM      5  C6  UNL d   1      -1.734  -3.299  -3.564  0.00  0.00    -0.075 A 
ATOM      6  C7  UNL d   1      -2.124  -4.744  -3.450  0.00  0.00     0.076 C 
ATOM      7  C8  UNL d   1      -0.406  -2.955  -3.849  0.00  0.00     0.001 A 
ENDROOT
BRANCH   1   8
ATOM      8  C1  UNL d   1       1.414  -1.255  -4.268  0.00  0.00     0.053 C 
ATOM      9  C   UNL d   1       2.113  -0.648  -3.062  0.00  0.00     0.018 C 
ENDBRANCH   1   8
TORSDOF 1
ENDMDL
