MODEL 1
REMARK minimizedAffinity 2.26641393
REMARK minimizedRMSD -1
REMARK  1 active torsions:
REMARK  status: ('A' for Active; 'I' for Inactive)
REMARK    1  A    between atoms: C1_2  and  C2_3 
ROOT
ATOM      1  C2  UNL d   1      -3.342  -5.986   3.167  0.00  0.00    -0.073 A 
ATOM      2  C3  UNL d   1      -3.030  -5.992   1.803  0.00  0.00    -0.002 A 
ATOM      3  C4  UNL d   1      -1.698  -5.993   1.385  0.00  0.00     0.004 A 
ATOM      4  C5  UNL d   1      -0.667  -5.994   2.324  0.00  0.00    -0.004 A 
ATOM      5  C6  UNL d   1      -0.960  -6.000   3.692  0.00  0.00    -0.075 A 
ATOM      6  C7  UNL d   1       0.138  -5.999   4.715  0.00  0.00     0.076 C 
ATOM      7  C8  UNL d   1      -2.299  -5.996   4.104  0.00  0.00     0.001 A 
ENDROOT
BRANCH   1   8
ATOM      8  C1  UNL d   1      -4.778  -5.991   3.623  0.00  0.00     0.053 C 
ATOM      9  C   UNL d   1      -5.748  -5.995   2.452  0.00  0.00     0.018 C 
ENDBRANCH   1   8
TORSDOF 1
ENDMDL
