MODEL 1
REMARK minimizedAffinity 1.39543808
REMARK minimizedRMSD -1
REMARK  1 active torsions:
REMARK  status: ('A' for Active; 'I' for Inactive)
REMARK    1  A    between atoms: C1_2  and  C2_3 
ROOT
ATOM      1  C2  UNL d   1       1.253  -5.821   3.848  0.00  0.00    -0.073 A 
ATOM      2  C3  UNL d   1       1.804  -5.845   2.562  0.00  0.00    -0.002 A 
ATOM      3  C4  UNL d   1       3.187  -5.909   2.389  0.00  0.00     0.004 A 
ATOM      4  C5  UNL d   1       4.032  -5.956   3.497  0.00  0.00    -0.004 A 
ATOM      5  C6  UNL d   1       3.500  -5.945   4.791  0.00  0.00    -0.075 A 
ATOM      6  C7  UNL d   1       4.396  -5.993   5.994  0.00  0.00     0.076 C 
ATOM      7  C8  UNL d   1       2.110  -5.878   4.957  0.00  0.00     0.001 A 
ENDROOT
BRANCH   1   8
ATOM      8  C1  UNL d   1      -0.240  -5.758   4.041  0.00  0.00     0.053 C 
ATOM      9  C   UNL d   1      -0.988  -5.824   2.719  0.00  0.00     0.018 C 
ENDBRANCH   1   8
TORSDOF 1
ENDMDL
