MODEL 1
REMARK minimizedAffinity 6.82599735
REMARK minimizedRMSD -1
REMARK  0 active torsions:
REMARK  status: ('A' for Active; 'I' for Inactive)
ROOT
ATOM      1  C4' PXY d   1       1.002   0.526   2.026  0.00  0.00     0.077 C 
ATOM      2  C1' PXY d   1      -3.719   1.434  -1.185  0.00  0.00     0.077 C 
ATOM      3  C1  PXY d   1      -2.473   1.196  -0.354  0.00  0.00    -0.082 A 
ATOM      4  C2  PXY d   1      -2.581   0.635   0.840  0.00  0.00     0.003 A 
ATOM      5  C3  PXY d   1      -1.469   0.441   1.618  0.00  0.00     0.003 A 
ATOM      6  C4  PXY d   1      -0.228   0.777   1.148  0.00  0.00    -0.082 A 
ATOM      7  C5  PXY d   1      -0.108   1.341  -0.073  0.00  0.00     0.003 A 
ATOM      8  C6  PXY d   1      -1.254   1.567  -0.830  0.00  0.00     0.003 A 
ENDROOT
TORSDOF 0
ENDMDL
