MODEL 1
REMARK minimizedAffinity 14.6152735
REMARK minimizedRMSD -1
REMARK  0 active torsions:
REMARK  status: ('A' for Active; 'I' for Inactive)
ROOT
ATOM      1  C4' PXY d   1       3.693  -2.644   6.000  0.00  0.00     0.077 C 
ATOM      2  C1' PXY d   1       1.568  -0.669   1.000  0.00  0.00     0.077 C 
ATOM      3  C1  PXY d   1       2.116  -1.181   2.318  0.00  0.00    -0.082 A 
ATOM      4  C2  PXY d   1       3.389  -1.530   2.405  0.00  0.00     0.003 A 
ATOM      5  C3  PXY d   1       3.893  -2.025   3.580  0.00  0.00     0.003 A 
ATOM      6  C4  PXY d   1       3.099  -2.113   4.692  0.00  0.00    -0.082 A 
ATOM      7  C5  PXY d   1       1.802  -1.748   4.614  0.00  0.00     0.003 A 
ATOM      8  C6  PXY d   1       1.299  -1.287   3.401  0.00  0.00     0.003 A 
ENDROOT
TORSDOF 0
ENDMDL
