MODEL 1
REMARK minimizedAffinity 8.05844593
REMARK minimizedRMSD -1
REMARK  0 active torsions:
REMARK  status: ('A' for Active; 'I' for Inactive)
ROOT
ATOM      1  C4' PXY d   1       2.357  -0.723   2.334  0.00  0.00     0.077 C 
ATOM      2  C1' PXY d   1      -2.171   1.779  -0.244  0.00  0.00     0.077 C 
ATOM      3  C1  PXY d   1      -0.983   1.113   0.422  0.00  0.00    -0.082 A 
ATOM      4  C2  PXY d   1      -0.779   1.287   1.718  0.00  0.00     0.003 A 
ATOM      5  C3  PXY d   1       0.308   0.719   2.331  0.00  0.00     0.003 A 
ATOM      6  C4  PXY d   1       1.166  -0.078   1.621  0.00  0.00    -0.082 A 
ATOM      7  C5  PXY d   1       0.958  -0.269   0.300  0.00  0.00     0.003 A 
ATOM      8  C6  PXY d   1      -0.128   0.350  -0.311  0.00  0.00     0.003 A 
ENDROOT
TORSDOF 0
ENDMDL
