MODEL 1
REMARK minimizedAffinity 12.4299097
REMARK minimizedRMSD -1
REMARK  0 active torsions:
REMARK  status: ('A' for Active; 'I' for Inactive)
ROOT
ATOM      1  C4' PXY d   1      -2.399   1.208  -0.070  0.00  0.00     0.077 C 
ATOM      2  C1' PXY d   1       2.449  -0.495   2.578  0.00  0.00     0.077 C 
ATOM      3  C1  PXY d   1       1.178  -0.037   1.891  0.00  0.00    -0.082 A 
ATOM      4  C2  PXY d   1       0.377  -0.932   1.335  0.00  0.00     0.003 A 
ATOM      5  C3  PXY d   1      -0.761  -0.533   0.681  0.00  0.00     0.003 A 
ATOM      6  C4  PXY d   1      -1.109   0.791   0.642  0.00  0.00    -0.082 A 
ATOM      7  C5  PXY d   1      -0.303   1.708   1.217  0.00  0.00     0.003 A 
ATOM      8  C6  PXY d   1       0.869   1.287   1.839  0.00  0.00     0.003 A 
ENDROOT
TORSDOF 0
ENDMDL
