MODEL 1
REMARK minimizedAffinity 1.17906392
REMARK minimizedRMSD -1
REMARK  0 active torsions:
REMARK  status: ('A' for Active; 'I' for Inactive)
ROOT
ATOM      1  C4' PXY d   1      -0.751   1.337  -0.753  0.00  0.00     0.077 C 
ATOM      2  C1' PXY d   1      -1.325  -4.396  -1.225  0.00  0.00     0.077 C 
ATOM      3  C1  PXY d   1      -1.168  -2.892  -1.112  0.00  0.00    -0.082 A 
ATOM      4  C2  PXY d   1      -1.216  -2.317   0.078  0.00  0.00     0.003 A 
ATOM      5  C3  PXY d   1      -1.108  -0.955   0.195  0.00  0.00     0.003 A 
ATOM      6  C4  PXY d   1      -0.895  -0.179  -0.913  0.00  0.00    -0.082 A 
ATOM      7  C5  PXY d   1      -0.835  -0.760  -2.130  0.00  0.00     0.003 A 
ATOM      8  C6  PXY d   1      -0.988  -2.140  -2.232  0.00  0.00     0.003 A 
ENDROOT
TORSDOF 0
ENDMDL
