MODEL 1
REMARK minimizedAffinity 1.51072299
REMARK minimizedRMSD -1
REMARK  0 active torsions:
REMARK  status: ('A' for Active; 'I' for Inactive)
ROOT
ATOM      1  C4' PXY d   1      -0.744  -4.144  -0.752  0.00  0.00     0.077 C 
ATOM      2  C1' PXY d   1       4.707  -6.000  -0.246  0.00  0.00     0.077 C 
ATOM      3  C1  PXY d   1       3.273  -5.524  -0.373  0.00  0.00    -0.082 A 
ATOM      4  C2  PXY d   1       2.956  -4.647  -1.311  0.00  0.00     0.003 A 
ATOM      5  C3  PXY d   1       1.670  -4.182  -1.419  0.00  0.00     0.003 A 
ATOM      6  C4  PXY d   1       0.689  -4.660  -0.593  0.00  0.00    -0.082 A 
ATOM      7  C5  PXY d   1       1.002  -5.563   0.360  0.00  0.00     0.003 A 
ATOM      8  C6  PXY d   1       2.321  -5.992   0.480  0.00  0.00     0.003 A 
ENDROOT
TORSDOF 0
ENDMDL
