MODEL 1
REMARK minimizedAffinity 7.35602379
REMARK minimizedRMSD -1
REMARK  2 active torsions:
REMARK  status: ('A' for Active; 'I' for Inactive)
REMARK    1  A    between atoms: C1_2  and  C2_3 
REMARK    2  A    between atoms: C2_3  and  C3_4 
ROOT
ATOM      1  C3  UNL d   1       1.080   5.341  -5.605  0.00  0.00    -0.075 A 
ATOM      2  C4  UNL d   1       1.117   4.074  -5.004  0.00  0.00     0.002 A 
ATOM      3  C5  UNL d   1       2.336   3.487  -4.664  0.00  0.00     0.002 A 
ATOM      4  C6  UNL d   1       3.531   4.152  -4.928  0.00  0.00    -0.004 A 
ATOM      5  C7  UNL d   1       3.507   5.404  -5.539  0.00  0.00     0.002 A 
ATOM      6  C8  UNL d   1       2.289   5.996  -5.877  0.00  0.00     0.002 A 
ENDROOT
BRANCH   1   7
ATOM      7  C2  UNL d   1      -0.237   5.995  -5.949  0.00  0.00     0.056 C 
BRANCH   7   8
ATOM      8  C1  UNL d   1      -1.336   5.771  -4.905  0.00  0.00     0.007 C 
ATOM      9  C   UNL d   1      -0.861   5.993  -3.475  0.00  0.00     0.009 C 
ENDBRANCH   7   8
ENDBRANCH   1   7
TORSDOF 2
ENDMDL
