MODEL 1
REMARK minimizedAffinity -0.306617379
REMARK minimizedRMSD -1
REMARK  2 active torsions:
REMARK  status: ('A' for Active; 'I' for Inactive)
REMARK    1  A    between atoms: C1_2  and  C2_3 
REMARK    2  A    between atoms: C2_3  and  C3_4 
ROOT
ATOM      1  C3  UNL d   1       2.126   5.887  -5.062  0.00  0.00    -0.075 A 
ATOM      2  C4  UNL d   1       1.809   5.945  -3.697  0.00  0.00     0.002 A 
ATOM      3  C5  UNL d   1       0.478   5.995  -3.281  0.00  0.00     0.002 A 
ATOM      4  C6  UNL d   1      -0.550   5.998  -4.222  0.00  0.00    -0.004 A 
ATOM      5  C7  UNL d   1      -0.245   5.957  -5.581  0.00  0.00     0.002 A 
ATOM      6  C8  UNL d   1       1.086   5.903  -6.000  0.00  0.00     0.002 A 
ENDROOT
BRANCH   1   7
ATOM      7  C2  UNL d   1       3.564   5.803  -5.518  0.00  0.00     0.056 C 
BRANCH   7   8
ATOM      8  C1  UNL d   1       4.518   5.225  -4.468  0.00  0.00     0.007 C 
ATOM      9  C   UNL d   1       5.910   5.841  -4.518  0.00  0.00     0.009 C 
ENDBRANCH   7   8
ENDBRANCH   1   7
TORSDOF 2
ENDMDL
