MODEL 1
REMARK minimizedAffinity -2.29906797
REMARK minimizedRMSD -1
REMARK  2 active torsions:
REMARK  status: ('A' for Active; 'I' for Inactive)
REMARK    1  A    between atoms: C1_2  and  C2_3 
REMARK    2  A    between atoms: C2_3  and  C3_4 
ROOT
ATOM      1  C3  UNL d   1       3.532   5.215  -4.722  0.00  0.00    -0.075 A 
ATOM      2  C4  UNL d   1       3.569   3.824  -4.541  0.00  0.00     0.002 A 
ATOM      3  C5  UNL d   1       4.787   3.164  -4.376  0.00  0.00     0.002 A 
ATOM      4  C6  UNL d   1       5.981   3.882  -4.399  0.00  0.00    -0.004 A 
ATOM      5  C7  UNL d   1       5.957   5.261  -4.595  0.00  0.00     0.002 A 
ATOM      6  C8  UNL d   1       4.739   5.925  -4.756  0.00  0.00     0.002 A 
ENDROOT
BRANCH   1   7
ATOM      7  C2  UNL d   1       2.215   5.939  -4.871  0.00  0.00     0.056 C 
BRANCH   7   8
ATOM      8  C1  UNL d   1       1.322   5.384  -5.986  0.00  0.00     0.007 C 
ATOM      9  C   UNL d   1      -0.073   5.997  -5.998  0.00  0.00     0.009 C 
ENDBRANCH   7   8
ENDBRANCH   1   7
TORSDOF 2
ENDMDL
