MODEL 1
REMARK minimizedAffinity 0.68478924
REMARK minimizedRMSD -1
REMARK  2 active torsions:
REMARK  status: ('A' for Active; 'I' for Inactive)
REMARK    1  A    between atoms: C1_2  and  C2_3 
REMARK    2  A    between atoms: C2_3  and  C3_4 
ROOT
ATOM      1  C3  UNL d   1      -1.366   5.981  -4.495  0.00  0.00    -0.075 A 
ATOM      2  C4  UNL d   1      -2.768   5.972  -4.513  0.00  0.00     0.002 A 
ATOM      3  C5  UNL d   1      -3.492   5.984  -3.320  0.00  0.00     0.002 A 
ATOM      4  C6  UNL d   1      -2.825   5.995  -2.097  0.00  0.00    -0.004 A 
ATOM      5  C7  UNL d   1      -1.432   5.988  -2.067  0.00  0.00     0.002 A 
ATOM      6  C8  UNL d   1      -0.705   5.980  -3.259  0.00  0.00     0.002 A 
ENDROOT
BRANCH   1   7
ATOM      7  C2  UNL d   1      -0.577   5.998  -5.782  0.00  0.00     0.056 C 
BRANCH   7   8
ATOM      8  C1  UNL d   1       0.668   5.105  -5.762  0.00  0.00     0.007 C 
ATOM      9  C   UNL d   1       1.967   5.882  -5.929  0.00  0.00     0.009 C 
ENDBRANCH   7   8
ENDBRANCH   1   7
TORSDOF 2
ENDMDL
