MODEL 1
REMARK minimizedAffinity 1.39340913
REMARK minimizedRMSD -1
REMARK  2 active torsions:
REMARK  status: ('A' for Active; 'I' for Inactive)
REMARK    1  A    between atoms: C1_2  and  C2_3 
REMARK    2  A    between atoms: C2_3  and  C3_4 
ROOT
ATOM      1  C3  UNL d   1      -0.369   5.404  -1.726  0.00  0.00    -0.075 A 
ATOM      2  C4  UNL d   1      -1.717   5.610  -1.401  0.00  0.00     0.002 A 
ATOM      3  C5  UNL d   1      -2.650   5.899  -2.398  0.00  0.00     0.002 A 
ATOM      4  C6  UNL d   1      -2.246   5.995  -3.727  0.00  0.00    -0.004 A 
ATOM      5  C7  UNL d   1      -0.906   5.809  -4.060  0.00  0.00     0.002 A 
ATOM      6  C8  UNL d   1       0.029   5.516  -3.065  0.00  0.00     0.002 A 
ENDROOT
BRANCH   1   7
ATOM      7  C2  UNL d   1       0.640   5.062  -0.656  0.00  0.00     0.056 C 
BRANCH   7   8
ATOM      8  C1  UNL d   1       0.529   3.627  -0.129  0.00  0.00     0.007 C 
ATOM      9  C   UNL d   1       1.880   2.986   0.156  0.00  0.00     0.009 C 
ENDBRANCH   7   8
ENDBRANCH   1   7
TORSDOF 2
ENDMDL
