MODEL 1
REMARK minimizedAffinity -2.31427979
REMARK minimizedRMSD -1
REMARK  2 active torsions:
REMARK  status: ('A' for Active; 'I' for Inactive)
REMARK    1  A    between atoms: C1_2  and  C2_3 
REMARK    2  A    between atoms: C2_3  and  C3_4 
ROOT
ATOM      1  C3  UNL d   1      -1.124   5.981  -3.490  0.00  0.00    -0.075 A 
ATOM      2  C4  UNL d   1      -2.139   5.958  -4.458  0.00  0.00     0.002 A 
ATOM      3  C5  UNL d   1      -3.481   5.969  -4.077  0.00  0.00     0.002 A 
ATOM      4  C6  UNL d   1      -3.825   5.993  -2.727  0.00  0.00    -0.004 A 
ATOM      5  C7  UNL d   1      -2.825   6.000  -1.757  0.00  0.00     0.002 A 
ATOM      6  C8  UNL d   1      -1.481   5.993  -2.136  0.00  0.00     0.002 A 
ENDROOT
BRANCH   1   7
ATOM      7  C2  UNL d   1       0.330   6.000  -3.897  0.00  0.00     0.056 C 
BRANCH   7   8
ATOM      8  C1  UNL d   1       0.606   5.350  -5.257  0.00  0.00     0.007 C 
ATOM      9  C   UNL d   1       1.774   5.984  -6.000  0.00  0.00     0.009 C 
ENDBRANCH   7   8
ENDBRANCH   1   7
TORSDOF 2
ENDMDL
