MODEL 1
REMARK minimizedAffinity -1.4907316
REMARK minimizedRMSD -1
REMARK  2 active torsions:
REMARK  status: ('A' for Active; 'I' for Inactive)
REMARK    1  A    between atoms: C1_2  and  C2_3 
REMARK    2  A    between atoms: C2_3  and  C3_4 
ROOT
ATOM      1  C3  UNL d   1       1.858   5.969  -5.076  0.00  0.00    -0.075 A 
ATOM      2  C4  UNL d   1       1.564   5.996  -3.705  0.00  0.00     0.002 A 
ATOM      3  C5  UNL d   1       0.240   6.000  -3.265  0.00  0.00     0.002 A 
ATOM      4  C6  UNL d   1      -0.804   5.987  -4.187  0.00  0.00    -0.004 A 
ATOM      5  C7  UNL d   1      -0.523   5.977  -5.551  0.00  0.00     0.002 A 
ATOM      6  C8  UNL d   1       0.800   5.969  -5.995  0.00  0.00     0.002 A 
ENDROOT
BRANCH   1   7
ATOM      7  C2  UNL d   1       3.289   5.935  -5.558  0.00  0.00     0.056 C 
BRANCH   7   8
ATOM      8  C1  UNL d   1       4.286   5.413  -4.518  0.00  0.00     0.007 C 
ATOM      9  C   UNL d   1       4.182   3.912  -4.287  0.00  0.00     0.009 C 
ENDBRANCH   7   8
ENDBRANCH   1   7
TORSDOF 2
ENDMDL
