MODEL 1
REMARK minimizedAffinity -1.57247865
REMARK minimizedRMSD -1
REMARK  2 active torsions:
REMARK  status: ('A' for Active; 'I' for Inactive)
REMARK    1  A    between atoms: C1_2  and  C2_3 
REMARK    2  A    between atoms: C2_3  and  C3_4 
ROOT
ATOM      1  C3  UNL d   1      -0.528   5.182  -2.633  0.00  0.00    -0.075 A 
ATOM      2  C4  UNL d   1      -1.918   5.220  -2.450  0.00  0.00     0.002 A 
ATOM      3  C5  UNL d   1      -2.762   5.565  -3.506  0.00  0.00     0.002 A 
ATOM      4  C6  UNL d   1      -2.228   5.885  -4.752  0.00  0.00    -0.004 A 
ATOM      5  C7  UNL d   1      -0.848   5.867  -4.941  0.00  0.00     0.002 A 
ATOM      6  C8  UNL d   1      -0.001   5.518  -3.887  0.00  0.00     0.002 A 
ENDROOT
BRANCH   1   7
ATOM      7  C2  UNL d   1       0.389   4.781  -1.502  0.00  0.00     0.056 C 
BRANCH   7   8
ATOM      8  C1  UNL d   1       0.394   3.278  -1.207  0.00  0.00     0.007 C 
ATOM      9  C   UNL d   1       1.360   2.887  -0.095  0.00  0.00     0.009 C 
ENDBRANCH   7   8
ENDBRANCH   1   7
TORSDOF 2
ENDMDL
