MODEL 1
REMARK minimizedAffinity -3.24411631
REMARK minimizedRMSD -1
REMARK  2 active torsions:
REMARK  status: ('A' for Active; 'I' for Inactive)
REMARK    1  A    between atoms: C1_2  and  C2_3 
REMARK    2  A    between atoms: C2_3  and  C3_4 
ROOT
ATOM      1  C3  UNL d   1      -0.774   5.997  -3.443  0.00  0.00    -0.075 A 
ATOM      2  C4  UNL d   1      -1.195   6.000  -2.105  0.00  0.00     0.002 A 
ATOM      3  C5  UNL d   1      -2.553   5.984  -1.790  0.00  0.00     0.002 A 
ATOM      4  C6  UNL d   1      -3.507   5.975  -2.805  0.00  0.00    -0.004 A 
ATOM      5  C7  UNL d   1      -3.101   5.988  -4.138  0.00  0.00     0.002 A 
ATOM      6  C8  UNL d   1      -1.742   6.000  -4.456  0.00  0.00     0.002 A 
ENDROOT
BRANCH   1   7
ATOM      7  C2  UNL d   1       0.695   5.984  -3.791  0.00  0.00     0.056 C 
BRANCH   7   8
ATOM      8  C1  UNL d   1       0.979   5.880  -5.294  0.00  0.00     0.007 C 
ATOM      9  C   UNL d   1       2.466   5.842  -5.622  0.00  0.00     0.009 C 
ENDBRANCH   7   8
ENDBRANCH   1   7
TORSDOF 2
ENDMDL
