MODEL 1
REMARK minimizedAffinity 4.55059719
REMARK minimizedRMSD -1
REMARK  2 active torsions:
REMARK  status: ('A' for Active; 'I' for Inactive)
REMARK    1  A    between atoms: C1_2  and  C2_3 
REMARK    2  A    between atoms: C2_3  and  C3_4 
ROOT
ATOM      1  C3  UNL d   1       2.252   2.166  -0.105  0.00  0.00    -0.075 A 
ATOM      2  C4  UNL d   1       1.387   3.160   0.375  0.00  0.00     0.002 A 
ATOM      3  C5  UNL d   1       0.226   2.814   1.067  0.00  0.00     0.002 A 
ATOM      4  C6  UNL d   1      -0.090   1.474   1.279  0.00  0.00    -0.004 A 
ATOM      5  C7  UNL d   1       0.754   0.478   0.792  0.00  0.00     0.002 A 
ATOM      6  C8  UNL d   1       1.918   0.821   0.103  0.00  0.00     0.002 A 
ENDROOT
BRANCH   1   7
ATOM      7  C2  UNL d   1       3.525   2.534  -0.828  0.00  0.00     0.056 C 
BRANCH   7   8
ATOM      8  C1  UNL d   1       4.716   2.799   0.099  0.00  0.00     0.007 C 
ATOM      9  C   UNL d   1       5.141   1.573   0.896  0.00  0.00     0.009 C 
ENDBRANCH   7   8
ENDBRANCH   1   7
TORSDOF 2
ENDMDL
