MODEL 1
REMARK minimizedAffinity 3.39819121
REMARK minimizedRMSD -1
REMARK  2 active torsions:
REMARK  status: ('A' for Active; 'I' for Inactive)
REMARK    1  A    between atoms: C1_2  and  C2_3 
REMARK    2  A    between atoms: C2_3  and  C3_4 
ROOT
ATOM      1  C3  UNL d   1       1.855   5.310  -5.561  0.00  0.00    -0.075 A 
ATOM      2  C4  UNL d   1       2.995   6.000  -6.000  0.00  0.00     0.002 A 
ATOM      3  C5  UNL d   1       4.267   5.463  -5.801  0.00  0.00     0.002 A 
ATOM      4  C6  UNL d   1       4.417   4.239  -5.153  0.00  0.00    -0.004 A 
ATOM      5  C7  UNL d   1       3.293   3.553  -4.699  0.00  0.00     0.002 A 
ATOM      6  C8  UNL d   1       2.018   4.085  -4.900  0.00  0.00     0.002 A 
ENDROOT
BRANCH   1   7
ATOM      7  C2  UNL d   1       0.473   5.871  -5.800  0.00  0.00     0.056 C 
BRANCH   7   8
ATOM      8  C1  UNL d   1      -0.375   5.999  -4.530  0.00  0.00     0.007 C 
ATOM      9  C   UNL d   1      -1.873   5.980  -4.805  0.00  0.00     0.009 C 
ENDBRANCH   7   8
ENDBRANCH   1   7
TORSDOF 2
ENDMDL
