MODEL 1
REMARK minimizedAffinity 1.53732765
REMARK minimizedRMSD -1
REMARK  2 active torsions:
REMARK  status: ('A' for Active; 'I' for Inactive)
REMARK    1  A    between atoms: C1_2  and  C2_3 
REMARK    2  A    between atoms: C2_3  and  C3_4 
ROOT
ATOM      1  C3  UNL d   1       1.639   5.874  -5.208  0.00  0.00    -0.075 A 
ATOM      2  C4  UNL d   1       0.473   5.913  -5.985  0.00  0.00     0.002 A 
ATOM      3  C5  UNL d   1      -0.781   5.981  -5.377  0.00  0.00     0.002 A 
ATOM      4  C6  UNL d   1      -0.885   6.000  -3.988  0.00  0.00    -0.004 A 
ATOM      5  C7  UNL d   1       0.266   5.945  -3.206  0.00  0.00     0.002 A 
ATOM      6  C8  UNL d   1       1.523   5.882  -3.812  0.00  0.00     0.002 A 
ENDROOT
BRANCH   1   7
ATOM      7  C2  UNL d   1       3.001   5.831  -5.860  0.00  0.00     0.056 C 
BRANCH   7   8
ATOM      8  C1  UNL d   1       4.163   5.697  -4.870  0.00  0.00     0.007 C 
ATOM      9  C   UNL d   1       5.521   5.980  -5.497  0.00  0.00     0.009 C 
ENDBRANCH   7   8
ENDBRANCH   1   7
TORSDOF 2
ENDMDL
