MODEL 1
REMARK minimizedAffinity 3.27519631
REMARK minimizedRMSD -1
REMARK  2 active torsions:
REMARK  status: ('A' for Active; 'I' for Inactive)
REMARK    1  A    between atoms: C1_2  and  C2_3 
REMARK    2  A    between atoms: C2_3  and  C3_4 
ROOT
ATOM      1  C3  UNL d   1       3.060   5.292  -5.352  0.00  0.00    -0.075 A 
ATOM      2  C4  UNL d   1       2.999   3.923  -5.054  0.00  0.00     0.002 A 
ATOM      3  C5  UNL d   1       4.076   3.283  -4.441  0.00  0.00     0.002 A 
ATOM      4  C6  UNL d   1       5.229   3.999  -4.128  0.00  0.00    -0.004 A 
ATOM      5  C7  UNL d   1       5.308   5.355  -4.435  0.00  0.00     0.002 A 
ATOM      6  C8  UNL d   1       4.230   6.000  -5.045  0.00  0.00     0.002 A 
ENDROOT
BRANCH   1   7
ATOM      7  C2  UNL d   1       1.886   5.998  -5.989  0.00  0.00     0.056 C 
BRANCH   7   8
ATOM      8  C1  UNL d   1       0.618   6.000  -5.129  0.00  0.00     0.007 C 
ATOM      9  C   UNL d   1      -0.664   5.967  -5.949  0.00  0.00     0.009 C 
ENDBRANCH   7   8
ENDBRANCH   1   7
TORSDOF 2
ENDMDL
