MODEL 1
REMARK minimizedAffinity 7.19705248
REMARK minimizedRMSD -1
REMARK  0 active torsions:
REMARK  status: ('A' for Active; 'I' for Inactive)
ROOT
ATOM      1  N1  IND d   1       0.995   2.707  -2.646  0.00  0.00    -0.196 N 
ATOM      2  C2  IND d   1       1.989   2.463  -3.552  0.00  0.00     0.054 A 
ATOM      3  C3  IND d   1       2.402   1.179  -3.462  0.00  0.00    -0.031 A 
ATOM      4  C4  IND d   1       1.519  -0.723  -1.968  0.00  0.00     0.051 A 
ATOM      5  C5  IND d   1       0.642  -0.974  -0.951  0.00  0.00    -0.031 A 
ATOM      6  C6  IND d   1      -0.180   0.008  -0.437  0.00  0.00     0.015 A 
ATOM      7  C7  IND d   1      -0.164   1.281  -0.933  0.00  0.00    -0.016 A 
ATOM      8  C8  IND d   1       0.730   1.542  -1.961  0.00  0.00    -0.047 A 
ATOM      9  C9  IND d   1       1.597   0.560  -2.458  0.00  0.00    -0.096 A 
ATOM     10  HN1 IND d   1       0.603   3.462  -2.523  0.00  0.00     0.298 HD
ENDROOT
TORSDOF 0
ENDMDL
