MODEL 1
REMARK minimizedAffinity 13.946105
REMARK minimizedRMSD -1
REMARK  0 active torsions:
REMARK  status: ('A' for Active; 'I' for Inactive)
ROOT
ATOM      1  N1  IND d   1       0.182  -3.038  -0.097  0.00  0.00    -0.196 N 
ATOM      2  C2  IND d   1       1.019  -3.824   0.644  0.00  0.00     0.054 A 
ATOM      3  C3  IND d   1       2.306  -3.459   0.444  0.00  0.00    -0.031 A 
ATOM      4  C4  IND d   1       3.259  -1.535  -0.976  0.00  0.00     0.051 A 
ATOM      5  C5  IND d   1       2.887  -0.564  -1.863  0.00  0.00    -0.031 A 
ATOM      6  C6  IND d   1       1.567  -0.362  -2.211  0.00  0.00     0.015 A 
ATOM      7  C7  IND d   1       0.564  -1.120  -1.675  0.00  0.00    -0.016 A 
ATOM      8  C8  IND d   1       0.939  -2.111  -0.779  0.00  0.00    -0.047 A 
ATOM      9  C9  IND d   1       2.281  -2.349  -0.454  0.00  0.00    -0.096 A 
ATOM     10  HN1 IND d   1      -0.674  -3.110  -0.131  0.00  0.00     0.298 HD
ENDROOT
TORSDOF 0
ENDMDL
