MODEL 1
REMARK minimizedAffinity 8.11367416
REMARK minimizedRMSD -1
REMARK  0 active torsions:
REMARK  status: ('A' for Active; 'I' for Inactive)
ROOT
ATOM      1  N1  IND d   1       0.307   1.525  -1.777  0.00  0.00    -0.196 N 
ATOM      2  C2  IND d   1       1.065   2.563  -1.313  0.00  0.00     0.054 A 
ATOM      3  C3  IND d   1       2.278   2.118  -0.915  0.00  0.00    -0.031 A 
ATOM      4  C4  IND d   1       3.268  -0.255  -1.028  0.00  0.00     0.051 A 
ATOM      5  C5  IND d   1       2.940  -1.545  -1.341  0.00  0.00    -0.031 A 
ATOM      6  C6  IND d   1       1.694  -1.883  -1.828  0.00  0.00     0.015 A 
ATOM      7  C7  IND d   1       0.728  -0.939  -2.031  0.00  0.00    -0.016 A 
ATOM      8  C8  IND d   1       1.055   0.370  -1.708  0.00  0.00    -0.047 A 
ATOM      9  C9  IND d   1       2.303   0.714  -1.173  0.00  0.00    -0.096 A 
ATOM     10  HN1 IND d   1      -0.502   1.583  -2.063  0.00  0.00     0.298 HD
ENDROOT
TORSDOF 0
ENDMDL
