MODEL 1
REMARK minimizedAffinity 7.62465429
REMARK minimizedRMSD -1
REMARK  0 active torsions:
REMARK  status: ('A' for Active; 'I' for Inactive)
ROOT
ATOM      1  N1  IND d   1       0.863   1.586  -2.665  0.00  0.00    -0.196 N 
ATOM      2  C2  IND d   1       2.180   1.415  -2.989  0.00  0.00     0.054 A 
ATOM      3  C3  IND d   1       2.952   1.500  -1.882  0.00  0.00    -0.031 A 
ATOM      4  C4  IND d   1       2.256   1.816   0.577  0.00  0.00     0.051 A 
ATOM      5  C5  IND d   1       1.166   2.055   1.365  0.00  0.00    -0.031 A 
ATOM      6  C6  IND d   1      -0.107   2.149   0.841  0.00  0.00     0.015 A 
ATOM      7  C7  IND d   1      -0.339   1.996  -0.497  0.00  0.00    -0.016 A 
ATOM      8  C8  IND d   1       0.766   1.760  -1.302  0.00  0.00    -0.047 A 
ATOM      9  C9  IND d   1       2.065   1.705  -0.780  0.00  0.00    -0.096 A 
ATOM     10  HN1 IND d   1       0.206   1.586  -3.219  0.00  0.00     0.298 HD
ENDROOT
TORSDOF 0
ENDMDL
