MODEL 1
REMARK minimizedAffinity 6.85230684
REMARK minimizedRMSD -1
REMARK  0 active torsions:
REMARK  status: ('A' for Active; 'I' for Inactive)
ROOT
ATOM      1  N1  IND d   1      -0.608   0.979  -0.946  0.00  0.00    -0.196 N 
ATOM      2  C2  IND d   1      -0.029   2.216  -1.002  0.00  0.00     0.054 A 
ATOM      3  C3  IND d   1       1.317   2.103  -1.053  0.00  0.00    -0.031 A 
ATOM      4  C4  IND d   1       2.778  -0.014  -1.158  0.00  0.00     0.051 A 
ATOM      5  C5  IND d   1       2.705  -1.377  -1.097  0.00  0.00    -0.031 A 
ATOM      6  C6  IND d   1       1.499  -2.038  -0.983  0.00  0.00     0.015 A 
ATOM      7  C7  IND d   1       0.315  -1.358  -0.937  0.00  0.00    -0.016 A 
ATOM      8  C8  IND d   1       0.386   0.027  -0.992  0.00  0.00    -0.047 A 
ATOM      9  C9  IND d   1       1.610   0.705  -1.065  0.00  0.00    -0.096 A 
ATOM     10  HN1 IND d   1      -1.452   0.822  -0.892  0.00  0.00     0.298 HD
ENDROOT
TORSDOF 0
ENDMDL
