MODEL 1
REMARK minimizedAffinity 3.46937537
REMARK minimizedRMSD -1
REMARK  0 active torsions:
REMARK  status: ('A' for Active; 'I' for Inactive)
ROOT
ATOM      1  N1  IND d   1       0.987  -1.264  -0.904  0.00  0.00    -0.196 N 
ATOM      2  C2  IND d   1       2.183  -1.745  -1.360  0.00  0.00     0.054 A 
ATOM      3  C3  IND d   1       2.824  -0.801  -2.085  0.00  0.00    -0.031 A 
ATOM      4  C4  IND d   1       2.142   1.634  -2.566  0.00  0.00     0.051 A 
ATOM      5  C5  IND d   1       1.116   2.520  -2.391  0.00  0.00    -0.031 A 
ATOM      6  C6  IND d   1      -0.027   2.184  -1.695  0.00  0.00     0.015 A 
ATOM      7  C7  IND d   1      -0.183   0.947  -1.136  0.00  0.00    -0.016 A 
ATOM      8  C8  IND d   1       0.854   0.043  -1.318  0.00  0.00    -0.047 A 
ATOM      9  C9  IND d   1       1.998   0.364  -2.059  0.00  0.00    -0.096 A 
ATOM     10  HN1 IND d   1       0.414  -1.705  -0.437  0.00  0.00     0.298 HD
ENDROOT
TORSDOF 0
ENDMDL
