MODEL 1
REMARK minimizedAffinity 11.9026804
REMARK minimizedRMSD -1
REMARK  0 active torsions:
REMARK  status: ('A' for Active; 'I' for Inactive)
ROOT
ATOM      1  N1  IND d   1       0.234   1.803  -2.050  0.00  0.00    -0.196 N 
ATOM      2  C2  IND d   1       1.428   1.430  -2.601  0.00  0.00     0.054 A 
ATOM      3  C3  IND d   1       2.397   1.413  -1.658  0.00  0.00    -0.031 A 
ATOM      4  C4  IND d   1       2.225   1.864   0.871  0.00  0.00     0.051 A 
ATOM      5  C5  IND d   1       1.348   2.277   1.834  0.00  0.00    -0.031 A 
ATOM      6  C6  IND d   1       0.027   2.556   1.547  0.00  0.00     0.015 A 
ATOM      7  C7  IND d   1      -0.470   2.421   0.282  0.00  0.00    -0.016 A 
ATOM      8  C8  IND d   1       0.419   2.009  -0.700  0.00  0.00    -0.047 A 
ATOM      9  C9  IND d   1       1.771   1.765  -0.423  0.00  0.00    -0.096 A 
ATOM     10  HN1 IND d   1      -0.507   1.895  -2.475  0.00  0.00     0.298 HD
ENDROOT
TORSDOF 0
ENDMDL
