MODEL 1
REMARK minimizedAffinity 6.11887312
REMARK minimizedRMSD -1
REMARK  0 active torsions:
REMARK  status: ('A' for Active; 'I' for Inactive)
ROOT
ATOM      1  N1  IND d   1       0.460   2.123  -2.243  0.00  0.00    -0.196 N 
ATOM      2  C2  IND d   1       1.495   2.293  -3.119  0.00  0.00     0.054 A 
ATOM      3  C3  IND d   1       2.280   1.192  -3.139  0.00  0.00    -0.031 A 
ATOM      4  C4  IND d   1       1.996  -1.041  -1.890  0.00  0.00     0.051 A 
ATOM      5  C5  IND d   1       1.222  -1.657  -0.947  0.00  0.00    -0.031 A 
ATOM      6  C6  IND d   1       0.130  -1.033  -0.379  0.00  0.00     0.015 A 
ATOM      7  C7  IND d   1      -0.236   0.232  -0.742  0.00  0.00    -0.016 A 
ATOM      8  C8  IND d   1       0.552   0.863  -1.694  0.00  0.00    -0.047 A 
ATOM      9  C9  IND d   1       1.686   0.251  -2.243  0.00  0.00    -0.096 A 
ATOM     10  HN1 IND d   1      -0.147   2.706  -2.065  0.00  0.00     0.298 HD
ENDROOT
TORSDOF 0
ENDMDL
