MODEL 1
REMARK minimizedAffinity 4.1707325
REMARK minimizedRMSD -1
REMARK  0 active torsions:
REMARK  status: ('A' for Active; 'I' for Inactive)
ROOT
ATOM      1  N1  IND d   1      -2.973   0.375  -1.206  0.00  0.00    -0.196 N 
ATOM      2  C2  IND d   1      -1.982   0.819  -0.377  0.00  0.00     0.054 A 
ATOM      3  C3  IND d   1      -2.319   0.607   0.915  0.00  0.00    -0.031 A 
ATOM      4  C4  IND d   1      -4.403  -0.545   1.893  0.00  0.00     0.051 A 
ATOM      5  C5  IND d   1      -5.606  -1.084   1.531  0.00  0.00    -0.031 A 
ATOM      6  C6  IND d   1      -5.999  -1.168   0.211  0.00  0.00     0.015 A 
ATOM      7  C7  IND d   1      -5.196  -0.724  -0.801  0.00  0.00    -0.016 A 
ATOM      8  C8  IND d   1      -3.977  -0.170  -0.437  0.00  0.00    -0.047 A 
ATOM      9  C9  IND d   1      -3.591  -0.044   0.904  0.00  0.00    -0.096 A 
ATOM     10  HN1 IND d   1      -2.970   0.428  -2.064  0.00  0.00     0.298 HD
ENDROOT
TORSDOF 0
ENDMDL
