MODEL 1
REMARK minimizedAffinity 1.1015234
REMARK minimizedRMSD -1
REMARK  0 active torsions:
REMARK  status: ('A' for Active; 'I' for Inactive)
ROOT
ATOM      1  N1  IND d   1       2.489  -1.256  -2.258  0.00  0.00    -0.196 N 
ATOM      2  C2  IND d   1       1.824  -1.983  -1.310  0.00  0.00     0.054 A 
ATOM      3  C3  IND d   1       0.880  -1.222  -0.711  0.00  0.00    -0.031 A 
ATOM      4  C4  IND d   1       0.186   1.209  -1.198  0.00  0.00     0.051 A 
ATOM      5  C5  IND d   1       0.529   2.296  -1.951  0.00  0.00    -0.031 A 
ATOM      6  C6  IND d   1       1.562   2.254  -2.865  0.00  0.00     0.015 A 
ATOM      7  C7  IND d   1       2.286   1.114  -3.069  0.00  0.00    -0.016 A 
ATOM      8  C8  IND d   1       1.945   0.009  -2.301  0.00  0.00    -0.047 A 
ATOM      9  C9  IND d   1       0.926   0.059  -1.342  0.00  0.00    -0.096 A 
ATOM     10  HN1 IND d   1       3.138  -1.541  -2.745  0.00  0.00     0.298 HD
ENDROOT
TORSDOF 0
ENDMDL
