MODEL 1
REMARK minimizedAffinity -3.15590525
REMARK minimizedRMSD -1
REMARK  0 active torsions:
REMARK  status: ('A' for Active; 'I' for Inactive)
ROOT
ATOM      1  N1  IND d   1       2.917  -1.853  -1.794  0.00  0.00    -0.196 N 
ATOM      2  C2  IND d   1       2.425  -2.596  -0.758  0.00  0.00     0.054 A 
ATOM      3  C3  IND d   1       1.441  -1.922  -0.121  0.00  0.00    -0.031 A 
ATOM      4  C4  IND d   1       0.406   0.369  -0.674  0.00  0.00     0.051 A 
ATOM      5  C5  IND d   1       0.548   1.442  -1.509  0.00  0.00    -0.031 A 
ATOM      6  C6  IND d   1       1.504   1.471  -2.503  0.00  0.00     0.015 A 
ATOM      7  C7  IND d   1       2.350   0.419  -2.708  0.00  0.00    -0.016 A 
ATOM      8  C8  IND d   1       2.214  -0.670  -1.858  0.00  0.00    -0.047 A 
ATOM      9  C9  IND d   1       1.274  -0.687  -0.820  0.00  0.00    -0.096 A 
ATOM     10  HN1 IND d   1       3.558  -2.085  -2.319  0.00  0.00     0.298 HD
ENDROOT
TORSDOF 0
ENDMDL
