MODEL 1
REMARK minimizedAffinity 5.66735649
REMARK minimizedRMSD -1
REMARK  0 active torsions:
REMARK  status: ('A' for Active; 'I' for Inactive)
ROOT
ATOM      1  N1  IND d   1       3.417   0.954  -2.722  0.00  0.00    -0.196 N 
ATOM      2  C2  IND d   1       2.510   1.831  -3.245  0.00  0.00     0.054 A 
ATOM      3  C3  IND d   1       1.255   1.488  -2.876  0.00  0.00    -0.031 A 
ATOM      4  C4  IND d   1       0.470  -0.417  -1.332  0.00  0.00     0.051 A 
ATOM      5  C5  IND d   1       0.929  -1.503  -0.642  0.00  0.00    -0.031 A 
ATOM      6  C6  IND d   1       2.269  -1.832  -0.608  0.00  0.00     0.015 A 
ATOM      7  C7  IND d   1       3.205  -1.076  -1.255  0.00  0.00    -0.016 A 
ATOM      8  C8  IND d   1       2.741   0.025  -1.962  0.00  0.00    -0.047 A 
ATOM      9  C9  IND d   1       1.378   0.339  -2.036  0.00  0.00    -0.096 A 
ATOM     10  HN1 IND d   1       4.268   0.978  -2.846  0.00  0.00     0.298 HD
ENDROOT
TORSDOF 0
ENDMDL
