MODEL 1
REMARK minimizedAffinity -1.60319877
REMARK minimizedRMSD -1
REMARK  0 active torsions:
REMARK  status: ('A' for Active; 'I' for Inactive)
ROOT
ATOM      1  N1  IND d   1       3.971  -2.265   5.248  0.00  0.00    -0.196 N 
ATOM      2  C2  IND d   1       5.064  -1.840   5.951  0.00  0.00     0.054 A 
ATOM      3  C3  IND d   1       6.000  -2.815   6.000  0.00  0.00    -0.031 A 
ATOM      4  C4  IND d   1       5.992  -5.146   4.908  0.00  0.00     0.051 A 
ATOM      5  C5  IND d   1       5.196  -6.000   4.197  0.00  0.00    -0.031 A 
ATOM      6  C6  IND d   1       3.926  -5.644   3.789  0.00  0.00     0.015 A 
ATOM      7  C7  IND d   1       3.408  -4.411   4.069  0.00  0.00    -0.016 A 
ATOM      8  C8  IND d   1       4.210  -3.545   4.797  0.00  0.00    -0.047 A 
ATOM      9  C9  IND d   1       5.483  -3.916   5.250  0.00  0.00    -0.096 A 
ATOM     10  HN1 IND d   1       3.255  -1.810   5.111  0.00  0.00     0.298 HD
ENDROOT
TORSDOF 0
ENDMDL
