MODEL 1
REMARK minimizedAffinity 5.00119734
REMARK minimizedRMSD -1
REMARK  0 active torsions:
REMARK  status: ('A' for Active; 'I' for Inactive)
ROOT
ATOM      1  N1  IND d   1       1.339   1.194  -3.671  0.00  0.00    -0.196 N 
ATOM      2  C2  IND d   1       1.624   2.276  -2.885  0.00  0.00     0.054 A 
ATOM      3  C3  IND d   1       2.189   1.878  -1.723  0.00  0.00    -0.031 A 
ATOM      4  C4  IND d   1       2.832  -0.490  -0.944  0.00  0.00     0.051 A 
ATOM      5  C5  IND d   1       2.737  -1.805  -1.304  0.00  0.00    -0.031 A 
ATOM      6  C6  IND d   1       2.161  -2.195  -2.496  0.00  0.00     0.015 A 
ATOM      7  C7  IND d   1       1.668  -1.280  -3.382  0.00  0.00    -0.016 A 
ATOM      8  C8  IND d   1       1.757   0.056  -3.017  0.00  0.00    -0.047 A 
ATOM      9  C9  IND d   1       2.301   0.455  -1.790  0.00  0.00    -0.096 A 
ATOM     10  HN1 IND d   1       0.963   1.221  -4.443  0.00  0.00     0.298 HD
ENDROOT
TORSDOF 0
ENDMDL
