MODEL 1
REMARK minimizedAffinity 3.9496448
REMARK minimizedRMSD -1
REMARK  0 active torsions:
REMARK  status: ('A' for Active; 'I' for Inactive)
ROOT
ATOM      1  N1  IND d   1       0.018   0.595  -1.674  0.00  0.00    -0.196 N 
ATOM      2  C2  IND d   1       0.704   1.750  -1.421  0.00  0.00     0.054 A 
ATOM      3  C3  IND d   1       1.916   1.471  -0.890  0.00  0.00    -0.031 A 
ATOM      4  C4  IND d   1       3.021  -0.811  -0.446  0.00  0.00     0.051 A 
ATOM      5  C5  IND d   1       2.770  -2.155  -0.482  0.00  0.00    -0.031 A 
ATOM      6  C6  IND d   1       1.567  -2.660  -0.929  0.00  0.00     0.015 A 
ATOM      7  C7  IND d   1       0.568  -1.838  -1.369  0.00  0.00    -0.016 A 
ATOM      8  C8  IND d   1       0.816  -0.474  -1.327  0.00  0.00    -0.047 A 
ATOM      9  C9  IND d   1       2.020   0.047  -0.835  0.00  0.00    -0.096 A 
ATOM     10  HN1 IND d   1      -0.777   0.544  -1.996  0.00  0.00     0.298 HD
ENDROOT
TORSDOF 0
ENDMDL
