MODEL 1
REMARK minimizedAffinity -0.147288099
REMARK minimizedRMSD -1
REMARK  0 active torsions:
REMARK  status: ('A' for Active; 'I' for Inactive)
ROOT
ATOM      1  N1  IND d   1       0.790   0.652  -2.154  0.00  0.00    -0.196 N 
ATOM      2  C2  IND d   1       1.856   1.299  -2.716  0.00  0.00     0.054 A 
ATOM      3  C3  IND d   1       3.014   0.715  -2.334  0.00  0.00    -0.031 A 
ATOM      4  C4  IND d   1       3.391  -1.373  -0.877  0.00  0.00     0.051 A 
ATOM      5  C5  IND d   1       2.724  -2.284  -0.107  0.00  0.00    -0.031 A 
ATOM      6  C6  IND d   1       1.350  -2.264   0.020  0.00  0.00     0.015 A 
ATOM      7  C7  IND d   1       0.588  -1.336  -0.630  0.00  0.00    -0.016 A 
ATOM      8  C8  IND d   1       1.263  -0.404  -1.407  0.00  0.00    -0.047 A 
ATOM      9  C9  IND d   1       2.660  -0.393  -1.506  0.00  0.00    -0.096 A 
ATOM     10  HN1 IND d   1      -0.036   0.869  -2.252  0.00  0.00     0.298 HD
ENDROOT
TORSDOF 0
ENDMDL
