MODEL 1
REMARK minimizedAffinity 5.69337273
REMARK minimizedRMSD -1
REMARK  0 active torsions:
REMARK  status: ('A' for Active; 'I' for Inactive)
ROOT
ATOM      1  N1  IND d   1      -0.146   1.370  -1.451  0.00  0.00    -0.196 N 
ATOM      2  C2  IND d   1       1.053   1.083  -2.041  0.00  0.00     0.054 A 
ATOM      3  C3  IND d   1       2.071   1.343  -1.190  0.00  0.00    -0.031 A 
ATOM      4  C4  IND d   1       1.994   2.149   1.254  0.00  0.00     0.051 A 
ATOM      5  C5  IND d   1       1.128   2.582   2.218  0.00  0.00    -0.031 A 
ATOM      6  C6  IND d   1      -0.235   2.630   2.006  0.00  0.00     0.015 A 
ATOM      7  C7  IND d   1      -0.786   2.236   0.820  0.00  0.00    -0.016 A 
ATOM      8  C8  IND d   1       0.091   1.804  -0.165  0.00  0.00    -0.047 A 
ATOM      9  C9  IND d   1       1.478   1.792   0.030  0.00  0.00    -0.096 A 
ATOM     10  HN1 IND d   1      -0.919   1.293  -1.820  0.00  0.00     0.298 HD
ENDROOT
TORSDOF 0
ENDMDL
