MODEL 1
REMARK minimizedAffinity 16.3281384
REMARK minimizedRMSD -1
REMARK  0 active torsions:
REMARK  status: ('A' for Active; 'I' for Inactive)
ROOT
ATOM      1  N1  IND d   1       2.891  -1.010  -2.324  0.00  0.00    -0.196 N 
ATOM      2  C2  IND d   1       2.477  -1.975  -1.449  0.00  0.00     0.054 A 
ATOM      3  C3  IND d   1       1.367  -1.570  -0.792  0.00  0.00    -0.031 A 
ATOM      4  C4  IND d   1       0.004   0.597  -1.067  0.00  0.00     0.051 A 
ATOM      5  C5  IND d   1       0.010   1.798  -1.717  0.00  0.00    -0.031 A 
ATOM      6  C6  IND d   1       0.996   2.131  -2.624  0.00  0.00     0.015 A 
ATOM      7  C7  IND d   1       2.010   1.266  -2.923  0.00  0.00    -0.016 A 
ATOM      8  C8  IND d   1       2.010   0.048  -2.259  0.00  0.00    -0.047 A 
ATOM      9  C9  IND d   1       1.036  -0.279  -1.306  0.00  0.00    -0.096 A 
ATOM     10  HN1 IND d   1       3.585  -1.055  -2.829  0.00  0.00     0.298 HD
ENDROOT
TORSDOF 0
ENDMDL
