MODEL 1
REMARK minimizedAffinity 8.08118248
REMARK minimizedRMSD -1
REMARK  0 active torsions:
REMARK  status: ('A' for Active; 'I' for Inactive)
ROOT
ATOM      1  N1  IND d   1       0.995  -1.676  -0.522  0.00  0.00    -0.196 N 
ATOM      2  C2  IND d   1       2.052  -2.473  -0.863  0.00  0.00     0.054 A 
ATOM      3  C3  IND d   1       2.936  -1.784  -1.620  0.00  0.00    -0.031 A 
ATOM      4  C4  IND d   1       2.897   0.688  -2.336  0.00  0.00     0.051 A 
ATOM      5  C5  IND d   1       2.116   1.809  -2.296  0.00  0.00    -0.031 A 
ATOM      6  C6  IND d   1       0.898   1.827  -1.648  0.00  0.00     0.015 A 
ATOM      7  C7  IND d   1       0.419   0.722  -1.002  0.00  0.00    -0.016 A 
ATOM      8  C8  IND d   1       1.206  -0.420  -1.046  0.00  0.00    -0.047 A 
ATOM      9  C9  IND d   1       2.423  -0.456  -1.739  0.00  0.00    -0.096 A 
ATOM     10  HN1 IND d   1       0.313  -1.919  -0.058  0.00  0.00     0.298 HD
ENDROOT
TORSDOF 0
ENDMDL
