MODEL 1
REMARK minimizedAffinity -3.25580573
REMARK minimizedRMSD -1
REMARK  1 active torsions:
REMARK  status: ('A' for Active; 'I' for Inactive)
REMARK    1  A    between atoms: C1_2  and  C2_3 
ROOT
ATOM      1  C2  UNL d   1      -0.087   0.180  -0.258  0.00  0.00    -0.076 A 
ATOM      2  C3  UNL d   1      -0.926   0.362   0.855  0.00  0.00     0.004 A 
ATOM      3  C4  UNL d   1      -1.373  -0.726   1.603  0.00  0.00    -0.003 A 
ATOM      4  C5  UNL d   1      -0.988  -2.015   1.250  0.00  0.00     0.000 A 
ATOM      5  C6  UNL d   1      -0.141  -2.213   0.160  0.00  0.00     0.000 A 
ATOM      6  C7  UNL d   1       0.332  -1.125  -0.595  0.00  0.00    -0.073 A 
ATOM      7  C8  UNL d   1       1.237  -1.398  -1.764  0.00  0.00     0.078 C 
ENDROOT
BRANCH   1   8
ATOM      8  C1  UNL d   1       0.344   1.395  -1.047  0.00  0.00     0.053 C 
ATOM      9  C   UNL d   1       0.918   2.491  -0.162  0.00  0.00     0.018 C 
ENDBRANCH   1   8
TORSDOF 1
ENDMDL
