MODEL 1
REMARK minimizedAffinity -3.27529073
REMARK minimizedRMSD -1
REMARK  1 active torsions:
REMARK  status: ('A' for Active; 'I' for Inactive)
REMARK    1  A    between atoms: C1_2  and  C2_3 
ROOT
ATOM      1  C2  UNL d   1       0.297  -1.355  -0.599  0.00  0.00    -0.076 A 
ATOM      2  C3  UNL d   1      -0.062  -2.012   0.591  0.00  0.00     0.004 A 
ATOM      3  C4  UNL d   1      -0.402  -3.364   0.590  0.00  0.00    -0.003 A 
ATOM      4  C5  UNL d   1      -0.389  -4.081  -0.602  0.00  0.00     0.000 A 
ATOM      5  C6  UNL d   1      -0.019  -3.449  -1.789  0.00  0.00     0.000 A 
ATOM      6  C7  UNL d   1       0.343  -2.091  -1.802  0.00  0.00    -0.073 A 
ATOM      7  C8  UNL d   1       0.728  -1.460  -3.112  0.00  0.00     0.078 C 
ENDROOT
BRANCH   1   8
ATOM      8  C1  UNL d   1       0.630   0.118  -0.540  0.00  0.00     0.053 C 
ATOM      9  C   UNL d   1      -0.417   0.923   0.214  0.00  0.00     0.018 C 
ENDBRANCH   1   8
TORSDOF 1
ENDMDL
