MODEL 1
REMARK minimizedAffinity -2.58152413
REMARK minimizedRMSD -1
REMARK  1 active torsions:
REMARK  status: ('A' for Active; 'I' for Inactive)
REMARK    1  A    between atoms: C1_2  and  C2_3 
ROOT
ATOM      1  C2  UNL d   1      -0.073  -0.850  -0.725  0.00  0.00    -0.076 A 
ATOM      2  C3  UNL d   1      -0.360   0.510  -0.511  0.00  0.00     0.004 A 
ATOM      3  C4  UNL d   1      -1.032   0.929   0.636  0.00  0.00    -0.003 A 
ATOM      4  C5  UNL d   1      -1.428  -0.005   1.587  0.00  0.00     0.000 A 
ATOM      5  C6  UNL d   1      -1.137  -1.355   1.399  0.00  0.00     0.000 A 
ATOM      6  C7  UNL d   1      -0.446  -1.793   0.256  0.00  0.00    -0.073 A 
ATOM      7  C8  UNL d   1      -0.163  -3.262   0.102  0.00  0.00     0.078 C 
ENDROOT
BRANCH   1   8
ATOM      8  C1  UNL d   1       0.634  -1.248  -2.001  0.00  0.00     0.053 C 
ATOM      9  C   UNL d   1       0.563  -0.167  -3.069  0.00  0.00     0.018 C 
ENDBRANCH   1   8
TORSDOF 1
ENDMDL
