MODEL 1
REMARK minimizedAffinity -4.72819757
REMARK minimizedRMSD -1
REMARK  1 active torsions:
REMARK  status: ('A' for Active; 'I' for Inactive)
REMARK    1  A    between atoms: C1_2  and  C2_3 
ROOT
ATOM      1  C2  UNL d   1       0.019   0.283  -0.100  0.00  0.00    -0.076 A 
ATOM      2  C3  UNL d   1      -0.677   0.336   1.120  0.00  0.00     0.004 A 
ATOM      3  C4  UNL d   1      -0.963  -0.827   1.834  0.00  0.00    -0.003 A 
ATOM      4  C5  UNL d   1      -0.558  -2.062   1.339  0.00  0.00     0.000 A 
ATOM      5  C6  UNL d   1       0.149  -2.131   0.138  0.00  0.00     0.000 A 
ATOM      6  C7  UNL d   1       0.460  -0.967  -0.585  0.00  0.00    -0.073 A 
ATOM      7  C8  UNL d   1       1.219  -1.101  -1.877  0.00  0.00     0.078 C 
ENDROOT
BRANCH   1   8
ATOM      8  C1  UNL d   1       0.277   1.574  -0.843  0.00  0.00     0.053 C 
ATOM      9  C   UNL d   1       0.484   2.754   0.094  0.00  0.00     0.018 C 
ENDBRANCH   1   8
TORSDOF 1
ENDMDL
