MODEL 1
REMARK minimizedAffinity -3.59939981
REMARK minimizedRMSD -1
REMARK  1 active torsions:
REMARK  status: ('A' for Active; 'I' for Inactive)
REMARK    1  A    between atoms: C1_2  and  C2_3 
ROOT
ATOM      1  C2  UNL d   1       0.204  -1.362   0.406  0.00  0.00    -0.076 A 
ATOM      2  C3  UNL d   1      -0.567  -0.649   1.340  0.00  0.00     0.004 A 
ATOM      3  C4  UNL d   1      -0.736   0.730   1.228  0.00  0.00    -0.003 A 
ATOM      4  C5  UNL d   1      -0.136   1.419   0.179  0.00  0.00     0.000 A 
ATOM      5  C6  UNL d   1       0.618   0.725  -0.767  0.00  0.00     0.000 A 
ATOM      6  C7  UNL d   1       0.784  -0.668  -0.677  0.00  0.00    -0.073 A 
ATOM      7  C8  UNL d   1       1.613  -1.365  -1.721  0.00  0.00     0.078 C 
ENDROOT
BRANCH   1   8
ATOM      8  C1  UNL d   1       0.374  -2.853   0.595  0.00  0.00     0.053 C 
ATOM      9  C   UNL d   1      -0.944  -3.605   0.506  0.00  0.00     0.018 C 
ENDBRANCH   1   8
TORSDOF 1
ENDMDL
