MODEL 1
REMARK minimizedAffinity -3.91854072
REMARK minimizedRMSD -1
REMARK  1 active torsions:
REMARK  status: ('A' for Active; 'I' for Inactive)
REMARK    1  A    between atoms: C1_2  and  C2_3 
ROOT
ATOM      1  C2  UNL d   1      -0.114  -0.667  -0.830  0.00  0.00    -0.076 A 
ATOM      2  C3  UNL d   1       0.547  -1.516  -1.735  0.00  0.00     0.004 A 
ATOM      3  C4  UNL d   1       0.547  -2.898  -1.551  0.00  0.00    -0.003 A 
ATOM      4  C5  UNL d   1      -0.114  -3.453  -0.461  0.00  0.00     0.000 A 
ATOM      5  C6  UNL d   1      -0.790  -2.626   0.436  0.00  0.00     0.000 A 
ATOM      6  C7  UNL d   1      -0.814  -1.233   0.257  0.00  0.00    -0.073 A 
ATOM      7  C8  UNL d   1      -1.553  -0.389   1.258  0.00  0.00     0.078 C 
ENDROOT
BRANCH   1   8
ATOM      8  C1  UNL d   1      -0.057   0.826  -1.065  0.00  0.00     0.053 C 
ATOM      9  C   UNL d   1       0.765   1.551  -0.011  0.00  0.00     0.018 C 
ENDBRANCH   1   8
TORSDOF 1
ENDMDL
