MODEL 1
REMARK minimizedAffinity -1.21940029
REMARK minimizedRMSD -1
REMARK  1 active torsions:
REMARK  status: ('A' for Active; 'I' for Inactive)
REMARK    1  A    between atoms: C1_2  and  C2_3 
ROOT
ATOM      1  C2  UNL d   1      -0.376  -1.409  -0.077  0.00  0.00    -0.076 A 
ATOM      2  C3  UNL d   1      -0.985  -0.399   0.689  0.00  0.00     0.004 A 
ATOM      3  C4  UNL d   1      -0.673   0.943   0.484  0.00  0.00    -0.003 A 
ATOM      4  C5  UNL d   1       0.252   1.299  -0.492  0.00  0.00     0.000 A 
ATOM      5  C6  UNL d   1       0.853   0.312  -1.273  0.00  0.00     0.000 A 
ATOM      6  C7  UNL d   1       0.537  -1.046  -1.089  0.00  0.00    -0.073 A 
ATOM      7  C8  UNL d   1       1.219  -2.069  -1.956  0.00  0.00     0.078 C 
ENDROOT
BRANCH   1   8
ATOM      8  C1  UNL d   1      -0.734  -2.850   0.210  0.00  0.00     0.053 C 
ATOM      9  C   UNL d   1      -2.235  -3.066   0.325  0.00  0.00     0.018 C 
ENDBRANCH   1   8
TORSDOF 1
ENDMDL
