MODEL 1
REMARK minimizedAffinity -3.48498297
REMARK minimizedRMSD -1
REMARK  1 active torsions:
REMARK  status: ('A' for Active; 'I' for Inactive)
REMARK    1  A    between atoms: C1_2  and  C2_3 
ROOT
ATOM      1  C2  UNL d   1      -0.407  -1.270   0.163  0.00  0.00    -0.076 A 
ATOM      2  C3  UNL d   1      -0.911  -0.361   1.109  0.00  0.00     0.004 A 
ATOM      3  C4  UNL d   1      -0.731   1.012   0.952  0.00  0.00    -0.003 A 
ATOM      4  C5  UNL d   1      -0.045   1.499  -0.155  0.00  0.00     0.000 A 
ATOM      5  C6  UNL d   1       0.446   0.612  -1.113  0.00  0.00     0.000 A 
ATOM      6  C7  UNL d   1       0.259  -0.774  -0.978  0.00  0.00    -0.073 A 
ATOM      7  C8  UNL d   1       0.816  -1.684  -2.038  0.00  0.00     0.078 C 
ENDROOT
BRANCH   1   8
ATOM      8  C1  UNL d   1      -0.609  -2.750   0.400  0.00  0.00     0.053 C 
ATOM      9  C   UNL d   1      -2.077  -3.147   0.384  0.00  0.00     0.018 C 
ENDBRANCH   1   8
TORSDOF 1
ENDMDL
