MODEL 1
REMARK minimizedAffinity -3.35944748
REMARK minimizedRMSD -1
REMARK  1 active torsions:
REMARK  status: ('A' for Active; 'I' for Inactive)
REMARK    1  A    between atoms: C1_2  and  C2_3 
ROOT
ATOM      1  C2  UNL d   1       0.026  -1.343  -0.406  0.00  0.00    -0.076 A 
ATOM      2  C3  UNL d   1      -0.423  -0.367   0.501  0.00  0.00     0.004 A 
ATOM      3  C4  UNL d   1      -0.544   0.968   0.118  0.00  0.00    -0.003 A 
ATOM      4  C5  UNL d   1      -0.220   1.348  -1.180  0.00  0.00     0.000 A 
ATOM      5  C6  UNL d   1       0.210   0.391  -2.098  0.00  0.00     0.000 A 
ATOM      6  C7  UNL d   1       0.322  -0.962  -1.732  0.00  0.00    -0.073 A 
ATOM      7  C8  UNL d   1       0.797  -1.951  -2.761  0.00  0.00     0.078 C 
ENDROOT
BRANCH   1   8
ATOM      8  C1  UNL d   1       0.163  -2.770   0.074  0.00  0.00     0.053 C 
ATOM      9  C   UNL d   1      -1.176  -3.397   0.429  0.00  0.00     0.018 C 
ENDBRANCH   1   8
TORSDOF 1
ENDMDL
