MODEL 1
REMARK minimizedAffinity -3.66161299
REMARK minimizedRMSD -1
REMARK  1 active torsions:
REMARK  status: ('A' for Active; 'I' for Inactive)
REMARK    1  A    between atoms: C1_2  and  C2_3 
ROOT
ATOM      1  C2  UNL d   1       0.417  -1.355  -0.800  0.00  0.00    -0.076 A 
ATOM      2  C3  UNL d   1       0.100   0.013  -0.858  0.00  0.00     0.004 A 
ATOM      3  C4  UNL d   1      -0.680   0.612   0.130  0.00  0.00    -0.003 A 
ATOM      4  C5  UNL d   1      -1.156  -0.148   1.192  0.00  0.00     0.000 A 
ATOM      5  C6  UNL d   1      -0.837  -1.503   1.276  0.00  0.00     0.000 A 
ATOM      6  C7  UNL d   1      -0.038  -2.118   0.297  0.00  0.00    -0.073 A 
ATOM      7  C8  UNL d   1       0.270  -3.584   0.434  0.00  0.00     0.078 C 
ENDROOT
BRANCH   1   8
ATOM      8  C1  UNL d   1       1.244  -1.955  -1.914  0.00  0.00     0.053 C 
ATOM      9  C   UNL d   1       0.497  -1.996  -3.238  0.00  0.00     0.018 C 
ENDBRANCH   1   8
TORSDOF 1
ENDMDL
