MODEL 1
REMARK minimizedAffinity 6.04092407
REMARK minimizedRMSD -1
REMARK  0 active torsions:
REMARK  status: ('A' for Active; 'I' for Inactive)
ROOT
ATOM      1  O1  BZF d   1       6.000   5.986  -3.790  0.00  0.00    -0.204 OA
ATOM      2  C2  BZF d   1       5.637   5.997  -5.123  0.00  0.00     0.174 A 
ATOM      3  C3  BZF d   1       4.300   5.874  -5.255  0.00  0.00    -0.012 A 
ATOM      4  C3A BZF d   1       3.788   5.873  -3.919  0.00  0.00    -0.107 A 
ATOM      5  C4  BZF d   1       2.529   5.793  -3.396  0.00  0.00     0.055 A 
ATOM      6  C5  BZF d   1       2.376   5.745  -2.047  0.00  0.00    -0.016 A 
ATOM      7  C6  BZF d   1       3.459   5.768  -1.192  0.00  0.00     0.022 A 
ATOM      8  C7  BZF d   1       4.726   5.852  -1.664  0.00  0.00     0.029 A 
ATOM      9  C7A BZF d   1       4.882   5.935  -3.026  0.00  0.00     0.058 A 
ENDROOT
TORSDOF 0
ENDMDL
