MODEL 1
REMARK minimizedAffinity 4.769804
REMARK minimizedRMSD -1
REMARK  0 active torsions:
REMARK  status: ('A' for Active; 'I' for Inactive)
ROOT
ATOM      1  O1  BZF d   1       3.458  -0.788   2.326  0.00  0.00    -0.204 OA
ATOM      2  C2  BZF d   1       2.338  -1.383   2.875  0.00  0.00     0.174 A 
ATOM      3  C3  BZF d   1       1.225  -0.689   2.560  0.00  0.00    -0.012 A 
ATOM      4  C3A BZF d   1       1.667   0.355   1.687  0.00  0.00    -0.107 A 
ATOM      5  C4  BZF d   1       1.023   1.363   1.028  0.00  0.00     0.055 A 
ATOM      6  C5  BZF d   1       1.754   2.259   0.314  0.00  0.00    -0.016 A 
ATOM      7  C6  BZF d   1       3.130   2.180   0.243  0.00  0.00     0.022 A 
ATOM      8  C7  BZF d   1       3.813   1.195   0.877  0.00  0.00     0.029 A 
ATOM      9  C7A BZF d   1       3.073   0.269   1.571  0.00  0.00     0.058 A 
ENDROOT
TORSDOF 0
ENDMDL
