MODEL 1
REMARK minimizedAffinity 10.0076866
REMARK minimizedRMSD -1
REMARK  0 active torsions:
REMARK  status: ('A' for Active; 'I' for Inactive)
ROOT
ATOM      1  O1  BZF d   1      -3.368   1.266  -3.629  0.00  0.00    -0.204 OA
ATOM      2  C2  BZF d   1      -3.743   2.243  -2.726  0.00  0.00     0.174 A 
ATOM      3  C3  BZF d   1      -4.731   1.797  -1.923  0.00  0.00    -0.012 A 
ATOM      4  C3A BZF d   1      -4.925   0.428  -2.289  0.00  0.00    -0.107 A 
ATOM      5  C4  BZF d   1      -5.759  -0.555  -1.839  0.00  0.00     0.055 A 
ATOM      6  C5  BZF d   1      -5.751  -1.764  -2.459  0.00  0.00    -0.016 A 
ATOM      7  C6  BZF d   1      -4.927  -2.022  -3.535  0.00  0.00     0.022 A 
ATOM      8  C7  BZF d   1      -4.079  -1.080  -4.015  0.00  0.00     0.029 A 
ATOM      9  C7A BZF d   1      -4.061   0.132  -3.369  0.00  0.00     0.058 A 
ENDROOT
TORSDOF 0
ENDMDL
