MODEL 1
REMARK minimizedAffinity 5.53448009
REMARK minimizedRMSD -1
REMARK  0 active torsions:
REMARK  status: ('A' for Active; 'I' for Inactive)
ROOT
ATOM      1  O1  BZF d   1       5.971   5.862  -3.341  0.00  0.00    -0.204 OA
ATOM      2  C2  BZF d   1       5.982   5.973  -4.718  0.00  0.00     0.174 A 
ATOM      3  C3  BZF d   1       4.726   5.976  -5.208  0.00  0.00    -0.012 A 
ATOM      4  C3A BZF d   1       3.874   5.952  -4.059  0.00  0.00    -0.107 A 
ATOM      5  C4  BZF d   1       2.518   5.958  -3.895  0.00  0.00     0.055 A 
ATOM      6  C5  BZF d   1       2.004   5.855  -2.641  0.00  0.00    -0.016 A 
ATOM      7  C6  BZF d   1       2.815   5.739  -1.531  0.00  0.00     0.022 A 
ATOM      8  C7  BZF d   1       4.165   5.733  -1.643  0.00  0.00     0.029 A 
ATOM      9  C7A BZF d   1       4.689   5.871  -2.906  0.00  0.00     0.058 A 
ENDROOT
TORSDOF 0
ENDMDL
