MODEL 1
REMARK minimizedAffinity 4.80238867
REMARK minimizedRMSD -1
REMARK  0 active torsions:
REMARK  status: ('A' for Active; 'I' for Inactive)
ROOT
ATOM      1  O1  BZF d   1      -3.101   1.039  -2.300  0.00  0.00    -0.204 OA
ATOM      2  C2  BZF d   1      -3.129   2.294  -1.725  0.00  0.00     0.174 A 
ATOM      3  C3  BZF d   1      -3.636   3.202  -2.584  0.00  0.00    -0.012 A 
ATOM      4  C3A BZF d   1      -4.029   2.451  -3.737  0.00  0.00    -0.107 A 
ATOM      5  C4  BZF d   1      -4.612   2.791  -4.925  0.00  0.00     0.055 A 
ATOM      6  C5  BZF d   1      -4.795   1.830  -5.868  0.00  0.00    -0.016 A 
ATOM      7  C6  BZF d   1      -4.403   0.524  -5.661  0.00  0.00     0.022 A 
ATOM      8  C7  BZF d   1      -3.825   0.139  -4.497  0.00  0.00     0.029 A 
ATOM      9  C7A BZF d   1      -3.669   1.100  -3.528  0.00  0.00     0.058 A 
ENDROOT
TORSDOF 0
ENDMDL
