MODEL 1
REMARK minimizedAffinity 4.42214155
REMARK minimizedRMSD -1
REMARK  0 active torsions:
REMARK  status: ('A' for Active; 'I' for Inactive)
ROOT
ATOM      1  O1  BZF d   1       5.080  -2.257   2.391  0.00  0.00    -0.204 OA
ATOM      2  C2  BZF d   1       5.999  -2.965   3.140  0.00  0.00     0.174 A 
ATOM      3  C3  BZF d   1       5.416  -3.503   4.231  0.00  0.00    -0.012 A 
ATOM      4  C3A BZF d   1       4.027  -3.183   4.111  0.00  0.00    -0.107 A 
ATOM      5  C4  BZF d   1       2.931  -3.456   4.878  0.00  0.00     0.055 A 
ATOM      6  C5  BZF d   1       1.727  -2.936   4.520  0.00  0.00    -0.016 A 
ATOM      7  C6  BZF d   1       1.585  -2.136   3.405  0.00  0.00     0.022 A 
ATOM      8  C7  BZF d   1       2.642  -1.842   2.610  0.00  0.00     0.029 A 
ATOM      9  C7A BZF d   1       3.853  -2.393   2.951  0.00  0.00     0.058 A 
ENDROOT
TORSDOF 0
ENDMDL
