MODEL 1
REMARK minimizedAffinity 10.7394218
REMARK minimizedRMSD -1
REMARK  0 active torsions:
REMARK  status: ('A' for Active; 'I' for Inactive)
ROOT
ATOM      1  O1  BZF d   1      -5.319  -1.968  -4.639  0.00  0.00    -0.204 OA
ATOM      2  C2  BZF d   1      -4.654  -1.814  -3.439  0.00  0.00     0.174 A 
ATOM      3  C3  BZF d   1      -4.352  -3.014  -2.902  0.00  0.00    -0.012 A 
ATOM      4  C3A BZF d   1      -4.779  -3.977  -3.871  0.00  0.00    -0.107 A 
ATOM      5  C4  BZF d   1      -4.735  -5.341  -3.921  0.00  0.00     0.055 A 
ATOM      6  C5  BZF d   1      -5.304  -5.982  -4.976  0.00  0.00    -0.016 A 
ATOM      7  C6  BZF d   1      -5.928  -5.292  -5.993  0.00  0.00     0.022 A 
ATOM      8  C7  BZF d   1      -5.993  -3.938  -5.990  0.00  0.00     0.029 A 
ATOM      9  C7A BZF d   1      -5.390  -3.286  -4.942  0.00  0.00     0.058 A 
ENDROOT
TORSDOF 0
ENDMDL
