MODEL 1
REMARK minimizedAffinity 3.83632755
REMARK minimizedRMSD -1
REMARK  0 active torsions:
REMARK  status: ('A' for Active; 'I' for Inactive)
ROOT
ATOM      1  O1  BZF d   1       3.149  -1.437   2.743  0.00  0.00    -0.204 OA
ATOM      2  C2  BZF d   1       1.785  -1.436   2.525  0.00  0.00     0.174 A 
ATOM      3  C3  BZF d   1       1.206  -2.503   3.113  0.00  0.00    -0.012 A 
ATOM      4  C3A BZF d   1       2.262  -3.165   3.815  0.00  0.00    -0.107 A 
ATOM      5  C4  BZF d   1       2.312  -4.279   4.603  0.00  0.00     0.055 A 
ATOM      6  C5  BZF d   1       3.514  -4.700   5.078  0.00  0.00    -0.016 A 
ATOM      7  C6  BZF d   1       4.685  -4.034   4.780  0.00  0.00     0.022 A 
ATOM      8  C7  BZF d   1       4.685  -2.921   4.006  0.00  0.00     0.029 A 
ATOM      9  C7A BZF d   1       3.468  -2.475   3.553  0.00  0.00     0.058 A 
ENDROOT
TORSDOF 0
ENDMDL
