MODEL 1
REMARK minimizedAffinity 6.32880974
REMARK minimizedRMSD -1
REMARK  0 active torsions:
REMARK  status: ('A' for Active; 'I' for Inactive)
ROOT
ATOM      1  O1  BZF d   1      -2.993   1.621  -1.730  0.00  0.00    -0.204 OA
ATOM      2  C2  BZF d   1      -3.268   2.134  -0.477  0.00  0.00     0.174 A 
ATOM      3  C3  BZF d   1      -4.335   2.957  -0.521  0.00  0.00    -0.012 A 
ATOM      4  C3A BZF d   1      -4.810   2.886  -1.869  0.00  0.00    -0.107 A 
ATOM      5  C4  BZF d   1      -5.853   3.469  -2.529  0.00  0.00     0.055 A 
ATOM      6  C5  BZF d   1      -5.998   3.248  -3.862  0.00  0.00    -0.016 A 
ATOM      7  C6  BZF d   1      -5.115   2.456  -4.567  0.00  0.00     0.022 A 
ATOM      8  C7  BZF d   1      -4.068   1.852  -3.955  0.00  0.00     0.029 A 
ATOM      9  C7A BZF d   1      -3.938   2.047  -2.601  0.00  0.00     0.058 A 
ENDROOT
TORSDOF 0
ENDMDL
