MODEL 1
REMARK minimizedAffinity 14.8136225
REMARK minimizedRMSD -1
REMARK  0 active torsions:
REMARK  status: ('A' for Active; 'I' for Inactive)
ROOT
ATOM      1  C2' OXE d   1       3.737   4.981   2.126  0.00  0.00     0.078 C 
ATOM      2  C1' OXE d   1       4.857   3.476   4.215  0.00  0.00     0.078 C 
ATOM      3  C1  OXE d   1       5.089   3.001   2.803  0.00  0.00    -0.078 A 
ATOM      4  C2  OXE d   1       4.499   3.717   1.789  0.00  0.00    -0.078 A 
ATOM      5  C3  OXE d   1       4.726   3.354   0.465  0.00  0.00     0.003 A 
ATOM      6  C4  OXE d   1       5.423   2.178   0.163  0.00  0.00    -0.002 A 
ATOM      7  C5  OXE d   1       6.000   1.412   1.182  0.00  0.00    -0.002 A 
ATOM      8  C6  OXE d   1       5.878   1.832   2.502  0.00  0.00     0.003 A 
ENDROOT
TORSDOF 0
ENDMDL
