MODEL 1
REMARK minimizedAffinity 14.0811491
REMARK minimizedRMSD -1
REMARK  0 active torsions:
REMARK  status: ('A' for Active; 'I' for Inactive)
ROOT
ATOM      1  C2' OXE d   1       2.276  -2.326   3.960  0.00  0.00     0.078 C 
ATOM      2  C1' OXE d   1       3.004   0.369   3.665  0.00  0.00     0.078 C 
ATOM      3  C1  OXE d   1       1.643  -0.051   3.168  0.00  0.00    -0.078 A 
ATOM      4  C2  OXE d   1       1.314  -1.381   3.274  0.00  0.00    -0.078 A 
ATOM      5  C3  OXE d   1       0.050  -1.812   2.881  0.00  0.00     0.003 A 
ATOM      6  C4  OXE d   1      -0.830  -0.933   2.237  0.00  0.00    -0.002 A 
ATOM      7  C5  OXE d   1      -0.498   0.417   2.083  0.00  0.00    -0.002 A 
ATOM      8  C6  OXE d   1       0.714   0.882   2.580  0.00  0.00     0.003 A 
ENDROOT
TORSDOF 0
ENDMDL
