MODEL 1
REMARK minimizedAffinity 13.1455584
REMARK minimizedRMSD -1
REMARK  0 active torsions:
REMARK  status: ('A' for Active; 'I' for Inactive)
ROOT
ATOM      1  C2' OXE d   1      -1.493  -3.183  -5.909  0.00  0.00     0.078 C 
ATOM      2  C1' OXE d   1      -0.834  -1.030  -4.233  0.00  0.00     0.078 C 
ATOM      3  C1  OXE d   1       0.285  -1.927  -4.699  0.00  0.00    -0.078 A 
ATOM      4  C2  OXE d   1      -0.052  -3.005  -5.481  0.00  0.00    -0.078 A 
ATOM      5  C3  OXE d   1       0.948  -3.833  -5.983  0.00  0.00     0.003 A 
ATOM      6  C4  OXE d   1       2.276  -3.668  -5.574  0.00  0.00    -0.002 A 
ATOM      7  C5  OXE d   1       2.637  -2.599  -4.746  0.00  0.00    -0.002 A 
ATOM      8  C6  OXE d   1       1.662  -1.696  -4.335  0.00  0.00     0.003 A 
ENDROOT
TORSDOF 0
ENDMDL
