MODEL 1
REMARK minimizedAffinity 15.5534859
REMARK minimizedRMSD -1
REMARK  0 active torsions:
REMARK  status: ('A' for Active; 'I' for Inactive)
ROOT
ATOM      1  C2' OXE d   1      -5.961   5.433  -2.326  0.00  0.00     0.078 C 
ATOM      2  C1' OXE d   1      -5.992   5.964   0.431  0.00  0.00     0.078 C 
ATOM      3  C1  OXE d   1      -5.964   4.521  -0.007  0.00  0.00    -0.078 A 
ATOM      4  C2  OXE d   1      -5.996   4.270  -1.358  0.00  0.00    -0.078 A 
ATOM      5  C3  OXE d   1      -5.917   2.958  -1.817  0.00  0.00     0.003 A 
ATOM      6  C4  OXE d   1      -5.960   1.888  -0.916  0.00  0.00    -0.002 A 
ATOM      7  C5  OXE d   1      -5.967   2.121   0.463  0.00  0.00    -0.002 A 
ATOM      8  C6  OXE d   1      -5.926   3.429   0.934  0.00  0.00     0.003 A 
ENDROOT
TORSDOF 0
ENDMDL
