MODEL 1
REMARK minimizedAffinity 9.52754307
REMARK minimizedRMSD -1
REMARK  0 active torsions:
REMARK  status: ('A' for Active; 'I' for Inactive)
ROOT
ATOM      1  C2' OXE d   1      -0.074  -2.327   2.622  0.00  0.00     0.078 C 
ATOM      2  C1' OXE d   1       2.449  -3.347   3.310  0.00  0.00     0.078 C 
ATOM      3  C1  OXE d   1       1.265  -3.781   4.138  0.00  0.00    -0.078 A 
ATOM      4  C2  OXE d   1       0.041  -3.240   3.823  0.00  0.00    -0.078 A 
ATOM      5  C3  OXE d   1      -1.092  -3.648   4.520  0.00  0.00     0.003 A 
ATOM      6  C4  OXE d   1      -0.975  -4.485   5.636  0.00  0.00    -0.002 A 
ATOM      7  C5  OXE d   1       0.267  -5.016   5.998  0.00  0.00    -0.002 A 
ATOM      8  C6  OXE d   1       1.388  -4.708   5.235  0.00  0.00     0.003 A 
ENDROOT
TORSDOF 0
ENDMDL
