MODEL 1
REMARK minimizedAffinity 12.4606628
REMARK minimizedRMSD -1
REMARK  0 active torsions:
REMARK  status: ('A' for Active; 'I' for Inactive)
ROOT
ATOM      1  C2' OXE d   1       4.006  -2.324   5.731  0.00  0.00     0.078 C 
ATOM      2  C1' OXE d   1       4.058   0.308   4.756  0.00  0.00     0.078 C 
ATOM      3  C1  OXE d   1       2.918  -0.579   4.324  0.00  0.00    -0.078 A 
ATOM      4  C2  OXE d   1       2.926  -1.880   4.768  0.00  0.00    -0.078 A 
ATOM      5  C3  OXE d   1       1.869  -2.725   4.444  0.00  0.00     0.003 A 
ATOM      6  C4  OXE d   1       0.879  -2.310   3.545  0.00  0.00    -0.002 A 
ATOM      7  C5  OXE d   1       0.874  -1.002   3.049  0.00  0.00    -0.002 A 
ATOM      8  C6  OXE d   1       1.861  -0.113   3.461  0.00  0.00     0.003 A 
ENDROOT
TORSDOF 0
ENDMDL
