MODEL 1
REMARK minimizedAffinity 8.69036579
REMARK minimizedRMSD -1
REMARK  0 active torsions:
REMARK  status: ('A' for Active; 'I' for Inactive)
ROOT
ATOM      1  C2' OXE d   1       4.523  -4.961   5.552  0.00  0.00     0.078 C 
ATOM      2  C1' OXE d   1       5.902  -2.566   5.054  0.00  0.00     0.078 C 
ATOM      3  C1  OXE d   1       4.435  -2.619   4.707  0.00  0.00    -0.078 A 
ATOM      4  C2  OXE d   1       3.779  -3.809   4.910  0.00  0.00    -0.078 A 
ATOM      5  C3  OXE d   1       2.413  -3.896   4.658  0.00  0.00     0.003 A 
ATOM      6  C4  OXE d   1       1.734  -2.830   4.055  0.00  0.00    -0.002 A 
ATOM      7  C5  OXE d   1       2.393  -1.621   3.803  0.00  0.00    -0.002 A 
ATOM      8  C6  OXE d   1       3.729  -1.486   4.161  0.00  0.00     0.003 A 
ENDROOT
TORSDOF 0
ENDMDL
