MODEL 1
REMARK minimizedAffinity 21.845974
REMARK minimizedRMSD -1
REMARK  0 active torsions:
REMARK  status: ('A' for Active; 'I' for Inactive)
ROOT
ATOM      1  C1  DEN d   1      -4.169   0.339   2.982  0.00  0.00     0.130 A 
ATOM      2  C2  DEN d   1      -3.027   0.928   3.677  0.00  0.00    -0.031 A 
ATOM      3  C3  DEN d   1      -1.815   0.650   2.879  0.00  0.00     0.027 A 
ATOM      4  C4  DEN d   1      -1.598  -0.621   0.646  0.00  0.00     0.027 A 
ATOM      5  C5  DEN d   1      -2.290  -1.313  -0.324  0.00  0.00    -0.003 A 
ATOM      6  C6  DEN d   1      -3.640  -1.530  -0.243  0.00  0.00     0.001 A 
ATOM      7  C7  DEN d   1      -4.349  -1.011   0.808  0.00  0.00     0.017 A 
ATOM      8  C8  DEN d   1      -3.658  -0.319   1.794  0.00  0.00    -0.094 A 
ATOM      9  C9  DEN d   1      -2.295  -0.100   1.688  0.00  0.00    -0.072 A 
ENDROOT
TORSDOF 0
ENDMDL
