MODEL 1
REMARK minimizedAffinity 15.5464735
REMARK minimizedRMSD -1
REMARK  0 active torsions:
REMARK  status: ('A' for Active; 'I' for Inactive)
ROOT
ATOM      1  C1  DEN d   1       0.489   1.261  -2.606  0.00  0.00     0.130 A 
ATOM      2  C2  DEN d   1       1.209   1.945  -1.535  0.00  0.00    -0.031 A 
ATOM      3  C3  DEN d   1       2.071   0.955  -0.859  0.00  0.00     0.027 A 
ATOM      4  C4  DEN d   1       2.363  -1.557  -1.366  0.00  0.00     0.027 A 
ATOM      5  C5  DEN d   1       1.953  -2.594  -2.174  0.00  0.00    -0.003 A 
ATOM      6  C6  DEN d   1       1.009  -2.428  -3.153  0.00  0.00     0.001 A 
ATOM      7  C7  DEN d   1       0.477  -1.186  -3.378  0.00  0.00     0.017 A 
ATOM      8  C8  DEN d   1       0.879  -0.137  -2.562  0.00  0.00    -0.094 A 
ATOM      9  C9  DEN d   1       1.844  -0.323  -1.586  0.00  0.00    -0.072 A 
ENDROOT
TORSDOF 0
ENDMDL
