MODEL 1
REMARK minimizedAffinity 13.2437878
REMARK minimizedRMSD -1
REMARK  0 active torsions:
REMARK  status: ('A' for Active; 'I' for Inactive)
ROOT
ATOM      1  C1  DEN d   1       0.927   2.981  -1.465  0.00  0.00     0.130 A 
ATOM      2  C2  DEN d   1       2.284   3.438  -1.178  0.00  0.00    -0.031 A 
ATOM      3  C3  DEN d   1       2.190   4.703  -0.422  0.00  0.00     0.027 A 
ATOM      4  C4  DEN d   1       0.086   5.990   0.333  0.00  0.00     0.027 A 
ATOM      5  C5  DEN d   1      -1.291   6.000   0.312  0.00  0.00    -0.003 A 
ATOM      6  C6  DEN d   1      -2.019   5.031  -0.326  0.00  0.00     0.001 A 
ATOM      7  C7  DEN d   1      -1.374   3.986  -0.932  0.00  0.00     0.017 A 
ATOM      8  C8  DEN d   1       0.015   3.972  -0.922  0.00  0.00    -0.094 A 
ATOM      9  C9  DEN d   1       0.733   4.955  -0.261  0.00  0.00    -0.072 A 
ENDROOT
TORSDOF 0
ENDMDL
