MODEL 1
REMARK minimizedAffinity 20.8460293
REMARK minimizedRMSD -1
REMARK  0 active torsions:
REMARK  status: ('A' for Active; 'I' for Inactive)
ROOT
ATOM      1  C1  DEN d   1      -1.398   5.996   2.159  0.00  0.00     0.130 A 
ATOM      2  C2  DEN d   1      -2.541   5.594   1.344  0.00  0.00    -0.031 A 
ATOM      3  C3  DEN d   1      -3.614   5.142   2.252  0.00  0.00     0.027 A 
ATOM      4  C4  DEN d   1      -3.618   5.031   4.829  0.00  0.00     0.027 A 
ATOM      5  C5  DEN d   1      -2.870   5.256   5.963  0.00  0.00    -0.003 A 
ATOM      6  C6  DEN d   1      -1.578   5.707   5.909  0.00  0.00     0.001 A 
ATOM      7  C7  DEN d   1      -1.009   5.991   4.695  0.00  0.00     0.017 A 
ATOM      8  C8  DEN d   1      -1.755   5.760   3.547  0.00  0.00    -0.094 A 
ATOM      9  C9  DEN d   1      -3.063   5.315   3.623  0.00  0.00    -0.072 A 
ENDROOT
TORSDOF 0
ENDMDL
