MODEL 1
REMARK minimizedAffinity 11.8388758
REMARK minimizedRMSD -1
REMARK  0 active torsions:
REMARK  status: ('A' for Active; 'I' for Inactive)
ROOT
ATOM      1  C1  DEN d   1       5.222   4.315   1.675  0.00  0.00     0.130 A 
ATOM      2  C2  DEN d   1       4.872   4.858   2.984  0.00  0.00    -0.031 A 
ATOM      3  C3  DEN d   1       3.614   5.618   2.842  0.00  0.00     0.027 A 
ATOM      4  C4  DEN d   1       2.179   6.000   0.733  0.00  0.00     0.027 A 
ATOM      5  C5  DEN d   1       2.077   5.745  -0.617  0.00  0.00    -0.003 A 
ATOM      6  C6  DEN d   1       3.026   5.031  -1.298  0.00  0.00     0.001 A 
ATOM      7  C7  DEN d   1       4.097   4.507  -0.623  0.00  0.00     0.017 A 
ATOM      8  C8  DEN d   1       4.210   4.766   0.737  0.00  0.00    -0.094 A 
ATOM      9  C9  DEN d   1       3.234   5.480   1.410  0.00  0.00    -0.072 A 
ENDROOT
TORSDOF 0
ENDMDL
