MODEL 1
REMARK minimizedAffinity 15.7362976
REMARK minimizedRMSD -1
REMARK  0 active torsions:
REMARK  status: ('A' for Active; 'I' for Inactive)
ROOT
ATOM      1  C1  DEN d   1      -6.000  -1.081   4.811  0.00  0.00     0.130 A 
ATOM      2  C2  DEN d   1      -5.139  -1.080   5.991  0.00  0.00    -0.031 A 
ATOM      3  C3  DEN d   1      -4.141  -0.004   5.826  0.00  0.00     0.027 A 
ATOM      4  C4  DEN d   1      -3.849   1.653   3.872  0.00  0.00     0.027 A 
ATOM      5  C5  DEN d   1      -4.333   2.033   2.640  0.00  0.00    -0.003 A 
ATOM      6  C6  DEN d   1      -5.377   1.384   2.034  0.00  0.00     0.001 A 
ATOM      7  C7  DEN d   1      -6.000   0.349   2.681  0.00  0.00     0.017 A 
ATOM      8  C8  DEN d   1      -5.512  -0.043   3.921  0.00  0.00    -0.094 A 
ATOM      9  C9  DEN d   1      -4.464   0.633   4.521  0.00  0.00    -0.072 A 
ENDROOT
TORSDOF 0
ENDMDL
