MODEL 1
REMARK minimizedAffinity -1.53045559
REMARK minimizedRMSD -1
REMARK  0 active torsions:
REMARK  status: ('A' for Active; 'I' for Inactive)
ROOT
ATOM      1  C1  DEN d   1       5.616   5.487   1.373  0.00  0.00     0.130 A 
ATOM      2  C2  DEN d   1       4.738   5.019   2.442  0.00  0.00    -0.031 A 
ATOM      3  C3  DEN d   1       3.392   4.814   1.870  0.00  0.00     0.027 A 
ATOM      4  C4  DEN d   1       2.588   5.169  -0.555  0.00  0.00     0.027 A 
ATOM      5  C5  DEN d   1       2.969   5.568  -1.817  0.00  0.00    -0.003 A 
ATOM      6  C6  DEN d   1       4.240   5.998  -2.094  0.00  0.00     0.001 A 
ATOM      7  C7  DEN d   1       5.188   5.995  -1.105  0.00  0.00     0.017 A 
ATOM      8  C8  DEN d   1       4.809   5.600   0.171  0.00  0.00    -0.094 A 
ATOM      9  C9  DEN d   1       3.523   5.158   0.429  0.00  0.00    -0.072 A 
ENDROOT
TORSDOF 0
ENDMDL
