MODEL 1
REMARK minimizedAffinity 24.154768
REMARK minimizedRMSD -1
REMARK  0 active torsions:
REMARK  status: ('A' for Active; 'I' for Inactive)
ROOT
ATOM      1  C1  DEN d   1      -2.252   4.050   5.002  0.00  0.00     0.130 A 
ATOM      2  C2  DEN d   1      -2.026   5.099   5.991  0.00  0.00    -0.031 A 
ATOM      3  C3  DEN d   1      -3.206   5.987   5.994  0.00  0.00     0.027 A 
ATOM      4  C4  DEN d   1      -5.353   5.836   4.573  0.00  0.00     0.027 A 
ATOM      5  C5  DEN d   1      -5.998   5.123   3.587  0.00  0.00    -0.003 A 
ATOM      6  C6  DEN d   1      -5.431   4.032   2.984  0.00  0.00     0.001 A 
ATOM      7  C7  DEN d   1      -4.199   3.594   3.394  0.00  0.00     0.017 A 
ATOM      8  C8  DEN d   1      -3.539   4.312   4.382  0.00  0.00    -0.094 A 
ATOM      9  C9  DEN d   1      -4.135   5.405   4.988  0.00  0.00    -0.072 A 
ENDROOT
TORSDOF 0
ENDMDL
