MODEL 1
REMARK minimizedAffinity 14.5216885
REMARK minimizedRMSD -1
REMARK  0 active torsions:
REMARK  status: ('A' for Active; 'I' for Inactive)
ROOT
ATOM      1  C1  DEN d   1       0.379   1.133  -1.791  0.00  0.00     0.130 A 
ATOM      2  C2  DEN d   1       0.817  -0.223  -1.474  0.00  0.00    -0.031 A 
ATOM      3  C3  DEN d   1       2.027  -0.510  -2.271  0.00  0.00     0.027 A 
ATOM      4  C4  DEN d   1       3.260   1.010  -3.951  0.00  0.00     0.027 A 
ATOM      5  C5  DEN d   1       3.256   2.245  -4.560  0.00  0.00    -0.003 A 
ATOM      6  C6  DEN d   1       2.282   3.176  -4.316  0.00  0.00     0.001 A 
ATOM      7  C7  DEN d   1       1.295   2.903  -3.406  0.00  0.00     0.017 A 
ATOM      8  C8  DEN d   1       1.288   1.657  -2.794  0.00  0.00    -0.094 A 
ATOM      9  C9  DEN d   1       2.289   0.734  -3.045  0.00  0.00    -0.072 A 
ENDROOT
TORSDOF 0
ENDMDL
