MODEL 1
REMARK minimizedAffinity 10.0634727
REMARK minimizedRMSD -1
REMARK  0 active torsions:
REMARK  status: ('A' for Active; 'I' for Inactive)
ROOT
ATOM      1  C1  DEN d   1       1.131  -1.204  -2.408  0.00  0.00     0.130 A 
ATOM      2  C2  DEN d   1       2.196  -1.594  -1.488  0.00  0.00    -0.031 A 
ATOM      3  C3  DEN d   1       2.902  -0.369  -1.062  0.00  0.00     0.027 A 
ATOM      4  C4  DEN d   1       2.449   2.080  -1.730  0.00  0.00     0.027 A 
ATOM      5  C5  DEN d   1       1.656   2.907  -2.495  0.00  0.00    -0.003 A 
ATOM      6  C6  DEN d   1       0.663   2.422  -3.305  0.00  0.00     0.001 A 
ATOM      7  C7  DEN d   1       0.407   1.077  -3.333  0.00  0.00     0.017 A 
ATOM      8  C8  DEN d   1       1.207   0.236  -2.570  0.00  0.00    -0.094 A 
ATOM      9  C9  DEN d   1       2.198   0.747  -1.749  0.00  0.00    -0.072 A 
ENDROOT
TORSDOF 0
ENDMDL
