MODEL 1
REMARK minimizedAffinity 0.673391819
REMARK minimizedRMSD -1
REMARK  0 active torsions:
REMARK  status: ('A' for Active; 'I' for Inactive)
ROOT
ATOM      1  C1  DEN d   1       5.996  -4.279   5.984  0.00  0.00     0.130 A 
ATOM      2  C2  DEN d   1       5.093  -5.338   5.541  0.00  0.00    -0.031 A 
ATOM      3  C3  DEN d   1       4.039  -4.722   4.710  0.00  0.00     0.027 A 
ATOM      4  C4  DEN d   1       3.721  -2.245   4.067  0.00  0.00     0.027 A 
ATOM      5  C5  DEN d   1       4.229  -0.973   4.214  0.00  0.00    -0.003 A 
ATOM      6  C6  DEN d   1       5.331  -0.711   4.983  0.00  0.00     0.001 A 
ATOM      7  C7  DEN d   1       5.990  -1.742   5.598  0.00  0.00     0.017 A 
ATOM      8  C8  DEN d   1       5.481  -3.027   5.460  0.00  0.00    -0.094 A 
ATOM      9  C9  DEN d   1       4.372  -3.273   4.668  0.00  0.00    -0.072 A 
ENDROOT
TORSDOF 0
ENDMDL
