MODEL 1
REMARK minimizedAffinity 2.25470591
REMARK minimizedRMSD -1
REMARK  0 active torsions:
REMARK  status: ('A' for Active; 'I' for Inactive)
ROOT
ATOM      1  C1  DEN d   1      -4.618  -1.314   2.105  0.00  0.00     0.130 A 
ATOM      2  C2  DEN d   1      -5.999  -0.950   1.798  0.00  0.00    -0.031 A 
ATOM      3  C3  DEN d   1      -5.999  -0.184   0.535  0.00  0.00     0.027 A 
ATOM      4  C4  DEN d   1      -4.006   0.465  -0.969  0.00  0.00     0.027 A 
ATOM      5  C5  DEN d   1      -2.639   0.389  -1.114  0.00  0.00    -0.003 A 
ATOM      6  C6  DEN d   1      -1.838  -0.225  -0.188  0.00  0.00     0.001 A 
ATOM      7  C7  DEN d   1      -2.404  -0.827   0.905  0.00  0.00     0.017 A 
ATOM      8  C8  DEN d   1      -3.781  -0.749   1.063  0.00  0.00    -0.094 A 
ATOM      9  C9  DEN d   1      -4.574  -0.135   0.108  0.00  0.00    -0.072 A 
ENDROOT
TORSDOF 0
ENDMDL
