MODEL 1
REMARK minimizedAffinity -4.72821093
REMARK minimizedRMSD -1
REMARK  1 active torsions:
REMARK  status: ('A' for Active; 'I' for Inactive)
REMARK    1  A    between atoms: C3_4  and  O_7 
ROOT
ATOM      1  C   UNL d   1      -1.596  -2.870   1.065  0.00  0.00    -0.033 A 
ATOM      2  C1  UNL d   1      -0.210  -2.722   0.990  0.00  0.00     0.039 A 
ATOM      3  C2  UNL d   1       0.344  -1.490   0.634  0.00  0.00    -0.080 A 
ATOM      4  C3  UNL d   1      -0.498  -0.417   0.357  0.00  0.00     0.150 A 
ATOM      5  C4  UNL d   1      -1.880  -0.556   0.434  0.00  0.00    -0.007 A 
ATOM      6  C5  UNL d   1      -2.431  -1.787   0.789  0.00  0.00     0.039 A 
ENDROOT
BRANCH   4   7
ATOM      7  O   UNL d   1      -0.004   0.803   0.001  0.00  0.00    -0.526 OA
ATOM      8  H5  UNL d   1       0.965   0.743  -0.039  0.00  0.00     0.418 HD
ENDBRANCH   4   7
TORSDOF 1
ENDMDL
