MODEL 1
REMARK minimizedAffinity 0.21429956
REMARK minimizedRMSD -1
REMARK  1 active torsions:
REMARK  status: ('A' for Active; 'I' for Inactive)
REMARK    1  A    between atoms: C3_4  and  O_7 
ROOT
ATOM      1  C   UNL d   1       4.347  -0.359   1.484  0.00  0.00    -0.033 A 
ATOM      2  C1  UNL d   1       3.810   0.927   1.402  0.00  0.00     0.039 A 
ATOM      3  C2  UNL d   1       2.471   1.105   1.049  0.00  0.00    -0.080 A 
ATOM      4  C3  UNL d   1       1.680  -0.009   0.783  0.00  0.00     0.150 A 
ATOM      5  C4  UNL d   1       2.207  -1.294   0.867  0.00  0.00    -0.007 A 
ATOM      6  C5  UNL d   1       3.545  -1.470   1.218  0.00  0.00     0.039 A 
ENDROOT
BRANCH   4   7
ATOM      7  O   UNL d   1       0.369   0.115   0.430  0.00  0.00    -0.526 OA
ATOM      8  H5  UNL d   1       0.151   1.061   0.384  0.00  0.00     0.418 HD
ENDBRANCH   4   7
TORSDOF 1
ENDMDL
