MODEL 1
REMARK minimizedAffinity -3.93050194
REMARK minimizedRMSD -1
REMARK  1 active torsions:
REMARK  status: ('A' for Active; 'I' for Inactive)
REMARK    1  A    between atoms: C3_4  and  O_7 
ROOT
ATOM      1  C   UNL d   1       0.078  -0.764  -0.673  0.00  0.00    -0.033 A 
ATOM      2  C1  UNL d   1       0.453  -1.249   0.581  0.00  0.00     0.039 A 
ATOM      3  C2  UNL d   1      -0.425  -2.053   1.311  0.00  0.00    -0.080 A 
ATOM      4  C3  UNL d   1      -1.672  -2.364   0.776  0.00  0.00     0.150 A 
ATOM      5  C4  UNL d   1      -2.051  -1.887  -0.474  0.00  0.00    -0.007 A 
ATOM      6  C5  UNL d   1      -1.173  -1.083  -1.202  0.00  0.00     0.039 A 
ENDROOT
BRANCH   4   7
ATOM      7  O   UNL d   1      -2.564  -3.141   1.454  0.00  0.00    -0.526 OA
ATOM      8  H5  UNL d   1      -2.178  -3.374   2.314  0.00  0.00     0.418 HD
ENDBRANCH   4   7
TORSDOF 1
ENDMDL
