MODEL 1
REMARK minimizedAffinity -4.92771244
REMARK minimizedRMSD -1
REMARK  1 active torsions:
REMARK  status: ('A' for Active; 'I' for Inactive)
REMARK    1  A    between atoms: C3_4  and  O_7 
ROOT
ATOM      1  C   UNL d   1       0.897   0.216   0.544  0.00  0.00    -0.033 A 
ATOM      2  C1  UNL d   1      -0.427   0.625   0.720  0.00  0.00     0.039 A 
ATOM      3  C2  UNL d   1      -1.416  -0.315   1.017  0.00  0.00    -0.080 A 
ATOM      4  C3  UNL d   1      -1.069  -1.658   1.136  0.00  0.00     0.150 A 
ATOM      5  C4  UNL d   1       0.248  -2.071   0.965  0.00  0.00    -0.007 A 
ATOM      6  C5  UNL d   1       1.234  -1.132   0.667  0.00  0.00     0.039 A 
ENDROOT
BRANCH   4   7
ATOM      7  O   UNL d   1      -2.000  -2.612   1.420  0.00  0.00    -0.526 OA
ATOM      8  H5  UNL d   1      -2.870  -2.184   1.482  0.00  0.00     0.418 HD
ENDBRANCH   4   7
TORSDOF 1
ENDMDL
