MODEL 1
REMARK minimizedAffinity -2.42761302
REMARK minimizedRMSD -1
REMARK  1 active torsions:
REMARK  status: ('A' for Active; 'I' for Inactive)
REMARK    1  A    between atoms: C3_4  and  O_7 
ROOT
ATOM      1  C   UNL d   1      -1.169  -1.768  -0.015  0.00  0.00    -0.033 A 
ATOM      2  C1  UNL d   1       0.092  -1.229   0.246  0.00  0.00     0.039 A 
ATOM      3  C2  UNL d   1       0.233   0.139   0.487  0.00  0.00    -0.080 A 
ATOM      4  C3  UNL d   1      -0.894   0.956   0.464  0.00  0.00     0.150 A 
ATOM      5  C4  UNL d   1      -2.154   0.426   0.208  0.00  0.00    -0.007 A 
ATOM      6  C5  UNL d   1      -2.292  -0.940  -0.033  0.00  0.00     0.039 A 
ENDROOT
BRANCH   4   7
ATOM      7  O   UNL d   1      -0.805   2.298   0.688  0.00  0.00    -0.526 OA
ATOM      8  H5  UNL d   1       0.130   2.526   0.822  0.00  0.00     0.418 HD
ENDBRANCH   4   7
TORSDOF 1
ENDMDL
