MODEL 1
REMARK minimizedAffinity -5.12277842
REMARK minimizedRMSD -1
REMARK  1 active torsions:
REMARK  status: ('A' for Active; 'I' for Inactive)
REMARK    1  A    between atoms: C3_4  and  O_7 
ROOT
ATOM      1  C   UNL d   1      -0.176  -2.518   0.234  0.00  0.00    -0.033 A 
ATOM      2  C1  UNL d   1       0.721  -1.450   0.186  0.00  0.00     0.039 A 
ATOM      3  C2  UNL d   1       0.299  -0.165   0.532  0.00  0.00    -0.080 A 
ATOM      4  C3  UNL d   1      -1.021   0.038   0.924  0.00  0.00     0.150 A 
ATOM      5  C4  UNL d   1      -1.920  -1.023   0.978  0.00  0.00    -0.007 A 
ATOM      6  C5  UNL d   1      -1.497  -2.305   0.631  0.00  0.00     0.039 A 
ENDROOT
BRANCH   4   7
ATOM      7  O   UNL d   1      -1.481   1.275   1.266  0.00  0.00    -0.526 OA
ATOM      8  H5  UNL d   1      -0.758   1.914   1.155  0.00  0.00     0.418 HD
ENDBRANCH   4   7
TORSDOF 1
ENDMDL
