MODEL 1
REMARK minimizedAffinity -4.56519604
REMARK minimizedRMSD -1
REMARK  1 active torsions:
REMARK  status: ('A' for Active; 'I' for Inactive)
REMARK    1  A    between atoms: C3_4  and  O_7 
ROOT
ATOM      1  C   UNL d   1      -1.641  -2.729   1.340  0.00  0.00    -0.033 A 
ATOM      2  C1  UNL d   1      -0.251  -2.618   1.405  0.00  0.00     0.039 A 
ATOM      3  C2  UNL d   1       0.392  -1.532   0.807  0.00  0.00    -0.080 A 
ATOM      4  C3  UNL d   1      -0.365  -0.566   0.151  0.00  0.00     0.150 A 
ATOM      5  C4  UNL d   1      -1.750  -0.669   0.086  0.00  0.00    -0.007 A 
ATOM      6  C5  UNL d   1      -2.391  -1.754   0.682  0.00  0.00     0.039 A 
ENDROOT
BRANCH   4   7
ATOM      7  O   UNL d   1       0.219   0.509  -0.451  0.00  0.00    -0.526 OA
ATOM      8  H5  UNL d   1       1.182   0.433  -0.350  0.00  0.00     0.418 HD
ENDBRANCH   4   7
TORSDOF 1
ENDMDL
