MODEL 1
REMARK minimizedAffinity -3.13359571
REMARK minimizedRMSD -1
REMARK  1 active torsions:
REMARK  status: ('A' for Active; 'I' for Inactive)
REMARK    1  A    between atoms: C3_4  and  O_7 
ROOT
ATOM      1  C   UNL d   1      -2.142   0.333   1.146  0.00  0.00    -0.033 A 
ATOM      2  C1  UNL d   1      -2.116  -0.500   2.266  0.00  0.00     0.039 A 
ATOM      3  C2  UNL d   1      -1.295  -1.629   2.280  0.00  0.00    -0.080 A 
ATOM      4  C3  UNL d   1      -0.505  -1.913   1.169  0.00  0.00     0.150 A 
ATOM      5  C4  UNL d   1      -0.523  -1.085   0.051  0.00  0.00    -0.007 A 
ATOM      6  C5  UNL d   1      -1.344   0.041   0.039  0.00  0.00     0.039 A 
ENDROOT
BRANCH   4   7
ATOM      7  O   UNL d   1       0.309  -3.006   1.134  0.00  0.00    -0.526 OA
ATOM      8  H5  UNL d   1       0.196  -3.501   1.963  0.00  0.00     0.418 HD
ENDBRANCH   4   7
TORSDOF 1
ENDMDL
