MODEL 1
REMARK minimizedAffinity -3.94350815
REMARK minimizedRMSD -1
REMARK  1 active torsions:
REMARK  status: ('A' for Active; 'I' for Inactive)
REMARK    1  A    between atoms: C3_4  and  O_7 
ROOT
ATOM      1  C   UNL d   1      -0.499  -3.269   3.181  0.00  0.00    -0.033 A 
ATOM      2  C1  UNL d   1      -1.134  -2.095   3.592  0.00  0.00     0.039 A 
ATOM      3  C2  UNL d   1      -0.990  -0.924   2.845  0.00  0.00    -0.080 A 
ATOM      4  C3  UNL d   1      -0.213  -0.941   1.691  0.00  0.00     0.150 A 
ATOM      5  C4  UNL d   1       0.419  -2.107   1.273  0.00  0.00    -0.007 A 
ATOM      6  C5  UNL d   1       0.276  -3.276   2.021  0.00  0.00     0.039 A 
ENDROOT
BRANCH   4   7
ATOM      7  O   UNL d   1      -0.040   0.179   0.932  0.00  0.00    -0.526 OA
ATOM      8  H5  UNL d   1      -0.510   0.915   1.358  0.00  0.00     0.418 HD
ENDBRANCH   4   7
TORSDOF 1
ENDMDL
