MODEL 1
REMARK minimizedAffinity -2.85829282
REMARK minimizedRMSD -1
REMARK  1 active torsions:
REMARK  status: ('A' for Active; 'I' for Inactive)
REMARK    1  A    between atoms: C3_4  and  O_7 
ROOT
ATOM      1  C   UNL d   1      -1.591  -5.998  -5.877  0.00  0.00    -0.033 A 
ATOM      2  C1  UNL d   1      -2.980  -5.867  -5.924  0.00  0.00     0.039 A 
ATOM      3  C2  UNL d   1      -3.563  -4.599  -5.959  0.00  0.00    -0.080 A 
ATOM      4  C3  UNL d   1      -2.746  -3.471  -5.949  0.00  0.00     0.150 A 
ATOM      5  C4  UNL d   1      -1.362  -3.594  -5.906  0.00  0.00    -0.007 A 
ATOM      6  C5  UNL d   1      -0.781  -4.861  -5.870  0.00  0.00     0.039 A 
ENDROOT
BRANCH   4   7
ATOM      7  O   UNL d   1      -3.269  -2.212  -5.978  0.00  0.00    -0.526 OA
ATOM      8  H5  UNL d   1      -4.239  -2.282  -5.977  0.00  0.00     0.418 HD
ENDBRANCH   4   7
TORSDOF 1
ENDMDL
