MODEL 1
REMARK minimizedAffinity 2.25814033
REMARK minimizedRMSD -1
REMARK  1 active torsions:
REMARK  status: ('A' for Active; 'I' for Inactive)
REMARK    1  A    between atoms: C3_4  and  O_7 
ROOT
ATOM      1  C   UNL d   1      -1.000  -2.346   3.471  0.00  0.00    -0.033 A 
ATOM      2  C1  UNL d   1      -0.880  -2.965   4.717  0.00  0.00     0.039 A 
ATOM      3  C2  UNL d   1       0.298  -3.634   5.055  0.00  0.00    -0.080 A 
ATOM      4  C3  UNL d   1       1.346  -3.678   4.141  0.00  0.00     0.150 A 
ATOM      5  C4  UNL d   1       1.235  -3.060   2.899  0.00  0.00    -0.007 A 
ATOM      6  C5  UNL d   1       0.058  -2.393   2.563  0.00  0.00     0.039 A 
ENDROOT
BRANCH   4   7
ATOM      7  O   UNL d   1       2.513  -4.323   4.424  0.00  0.00    -0.526 OA
ATOM      8  H5  UNL d   1       2.436  -4.727   5.305  0.00  0.00     0.418 HD
ENDBRANCH   4   7
TORSDOF 1
ENDMDL
