MODEL 1
REMARK minimizedAffinity -0.129024222
REMARK minimizedRMSD -1
REMARK  1 active torsions:
REMARK  status: ('A' for Active; 'I' for Inactive)
REMARK    1  A    between atoms: C3_4  and  O_7 
ROOT
ATOM      1  C   UNL d   1      -1.780  -6.000  -5.913  0.00  0.00    -0.033 A 
ATOM      2  C1  UNL d   1      -3.174  -5.999  -6.000  0.00  0.00     0.039 A 
ATOM      3  C2  UNL d   1      -3.882  -4.801  -5.892  0.00  0.00    -0.080 A 
ATOM      4  C3  UNL d   1      -3.185  -3.611  -5.698  0.00  0.00     0.150 A 
ATOM      5  C4  UNL d   1      -1.797  -3.603  -5.615  0.00  0.00    -0.007 A 
ATOM      6  C5  UNL d   1      -1.092  -4.802  -5.722  0.00  0.00     0.039 A 
ENDROOT
BRANCH   4   7
ATOM      7  O   UNL d   1      -3.832  -2.417  -5.582  0.00  0.00    -0.526 OA
ATOM      8  H5  UNL d   1      -4.789  -2.580  -5.630  0.00  0.00     0.418 HD
ENDBRANCH   4   7
TORSDOF 1
ENDMDL
