MODEL 1
REMARK minimizedAffinity 3.97578645
REMARK minimizedRMSD -1
REMARK  1 active torsions:
REMARK  status: ('A' for Active; 'I' for Inactive)
REMARK    1  A    between atoms: C3_4  and  O_7 
ROOT
ATOM      1  C   UNL d   1       1.144  -3.271   1.841  0.00  0.00    -0.033 A 
ATOM      2  C1  UNL d   1       0.210  -2.724   2.723  0.00  0.00     0.039 A 
ATOM      3  C2  UNL d   1      -0.364  -1.481   2.451  0.00  0.00    -0.080 A 
ATOM      4  C3  UNL d   1       0.003  -0.796   1.296  0.00  0.00     0.150 A 
ATOM      5  C4  UNL d   1       0.931  -1.336   0.412  0.00  0.00    -0.007 A 
ATOM      6  C5  UNL d   1       1.503  -2.578   0.685  0.00  0.00     0.039 A 
ENDROOT
BRANCH   4   7
ATOM      7  O   UNL d   1      -0.526   0.423   0.992  0.00  0.00    -0.526 OA
ATOM      8  H5  UNL d   1      -1.130   0.684   1.707  0.00  0.00     0.418 HD
ENDBRANCH   4   7
TORSDOF 1
ENDMDL
