MODEL 1
REMARK minimizedAffinity -3.7825911
REMARK minimizedRMSD -1
REMARK  1 active torsions:
REMARK  status: ('A' for Active; 'I' for Inactive)
REMARK    1  A    between atoms: C3_4  and  O_7 
ROOT
ATOM      1  C   UNL d   1      -4.760  -3.723  -5.905  0.00  0.00    -0.033 A 
ATOM      2  C1  UNL d   1      -3.867  -2.654  -5.999  0.00  0.00     0.039 A 
ATOM      3  C2  UNL d   1      -2.490  -2.890  -6.000  0.00  0.00    -0.080 A 
ATOM      4  C3  UNL d   1      -2.021  -4.197  -5.907  0.00  0.00     0.150 A 
ATOM      5  C4  UNL d   1      -2.906  -5.267  -5.817  0.00  0.00    -0.007 A 
ATOM      6  C5  UNL d   1      -4.279  -5.029  -5.815  0.00  0.00     0.039 A 
ENDROOT
BRANCH   4   7
ATOM      7  O   UNL d   1      -0.687  -4.477  -5.899  0.00  0.00    -0.526 OA
ATOM      8  H5  UNL d   1      -0.197  -3.638  -5.938  0.00  0.00     0.418 HD
ENDBRANCH   4   7
TORSDOF 1
ENDMDL
