MODEL 1
REMARK minimizedAffinity 2.42884922
REMARK minimizedRMSD -1
REMARK  1 active torsions:
REMARK  status: ('A' for Active; 'I' for Inactive)
REMARK    1  A    between atoms: C3_4  and  O_7 
ROOT
ATOM      1  C   UNL d   1      -0.424  -0.424  -0.260  0.00  0.00    -0.033 A 
ATOM      2  C1  UNL d   1      -0.823  -0.380   1.077  0.00  0.00     0.039 A 
ATOM      3  C2  UNL d   1      -0.358  -1.340   1.978  0.00  0.00    -0.080 A 
ATOM      4  C3  UNL d   1       0.505  -2.336   1.531  0.00  0.00     0.150 A 
ATOM      5  C4  UNL d   1       0.910  -2.384   0.201  0.00  0.00    -0.007 A 
ATOM      6  C5  UNL d   1       0.444  -1.425  -0.698  0.00  0.00     0.039 A 
ENDROOT
BRANCH   4   7
ATOM      7  O   UNL d   1       0.982  -3.297   2.372  0.00  0.00    -0.526 OA
ATOM      8  H5  UNL d   1       0.595  -3.154   3.252  0.00  0.00     0.418 HD
ENDBRANCH   4   7
TORSDOF 1
ENDMDL
