MODEL 1
REMARK minimizedAffinity 0.112727448
REMARK minimizedRMSD -1
REMARK  1 active torsions:
REMARK  status: ('A' for Active; 'I' for Inactive)
REMARK    1  A    between atoms: C3_4  and  O_7 
ROOT
ATOM      1  C   UNL d   1       1.487  -3.609   3.212  0.00  0.00    -0.033 A 
ATOM      2  C1  UNL d   1       0.833  -3.087   2.094  0.00  0.00     0.039 A 
ATOM      3  C2  UNL d   1      -0.272  -2.249   2.258  0.00  0.00    -0.080 A 
ATOM      4  C3  UNL d   1      -0.711  -1.941   3.542  0.00  0.00     0.150 A 
ATOM      5  C4  UNL d   1      -0.062  -2.454   4.660  0.00  0.00    -0.007 A 
ATOM      6  C5  UNL d   1       1.041  -3.291   4.495  0.00  0.00     0.039 A 
ENDROOT
BRANCH   4   7
ATOM      7  O   UNL d   1      -1.788  -1.132   3.752  0.00  0.00    -0.526 OA
ATOM      8  H5  UNL d   1      -2.153  -0.875   2.889  0.00  0.00     0.418 HD
ENDBRANCH   4   7
TORSDOF 1
ENDMDL
