MODEL 1
REMARK minimizedAffinity -1.25432837
REMARK minimizedRMSD -1
REMARK  0 active torsions:
REMARK  status: ('A' for Active; 'I' for Inactive)
ROOT
ATOM      1  C   UNL d   1       4.412   4.269  -1.299  0.00  0.00     0.078 C 
ATOM      2  C1  UNL d   1       3.680   3.503  -0.238  0.00  0.00    -0.077 A 
ATOM      3  C2  UNL d   1       3.210   2.207  -0.479  0.00  0.00    -0.001 A 
ATOM      4  C3  UNL d   1       2.522   1.509   0.515  0.00  0.00     0.003 A 
ATOM      5  C4  UNL d   1       2.296   2.101   1.757  0.00  0.00    -0.005 A 
ATOM      6  C5  UNL d   1       2.758   3.392   2.005  0.00  0.00     0.003 A 
ATOM      7  C6  UNL d   1       3.447   4.091   1.012  0.00  0.00    -0.001 A 
ENDROOT
TORSDOF 0
ENDMDL
