MODEL 1
REMARK minimizedAffinity -3.83957171
REMARK minimizedRMSD -1
REMARK  0 active torsions:
REMARK  status: ('A' for Active; 'I' for Inactive)
ROOT
ATOM      1  C   UNL d   1       0.373   0.664  -1.230  0.00  0.00     0.078 C 
ATOM      2  C1  UNL d   1      -0.525  -0.218  -0.414  0.00  0.00    -0.077 A 
ATOM      3  C2  UNL d   1      -0.058  -0.846   0.747  0.00  0.00    -0.001 A 
ATOM      4  C3  UNL d   1      -0.902  -1.671   1.492  0.00  0.00     0.003 A 
ATOM      5  C4  UNL d   1      -2.218  -1.877   1.083  0.00  0.00    -0.005 A 
ATOM      6  C5  UNL d   1      -2.691  -1.258  -0.072  0.00  0.00     0.003 A 
ATOM      7  C6  UNL d   1      -1.849  -0.432  -0.818  0.00  0.00    -0.001 A 
ENDROOT
TORSDOF 0
ENDMDL
