MODEL 1
REMARK minimizedAffinity -2.23371148
REMARK minimizedRMSD -1
REMARK  0 active torsions:
REMARK  status: ('A' for Active; 'I' for Inactive)
ROOT
ATOM      1  C   UNL d   1      -2.986  -0.792   0.880  0.00  0.00     0.078 C 
ATOM      2  C1  UNL d   1      -1.488  -0.753   0.913  0.00  0.00    -0.077 A 
ATOM      3  C2  UNL d   1      -0.766   0.038   0.010  0.00  0.00    -0.001 A 
ATOM      4  C3  UNL d   1       0.629   0.057   0.047  0.00  0.00     0.003 A 
ATOM      5  C4  UNL d   1       1.315  -0.714   0.983  0.00  0.00    -0.005 A 
ATOM      6  C5  UNL d   1       0.606  -1.505   1.885  0.00  0.00     0.003 A 
ATOM      7  C6  UNL d   1      -0.789  -1.525   1.850  0.00  0.00    -0.001 A 
ENDROOT
TORSDOF 0
ENDMDL
