MODEL 1
REMARK minimizedAffinity -2.63845754
REMARK minimizedRMSD -1
REMARK  0 active torsions:
REMARK  status: ('A' for Active; 'I' for Inactive)
ROOT
ATOM      1  C   UNL d   1       3.657   3.908  -0.797  0.00  0.00     0.078 C 
ATOM      2  C1  UNL d   1       2.891   3.149   0.245  0.00  0.00    -0.077 A 
ATOM      3  C2  UNL d   1       2.771   3.638   1.551  0.00  0.00    -0.001 A 
ATOM      4  C3  UNL d   1       2.063   2.916   2.513  0.00  0.00     0.003 A 
ATOM      5  C4  UNL d   1       1.472   1.699   2.180  0.00  0.00    -0.005 A 
ATOM      6  C5  UNL d   1       1.588   1.203   0.883  0.00  0.00     0.003 A 
ATOM      7  C6  UNL d   1       2.295   1.924  -0.081  0.00  0.00    -0.001 A 
ENDROOT
TORSDOF 0
ENDMDL
