MODEL 1
REMARK minimizedAffinity -0.290386021
REMARK minimizedRMSD -1
REMARK  0 active torsions:
REMARK  status: ('A' for Active; 'I' for Inactive)
ROOT
ATOM      1  C   UNL d   1       0.257  -0.098   0.668  0.00  0.00     0.078 C 
ATOM      2  C1  UNL d   1       1.312   0.927   0.959  0.00  0.00    -0.077 A 
ATOM      3  C2  UNL d   1       1.690   1.219   2.276  0.00  0.00    -0.001 A 
ATOM      4  C3  UNL d   1       2.667   2.183   2.533  0.00  0.00     0.003 A 
ATOM      5  C4  UNL d   1       3.273   2.862   1.478  0.00  0.00    -0.005 A 
ATOM      6  C5  UNL d   1       2.903   2.580   0.165  0.00  0.00     0.003 A 
ATOM      7  C6  UNL d   1       1.926   1.617  -0.094  0.00  0.00    -0.001 A 
ENDROOT
TORSDOF 0
ENDMDL
