MODEL 1
REMARK minimizedAffinity 0.290726632
REMARK minimizedRMSD -1
REMARK  0 active torsions:
REMARK  status: ('A' for Active; 'I' for Inactive)
ROOT
ATOM      1  C   UNL d   1      -2.673  -1.146  -0.155  0.00  0.00     0.078 C 
ATOM      2  C1  UNL d   1      -1.259  -0.876   0.268  0.00  0.00    -0.077 A 
ATOM      3  C2  UNL d   1      -0.442  -0.004  -0.463  0.00  0.00    -0.001 A 
ATOM      4  C3  UNL d   1       0.874   0.230  -0.063  0.00  0.00     0.003 A 
ATOM      5  C4  UNL d   1       1.386  -0.403   1.067  0.00  0.00    -0.005 A 
ATOM      6  C5  UNL d   1       0.581  -1.274   1.800  0.00  0.00     0.003 A 
ATOM      7  C6  UNL d   1      -0.736  -1.510   1.401  0.00  0.00    -0.001 A 
ENDROOT
TORSDOF 0
ENDMDL
