MODEL 1
REMARK minimizedAffinity -3.64770746
REMARK minimizedRMSD -1
REMARK  0 active torsions:
REMARK  status: ('A' for Active; 'I' for Inactive)
ROOT
ATOM      1  C   UNL d   1      -2.688  -0.445   0.147  0.00  0.00     0.078 C 
ATOM      2  C1  UNL d   1      -1.268  -0.815   0.455  0.00  0.00    -0.077 A 
ATOM      3  C2  UNL d   1      -0.200  -0.141  -0.151  0.00  0.00    -0.001 A 
ATOM      4  C3  UNL d   1       1.117  -0.502   0.138  0.00  0.00     0.003 A 
ATOM      5  C4  UNL d   1       1.379  -1.538   1.033  0.00  0.00    -0.005 A 
ATOM      6  C5  UNL d   1       0.323  -2.215   1.639  0.00  0.00     0.003 A 
ATOM      7  C6  UNL d   1      -0.995  -1.856   1.351  0.00  0.00    -0.001 A 
ENDROOT
TORSDOF 0
ENDMDL
