MODEL 1
REMARK minimizedAffinity -1.91666675
REMARK minimizedRMSD -1
REMARK  0 active torsions:
REMARK  status: ('A' for Active; 'I' for Inactive)
ROOT
ATOM      1  C   UNL d   1       0.387   0.504   0.008  0.00  0.00     0.078 C 
ATOM      2  C1  UNL d   1       1.238   1.628   0.518  0.00  0.00    -0.077 A 
ATOM      3  C2  UNL d   1       2.230   2.204  -0.286  0.00  0.00    -0.001 A 
ATOM      4  C3  UNL d   1       3.021   3.243   0.205  0.00  0.00     0.003 A 
ATOM      5  C4  UNL d   1       2.830   3.715   1.502  0.00  0.00    -0.005 A 
ATOM      6  C5  UNL d   1       1.848   3.147   2.310  0.00  0.00     0.003 A 
ATOM      7  C6  UNL d   1       1.055   2.108   1.821  0.00  0.00    -0.001 A 
ENDROOT
TORSDOF 0
ENDMDL
