MODEL 1
REMARK minimizedAffinity -4.57678652
REMARK minimizedRMSD -1
REMARK  0 active torsions:
REMARK  status: ('A' for Active; 'I' for Inactive)
ROOT
ATOM      1  C   UNL d   1       1.281  -0.248  -0.365  0.00  0.00     0.078 C 
ATOM      2  C1  UNL d   1      -0.216  -0.263  -0.273  0.00  0.00    -0.077 A 
ATOM      3  C2  UNL d   1      -0.862  -0.695   0.891  0.00  0.00    -0.001 A 
ATOM      4  C3  UNL d   1      -2.256  -0.713   0.959  0.00  0.00     0.003 A 
ATOM      5  C4  UNL d   1      -3.015  -0.301  -0.134  0.00  0.00    -0.005 A 
ATOM      6  C5  UNL d   1      -2.381   0.129  -1.298  0.00  0.00     0.003 A 
ATOM      7  C6  UNL d   1      -0.987   0.147  -1.368  0.00  0.00    -0.001 A 
ENDROOT
TORSDOF 0
ENDMDL
