MODEL 1
REMARK minimizedAffinity -4.49991083
REMARK minimizedRMSD -1
REMARK  0 active torsions:
REMARK  status: ('A' for Active; 'I' for Inactive)
ROOT
ATOM      1  C   UNL d   1       0.301   0.363  -1.738  0.00  0.00     0.078 C 
ATOM      2  C1  UNL d   1      -0.742  -0.153  -0.791  0.00  0.00    -0.077 A 
ATOM      3  C2  UNL d   1      -2.034  -0.456  -1.238  0.00  0.00    -0.001 A 
ATOM      4  C3  UNL d   1      -2.997  -0.926  -0.344  0.00  0.00     0.003 A 
ATOM      5  C4  UNL d   1      -2.679  -1.096   1.002  0.00  0.00    -0.005 A 
ATOM      6  C5  UNL d   1      -1.397  -0.795   1.456  0.00  0.00     0.003 A 
ATOM      7  C6  UNL d   1      -0.432  -0.325   0.564  0.00  0.00    -0.001 A 
ENDROOT
TORSDOF 0
ENDMDL
