MODEL 1
REMARK minimizedAffinity -4.22972918
REMARK minimizedRMSD -1
REMARK  0 active torsions:
REMARK  status: ('A' for Active; 'I' for Inactive)
ROOT
ATOM      1  C   UNL d   1       1.071   0.278   0.396  0.00  0.00     0.078 C 
ATOM      2  C1  UNL d   1      -0.345  -0.120   0.105  0.00  0.00    -0.077 A 
ATOM      3  C2  UNL d   1      -1.207  -0.520   1.133  0.00  0.00    -0.001 A 
ATOM      4  C3  UNL d   1      -2.520  -0.897   0.846  0.00  0.00     0.003 A 
ATOM      5  C4  UNL d   1      -2.982  -0.879  -0.468  0.00  0.00    -0.005 A 
ATOM      6  C5  UNL d   1      -2.131  -0.484  -1.498  0.00  0.00     0.003 A 
ATOM      7  C6  UNL d   1      -0.818  -0.106  -1.213  0.00  0.00    -0.001 A 
ENDROOT
TORSDOF 0
ENDMDL
