MODEL 1
REMARK minimizedAffinity -4.17317963
REMARK minimizedRMSD -1
REMARK  0 active torsions:
REMARK  status: ('A' for Active; 'I' for Inactive)
ROOT
ATOM      1  C   UNL d   1      -3.555  -0.975  -0.193  0.00  0.00     0.078 C 
ATOM      2  C1  UNL d   1      -2.087  -0.699  -0.059  0.00  0.00    -0.077 A 
ATOM      3  C2  UNL d   1      -1.343  -1.245   0.994  0.00  0.00    -0.001 A 
ATOM      4  C3  UNL d   1       0.020  -0.972   1.111  0.00  0.00     0.003 A 
ATOM      5  C4  UNL d   1       0.652  -0.151   0.179  0.00  0.00    -0.005 A 
ATOM      6  C5  UNL d   1      -0.080   0.399  -0.871  0.00  0.00     0.003 A 
ATOM      7  C6  UNL d   1      -1.444   0.127  -0.990  0.00  0.00    -0.001 A 
ENDROOT
TORSDOF 0
ENDMDL
