MODEL 1
REMARK minimizedAffinity -2.36569214
REMARK minimizedRMSD -1
REMARK  0 active torsions:
REMARK  status: ('A' for Active; 'I' for Inactive)
ROOT
ATOM      1  C   UNL d   1       3.639   3.524  -0.210  0.00  0.00     0.078 C 
ATOM      2  C1  UNL d   1       3.457   3.045   1.199  0.00  0.00    -0.077 A 
ATOM      3  C2  UNL d   1       2.904   3.878   2.179  0.00  0.00    -0.001 A 
ATOM      4  C3  UNL d   1       2.750   3.422   3.489  0.00  0.00     0.003 A 
ATOM      5  C4  UNL d   1       3.147   2.131   3.831  0.00  0.00    -0.005 A 
ATOM      6  C5  UNL d   1       3.700   1.295   2.864  0.00  0.00     0.003 A 
ATOM      7  C6  UNL d   1       3.855   1.749   1.553  0.00  0.00    -0.001 A 
ENDROOT
TORSDOF 0
ENDMDL
