MODEL 1
REMARK minimizedAffinity -2.93245029
REMARK minimizedRMSD -1
REMARK  0 active torsions:
REMARK  status: ('A' for Active; 'I' for Inactive)
ROOT
ATOM      1  C   UNL d   1       0.383  -1.803   1.550  0.00  0.00     0.078 C 
ATOM      2  C1  UNL d   1      -0.657  -1.296   0.597  0.00  0.00    -0.077 A 
ATOM      3  C2  UNL d   1      -1.872  -1.971   0.429  0.00  0.00    -0.001 A 
ATOM      4  C3  UNL d   1      -2.828  -1.493  -0.468  0.00  0.00     0.003 A 
ATOM      5  C4  UNL d   1      -2.578  -0.337  -1.207  0.00  0.00    -0.005 A 
ATOM      6  C5  UNL d   1      -1.371   0.340  -1.048  0.00  0.00     0.003 A 
ATOM      7  C6  UNL d   1      -0.414  -0.137  -0.151  0.00  0.00    -0.001 A 
ENDROOT
TORSDOF 0
ENDMDL
