MODEL 1
REMARK minimizedAffinity -2.22850466
REMARK minimizedRMSD -1
REMARK  1 active torsions:
REMARK  status: ('A' for Active; 'I' for Inactive)
REMARK    1  A    between atoms: N_2  and  C1_3 
ROOT
ATOM      1  C1  UNL d   1       0.557  -1.865  -0.926  0.00  0.00     0.143 A 
ATOM      2  C2  UNL d   1       0.953  -3.102  -0.408  0.00  0.00    -0.057 A 
ATOM      3  C3  UNL d   1       0.556  -4.302  -1.010  0.00  0.00     0.033 A 
ATOM      4  C4  UNL d   1      -0.271  -4.286  -2.128  0.00  0.00    -0.042 A 
ATOM      5  C5  UNL d   1      -0.698  -3.068  -2.646  0.00  0.00     0.033 A 
ATOM      6  C6  UNL d   1      -0.292  -1.873  -2.044  0.00  0.00    -0.057 A 
ENDROOT
BRANCH   1   7
ATOM      7  N   UNL d   1       0.838  -0.640  -0.316  0.00  0.00    -0.732 N 
ATOM      8  C   UNL d   1      -0.033  -0.112   0.713  0.00  0.00     0.284 C 
ATOM      9  H3  UNL d   1       1.830  -0.521  -0.122  0.00  0.00     0.395 HD
ENDBRANCH   1   7
TORSDOF 1
ENDMDL
