MODEL 1
REMARK minimizedAffinity -2.55311465
REMARK minimizedRMSD -1
REMARK  1 active torsions:
REMARK  status: ('A' for Active; 'I' for Inactive)
REMARK    1  A    between atoms: N_2  and  C1_3 
ROOT
ATOM      1  C1  UNL d   1       0.786  -1.480  -1.168  0.00  0.00     0.143 A 
ATOM      2  C2  UNL d   1       0.976  -2.817  -0.804  0.00  0.00    -0.057 A 
ATOM      3  C3  UNL d   1       0.682  -3.860  -1.690  0.00  0.00     0.033 A 
ATOM      4  C4  UNL d   1       0.163  -3.583  -2.951  0.00  0.00    -0.042 A 
ATOM      5  C5  UNL d   1      -0.057  -2.262  -3.326  0.00  0.00     0.033 A 
ATOM      6  C6  UNL d   1       0.245  -1.225  -2.438  0.00  0.00    -0.057 A 
ENDROOT
BRANCH   1   7
ATOM      7  N   UNL d   1       0.966  -0.403  -0.296  0.00  0.00    -0.732 N 
ATOM      8  C   UNL d   1       0.467  -0.462   1.061  0.00  0.00     0.284 C 
ATOM      9  H3  UNL d   1       1.890   0.016  -0.382  0.00  0.00     0.395 HD
ENDBRANCH   1   7
TORSDOF 1
ENDMDL
