MODEL 1
REMARK minimizedAffinity -1.80792892
REMARK minimizedRMSD -1
REMARK  1 active torsions:
REMARK  status: ('A' for Active; 'I' for Inactive)
REMARK    1  A    between atoms: N_2  and  C1_3 
ROOT
ATOM      1  C1  UNL d   1       0.456   1.067   0.197  0.00  0.00     0.143 A 
ATOM      2  C2  UNL d   1       1.146  -0.093   0.561  0.00  0.00    -0.057 A 
ATOM      3  C3  UNL d   1       0.805  -0.810   1.714  0.00  0.00     0.033 A 
ATOM      4  C4  UNL d   1      -0.218  -0.360   2.543  0.00  0.00    -0.042 A 
ATOM      5  C5  UNL d   1      -0.902   0.805   2.214  0.00  0.00     0.033 A 
ATOM      6  C6  UNL d   1      -0.561   1.512   1.057  0.00  0.00    -0.057 A 
ENDROOT
BRANCH   1   7
ATOM      7  N   UNL d   1       0.812   1.878  -0.884  0.00  0.00    -0.732 N 
ATOM      8  C   UNL d   1       0.572   3.304  -0.846  0.00  0.00     0.284 C 
ATOM      9  H3  UNL d   1       1.710   1.618  -1.285  0.00  0.00     0.395 HD
ENDBRANCH   1   7
TORSDOF 1
ENDMDL
