MODEL 1
REMARK minimizedAffinity -1.71820986
REMARK minimizedRMSD -1
REMARK  1 active torsions:
REMARK  status: ('A' for Active; 'I' for Inactive)
REMARK    1  A    between atoms: N_2  and  C1_3 
ROOT
ATOM      1  C1  UNL d   1       0.304  -1.162  -0.824  0.00  0.00     0.143 A 
ATOM      2  C2  UNL d   1       0.784  -2.379  -0.329  0.00  0.00    -0.057 A 
ATOM      3  C3  UNL d   1       0.924  -3.497  -1.161  0.00  0.00     0.033 A 
ATOM      4  C4  UNL d   1       0.559  -3.424  -2.501  0.00  0.00    -0.042 A 
ATOM      5  C5  UNL d   1       0.057  -2.231  -3.009  0.00  0.00     0.033 A 
ATOM      6  C6  UNL d   1      -0.075  -1.117  -2.175  0.00  0.00    -0.057 A 
ENDROOT
BRANCH   1   7
ATOM      7  N   UNL d   1       0.049  -0.044  -0.026  0.00  0.00    -0.732 N 
ATOM      8  C   UNL d   1      -0.644  -0.183   1.237  0.00  0.00     0.284 C 
ATOM      9  H3  UNL d   1       0.834   0.602  -0.000  0.00  0.00     0.395 HD
ENDBRANCH   1   7
TORSDOF 1
ENDMDL
