MODEL 1
REMARK minimizedAffinity -2.25580239
REMARK minimizedRMSD -1
REMARK  1 active torsions:
REMARK  status: ('A' for Active; 'I' for Inactive)
REMARK    1  A    between atoms: N_2  and  C1_3 
ROOT
ATOM      1  C1  UNL d   1       0.923  -0.821  -0.156  0.00  0.00     0.143 A 
ATOM      2  C2  UNL d   1       0.141   0.270  -0.552  0.00  0.00    -0.057 A 
ATOM      3  C3  UNL d   1      -0.622   0.991   0.374  0.00  0.00     0.033 A 
ATOM      4  C4  UNL d   1      -0.641   0.613   1.713  0.00  0.00    -0.042 A 
ATOM      5  C5  UNL d   1       0.108  -0.483   2.124  0.00  0.00     0.033 A 
ATOM      6  C6  UNL d   1       0.874  -1.195   1.196  0.00  0.00    -0.057 A 
ENDROOT
BRANCH   1   7
ATOM      7  N   UNL d   1       1.626  -1.637  -1.046  0.00  0.00    -0.732 N 
ATOM      8  C   UNL d   1       0.940  -2.314  -2.125  0.00  0.00     0.284 C 
ATOM      9  H3  UNL d   1       2.525  -1.241  -1.309  0.00  0.00     0.395 HD
ENDBRANCH   1   7
TORSDOF 1
ENDMDL
