MODEL 1
REMARK minimizedAffinity -2.19089341
REMARK minimizedRMSD -1
REMARK  1 active torsions:
REMARK  status: ('A' for Active; 'I' for Inactive)
REMARK    1  A    between atoms: N_2  and  C1_3 
ROOT
ATOM      1  C1  UNL d   1       0.746  -1.855  -1.419  0.00  0.00     0.143 A 
ATOM      2  C2  UNL d   1       0.680  -3.178  -0.969  0.00  0.00    -0.057 A 
ATOM      3  C3  UNL d   1       0.143  -4.192  -1.771  0.00  0.00     0.033 A 
ATOM      4  C4  UNL d   1      -0.367  -3.894  -3.031  0.00  0.00    -0.042 A 
ATOM      5  C5  UNL d   1      -0.335  -2.581  -3.488  0.00  0.00     0.033 A 
ATOM      6  C6  UNL d   1       0.209  -1.574  -2.685  0.00  0.00    -0.057 A 
ENDROOT
BRANCH   1   7
ATOM      7  N   UNL d   1       1.178  -0.786  -0.630  0.00  0.00    -0.732 N 
ATOM      8  C   UNL d   1       0.257  -0.099   0.250  0.00  0.00     0.284 C 
ATOM      9  H3  UNL d   1       2.097  -0.949  -0.225  0.00  0.00     0.395 HD
ENDBRANCH   1   7
TORSDOF 1
ENDMDL
