MODEL 1
REMARK minimizedAffinity -1.53402102
REMARK minimizedRMSD -1
REMARK  1 active torsions:
REMARK  status: ('A' for Active; 'I' for Inactive)
REMARK    1  A    between atoms: N_2  and  C1_3 
ROOT
ATOM      1  C1  UNL d   1       0.672  -1.426  -1.491  0.00  0.00     0.143 A 
ATOM      2  C2  UNL d   1       1.243  -2.561  -0.907  0.00  0.00    -0.057 A 
ATOM      3  C3  UNL d   1       1.235  -3.798  -1.564  0.00  0.00     0.033 A 
ATOM      4  C4  UNL d   1       0.627  -3.927  -2.809  0.00  0.00    -0.042 A 
ATOM      5  C5  UNL d   1       0.031  -2.817  -3.397  0.00  0.00     0.033 A 
ATOM      6  C6  UNL d   1       0.048  -1.584  -2.739  0.00  0.00    -0.057 A 
ENDROOT
BRANCH   1   7
ATOM      7  N   UNL d   1       0.561  -0.192  -0.846  0.00  0.00    -0.732 N 
ATOM      8  C   UNL d   1       0.082  -0.113   0.518  0.00  0.00     0.284 C 
ATOM      9  H3  UNL d   1       1.345   0.424  -1.047  0.00  0.00     0.395 HD
ENDBRANCH   1   7
TORSDOF 1
ENDMDL
