MODEL 1
REMARK minimizedAffinity -2.48957157
REMARK minimizedRMSD -1
REMARK  1 active torsions:
REMARK  status: ('A' for Active; 'I' for Inactive)
REMARK    1  A    between atoms: N_2  and  C1_3 
ROOT
ATOM      1  C1  UNL d   1       0.413  -1.063  -1.128  0.00  0.00     0.143 A 
ATOM      2  C2  UNL d   1       1.111  -2.210  -0.735  0.00  0.00    -0.057 A 
ATOM      3  C3  UNL d   1       1.291  -3.286  -1.613  0.00  0.00     0.033 A 
ATOM      4  C4  UNL d   1       0.749  -3.246  -2.893  0.00  0.00    -0.042 A 
ATOM      5  C5  UNL d   1       0.030  -2.126  -3.296  0.00  0.00     0.033 A 
ATOM      6  C6  UNL d   1      -0.141  -1.052  -2.418  0.00  0.00    -0.057 A 
ENDROOT
BRANCH   1   7
ATOM      7  N   UNL d   1       0.116  -0.002  -0.269  0.00  0.00    -0.732 N 
ATOM      8  C   UNL d   1      -0.324  -0.251   1.087  0.00  0.00     0.284 C 
ATOM      9  H3  UNL d   1       0.778   0.766  -0.357  0.00  0.00     0.395 HD
ENDBRANCH   1   7
TORSDOF 1
ENDMDL
