MODEL 1
REMARK minimizedAffinity -2.92710376
REMARK minimizedRMSD -1
REMARK  1 active torsions:
REMARK  status: ('A' for Active; 'I' for Inactive)
REMARK    1  A    between atoms: N_2  and  C1_3 
ROOT
ATOM      1  C1  UNL d   1       0.588  -0.934  -0.916  0.00  0.00     0.143 A 
ATOM      2  C2  UNL d   1       1.455  -1.979  -0.579  0.00  0.00    -0.057 A 
ATOM      3  C3  UNL d   1       1.582  -3.109  -1.397  0.00  0.00     0.033 A 
ATOM      4  C4  UNL d   1       0.821  -3.226  -2.555  0.00  0.00    -0.042 A 
ATOM      5  C5  UNL d   1      -0.065  -2.211  -2.896  0.00  0.00     0.033 A 
ATOM      6  C6  UNL d   1      -0.183  -1.082  -2.079  0.00  0.00    -0.057 A 
ENDROOT
BRANCH   1   7
ATOM      7  N   UNL d   1       0.344   0.169  -0.095  0.00  0.00    -0.732 N 
ATOM      8  C   UNL d   1      -0.307   0.004   1.187  0.00  0.00     0.284 C 
ATOM      9  H3  UNL d   1       1.121   0.826  -0.085  0.00  0.00     0.395 HD
ENDBRANCH   1   7
TORSDOF 1
ENDMDL
