MODEL 1
REMARK minimizedAffinity -3.02254534
REMARK minimizedRMSD -1
REMARK  1 active torsions:
REMARK  status: ('A' for Active; 'I' for Inactive)
REMARK    1  A    between atoms: N_2  and  C1_3 
ROOT
ATOM      1  C1  UNL d   1       1.108  -1.720  -1.713  0.00  0.00     0.143 A 
ATOM      2  C2  UNL d   1       1.043  -2.955  -1.058  0.00  0.00    -0.057 A 
ATOM      3  C3  UNL d   1       0.564  -4.098  -1.710  0.00  0.00     0.033 A 
ATOM      4  C4  UNL d   1       0.114  -4.019  -3.024  0.00  0.00    -0.042 A 
ATOM      5  C5  UNL d   1       0.147  -2.797  -3.686  0.00  0.00     0.033 A 
ATOM      6  C6  UNL d   1       0.632  -1.661  -3.032  0.00  0.00    -0.057 A 
ENDROOT
BRANCH   1   7
ATOM      7  N   UNL d   1       1.482  -0.527  -1.089  0.00  0.00    -0.732 N 
ATOM      8  C   UNL d   1       0.675   0.032  -0.025  0.00  0.00     0.284 C 
ATOM      9  H3  UNL d   1       2.484  -0.473  -0.923  0.00  0.00     0.395 HD
ENDBRANCH   1   7
TORSDOF 1
ENDMDL
