MODEL 1
REMARK minimizedAffinity -1.38751781
REMARK minimizedRMSD -1
REMARK  1 active torsions:
REMARK  status: ('A' for Active; 'I' for Inactive)
REMARK    1  A    between atoms: N_2  and  C1_3 
ROOT
ATOM      1  C1  UNL d   1       0.538  -0.373  -0.215  0.00  0.00     0.143 A 
ATOM      2  C2  UNL d   1       0.282  -1.058   0.977  0.00  0.00    -0.057 A 
ATOM      3  C3  UNL d   1      -0.385  -0.439   2.042  0.00  0.00     0.033 A 
ATOM      4  C4  UNL d   1      -0.782   0.890   1.943  0.00  0.00    -0.042 A 
ATOM      5  C5  UNL d   1      -0.515   1.598   0.776  0.00  0.00     0.033 A 
ATOM      6  C6  UNL d   1       0.144   0.973  -0.286  0.00  0.00    -0.057 A 
ENDROOT
BRANCH   1   7
ATOM      7  N   UNL d   1       1.283  -0.902  -1.272  0.00  0.00    -0.732 N 
ATOM      8  C   UNL d   1       1.211  -2.312  -1.590  0.00  0.00     0.284 C 
ATOM      9  H3  UNL d   1       1.290  -0.292  -2.086  0.00  0.00     0.395 HD
ENDBRANCH   1   7
TORSDOF 1
ENDMDL
