MODEL 1
REMARK minimizedAffinity -3.91811132
REMARK minimizedRMSD -1
REMARK  1 active torsions:
REMARK  status: ('A' for Active; 'I' for Inactive)
REMARK    1  A    between atoms: N_2  and  C1_3 
ROOT
ATOM      1  C1  UNL d   1       0.269  -1.116  -0.945  0.00  0.00     0.143 A 
ATOM      2  C2  UNL d   1       1.430  -1.873  -0.751  0.00  0.00    -0.057 A 
ATOM      3  C3  UNL d   1       1.674  -3.033  -1.497  0.00  0.00     0.033 A 
ATOM      4  C4  UNL d   1       0.744  -3.473  -2.432  0.00  0.00    -0.042 A 
ATOM      5  C5  UNL d   1      -0.429  -2.751  -2.624  0.00  0.00     0.033 A 
ATOM      6  C6  UNL d   1      -0.663  -1.590  -1.881  0.00  0.00    -0.057 A 
ENDROOT
BRANCH   1   7
ATOM      7  N   UNL d   1      -0.077  -0.009  -0.166  0.00  0.00    -0.732 N 
ATOM      8  C   UNL d   1      -0.243  -0.138   1.266  0.00  0.00     0.284 C 
ATOM      9  H3  UNL d   1       0.412   0.836  -0.453  0.00  0.00     0.395 HD
ENDBRANCH   1   7
TORSDOF 1
ENDMDL
