MODEL 1
REMARK minimizedAffinity -3.15842915
REMARK minimizedRMSD -1
REMARK  1 active torsions:
REMARK  status: ('A' for Active; 'I' for Inactive)
REMARK    1  A    between atoms: N_2  and  C1_3 
ROOT
ATOM      1  C1  UNL d   1      -0.454   0.771   0.224  0.00  0.00     0.143 A 
ATOM      2  C2  UNL d   1      -1.095   1.543   1.198  0.00  0.00    -0.057 A 
ATOM      3  C3  UNL d   1      -1.160   2.937   1.093  0.00  0.00     0.033 A 
ATOM      4  C4  UNL d   1      -0.558   3.589   0.022  0.00  0.00    -0.042 A 
ATOM      5  C5  UNL d   1       0.106   2.844  -0.946  0.00  0.00     0.033 A 
ATOM      6  C6  UNL d   1       0.162   1.451  -0.839  0.00  0.00    -0.057 A 
ENDROOT
BRANCH   1   7
ATOM      7  N   UNL d   1      -0.270  -0.611   0.322  0.00  0.00    -0.732 N 
ATOM      8  C   UNL d   1       0.755  -1.275  -0.454  0.00  0.00     0.284 C 
ATOM      9  H3  UNL d   1      -0.349  -0.946   1.280  0.00  0.00     0.395 HD
ENDBRANCH   1   7
TORSDOF 1
ENDMDL
