MODEL 1
REMARK minimizedAffinity -3.27235317
REMARK minimizedRMSD -1
REMARK  1 active torsions:
REMARK  status: ('A' for Active; 'I' for Inactive)
REMARK    1  A    between atoms: N_2  and  C1_3 
ROOT
ATOM      1  C1  UNL d   1       0.181  -0.106  -0.216  0.00  0.00     0.143 A 
ATOM      2  C2  UNL d   1      -0.494  -0.653   0.880  0.00  0.00    -0.057 A 
ATOM      3  C3  UNL d   1      -1.045   0.163   1.875  0.00  0.00     0.033 A 
ATOM      4  C4  UNL d   1      -0.904   1.545   1.807  0.00  0.00    -0.042 A 
ATOM      5  C5  UNL d   1      -0.215   2.110   0.740  0.00  0.00     0.033 A 
ATOM      6  C6  UNL d   1       0.327   1.290  -0.255  0.00  0.00    -0.057 A 
ENDROOT
BRANCH   1   7
ATOM      7  N   UNL d   1       0.836  -0.868  -1.187  0.00  0.00    -0.732 N 
ATOM      8  C   UNL d   1       0.212  -2.052  -1.738  0.00  0.00     0.284 C 
ATOM      9  H3  UNL d   1       1.315  -0.292  -1.875  0.00  0.00     0.395 HD
ENDBRANCH   1   7
TORSDOF 1
ENDMDL
