MODEL 1
REMARK minimizedAffinity -5.4564476
REMARK minimizedRMSD -1
REMARK  0 active torsions:
REMARK  status: ('A' for Active; 'I' for Inactive)
ROOT
ATOM      1  C1  DEN d   1      -0.806  -0.071   0.646  0.00  0.00     0.130 A 
ATOM      2  C2  DEN d   1      -0.365   1.100  -0.107  0.00  0.00    -0.031 A 
ATOM      3  C3  DEN d   1       0.522   0.636  -1.193  0.00  0.00     0.027 A 
ATOM      4  C4  DEN d   1       1.248  -1.768  -1.781  0.00  0.00     0.027 A 
ATOM      5  C5  DEN d   1       1.140  -3.093  -1.420  0.00  0.00    -0.003 A 
ATOM      6  C6  DEN d   1       0.410  -3.497  -0.334  0.00  0.00     0.001 A 
ATOM      7  C7  DEN d   1      -0.279  -2.570   0.403  0.00  0.00     0.017 A 
ATOM      8  C8  DEN d   1      -0.169  -1.232   0.050  0.00  0.00    -0.094 A 
ATOM      9  C9  DEN d   1       0.565  -0.845  -1.058  0.00  0.00    -0.072 A 
ENDROOT
TORSDOF 0
ENDMDL
