MODEL 1
REMARK minimizedAffinity -5.78097963
REMARK minimizedRMSD -1
REMARK  0 active torsions:
REMARK  status: ('A' for Active; 'I' for Inactive)
ROOT
ATOM      1  C1  DEN d   1       0.526   0.213  -1.288  0.00  0.00     0.130 A 
ATOM      2  C2  DEN d   1       0.349   0.896  -0.009  0.00  0.00    -0.031 A 
ATOM      3  C3  DEN d   1      -0.063  -0.109   0.991  0.00  0.00     0.027 A 
ATOM      4  C4  DEN d   1      -0.439  -2.642   0.687  0.00  0.00     0.027 A 
ATOM      5  C5  DEN d   1      -0.424  -3.678  -0.221  0.00  0.00    -0.003 A 
ATOM      6  C6  DEN d   1      -0.127  -3.486  -1.544  0.00  0.00     0.001 A 
ATOM      7  C7  DEN d   1       0.212  -2.235  -1.988  0.00  0.00     0.017 A 
ATOM      8  C8  DEN d   1       0.192  -1.184  -1.081  0.00  0.00    -0.094 A 
ATOM      9  C9  DEN d   1      -0.100  -1.401   0.255  0.00  0.00    -0.072 A 
ENDROOT
TORSDOF 0
ENDMDL
