MODEL 1
REMARK minimizedAffinity -5.26257324
REMARK minimizedRMSD -1
REMARK  0 active torsions:
REMARK  status: ('A' for Active; 'I' for Inactive)
ROOT
ATOM      1  C1  DEN d   1      -0.236   1.071   0.409  0.00  0.00     0.130 A 
ATOM      2  C2  DEN d   1      -0.065   1.550  -0.960  0.00  0.00    -0.031 A 
ATOM      3  C3  DEN d   1       0.195   0.380  -1.823  0.00  0.00     0.027 A 
ATOM      4  C4  DEN d   1       0.342  -2.113  -1.177  0.00  0.00     0.027 A 
ATOM      5  C5  DEN d   1       0.277  -3.007  -0.132  0.00  0.00    -0.003 A 
ATOM      6  C6  DEN d   1       0.072  -2.605   1.162  0.00  0.00     0.001 A 
ATOM      7  C7  DEN d   1      -0.121  -1.277   1.437  0.00  0.00     0.017 A 
ATOM      8  C8  DEN d   1      -0.049  -0.368   0.389  0.00  0.00    -0.094 A 
ATOM      9  C9  DEN d   1       0.147  -0.796  -0.913  0.00  0.00    -0.072 A 
ENDROOT
TORSDOF 0
ENDMDL
