MODEL 1
REMARK minimizedAffinity -5.71450329
REMARK minimizedRMSD -1
REMARK  0 active torsions:
REMARK  status: ('A' for Active; 'I' for Inactive)
ROOT
ATOM      1  C1  DEN d   1       0.250   0.012  -1.090  0.00  0.00     0.130 A 
ATOM      2  C2  DEN d   1       0.024   0.586   0.234  0.00  0.00    -0.031 A 
ATOM      3  C3  DEN d   1      -0.276  -0.520   1.166  0.00  0.00     0.027 A 
ATOM      4  C4  DEN d   1      -0.408  -3.052   0.691  0.00  0.00     0.027 A 
ATOM      5  C5  DEN d   1      -0.303  -4.017  -0.286  0.00  0.00    -0.003 A 
ATOM      6  C6  DEN d   1      -0.042  -3.708  -1.594  0.00  0.00     0.001 A 
ATOM      7  C7  DEN d   1       0.167  -2.403  -1.954  0.00  0.00     0.017 A 
ATOM      8  C8  DEN d   1       0.056  -1.422  -0.976  0.00  0.00    -0.094 A 
ATOM      9  C9  DEN d   1      -0.196  -1.757   0.343  0.00  0.00    -0.072 A 
ENDROOT
TORSDOF 0
ENDMDL
