MODEL 1
REMARK minimizedAffinity -2.96202683
REMARK minimizedRMSD -1
REMARK  0 active torsions:
REMARK  status: ('A' for Active; 'I' for Inactive)
ROOT
ATOM      1  C1  DEN d   1       1.070   0.064  -1.240  0.00  0.00     0.130 A 
ATOM      2  C2  DEN d   1       0.631   1.422  -0.934  0.00  0.00    -0.031 A 
ATOM      3  C3  DEN d   1      -0.372   1.345   0.148  0.00  0.00     0.027 A 
ATOM      4  C4  DEN d   1      -1.278  -0.736   1.374  0.00  0.00     0.027 A 
ATOM      5  C5  DEN d   1      -1.212  -2.109   1.453  0.00  0.00    -0.003 A 
ATOM      6  C6  DEN d   1      -0.414  -2.851   0.624  0.00  0.00     0.001 A 
ATOM      7  C7  DEN d   1       0.387  -2.220  -0.291  0.00  0.00     0.017 A 
ATOM      8  C8  DEN d   1       0.321  -0.836  -0.382  0.00  0.00    -0.094 A 
ATOM      9  C9  DEN d   1      -0.484  -0.102   0.474  0.00  0.00    -0.072 A 
ENDROOT
TORSDOF 0
ENDMDL
