MODEL 1
REMARK minimizedAffinity -3.47670388
REMARK minimizedRMSD -1
REMARK  0 active torsions:
REMARK  status: ('A' for Active; 'I' for Inactive)
ROOT
ATOM      1  C1  DEN d   1      -1.298  -2.087   1.130  0.00  0.00     0.130 A 
ATOM      2  C2  DEN d   1      -1.273  -3.334   0.371  0.00  0.00    -0.031 A 
ATOM      3  C3  DEN d   1      -0.683  -3.050  -0.953  0.00  0.00     0.027 A 
ATOM      4  C4  DEN d   1       0.193  -0.814  -1.894  0.00  0.00     0.027 A 
ATOM      5  C5  DEN d   1       0.370   0.525  -1.624  0.00  0.00    -0.003 A 
ATOM      6  C6  DEN d   1      -0.024   1.089  -0.440  0.00  0.00     0.001 A 
ATOM      7  C7  DEN d   1      -0.575   0.302   0.537  0.00  0.00     0.017 A 
ATOM      8  C8  DEN d   1      -0.764  -1.047   0.269  0.00  0.00    -0.094 A 
ATOM      9  C9  DEN d   1      -0.348  -1.601  -0.929  0.00  0.00    -0.072 A 
ENDROOT
TORSDOF 0
ENDMDL
