MODEL 1
REMARK minimizedAffinity -4.93709755
REMARK minimizedRMSD -1
REMARK  0 active torsions:
REMARK  status: ('A' for Active; 'I' for Inactive)
ROOT
ATOM      1  C1  DEN d   1       0.507   0.196  -0.454  0.00  0.00     0.130 A 
ATOM      2  C2  DEN d   1      -0.054   0.706   0.793  0.00  0.00    -0.031 A 
ATOM      3  C3  DEN d   1      -0.672  -0.425   1.513  0.00  0.00     0.027 A 
ATOM      4  C4  DEN d   1      -0.807  -2.907   0.824  0.00  0.00     0.027 A 
ATOM      5  C5  DEN d   1      -0.483  -3.819  -0.156  0.00  0.00    -0.003 A 
ATOM      6  C6  DEN d   1       0.158  -3.454  -1.310  0.00  0.00     0.001 A 
ATOM      7  C7  DEN d   1       0.537  -2.150  -1.493  0.00  0.00     0.017 A 
ATOM      8  C8  DEN d   1       0.207  -1.224  -0.513  0.00  0.00    -0.094 A 
ATOM      9  C9  DEN d   1      -0.431  -1.615   0.652  0.00  0.00    -0.072 A 
ENDROOT
TORSDOF 0
ENDMDL
