MODEL 1
REMARK minimizedAffinity -4.6967988
REMARK minimizedRMSD -1
REMARK  0 active torsions:
REMARK  status: ('A' for Active; 'I' for Inactive)
ROOT
ATOM      1  C1  DEN d   1      -0.646  -2.718  -1.380  0.00  0.00     0.130 A 
ATOM      2  C2  DEN d   1      -1.133  -3.245  -0.108  0.00  0.00    -0.031 A 
ATOM      3  C3  DEN d   1      -1.152  -2.137   0.868  0.00  0.00     0.027 A 
ATOM      4  C4  DEN d   1      -0.484   0.332   0.533  0.00  0.00     0.027 A 
ATOM      5  C5  DEN d   1       0.001   1.251  -0.371  0.00  0.00    -0.003 A 
ATOM      6  C6  DEN d   1       0.334   0.907  -1.654  0.00  0.00     0.001 A 
ATOM      7  C7  DEN d   1       0.143  -0.380  -2.083  0.00  0.00     0.017 A 
ATOM      8  C8  DEN d   1      -0.338  -1.314  -1.175  0.00  0.00    -0.094 A 
ATOM      9  C9  DEN d   1      -0.681  -0.944   0.114  0.00  0.00    -0.072 A 
ENDROOT
TORSDOF 0
ENDMDL
