MODEL 1
REMARK minimizedAffinity -6.5
REMARK minimizedRMSD -1
REMARK  0 active torsions:
REMARK  status: ('A' for Active; 'I' for Inactive)
ROOT
ATOM      1  C1  DEN d   1      -0.136  -0.009   0.648  0.00  0.00     0.130 A 
ATOM      2  C2  DEN d   1      -0.036   0.982  -0.419  0.00  0.00    -0.031 A 
ATOM      3  C3  DEN d   1       0.092   0.261  -1.701  0.00  0.00     0.027 A 
ATOM      4  C4  DEN d   1       0.142  -2.281  -2.136  0.00  0.00     0.027 A 
ATOM      5  C5  DEN d   1       0.100  -3.522  -1.541  0.00  0.00    -0.003 A 
ATOM      6  C6  DEN d   1       0.012  -3.679  -0.183  0.00  0.00     0.001 A 
ATOM      7  C7  DEN d   1      -0.083  -2.575   0.623  0.00  0.00     0.017 A 
ATOM      8  C8  DEN d   1      -0.035  -1.319   0.031  0.00  0.00    -0.094 A 
ATOM      9  C9  DEN d   1       0.042  -1.182  -1.345  0.00  0.00    -0.072 A 
ENDROOT
TORSDOF 0
ENDMDL
