MODEL 1
REMARK minimizedAffinity -2.2623136
REMARK minimizedRMSD -1
REMARK  0 active torsions:
REMARK  status: ('A' for Active; 'I' for Inactive)
ROOT
ATOM      1  C1  DEN d   1       0.161   0.574  -0.867  0.00  0.00     0.130 A 
ATOM      2  C2  DEN d   1      -0.427   0.988   0.404  0.00  0.00    -0.031 A 
ATOM      3  C3  DEN d   1      -0.876  -0.226   1.115  0.00  0.00     0.027 A 
ATOM      4  C4  DEN d   1      -0.716  -2.692   0.377  0.00  0.00     0.027 A 
ATOM      5  C5  DEN d   1      -0.306  -3.538  -0.630  0.00  0.00    -0.003 A 
ATOM      6  C6  DEN d   1       0.252  -3.074  -1.791  0.00  0.00     0.001 A 
ATOM      7  C7  DEN d   1       0.458  -1.730  -1.956  0.00  0.00     0.017 A 
ATOM      8  C8  DEN d   1       0.041  -0.870  -0.948  0.00  0.00    -0.094 A 
ATOM      9  C9  DEN d   1      -0.511  -1.359   0.224  0.00  0.00    -0.072 A 
ENDROOT
TORSDOF 0
ENDMDL
