MODEL 1
REMARK minimizedAffinity -6.2704258
REMARK minimizedRMSD -1
REMARK  0 active torsions:
REMARK  status: ('A' for Active; 'I' for Inactive)
ROOT
ATOM      1  C1  DEN d   1      -0.051  -3.543  -0.994  0.00  0.00     0.130 A 
ATOM      2  C2  DEN d   1       0.384  -3.176  -2.339  0.00  0.00    -0.031 A 
ATOM      3  C3  DEN d   1       0.474  -1.704  -2.405  0.00  0.00     0.027 A 
ATOM      4  C4  DEN d   1      -0.010   0.035  -0.562  0.00  0.00     0.027 A 
ATOM      5  C5  DEN d   1      -0.418   0.204   0.743  0.00  0.00    -0.003 A 
ATOM      6  C6  DEN d   1      -0.762  -0.854   1.543  0.00  0.00     0.001 A 
ATOM      7  C7  DEN d   1      -0.661  -2.131   1.060  0.00  0.00     0.017 A 
ATOM      8  C8  DEN d   1      -0.257  -2.309  -0.257  0.00  0.00    -0.094 A 
ATOM      9  C9  DEN d   1       0.098  -1.228  -1.046  0.00  0.00    -0.072 A 
ENDROOT
TORSDOF 0
ENDMDL
