MODEL 1
REMARK minimizedAffinity -6.62096643
REMARK minimizedRMSD -1
REMARK  0 active torsions:
REMARK  status: ('A' for Active; 'I' for Inactive)
ROOT
ATOM      1  C1  DEN d   1      -0.194   0.300  -0.927  0.00  0.00     0.130 A 
ATOM      2  C2  DEN d   1      -0.854   0.751   0.295  0.00  0.00    -0.031 A 
ATOM      3  C3  DEN d   1      -1.122  -0.435   1.133  0.00  0.00     0.027 A 
ATOM      4  C4  DEN d   1      -0.576  -2.911   0.662  0.00  0.00     0.027 A 
ATOM      5  C5  DEN d   1      -0.029  -3.786  -0.250  0.00  0.00    -0.003 A 
ATOM      6  C6  DEN d   1       0.466  -3.368  -1.457  0.00  0.00     0.001 A 
ATOM      7  C7  DEN d   1       0.466  -2.033  -1.765  0.00  0.00     0.017 A 
ATOM      8  C8  DEN d   1      -0.091  -1.146  -0.853  0.00  0.00    -0.094 A 
ATOM      9  C9  DEN d   1      -0.576  -1.587   0.366  0.00  0.00    -0.072 A 
ENDROOT
TORSDOF 0
ENDMDL
