MODEL 1
REMARK minimizedAffinity -6.26763773
REMARK minimizedRMSD -1
REMARK  0 active torsions:
REMARK  status: ('A' for Active; 'I' for Inactive)
ROOT
ATOM      1  C1  DEN d   1       0.371   0.504  -0.880  0.00  0.00     0.130 A 
ATOM      2  C2  DEN d   1      -0.303   1.006   0.314  0.00  0.00    -0.031 A 
ATOM      3  C3  DEN d   1      -0.753  -0.156   1.106  0.00  0.00     0.027 A 
ATOM      4  C4  DEN d   1      -0.470  -2.670   0.605  0.00  0.00     0.027 A 
ATOM      5  C5  DEN d   1       0.025  -3.586  -0.297  0.00  0.00    -0.003 A 
ATOM      6  C6  DEN d   1       0.634  -3.206  -1.464  0.00  0.00     0.001 A 
ATOM      7  C7  DEN d   1       0.806  -1.875  -1.738  0.00  0.00     0.017 A 
ATOM      8  C8  DEN d   1       0.303  -0.945  -0.837  0.00  0.00    -0.094 A 
ATOM      9  C9  DEN d   1      -0.300  -1.349   0.343  0.00  0.00    -0.072 A 
ENDROOT
TORSDOF 0
ENDMDL
