MODEL 1
REMARK minimizedAffinity -4.33136749
REMARK minimizedRMSD -1
REMARK  0 active torsions:
REMARK  status: ('A' for Active; 'I' for Inactive)
ROOT
ATOM      1  C1  DEN d   1       0.014   0.520  -0.360  0.00  0.00     0.130 A 
ATOM      2  C2  DEN d   1      -0.389   0.664   1.036  0.00  0.00    -0.031 A 
ATOM      3  C3  DEN d   1      -0.660  -0.685   1.574  0.00  0.00     0.027 A 
ATOM      4  C4  DEN d   1      -0.491  -2.969   0.388  0.00  0.00     0.027 A 
ATOM      5  C5  DEN d   1      -0.200  -3.597  -0.803  0.00  0.00    -0.003 A 
ATOM      6  C6  DEN d   1       0.147  -2.900  -1.930  0.00  0.00     0.001 A 
ATOM      7  C7  DEN d   1       0.256  -1.535  -1.878  0.00  0.00     0.017 A 
ATOM      8  C8  DEN d   1      -0.043  -0.895  -0.682  0.00  0.00    -0.094 A 
ATOM      9  C9  DEN d   1      -0.380  -1.618   0.449  0.00  0.00    -0.072 A 
ENDROOT
TORSDOF 0
ENDMDL
