MODEL 1
REMARK minimizedAffinity -0.589559138
REMARK minimizedRMSD -1
REMARK  0 active torsions:
REMARK  status: ('A' for Active; 'I' for Inactive)
ROOT
ATOM      1  C1  DEN d   1       1.278   0.724   0.516  0.00  0.00     0.130 A 
ATOM      2  C2  DEN d   1       0.364   1.653  -0.142  0.00  0.00    -0.031 A 
ATOM      3  C3  DEN d   1      -0.850   0.904  -0.526  0.00  0.00     0.027 A 
ATOM      4  C4  DEN d   1      -1.401  -1.589  -0.163  0.00  0.00     0.027 A 
ATOM      5  C5  DEN d   1      -0.929  -2.782   0.340  0.00  0.00    -0.003 A 
ATOM      6  C6  DEN d   1       0.316  -2.896   0.902  0.00  0.00     0.001 A 
ATOM      7  C7  DEN d   1       1.113  -1.788   1.015  0.00  0.00     0.017 A 
ATOM      8  C8  DEN d   1       0.647  -0.584   0.503  0.00  0.00    -0.094 A 
ATOM      9  C9  DEN d   1      -0.618  -0.486  -0.050  0.00  0.00    -0.072 A 
ENDROOT
TORSDOF 0
ENDMDL
