MODEL 1
REMARK minimizedAffinity 25.9712543
REMARK minimizedRMSD -1
REMARK  2 active torsions:
REMARK  status: ('A' for Active; 'I' for Inactive)
REMARK    1  A    between atoms: C2'_3  and  C1'_4 
REMARK    2  A    between atoms: C1'_4  and  C1_5 
ROOT
ATOM      1  C1  I4B d   1       3.546  -0.176  -5.228  0.00  0.00    -0.075 A 
ATOM      2  C2  I4B d   1       3.245   1.163  -5.210  0.00  0.00     0.003 A 
ATOM      3  C3  I4B d   1       4.215   2.117  -5.604  0.00  0.00     0.002 A 
ATOM      4  C4  I4B d   1       5.480   1.694  -5.957  0.00  0.00    -0.004 A 
ATOM      5  C5  I4B d   1       5.776   0.334  -5.996  0.00  0.00     0.002 A 
ATOM      6  C6  I4B d   1       4.800  -0.608  -5.641  0.00  0.00     0.003 A 
ENDROOT
BRANCH   1   7
ATOM      7  C1' I4B d   1       2.509  -1.154  -4.774  0.00  0.00     0.060 C 
BRANCH   7   8
ATOM      8  C2' I4B d   1       1.158  -0.651  -5.240  0.00  0.00    -0.013 C 
ATOM      9  C4' I4B d   1       0.412  -1.716  -5.999  0.00  0.00     0.013 C 
ATOM     10  C3' I4B d   1       0.388  -0.208  -4.032  0.00  0.00     0.013 C 
ENDBRANCH   7   8
ENDBRANCH   1   7
TORSDOF 2
ENDMDL
