MODEL 1
REMARK minimizedAffinity 16.27104
REMARK minimizedRMSD -1
REMARK  2 active torsions:
REMARK  status: ('A' for Active; 'I' for Inactive)
REMARK    1  A    between atoms: C2'_3  and  C1'_4 
REMARK    2  A    between atoms: C1'_4  and  C1_5 
ROOT
ATOM      1  C1  I4B d   1       0.462   1.340   3.365  0.00  0.00    -0.075 A 
ATOM      2  C2  I4B d   1       0.870   1.176   4.665  0.00  0.00     0.003 A 
ATOM      3  C3  I4B d   1       0.220   1.877   5.710  0.00  0.00     0.002 A 
ATOM      4  C4  I4B d   1      -0.793   2.763   5.407  0.00  0.00    -0.004 A 
ATOM      5  C5  I4B d   1      -1.221   2.910   4.090  0.00  0.00     0.002 A 
ATOM      6  C6  I4B d   1      -0.598   2.185   3.064  0.00  0.00     0.003 A 
ENDROOT
BRANCH   1   7
ATOM      7  C1' I4B d   1       1.192   0.609   2.283  0.00  0.00     0.060 C 
BRANCH   7   8
ATOM      8  C2' I4B d   1       0.695  -0.822   2.268  0.00  0.00    -0.013 C 
ATOM      9  C4' I4B d   1       0.884  -1.478   3.611  0.00  0.00     0.013 C 
ATOM     10  C3' I4B d   1      -0.751  -0.806   1.872  0.00  0.00     0.013 C 
ENDBRANCH   7   8
ENDBRANCH   1   7
TORSDOF 2
ENDMDL
