MODEL 1
REMARK minimizedAffinity 9.60161972
REMARK minimizedRMSD -1
REMARK  2 active torsions:
REMARK  status: ('A' for Active; 'I' for Inactive)
REMARK    1  A    between atoms: C2'_3  and  C1'_4 
REMARK    2  A    between atoms: C1'_4  and  C1_5 
ROOT
ATOM      1  C1  I4B d   1       4.549   3.366   2.144  0.00  0.00    -0.075 A 
ATOM      2  C2  I4B d   1       3.902   4.398   1.511  0.00  0.00     0.003 A 
ATOM      3  C3  I4B d   1       4.304   5.737   1.736  0.00  0.00     0.002 A 
ATOM      4  C4  I4B d   1       5.318   6.000   2.634  0.00  0.00    -0.004 A 
ATOM      5  C5  I4B d   1       5.988   4.951   3.258  0.00  0.00     0.002 A 
ATOM      6  C6  I4B d   1       5.609   3.625   3.002  0.00  0.00     0.003 A 
ENDROOT
BRANCH   1   7
ATOM      7  C1' I4B d   1       4.076   1.967   1.908  0.00  0.00     0.060 C 
BRANCH   7   8
ATOM      8  C2' I4B d   1       3.506   1.441   3.210  0.00  0.00    -0.013 C 
ATOM      9  C4' I4B d   1       2.620   0.246   2.974  0.00  0.00     0.013 C 
ATOM     10  C3' I4B d   1       4.653   1.096   4.112  0.00  0.00     0.013 C 
ENDBRANCH   7   8
ENDBRANCH   1   7
TORSDOF 2
ENDMDL
