MODEL 1
REMARK minimizedAffinity 12.8476105
REMARK minimizedRMSD -1
REMARK  2 active torsions:
REMARK  status: ('A' for Active; 'I' for Inactive)
REMARK    1  A    between atoms: C2'_3  and  C1'_4 
REMARK    2  A    between atoms: C1'_4  and  C1_5 
ROOT
ATOM      1  C1  I4B d   1       0.588   0.061   3.899  0.00  0.00    -0.075 A 
ATOM      2  C2  I4B d   1      -0.221   0.357   2.830  0.00  0.00     0.003 A 
ATOM      3  C3  I4B d   1      -0.828   1.632   2.727  0.00  0.00     0.002 A 
ATOM      4  C4  I4B d   1      -0.641   2.557   3.734  0.00  0.00    -0.004 A 
ATOM      5  C5  I4B d   1       0.197   2.263   4.805  0.00  0.00     0.002 A 
ATOM      6  C6  I4B d   1       0.825   1.012   4.883  0.00  0.00     0.003 A 
ENDROOT
BRANCH   1   7
ATOM      7  C1' I4B d   1       1.186  -1.307   3.993  0.00  0.00     0.060 C 
BRANCH   7   8
ATOM      8  C2' I4B d   1       1.467  -1.594   5.454  0.00  0.00    -0.013 C 
ATOM      9  C4' I4B d   1       0.548  -2.661   5.987  0.00  0.00     0.013 C 
ATOM     10  C3' I4B d   1       2.904  -2.005   5.577  0.00  0.00     0.013 C 
ENDBRANCH   7   8
ENDBRANCH   1   7
TORSDOF 2
ENDMDL
