MODEL 1
REMARK minimizedAffinity 14.808835
REMARK minimizedRMSD -1
REMARK  2 active torsions:
REMARK  status: ('A' for Active; 'I' for Inactive)
REMARK    1  A    between atoms: C2'_3  and  C1'_4 
REMARK    2  A    between atoms: C1'_4  and  C1_5 
ROOT
ATOM      1  C1  I4B d   1       0.352   1.087   3.340  0.00  0.00    -0.075 A 
ATOM      2  C2  I4B d   1       1.064   0.389   4.283  0.00  0.00     0.003 A 
ATOM      3  C3  I4B d   1       1.067   0.814   5.633  0.00  0.00     0.002 A 
ATOM      4  C4  I4B d   1       0.390   1.964   5.985  0.00  0.00    -0.004 A 
ATOM      5  C5  I4B d   1      -0.350   2.658   5.032  0.00  0.00     0.002 A 
ATOM      6  C6  I4B d   1      -0.379   2.210   3.703  0.00  0.00     0.003 A 
ENDROOT
BRANCH   1   7
ATOM      7  C1' I4B d   1       0.398   0.629   1.917  0.00  0.00     0.060 C 
BRANCH   7   8
ATOM      8  C2' I4B d   1      -0.102  -0.801   1.870  0.00  0.00    -0.013 C 
ATOM      9  C4' I4B d   1      -1.607  -0.851   1.849  0.00  0.00     0.013 C 
ATOM     10  C3' I4B d   1       0.479  -1.455   0.653  0.00  0.00     0.013 C 
ENDBRANCH   7   8
ENDBRANCH   1   7
TORSDOF 2
ENDMDL
