MODEL 1
REMARK minimizedAffinity 10.9176292
REMARK minimizedRMSD -1
REMARK  2 active torsions:
REMARK  status: ('A' for Active; 'I' for Inactive)
REMARK    1  A    between atoms: C2'_3  and  C1'_4 
REMARK    2  A    between atoms: C1'_4  and  C1_5 
ROOT
ATOM      1  C1  I4B d   1       0.512  -0.193   2.952  0.00  0.00    -0.075 A 
ATOM      2  C2  I4B d   1       1.217   0.676   3.747  0.00  0.00     0.003 A 
ATOM      3  C3  I4B d   1       1.939   0.192   4.865  0.00  0.00     0.002 A 
ATOM      4  C4  I4B d   1       1.887  -1.151   5.179  0.00  0.00    -0.004 A 
ATOM      5  C5  I4B d   1       1.190  -2.033   4.358  0.00  0.00     0.002 A 
ATOM      6  C6  I4B d   1       0.508  -1.553   3.231  0.00  0.00     0.003 A 
ENDROOT
BRANCH   1   7
ATOM      7  C1' I4B d   1      -0.267   0.356   1.798  0.00  0.00     0.060 C 
BRANCH   7   8
ATOM      8  C2' I4B d   1      -1.478   1.077   2.353  0.00  0.00    -0.013 C 
ATOM      9  C4' I4B d   1      -1.642   2.434   1.721  0.00  0.00     0.013 C 
ATOM     10  C3' I4B d   1      -2.681   0.217   2.109  0.00  0.00     0.013 C 
ENDBRANCH   7   8
ENDBRANCH   1   7
TORSDOF 2
ENDMDL
