MODEL 1
REMARK minimizedAffinity 13.6984463
REMARK minimizedRMSD -1
REMARK  2 active torsions:
REMARK  status: ('A' for Active; 'I' for Inactive)
REMARK    1  A    between atoms: C2'_3  and  C1'_4 
REMARK    2  A    between atoms: C1'_4  and  C1_5 
ROOT
ATOM      1  C1  I4B d   1      -0.271  -0.299   3.104  0.00  0.00    -0.075 A 
ATOM      2  C2  I4B d   1       0.556  -1.176   3.762  0.00  0.00     0.003 A 
ATOM      3  C3  I4B d   1       0.108  -2.483   4.070  0.00  0.00     0.002 A 
ATOM      4  C4  I4B d   1      -1.183  -2.852   3.749  0.00  0.00    -0.004 A 
ATOM      5  C5  I4B d   1      -2.012  -1.969   3.063  0.00  0.00     0.002 A 
ATOM      6  C6  I4B d   1      -1.549  -0.689   2.727  0.00  0.00     0.003 A 
ENDROOT
BRANCH   1   7
ATOM      7  C1' I4B d   1       0.223   1.085   2.824  0.00  0.00     0.060 C 
BRANCH   7   8
ATOM      8  C2' I4B d   1      -0.705   2.062   3.517  0.00  0.00    -0.013 C 
ATOM      9  C4' I4B d   1      -0.034   2.705   4.702  0.00  0.00     0.013 C 
ATOM     10  C3' I4B d   1      -1.130   3.090   2.512  0.00  0.00     0.013 C 
ENDBRANCH   7   8
ENDBRANCH   1   7
TORSDOF 2
ENDMDL
