MODEL 1
REMARK minimizedAffinity -4.77335119
REMARK minimizedRMSD -1
REMARK  1 active torsions:
REMARK  status: ('A' for Active; 'I' for Inactive)
REMARK    1  A    between atoms: C1_2  and  C2_3 
ROOT
ATOM      1  C2  UNL d   1       0.703  -0.021  -0.529  0.00  0.00    -0.073 A 
ATOM      2  C3  UNL d   1      -0.399  -0.721  -1.031  0.00  0.00    -0.002 A 
ATOM      3  C4  UNL d   1      -1.603  -0.742  -0.325  0.00  0.00     0.004 A 
ATOM      4  C5  UNL d   1      -1.719  -0.058   0.885  0.00  0.00    -0.004 A 
ATOM      5  C6  UNL d   1      -0.632   0.657   1.398  0.00  0.00    -0.075 A 
ATOM      6  C7  UNL d   1      -0.739   1.396   2.699  0.00  0.00     0.076 C 
ATOM      7  C8  UNL d   1       0.574   0.671   0.684  0.00  0.00     0.001 A 
ENDROOT
BRANCH   1   8
ATOM      8  C1  UNL d   1       2.003   0.010  -1.291  0.00  0.00     0.053 C 
ATOM      9  C   UNL d   1       1.813   0.489  -2.721  0.00  0.00     0.018 C 
ENDBRANCH   1   8
TORSDOF 1
ENDMDL
