MODEL 1
REMARK minimizedAffinity -4.71955347
REMARK minimizedRMSD -1
REMARK  1 active torsions:
REMARK  status: ('A' for Active; 'I' for Inactive)
REMARK    1  A    between atoms: C1_2  and  C2_3 
ROOT
ATOM      1  C2  UNL d   1      -0.196   0.208  -0.178  0.00  0.00    -0.073 A 
ATOM      2  C3  UNL d   1      -1.483  -0.338  -0.248  0.00  0.00    -0.002 A 
ATOM      3  C4  UNL d   1      -2.371  -0.188   0.817  0.00  0.00     0.004 A 
ATOM      4  C5  UNL d   1      -1.986   0.514   1.959  0.00  0.00    -0.004 A 
ATOM      5  C6  UNL d   1      -0.709   1.077   2.044  0.00  0.00    -0.075 A 
ATOM      6  C7  UNL d   1      -0.279   1.834   3.266  0.00  0.00     0.076 C 
ATOM      7  C8  UNL d   1       0.179   0.920   0.971  0.00  0.00     0.001 A 
ENDROOT
BRANCH   1   8
ATOM      8  C1  UNL d   1       0.765   0.055  -1.328  0.00  0.00     0.053 C 
ATOM      9  C   UNL d   1       0.053  -0.318  -2.619  0.00  0.00     0.018 C 
ENDBRANCH   1   8
TORSDOF 1
ENDMDL
