MODEL 1
REMARK minimizedAffinity -3.9467454
REMARK minimizedRMSD -1
REMARK  1 active torsions:
REMARK  status: ('A' for Active; 'I' for Inactive)
REMARK    1  A    between atoms: C1_2  and  C2_3 
ROOT
ATOM      1  C2  UNL d   1       0.575  -0.186  -0.354  0.00  0.00    -0.073 A 
ATOM      2  C3  UNL d   1       1.779  -0.798   0.013  0.00  0.00    -0.002 A 
ATOM      3  C4  UNL d   1       2.299  -0.618   1.296  0.00  0.00     0.004 A 
ATOM      4  C5  UNL d   1       1.619   0.170   2.224  0.00  0.00    -0.004 A 
ATOM      5  C6  UNL d   1       0.409   0.781   1.880  0.00  0.00    -0.075 A 
ATOM      6  C7  UNL d   1      -0.333   1.633   2.866  0.00  0.00     0.076 C 
ATOM      7  C8  UNL d   1      -0.105   0.597   0.589  0.00  0.00     0.001 A 
ENDROOT
BRANCH   1   8
ATOM      8  C1  UNL d   1       0.007  -0.383  -1.736  0.00  0.00     0.053 C 
ATOM      9  C   UNL d   1       0.917   0.185  -2.813  0.00  0.00     0.018 C 
ENDBRANCH   1   8
TORSDOF 1
ENDMDL
