MODEL 1
REMARK minimizedAffinity -3.05988097
REMARK minimizedRMSD -1
REMARK  1 active torsions:
REMARK  status: ('A' for Active; 'I' for Inactive)
REMARK    1  A    between atoms: C1_2  and  C2_3 
ROOT
ATOM      1  C2  UNL d   1       0.318  -0.002  -1.013  0.00  0.00    -0.073 A 
ATOM      2  C3  UNL d   1      -0.693  -0.939  -0.773  0.00  0.00    -0.002 A 
ATOM      3  C4  UNL d   1      -1.426  -0.897   0.414  0.00  0.00     0.004 A 
ATOM      4  C5  UNL d   1      -1.161   0.085   1.368  0.00  0.00    -0.004 A 
ATOM      5  C6  UNL d   1      -0.163   1.038   1.141  0.00  0.00    -0.075 A 
ATOM      6  C7  UNL d   1       0.136   2.100   2.158  0.00  0.00     0.076 C 
ATOM      7  C8  UNL d   1       0.570   0.988  -0.052  0.00  0.00     0.001 A 
ENDROOT
BRANCH   1   8
ATOM      8  C1  UNL d   1       1.107  -0.039  -2.296  0.00  0.00     0.053 C 
ATOM      9  C   UNL d   1       0.221  -0.306  -3.503  0.00  0.00     0.018 C 
ENDBRANCH   1   8
TORSDOF 1
ENDMDL
