MODEL 1
REMARK minimizedAffinity -4.43675327
REMARK minimizedRMSD -1
REMARK  0 active torsions:
REMARK  status: ('A' for Active; 'I' for Inactive)
ROOT
ATOM      1  C4' PXY d   1      -3.109   1.684   1.881  0.00  0.00     0.077 C 
ATOM      2  C1' PXY d   1      -5.971  -1.801  -1.735  0.00  0.00     0.077 C 
ATOM      3  C1  PXY d   1      -5.231  -0.886  -0.779  0.00  0.00    -0.082 A 
ATOM      4  C2  PXY d   1      -4.226  -0.149  -1.224  0.00  0.00     0.003 A 
ATOM      5  C3  PXY d   1      -3.526   0.659  -0.367  0.00  0.00     0.003 A 
ATOM      6  C4  PXY d   1      -3.891   0.754   0.950  0.00  0.00    -0.082 A 
ATOM      7  C5  PXY d   1      -4.921   0.013   1.409  0.00  0.00     0.003 A 
ATOM      8  C6  PXY d   1      -5.594  -0.832   0.531  0.00  0.00     0.003 A 
ENDROOT
TORSDOF 0
ENDMDL
