MODEL 1
REMARK minimizedAffinity -2.04024625
REMARK minimizedRMSD -1
REMARK  0 active torsions:
REMARK  status: ('A' for Active; 'I' for Inactive)
ROOT
ATOM      1  C4' PXY d   1      -1.556   0.085  -0.497  0.00  0.00     0.077 C 
ATOM      2  C1' PXY d   1       4.212   0.083  -0.126  0.00  0.00     0.077 C 
ATOM      3  C1  PXY d   1       2.700   0.072  -0.230  0.00  0.00    -0.082 A 
ATOM      4  C2  PXY d   1       2.033   1.214  -0.179  0.00  0.00     0.003 A 
ATOM      5  C3  PXY d   1       0.663   1.219  -0.239  0.00  0.00     0.003 A 
ATOM      6  C4  PXY d   1      -0.028   0.049  -0.406  0.00  0.00    -0.082 A 
ATOM      7  C5  PXY d   1       0.646  -1.119  -0.469  0.00  0.00     0.003 A 
ATOM      8  C6  PXY d   1       2.034  -1.107  -0.365  0.00  0.00     0.003 A 
ENDROOT
TORSDOF 0
ENDMDL
