MODEL 1
REMARK minimizedAffinity -3.45365214
REMARK minimizedRMSD -1
REMARK  0 active torsions:
REMARK  status: ('A' for Active; 'I' for Inactive)
ROOT
ATOM      1  C4' PXY d   1      -2.509   1.089  -0.319  0.00  0.00     0.077 C 
ATOM      2  C1' PXY d   1       2.682  -1.069   1.027  0.00  0.00     0.077 C 
ATOM      3  C1  PXY d   1       1.326  -0.491   0.674  0.00  0.00    -0.082 A 
ATOM      4  C2  PXY d   1       0.229  -1.164   0.980  0.00  0.00     0.003 A 
ATOM      5  C3  PXY d   1      -1.005  -0.671   0.639  0.00  0.00     0.003 A 
ATOM      6  C4  PXY d   1      -1.118   0.548   0.027  0.00  0.00    -0.082 A 
ATOM      7  C5  PXY d   1      -0.004   1.246  -0.279  0.00  0.00     0.003 A 
ATOM      8  C6  PXY d   1       1.240   0.709   0.039  0.00  0.00     0.003 A 
ENDROOT
TORSDOF 0
ENDMDL
