MODEL 1
REMARK minimizedAffinity -2.9126451
REMARK minimizedRMSD -1
REMARK  0 active torsions:
REMARK  status: ('A' for Active; 'I' for Inactive)
ROOT
ATOM      1  C4' PXY d   1       0.648  -2.622  -0.063  0.00  0.00     0.077 C 
ATOM      2  C1' PXY d   1       3.373   2.458  -0.482  0.00  0.00     0.077 C 
ATOM      3  C1  PXY d   1       2.648   1.132  -0.368  0.00  0.00    -0.082 A 
ATOM      4  C2  PXY d   1       3.345   0.014  -0.245  0.00  0.00     0.003 A 
ATOM      5  C3  PXY d   1       2.706  -1.197  -0.172  0.00  0.00     0.003 A 
ATOM      6  C4  PXY d   1       1.338  -1.260  -0.172  0.00  0.00    -0.082 A 
ATOM      7  C5  PXY d   1       0.620  -0.123  -0.287  0.00  0.00     0.003 A 
ATOM      8  C6  PXY d   1       1.288   1.093  -0.401  0.00  0.00     0.003 A 
ENDROOT
TORSDOF 0
ENDMDL
