MODEL 1
REMARK minimizedAffinity -2.73015881
REMARK minimizedRMSD -1
REMARK  0 active torsions:
REMARK  status: ('A' for Active; 'I' for Inactive)
ROOT
ATOM      1  C4' PXY d   1       3.292  -1.551   1.121  0.00  0.00     0.077 C 
ATOM      2  C1' PXY d   1      -1.529   0.862  -0.965  0.00  0.00     0.077 C 
ATOM      3  C1  PXY d   1      -0.267   0.218  -0.424  0.00  0.00    -0.082 A 
ATOM      4  C2  PXY d   1       0.292   0.696   0.676  0.00  0.00     0.003 A 
ATOM      5  C3  PXY d   1       1.450   0.146   1.161  0.00  0.00     0.003 A 
ATOM      6  C4  PXY d   1       2.013  -0.938   0.544  0.00  0.00    -0.082 A 
ATOM      7  C5  PXY d   1       1.443  -1.439  -0.573  0.00  0.00     0.003 A 
ATOM      8  C6  PXY d   1       0.290  -0.840  -1.072  0.00  0.00     0.003 A 
ENDROOT
TORSDOF 0
ENDMDL
