MODEL 1
REMARK minimizedAffinity -4.12075329
REMARK minimizedRMSD -1
REMARK  0 active torsions:
REMARK  status: ('A' for Active; 'I' for Inactive)
ROOT
ATOM      1  C4' PXY d   1       3.370  -1.626   0.936  0.00  0.00     0.077 C 
ATOM      2  C1' PXY d   1      -1.372   0.654  -1.457  0.00  0.00     0.077 C 
ATOM      3  C1  PXY d   1      -0.133   0.044  -0.831  0.00  0.00    -0.082 A 
ATOM      4  C2  PXY d   1       0.635   0.784  -0.047  0.00  0.00     0.003 A 
ATOM      5  C3  PXY d   1       1.776   0.257   0.502  0.00  0.00     0.003 A 
ATOM      6  C4  PXY d   1       2.105  -1.055   0.290  0.00  0.00    -0.082 A 
ATOM      7  C5  PXY d   1       1.320  -1.819  -0.499  0.00  0.00     0.003 A 
ATOM      8  C6  PXY d   1       0.189  -1.254  -1.081  0.00  0.00     0.003 A 
ENDROOT
TORSDOF 0
ENDMDL
