MODEL 1
REMARK minimizedAffinity -2.38039637
REMARK minimizedRMSD -1
REMARK  0 active torsions:
REMARK  status: ('A' for Active; 'I' for Inactive)
ROOT
ATOM      1  C4' PXY d   1      -2.032   0.982  -0.126  0.00  0.00     0.077 C 
ATOM      2  C1' PXY d   1       3.387  -1.027  -0.009  0.00  0.00     0.077 C 
ATOM      3  C1  PXY d   1       1.970  -0.489  -0.033  0.00  0.00    -0.082 A 
ATOM      4  C2  PXY d   1       0.953  -1.330  -0.136  0.00  0.00     0.003 A 
ATOM      5  C3  PXY d   1      -0.334  -0.858  -0.192  0.00  0.00     0.003 A 
ATOM      6  C4  PXY d   1      -0.585   0.484  -0.088  0.00  0.00    -0.082 A 
ATOM      7  C5  PXY d   1       0.447   1.347   0.028  0.00  0.00     0.003 A 
ATOM      8  C6  PXY d   1       1.747   0.851   0.041  0.00  0.00     0.003 A 
ENDROOT
TORSDOF 0
ENDMDL
