MODEL 1
REMARK minimizedAffinity 4.39177608
REMARK minimizedRMSD -1
REMARK  1 active torsions:
REMARK  status: ('A' for Active; 'I' for Inactive)
REMARK    1  A    between atoms: C1_2  and  C2_3 
ROOT
ATOM      1  C2  UNL d   1       5.243   4.185   0.590  0.00  0.00    -0.073 A 
ATOM      2  C3  UNL d   1       3.844   4.181   0.570  0.00  0.00    -0.002 A 
ATOM      3  C4  UNL d   1       3.147   3.025   0.218  0.00  0.00     0.004 A 
ATOM      4  C5  UNL d   1       3.840   1.860  -0.112  0.00  0.00    -0.004 A 
ATOM      5  C6  UNL d   1       5.238   1.841  -0.087  0.00  0.00    -0.075 A 
ATOM      6  C7  UNL d   1       5.999   0.597  -0.441  0.00  0.00     0.076 C 
ATOM      7  C8  UNL d   1       5.931   3.007   0.266  0.00  0.00     0.001 A 
ENDROOT
BRANCH   1   8
ATOM      8  C1  UNL d   1       6.000   5.429   0.976  0.00  0.00     0.053 C 
ATOM      9  C   UNL d   1       5.597   5.937   2.352  0.00  0.00     0.018 C 
ENDBRANCH   1   8
TORSDOF 1
ENDMDL
