MODEL 1
REMARK minimizedAffinity -3.27089691
REMARK minimizedRMSD -1
REMARK  1 active torsions:
REMARK  status: ('A' for Active; 'I' for Inactive)
REMARK    1  A    between atoms: C1_2  and  C2_3 
ROOT
ATOM      1  C2  UNL d   1       1.365  -0.481  -1.013  0.00  0.00    -0.073 A 
ATOM      2  C3  UNL d   1       0.305  -0.890  -0.196  0.00  0.00    -0.002 A 
ATOM      3  C4  UNL d   1      -0.605   0.044   0.299  0.00  0.00     0.004 A 
ATOM      4  C5  UNL d   1      -0.470   1.395  -0.022  0.00  0.00    -0.004 A 
ATOM      5  C6  UNL d   1       0.576   1.822  -0.846  0.00  0.00    -0.075 A 
ATOM      6  C7  UNL d   1       0.737   3.272  -1.199  0.00  0.00     0.076 C 
ATOM      7  C8  UNL d   1       1.488   0.878  -1.337  0.00  0.00     0.001 A 
ENDROOT
BRANCH   1   8
ATOM      8  C1  UNL d   1       2.347  -1.487  -1.555  0.00  0.00     0.053 C 
ATOM      9  C   UNL d   1       1.669  -2.531  -2.428  0.00  0.00     0.018 C 
ENDBRANCH   1   8
TORSDOF 1
ENDMDL
