MODEL 1
REMARK minimizedAffinity -5.16284752
REMARK minimizedRMSD -1
REMARK  1 active torsions:
REMARK  status: ('A' for Active; 'I' for Inactive)
REMARK    1  A    between atoms: C1_2  and  C2_3 
ROOT
ATOM      1  C2  UNL d   1      -0.080  -0.159   0.087  0.00  0.00    -0.073 A 
ATOM      2  C3  UNL d   1      -0.093  -1.529   0.372  0.00  0.00    -0.002 A 
ATOM      3  C4  UNL d   1       0.991  -2.333   0.018  0.00  0.00     0.004 A 
ATOM      4  C5  UNL d   1       2.100  -1.776  -0.617  0.00  0.00    -0.004 A 
ATOM      5  C6  UNL d   1       2.138  -0.407  -0.900  0.00  0.00    -0.075 A 
ATOM      6  C7  UNL d   1       3.323   0.208  -1.585  0.00  0.00     0.076 C 
ATOM      7  C8  UNL d   1       1.044   0.394  -0.544  0.00  0.00     0.001 A 
ENDROOT
BRANCH   1   8
ATOM      8  C1  UNL d   1      -1.245   0.715   0.473  0.00  0.00     0.053 C 
ATOM      9  C   UNL d   1      -1.310   0.948   1.974  0.00  0.00     0.018 C 
ENDBRANCH   1   8
TORSDOF 1
ENDMDL
