MODEL 1
REMARK minimizedAffinity -2.57426667
REMARK minimizedRMSD -1
REMARK  1 active torsions:
REMARK  status: ('A' for Active; 'I' for Inactive)
REMARK    1  A    between atoms: C1_2  and  C2_3 
ROOT
ATOM      1  C2  UNL d   1      -0.022  -0.035   0.003  0.00  0.00    -0.073 A 
ATOM      2  C3  UNL d   1      -0.444  -1.367  -0.072  0.00  0.00    -0.002 A 
ATOM      3  C4  UNL d   1       0.428  -2.358  -0.525  0.00  0.00     0.004 A 
ATOM      4  C5  UNL d   1       1.731  -2.030  -0.900  0.00  0.00    -0.004 A 
ATOM      5  C6  UNL d   1       2.175  -0.706  -0.820  0.00  0.00    -0.075 A 
ATOM      6  C7  UNL d   1       3.573  -0.336  -1.221  0.00  0.00     0.076 C 
ATOM      7  C8  UNL d   1       1.293   0.284  -0.367  0.00  0.00     0.001 A 
ENDROOT
BRANCH   1   8
ATOM      8  C1  UNL d   1      -0.957   1.038   0.498  0.00  0.00     0.053 C 
ATOM      9  C   UNL d   1      -1.482   0.737   1.893  0.00  0.00     0.018 C 
ENDBRANCH   1   8
TORSDOF 1
ENDMDL
