MODEL 1
REMARK minimizedAffinity -6.36842632
REMARK minimizedRMSD -1
REMARK  1 active torsions:
REMARK  status: ('A' for Active; 'I' for Inactive)
REMARK    1  A    between atoms: C1_2  and  C2_3 
ROOT
ATOM      1  C2  UNL d   1      -1.603   0.351   1.435  0.00  0.00    -0.073 A 
ATOM      2  C3  UNL d   1      -1.499   1.486   2.247  0.00  0.00    -0.002 A 
ATOM      3  C4  UNL d   1      -2.022   1.478   3.541  0.00  0.00     0.004 A 
ATOM      4  C5  UNL d   1      -2.645   0.334   4.039  0.00  0.00    -0.004 A 
ATOM      5  C6  UNL d   1      -2.748  -0.815   3.248  0.00  0.00    -0.075 A 
ATOM      6  C7  UNL d   1      -3.418  -2.053   3.768  0.00  0.00     0.076 C 
ATOM      7  C8  UNL d   1      -2.224  -0.798   1.948  0.00  0.00     0.001 A 
ENDROOT
BRANCH   1   8
ATOM      8  C1  UNL d   1      -1.035   0.353   0.040  0.00  0.00     0.053 C 
ATOM      9  C   UNL d   1      -0.293  -0.936  -0.276  0.00  0.00     0.018 C 
ENDBRANCH   1   8
TORSDOF 1
ENDMDL
