MODEL 1
REMARK minimizedAffinity -1.07969844
REMARK minimizedRMSD -1
REMARK  1 active torsions:
REMARK  status: ('A' for Active; 'I' for Inactive)
REMARK    1  A    between atoms: C1_2  and  C2_3 
ROOT
ATOM      1  C2  UNL d   1       0.348  -1.849  -0.056  0.00  0.00    -0.073 A 
ATOM      2  C3  UNL d   1      -0.317  -0.621   0.038  0.00  0.00    -0.002 A 
ATOM      3  C4  UNL d   1       0.363   0.570  -0.219  0.00  0.00     0.004 A 
ATOM      4  C5  UNL d   1       1.710   0.546  -0.579  0.00  0.00    -0.004 A 
ATOM      5  C6  UNL d   1       2.389  -0.672  -0.690  0.00  0.00    -0.075 A 
ATOM      6  C7  UNL d   1       3.838  -0.715  -1.074  0.00  0.00     0.076 C 
ATOM      7  C8  UNL d   1       1.700  -1.864  -0.428  0.00  0.00     0.001 A 
ENDROOT
BRANCH   1   8
ATOM      8  C1  UNL d   1      -0.384  -3.138   0.214  0.00  0.00     0.053 C 
ATOM      9  C   UNL d   1      -1.813  -3.103  -0.305  0.00  0.00     0.018 C 
ENDBRANCH   1   8
TORSDOF 1
ENDMDL
