MODEL 1
REMARK minimizedAffinity -4.4731698
REMARK minimizedRMSD -1
REMARK  1 active torsions:
REMARK  status: ('A' for Active; 'I' for Inactive)
REMARK    1  A    between atoms: C1_2  and  C2_3 
ROOT
ATOM      1  C2  UNL d   1       0.995  -0.762  -0.586  0.00  0.00    -0.073 A 
ATOM      2  C3  UNL d   1       2.052  -1.671  -0.463  0.00  0.00    -0.002 A 
ATOM      3  C4  UNL d   1       3.272  -1.424  -1.094  0.00  0.00     0.004 A 
ATOM      4  C5  UNL d   1       3.449  -0.263  -1.848  0.00  0.00    -0.004 A 
ATOM      5  C6  UNL d   1       2.409   0.663  -1.973  0.00  0.00    -0.075 A 
ATOM      6  C7  UNL d   1       2.583   1.914  -2.782  0.00  0.00     0.076 C 
ATOM      7  C8  UNL d   1       1.186   0.405  -1.339  0.00  0.00     0.001 A 
ENDROOT
BRANCH   1   8
ATOM      8  C1  UNL d   1      -0.322  -1.022   0.098  0.00  0.00     0.053 C 
ATOM      9  C   UNL d   1      -1.046   0.267   0.450  0.00  0.00     0.018 C 
ENDBRANCH   1   8
TORSDOF 1
ENDMDL
