MODEL 1
REMARK minimizedAffinity -5.62515783
REMARK minimizedRMSD -1
REMARK  1 active torsions:
REMARK  status: ('A' for Active; 'I' for Inactive)
REMARK    1  A    between atoms: C1_2  and  C2_3 
ROOT
ATOM      1  C2  UNL d   1       1.425   0.488  -1.055  0.00  0.00    -0.073 A 
ATOM      2  C3  UNL d   1       1.135   1.641  -1.794  0.00  0.00    -0.002 A 
ATOM      3  C4  UNL d   1      -0.104   2.270  -1.661  0.00  0.00     0.004 A 
ATOM      4  C5  UNL d   1      -1.061   1.758  -0.786  0.00  0.00    -0.004 A 
ATOM      5  C6  UNL d   1      -0.786   0.614  -0.030  0.00  0.00    -0.075 A 
ATOM      6  C7  UNL d   1      -1.805   0.050   0.915  0.00  0.00     0.076 C 
ATOM      7  C8  UNL d   1       0.459  -0.014  -0.170  0.00  0.00     0.001 A 
ENDROOT
BRANCH   1   8
ATOM      8  C1  UNL d   1       2.763  -0.191  -1.190  0.00  0.00     0.053 C 
ATOM      9  C   UNL d   1       2.938  -0.840  -2.554  0.00  0.00     0.018 C 
ENDBRANCH   1   8
TORSDOF 1
ENDMDL
