MODEL 1
REMARK minimizedAffinity 2.59465241
REMARK minimizedRMSD -1
REMARK  1 active torsions:
REMARK  status: ('A' for Active; 'I' for Inactive)
REMARK    1  A    between atoms: C1_2  and  C2_3 
ROOT
ATOM      1  C2  UNL d   1      -2.096  -0.213   1.725  0.00  0.00    -0.073 A 
ATOM      2  C3  UNL d   1      -1.936   1.027   2.355  0.00  0.00    -0.002 A 
ATOM      3  C4  UNL d   1      -2.451   1.238   3.635  0.00  0.00     0.004 A 
ATOM      4  C5  UNL d   1      -3.124   0.213   4.300  0.00  0.00    -0.004 A 
ATOM      5  C6  UNL d   1      -3.283  -1.036   3.691  0.00  0.00    -0.075 A 
ATOM      6  C7  UNL d   1      -4.006  -2.149   4.392  0.00  0.00     0.076 C 
ATOM      7  C8  UNL d   1      -2.766  -1.240   2.405  0.00  0.00     0.001 A 
ENDROOT
BRANCH   1   8
ATOM      8  C1  UNL d   1      -1.536  -0.448   0.346  0.00  0.00     0.053 C 
ATOM      9  C   UNL d   1      -0.648   0.698  -0.112  0.00  0.00     0.018 C 
ENDBRANCH   1   8
TORSDOF 1
ENDMDL
