MODEL 1
REMARK minimizedAffinity -4.46092749
REMARK minimizedRMSD -1
REMARK  1 active torsions:
REMARK  status: ('A' for Active; 'I' for Inactive)
REMARK    1  A    between atoms: C1_2  and  C2_3 
ROOT
ATOM      1  C2  UNL d   1       0.178  -1.845  -0.643  0.00  0.00    -0.073 A 
ATOM      2  C3  UNL d   1      -0.654  -0.739  -0.435  0.00  0.00    -0.002 A 
ATOM      3  C4  UNL d   1      -0.109   0.540  -0.313  0.00  0.00     0.004 A 
ATOM      4  C5  UNL d   1       1.270   0.727  -0.406  0.00  0.00    -0.004 A 
ATOM      5  C6  UNL d   1       2.117  -0.364  -0.626  0.00  0.00    -0.075 A 
ATOM      6  C7  UNL d   1       3.603  -0.179  -0.725  0.00  0.00     0.076 C 
ATOM      7  C8  UNL d   1       1.563  -1.645  -0.744  0.00  0.00     0.001 A 
ENDROOT
BRANCH   1   8
ATOM      8  C1  UNL d   1      -0.406  -3.227  -0.782  0.00  0.00     0.053 C 
ATOM      9  C   UNL d   1       0.432  -4.274  -0.066  0.00  0.00     0.018 C 
ENDBRANCH   1   8
TORSDOF 1
ENDMDL
