MODEL 1
REMARK minimizedAffinity -4.55385971
REMARK minimizedRMSD -1
REMARK  1 active torsions:
REMARK  status: ('A' for Active; 'I' for Inactive)
REMARK    1  A    between atoms: C1_2  and  C2_3 
ROOT
ATOM      1  C2  UNL d   1      -0.329   0.127   0.306  0.00  0.00    -0.073 A 
ATOM      2  C3  UNL d   1      -0.748  -1.198   0.139  0.00  0.00    -0.002 A 
ATOM      3  C4  UNL d   1      -0.003  -2.078  -0.648  0.00  0.00     0.004 A 
ATOM      4  C5  UNL d   1       1.169  -1.645  -1.268  0.00  0.00    -0.004 A 
ATOM      5  C6  UNL d   1       1.610  -0.329  -1.103  0.00  0.00    -0.075 A 
ATOM      6  C7  UNL d   1       2.867   0.153  -1.765  0.00  0.00     0.076 C 
ATOM      7  C8  UNL d   1       0.855   0.550  -0.313  0.00  0.00     0.001 A 
ENDROOT
BRANCH   1   8
ATOM      8  C1  UNL d   1      -1.126   1.079   1.160  0.00  0.00     0.053 C 
ATOM      9  C   UNL d   1      -2.146   0.354   2.023  0.00  0.00     0.018 C 
ENDBRANCH   1   8
TORSDOF 1
ENDMDL
