MODEL 1
REMARK minimizedAffinity 23.5084724
REMARK minimizedRMSD -1
REMARK  0 active torsions:
REMARK  status: ('A' for Active; 'I' for Inactive)
ROOT
ATOM      1  C   UNL d   1      -1.987  -0.945  -0.076  0.00  0.00     0.124 A 
ATOM      2  C1  UNL d   1      -1.074  -1.719  -0.778  0.00  0.00     0.062 A 
ATOM      3  C2  UNL d   1      -0.098  -1.111  -1.562  0.00  0.00     0.162 A 
ATOM      4  C3  UNL d   1      -0.028   0.279  -1.646  0.00  0.00    -0.034 A 
ATOM      5  C4  UNL d   1      -0.949   1.051  -0.937  0.00  0.00     0.162 A 
ATOM      6  C5  UNL d   1      -1.924   0.439  -0.156  0.00  0.00     0.062 A 
ATOM      7  F   UNL d   1      -2.805   1.189   0.523  0.00  0.00    -0.097 F 
ATOM      8  F1  UNL d   1      -0.911   2.391  -0.996  0.00  0.00    -0.096 F 
ATOM      9  I   UNL d   1       1.431   1.192  -2.817  0.00  0.00    -0.060 I 
ATOM     10  F2  UNL d   1       0.771  -1.884  -2.231  0.00  0.00    -0.096 F 
ATOM     11  F3  UNL d   1      -1.134  -3.056  -0.704  0.00  0.00    -0.097 F 
ATOM     12  F4  UNL d   1      -2.926  -1.532   0.677  0.00  0.00    -0.092 F 
ENDROOT
TORSDOF 0
ENDMDL
