MODEL 1
REMARK minimizedAffinity 6.56144047
REMARK minimizedRMSD -1
REMARK  0 active torsions:
REMARK  status: ('A' for Active; 'I' for Inactive)
ROOT
ATOM      1  C   UNL d   1      -0.798  -1.696  -1.463  0.00  0.00     0.124 A 
ATOM      2  C1  UNL d   1      -0.122  -0.850  -0.595  0.00  0.00     0.062 A 
ATOM      3  C2  UNL d   1      -0.716  -0.452   0.599  0.00  0.00     0.162 A 
ATOM      4  C3  UNL d   1      -1.994  -0.901   0.933  0.00  0.00    -0.034 A 
ATOM      5  C4  UNL d   1      -2.668  -1.751   0.054  0.00  0.00     0.162 A 
ATOM      6  C5  UNL d   1      -2.069  -2.146  -1.138  0.00  0.00     0.062 A 
ATOM      7  F   UNL d   1      -2.724  -2.963  -1.976  0.00  0.00    -0.097 F 
ATOM      8  F1  UNL d   1      -3.897  -2.201   0.344  0.00  0.00    -0.096 F 
ATOM      9  I   UNL d   1      -2.886  -0.309   2.718  0.00  0.00    -0.060 I 
ATOM     10  F2  UNL d   1      -0.040   0.366   1.419  0.00  0.00    -0.096 F 
ATOM     11  F3  UNL d   1       1.107  -0.413  -0.908  0.00  0.00    -0.097 F 
ATOM     12  F4  UNL d   1      -0.224  -2.076  -2.612  0.00  0.00    -0.092 F 
ENDROOT
TORSDOF 0
ENDMDL
