MODEL 1
REMARK minimizedAffinity 22.5501461
REMARK minimizedRMSD -1
REMARK  0 active torsions:
REMARK  status: ('A' for Active; 'I' for Inactive)
ROOT
ATOM      1  C   UNL d   1      -0.938  -1.687  -1.413  0.00  0.00     0.124 A 
ATOM      2  C1  UNL d   1      -0.280  -0.828  -0.544  0.00  0.00     0.062 A 
ATOM      3  C2  UNL d   1      -0.930  -0.346   0.589  0.00  0.00     0.162 A 
ATOM      4  C3  UNL d   1      -2.245  -0.723   0.859  0.00  0.00    -0.034 A 
ATOM      5  C4  UNL d   1      -2.901  -1.586  -0.020  0.00  0.00     0.162 A 
ATOM      6  C5  UNL d   1      -2.247  -2.065  -1.151  0.00  0.00     0.062 A 
ATOM      7  F   UNL d   1      -2.884  -2.895  -1.990  0.00  0.00    -0.097 F 
ATOM      8  F1  UNL d   1      -4.165  -1.969   0.210  0.00  0.00    -0.096 F 
ATOM      9  I   UNL d   1      -3.220  -0.004   2.552  0.00  0.00    -0.060 I 
ATOM     10  F2  UNL d   1      -0.270   0.483   1.412  0.00  0.00    -0.096 F 
ATOM     11  F3  UNL d   1       0.984  -0.460  -0.796  0.00  0.00    -0.097 F 
ATOM     12  F4  UNL d   1      -0.311  -2.148  -2.503  0.00  0.00    -0.092 F 
ENDROOT
TORSDOF 0
ENDMDL
