MODEL 1
REMARK minimizedAffinity 16.1924477
REMARK minimizedRMSD -1
REMARK  0 active torsions:
REMARK  status: ('A' for Active; 'I' for Inactive)
ROOT
ATOM      1  C   UNL d   1      -1.796  -2.335  -1.447  0.00  0.00     0.124 A 
ATOM      2  C1  UNL d   1      -2.497  -1.782  -0.384  0.00  0.00     0.062 A 
ATOM      3  C2  UNL d   1      -1.925  -0.772   0.383  0.00  0.00     0.162 A 
ATOM      4  C3  UNL d   1      -0.643  -0.306   0.089  0.00  0.00    -0.034 A 
ATOM      5  C4  UNL d   1       0.056  -0.867  -0.980  0.00  0.00     0.162 A 
ATOM      6  C5  UNL d   1      -0.520  -1.876  -1.744  0.00  0.00     0.062 A 
ATOM      7  F   UNL d   1       0.159  -2.409  -2.770  0.00  0.00    -0.097 F 
ATOM      8  F1  UNL d   1       1.290  -0.442  -1.290  0.00  0.00    -0.096 F 
ATOM      9  I   UNL d   1       0.216   1.205   1.234  0.00  0.00    -0.060 I 
ATOM     10  F2  UNL d   1      -2.626  -0.256   1.404  0.00  0.00    -0.096 F 
ATOM     11  F3  UNL d   1      -3.730  -2.224  -0.094  0.00  0.00    -0.097 F 
ATOM     12  F4  UNL d   1      -2.349  -3.308  -2.182  0.00  0.00    -0.092 F 
ENDROOT
TORSDOF 0
ENDMDL
