MODEL 1
REMARK minimizedAffinity 20.8736439
REMARK minimizedRMSD -1
REMARK  0 active torsions:
REMARK  status: ('A' for Active; 'I' for Inactive)
ROOT
ATOM      1  C   UNL d   1      -1.625  -0.032  -0.399  0.00  0.00     0.124 A 
ATOM      2  C1  UNL d   1      -1.588  -1.415  -0.510  0.00  0.00     0.062 A 
ATOM      3  C2  UNL d   1      -0.386  -2.064  -0.779  0.00  0.00     0.162 A 
ATOM      4  C3  UNL d   1       0.789  -1.331  -0.937  0.00  0.00    -0.034 A 
ATOM      5  C4  UNL d   1       0.744   0.060  -0.825  0.00  0.00     0.162 A 
ATOM      6  C5  UNL d   1      -0.459   0.704  -0.557  0.00  0.00     0.062 A 
ATOM      7  F   UNL d   1      -0.493   2.040  -0.450  0.00  0.00    -0.097 F 
ATOM      8  F1  UNL d   1       1.856   0.796  -0.972  0.00  0.00    -0.096 F 
ATOM      9  I   UNL d   1       2.588  -2.297  -1.340  0.00  0.00    -0.060 I 
ATOM     10  F2  UNL d   1      -0.380  -3.402  -0.880  0.00  0.00    -0.096 F 
ATOM     11  F3  UNL d   1      -2.713  -2.129  -0.359  0.00  0.00    -0.097 F 
ATOM     12  F4  UNL d   1      -2.783   0.589  -0.141  0.00  0.00    -0.092 F 
ENDROOT
TORSDOF 0
ENDMDL
