MODEL 1
REMARK minimizedAffinity 10.9756441
REMARK minimizedRMSD -1
REMARK  0 active torsions:
REMARK  status: ('A' for Active; 'I' for Inactive)
ROOT
ATOM      1  C   UNL d   1      -2.911  -1.577   0.194  0.00  0.00     0.124 A 
ATOM      2  C1  UNL d   1      -3.825  -2.375  -0.481  0.00  0.00     0.062 A 
ATOM      3  C2  UNL d   1      -3.482  -2.954  -1.699  0.00  0.00     0.162 A 
ATOM      4  C3  UNL d   1      -2.219  -2.739  -2.250  0.00  0.00    -0.034 A 
ATOM      5  C4  UNL d   1      -1.306  -1.934  -1.566  0.00  0.00     0.162 A 
ATOM      6  C5  UNL d   1      -1.653  -1.358  -0.348  0.00  0.00     0.062 A 
ATOM      7  F   UNL d   1      -0.770  -0.587   0.302  0.00  0.00    -0.097 F 
ATOM      8  F1  UNL d   1      -0.083  -1.706  -2.067  0.00  0.00    -0.096 F 
ATOM      9  I   UNL d   1      -1.702  -3.603  -4.072  0.00  0.00    -0.060 I 
ATOM     10  F2  UNL d   1      -4.384  -3.720  -2.330  0.00  0.00    -0.096 F 
ATOM     11  F3  UNL d   1      -5.041  -2.588   0.041  0.00  0.00    -0.097 F 
ATOM     12  F4  UNL d   1      -3.244  -1.020   1.366  0.00  0.00    -0.092 F 
ENDROOT
TORSDOF 0
ENDMDL
