MODEL 1
REMARK minimizedAffinity 12.7159481
REMARK minimizedRMSD -1
REMARK  0 active torsions:
REMARK  status: ('A' for Active; 'I' for Inactive)
ROOT
ATOM      1  C   UNL d   1      -2.206  -1.673   0.026  0.00  0.00     0.124 A 
ATOM      2  C1  UNL d   1      -0.963  -1.673  -0.592  0.00  0.00     0.062 A 
ATOM      3  C2  UNL d   1      -0.782  -2.342  -1.799  0.00  0.00     0.162 A 
ATOM      4  C3  UNL d   1      -1.847  -3.017  -2.397  0.00  0.00    -0.034 A 
ATOM      5  C4  UNL d   1      -3.094  -3.013  -1.768  0.00  0.00     0.162 A 
ATOM      6  C5  UNL d   1      -3.269  -2.343  -0.562  0.00  0.00     0.062 A 
ATOM      7  F   UNL d   1      -4.471  -2.344   0.034  0.00  0.00    -0.097 F 
ATOM      8  F1  UNL d   1      -4.139  -3.652  -2.315  0.00  0.00    -0.096 F 
ATOM      9  I   UNL d   1      -1.580  -4.019  -4.201  0.00  0.00    -0.060 I 
ATOM     10  F2  UNL d   1       0.429  -2.325  -2.375  0.00  0.00    -0.096 F 
ATOM     11  F3  UNL d   1       0.066  -1.027  -0.026  0.00  0.00    -0.097 F 
ATOM     12  F4  UNL d   1      -2.377  -1.029   1.188  0.00  0.00    -0.092 F 
ENDROOT
TORSDOF 0
ENDMDL
