MODEL 1
REMARK minimizedAffinity 9.59034157
REMARK minimizedRMSD -1
REMARK  0 active torsions:
REMARK  status: ('A' for Active; 'I' for Inactive)
ROOT
ATOM      1  C   UNL d   1       3.120  -2.627  -1.091  0.00  0.00     0.124 A 
ATOM      2  C1  UNL d   1       4.167  -3.535  -1.013  0.00  0.00     0.062 A 
ATOM      3  C2  UNL d   1       4.991  -3.749  -2.114  0.00  0.00     0.162 A 
ATOM      4  C3  UNL d   1       4.771  -3.055  -3.304  0.00  0.00    -0.034 A 
ATOM      5  C4  UNL d   1       3.715  -2.144  -3.375  0.00  0.00     0.162 A 
ATOM      6  C5  UNL d   1       2.895  -1.933  -2.271  0.00  0.00     0.062 A 
ATOM      7  F   UNL d   1       1.883  -1.056  -2.348  0.00  0.00    -0.097 F 
ATOM      8  F1  UNL d   1       3.475  -1.459  -4.503  0.00  0.00    -0.096 F 
ATOM      9  I   UNL d   1       6.000  -3.373  -4.953  0.00  0.00    -0.060 I 
ATOM     10  F2  UNL d   1       5.995  -4.632  -2.011  0.00  0.00    -0.096 F 
ATOM     11  F3  UNL d   1       4.386  -4.207   0.126  0.00  0.00    -0.097 F 
ATOM     12  F4  UNL d   1       2.328  -2.423  -0.030  0.00  0.00    -0.092 F 
ENDROOT
TORSDOF 0
ENDMDL
