MODEL 1
REMARK minimizedAffinity 20.3707943
REMARK minimizedRMSD -1
REMARK  0 active torsions:
REMARK  status: ('A' for Active; 'I' for Inactive)
ROOT
ATOM      1  C   UNL d   1      -1.941  -2.300  -1.453  0.00  0.00     0.124 A 
ATOM      2  C1  UNL d   1      -2.417  -1.885  -0.217  0.00  0.00     0.062 A 
ATOM      3  C2  UNL d   1      -1.786  -0.848   0.464  0.00  0.00     0.162 A 
ATOM      4  C3  UNL d   1      -0.672  -0.218  -0.090  0.00  0.00    -0.034 A 
ATOM      5  C4  UNL d   1      -0.198  -0.641  -1.333  0.00  0.00     0.162 A 
ATOM      6  C5  UNL d   1      -0.832  -1.678  -2.010  0.00  0.00     0.062 A 
ATOM      7  F   UNL d   1      -0.371  -2.077  -3.204  0.00  0.00    -0.097 F 
ATOM      8  F1  UNL d   1       0.871  -0.057  -1.894  0.00  0.00    -0.096 F 
ATOM      9  I   UNL d   1       0.275   1.333   0.925  0.00  0.00    -0.060 I 
ATOM     10  F2  UNL d   1      -2.268  -0.468   1.657  0.00  0.00    -0.096 F 
ATOM     11  F3  UNL d   1      -3.487  -2.485   0.324  0.00  0.00    -0.097 F 
ATOM     12  F4  UNL d   1      -2.549  -3.299  -2.106  0.00  0.00    -0.092 F 
ENDROOT
TORSDOF 0
ENDMDL
