MODEL 1
REMARK minimizedAffinity 19.5443077
REMARK minimizedRMSD -1
REMARK  0 active torsions:
REMARK  status: ('A' for Active; 'I' for Inactive)
ROOT
ATOM      1  C   UNL d   1      -4.813   0.521   3.504  0.00  0.00     0.124 A 
ATOM      2  C1  UNL d   1      -4.726   1.033   2.216  0.00  0.00     0.062 A 
ATOM      3  C2  UNL d   1      -3.611   0.762   1.429  0.00  0.00     0.162 A 
ATOM      4  C3  UNL d   1      -2.573  -0.026   1.926  0.00  0.00    -0.034 A 
ATOM      5  C4  UNL d   1      -2.667  -0.537   3.222  0.00  0.00     0.162 A 
ATOM      6  C5  UNL d   1      -3.784  -0.263   4.005  0.00  0.00     0.062 A 
ATOM      7  F   UNL d   1      -3.865  -0.759   5.248  0.00  0.00    -0.097 F 
ATOM      8  F1  UNL d   1      -1.687  -1.298   3.731  0.00  0.00    -0.096 F 
ATOM      9  I   UNL d   1      -0.904  -0.433   0.751  0.00  0.00    -0.060 I 
ATOM     10  F2  UNL d   1      -3.554   1.270   0.189  0.00  0.00    -0.096 F 
ATOM     11  F3  UNL d   1      -5.719   1.792   1.730  0.00  0.00    -0.097 F 
ATOM     12  F4  UNL d   1      -5.887   0.784   4.259  0.00  0.00    -0.092 F 
ENDROOT
TORSDOF 0
ENDMDL
