MODEL 1
REMARK minimizedAffinity 7.63807392
REMARK minimizedRMSD -1
REMARK  0 active torsions:
REMARK  status: ('A' for Active; 'I' for Inactive)
ROOT
ATOM      1  C   UNL d   1      -2.498  -2.060   0.012  0.00  0.00     0.124 A 
ATOM      2  C1  UNL d   1      -1.661  -1.294   0.810  0.00  0.00     0.062 A 
ATOM      3  C2  UNL d   1      -0.449  -0.828   0.309  0.00  0.00     0.162 A 
ATOM      4  C3  UNL d   1      -0.067  -1.126  -0.999  0.00  0.00    -0.034 A 
ATOM      5  C4  UNL d   1      -0.914  -1.898  -1.796  0.00  0.00     0.162 A 
ATOM      6  C5  UNL d   1      -2.125  -2.361  -1.290  0.00  0.00     0.062 A 
ATOM      7  F   UNL d   1      -2.932  -3.102  -2.063  0.00  0.00    -0.097 F 
ATOM      8  F1  UNL d   1      -0.578  -2.203  -3.058  0.00  0.00    -0.096 F 
ATOM      9  I   UNL d   1       1.744  -0.431  -1.753  0.00  0.00    -0.060 I 
ATOM     10  F2  UNL d   1       0.340  -0.089   1.103  0.00  0.00    -0.096 F 
ATOM     11  F3  UNL d   1      -2.019  -1.002   2.069  0.00  0.00    -0.097 F 
ATOM     12  F4  UNL d   1      -3.663  -2.508   0.497  0.00  0.00    -0.092 F 
ENDROOT
TORSDOF 0
ENDMDL
