MODEL 1
REMARK minimizedAffinity 15.7062826
REMARK minimizedRMSD -1
REMARK  0 active torsions:
REMARK  status: ('A' for Active; 'I' for Inactive)
ROOT
ATOM      1  C   UNL d   1      -0.712  -1.094  -0.530  0.00  0.00     0.124 A 
ATOM      2  C1  UNL d   1      -0.486  -0.279   0.571  0.00  0.00     0.062 A 
ATOM      3  C2  UNL d   1       0.383   0.803   0.475  0.00  0.00     0.162 A 
ATOM      4  C3  UNL d   1       1.033   1.079  -0.728  0.00  0.00    -0.034 A 
ATOM      5  C4  UNL d   1       0.802   0.255  -1.831  0.00  0.00     0.162 A 
ATOM      6  C5  UNL d   1      -0.068  -0.826  -1.730  0.00  0.00     0.062 A 
ATOM      7  F   UNL d   1      -0.284  -1.611  -2.795  0.00  0.00    -0.097 F 
ATOM      8  F1  UNL d   1       1.411   0.492  -3.003  0.00  0.00    -0.096 F 
ATOM      9  I   UNL d   1       2.334   2.697  -0.876  0.00  0.00    -0.060 I 
ATOM     10  F2  UNL d   1       0.582   1.573   1.555  0.00  0.00    -0.096 F 
ATOM     11  F3  UNL d   1      -1.107  -0.537   1.732  0.00  0.00    -0.097 F 
ATOM     12  F4  UNL d   1      -1.548  -2.135  -0.434  0.00  0.00    -0.092 F 
ENDROOT
TORSDOF 0
ENDMDL
