MODEL 1
REMARK minimizedAffinity 13.7019415
REMARK minimizedRMSD -1
REMARK  0 active torsions:
REMARK  status: ('A' for Active; 'I' for Inactive)
ROOT
ATOM      1  C   UNL d   1      -2.414  -2.754  -1.964  0.00  0.00     0.124 A 
ATOM      2  C1  UNL d   1      -3.631  -2.984  -1.337  0.00  0.00     0.062 A 
ATOM      3  C2  UNL d   1      -3.891  -2.429  -0.088  0.00  0.00     0.162 A 
ATOM      4  C3  UNL d   1      -2.932  -1.636   0.543  0.00  0.00    -0.034 A 
ATOM      5  C4  UNL d   1      -1.710  -1.410  -0.093  0.00  0.00     0.162 A 
ATOM      6  C5  UNL d   1      -1.455  -1.968  -1.342  0.00  0.00     0.062 A 
ATOM      7  F   UNL d   1      -0.279  -1.744  -1.946  0.00  0.00    -0.097 F 
ATOM      8  F1  UNL d   1      -0.766  -0.653   0.486  0.00  0.00    -0.096 F 
ATOM      9  I   UNL d   1      -3.316  -0.804   2.412  0.00  0.00    -0.060 I 
ATOM     10  F2  UNL d   1      -5.075  -2.668   0.495  0.00  0.00    -0.096 F 
ATOM     11  F3  UNL d   1      -4.559  -3.745  -1.936  0.00  0.00    -0.097 F 
ATOM     12  F4  UNL d   1      -2.167  -3.291  -3.166  0.00  0.00    -0.092 F 
ENDROOT
TORSDOF 0
ENDMDL
