MODEL 1
REMARK minimizedAffinity 8.0486784
REMARK minimizedRMSD -1
REMARK  0 active torsions:
REMARK  status: ('A' for Active; 'I' for Inactive)
ROOT
ATOM      1  C   UNL d   1      -4.742   0.279   4.665  0.00  0.00     0.124 A 
ATOM      2  C1  UNL d   1      -3.714  -0.636   4.845  0.00  0.00     0.062 A 
ATOM      3  C2  UNL d   1      -2.723  -0.774   3.879  0.00  0.00     0.162 A 
ATOM      4  C3  UNL d   1      -2.753   0.005   2.722  0.00  0.00    -0.034 A 
ATOM      5  C4  UNL d   1      -3.791   0.923   2.547  0.00  0.00     0.162 A 
ATOM      6  C5  UNL d   1      -4.779   1.057   3.516  0.00  0.00     0.062 A 
ATOM      7  F   UNL d   1      -5.772   1.942   3.340  0.00  0.00    -0.097 F 
ATOM      8  F1  UNL d   1      -3.851   1.688   1.447  0.00  0.00    -0.096 F 
ATOM      9  I   UNL d   1      -1.272  -0.199   1.274  0.00  0.00    -0.060 I 
ATOM     10  F2  UNL d   1      -1.741  -1.666   4.080  0.00  0.00    -0.096 F 
ATOM     11  F3  UNL d   1      -3.677  -1.389   5.954  0.00  0.00    -0.097 F 
ATOM     12  F4  UNL d   1      -5.696   0.410   5.596  0.00  0.00    -0.092 F 
ENDROOT
TORSDOF 0
ENDMDL
