MODEL 1
REMARK minimizedAffinity 3.91508222
REMARK minimizedRMSD -1
REMARK  0 active torsions:
REMARK  status: ('A' for Active; 'I' for Inactive)
ROOT
ATOM      1  C   UNL d   1       2.496   3.637   0.885  0.00  0.00     0.124 A 
ATOM      2  C1  UNL d   1       2.914   2.541   0.141  0.00  0.00     0.062 A 
ATOM      3  C2  UNL d   1       2.000   1.563  -0.239  0.00  0.00     0.162 A 
ATOM      4  C3  UNL d   1       0.657   1.676   0.123  0.00  0.00    -0.034 A 
ATOM      5  C4  UNL d   1       0.245   2.779   0.872  0.00  0.00     0.162 A 
ATOM      6  C5  UNL d   1       1.162   3.754   1.249  0.00  0.00     0.062 A 
ATOM      7  F   UNL d   1       0.756   4.812   1.967  0.00  0.00    -0.097 F 
ATOM      8  F1  UNL d   1      -1.038   2.919   1.237  0.00  0.00    -0.096 F 
ATOM      9  I   UNL d   1      -0.713   0.215  -0.443  0.00  0.00    -0.060 I 
ATOM     10  F2  UNL d   1       2.432   0.516  -0.957  0.00  0.00    -0.096 F 
ATOM     11  F3  UNL d   1       4.202   2.425  -0.211  0.00  0.00    -0.097 F 
ATOM     12  F4  UNL d   1       3.378   4.576   1.250  0.00  0.00    -0.092 F 
ENDROOT
TORSDOF 0
ENDMDL
