MODEL 1
REMARK minimizedAffinity 0.927041113
REMARK minimizedRMSD -1
REMARK  0 active torsions:
REMARK  status: ('A' for Active; 'I' for Inactive)
ROOT
ATOM      1  C   UNL d   1      -0.523  -2.279   0.893  0.00  0.00     0.124 A 
ATOM      2  C1  UNL d   1      -0.034  -2.482  -0.389  0.00  0.00     0.062 A 
ATOM      3  C2  UNL d   1       0.061  -1.416  -1.279  0.00  0.00     0.162 A 
ATOM      4  C3  UNL d   1      -0.335  -0.136  -0.889  0.00  0.00    -0.034 A 
ATOM      5  C4  UNL d   1      -0.828   0.060   0.402  0.00  0.00     0.162 A 
ATOM      6  C5  UNL d   1      -0.920  -1.009   1.288  0.00  0.00     0.062 A 
ATOM      7  F   UNL d   1      -1.394  -0.811   2.527  0.00  0.00    -0.097 F 
ATOM      8  F1  UNL d   1      -1.217   1.277   0.810  0.00  0.00    -0.096 F 
ATOM      9  I   UNL d   1      -0.195   1.461  -2.217  0.00  0.00    -0.060 I 
ATOM     10  F2  UNL d   1       0.538  -1.641  -2.513  0.00  0.00    -0.096 F 
ATOM     11  F3  UNL d   1       0.349  -3.708  -0.773  0.00  0.00    -0.097 F 
ATOM     12  F4  UNL d   1      -0.614  -3.307   1.747  0.00  0.00    -0.092 F 
ENDROOT
TORSDOF 0
ENDMDL
