MODEL 1
REMARK minimizedAffinity 0.465046644
REMARK minimizedRMSD -1
REMARK  0 active torsions:
REMARK  status: ('A' for Active; 'I' for Inactive)
ROOT
ATOM      1  C1  DEN d   1      -0.250  -1.959  -2.334  0.00  0.00     0.130 A 
ATOM      2  C2  DEN d   1       0.234  -3.213  -1.763  0.00  0.00    -0.031 A 
ATOM      3  C3  DEN d   1       0.721  -2.935  -0.397  0.00  0.00     0.027 A 
ATOM      4  C4  DEN d   1       0.769  -0.696   0.884  0.00  0.00     0.027 A 
ATOM      5  C5  DEN d   1       0.476   0.647   0.807  0.00  0.00    -0.003 A 
ATOM      6  C6  DEN d   1      -0.043   1.218  -0.325  0.00  0.00     0.001 A 
ATOM      7  C7  DEN d   1      -0.328   0.433  -1.411  0.00  0.00     0.017 A 
ATOM      8  C8  DEN d   1      -0.029  -0.921  -1.344  0.00  0.00    -0.094 A 
ATOM      9  C9  DEN d   1       0.484  -1.481  -0.186  0.00  0.00    -0.072 A 
ENDROOT
TORSDOF 0
ENDMDL
