MODEL 1
REMARK minimizedAffinity -2.8162725
REMARK minimizedRMSD -1
REMARK  0 active torsions:
REMARK  status: ('A' for Active; 'I' for Inactive)
ROOT
ATOM      1  C1  DEN d   1      -0.990   2.518   0.286  0.00  0.00     0.130 A 
ATOM      2  C2  DEN d   1      -0.767   3.007   1.644  0.00  0.00    -0.031 A 
ATOM      3  C3  DEN d   1      -0.133   1.924   2.422  0.00  0.00     0.027 A 
ATOM      4  C4  DEN d   1       0.525  -0.451   1.658  0.00  0.00     0.027 A 
ATOM      5  C5  DEN d   1       0.523  -1.330   0.598  0.00  0.00    -0.003 A 
ATOM      6  C6  DEN d   1      -0.010  -1.003  -0.621  0.00  0.00     0.001 A 
ATOM      7  C7  DEN d   1      -0.523   0.252  -0.823  0.00  0.00     0.017 A 
ATOM      8  C8  DEN d   1      -0.531   1.141   0.244  0.00  0.00    -0.094 A 
ATOM      9  C9  DEN d   1       0.024   0.796   1.464  0.00  0.00    -0.072 A 
ENDROOT
TORSDOF 0
ENDMDL
