MODEL 1
REMARK minimizedAffinity -7.51957703
REMARK minimizedRMSD -1
REMARK  0 active torsions:
REMARK  status: ('A' for Active; 'I' for Inactive)
ROOT
ATOM      1  C1  DEN d   1      -1.368   3.008  -0.245  0.00  0.00     0.130 A 
ATOM      2  C2  DEN d   1      -1.589   3.371   1.152  0.00  0.00    -0.031 A 
ATOM      3  C3  DEN d   1      -1.061   2.279   1.996  0.00  0.00     0.027 A 
ATOM      4  C4  DEN d   1       0.074   0.078   1.278  0.00  0.00     0.027 A 
ATOM      5  C5  DEN d   1       0.473  -0.680   0.198  0.00  0.00    -0.003 A 
ATOM      6  C6  DEN d   1       0.258  -0.280  -1.094  0.00  0.00     0.001 A 
ATOM      7  C7  DEN d   1      -0.334   0.931  -1.340  0.00  0.00     0.017 A 
ATOM      8  C8  DEN d   1      -0.746   1.697  -0.257  0.00  0.00    -0.094 A 
ATOM      9  C9  DEN d   1      -0.507   1.281   1.042  0.00  0.00    -0.072 A 
ENDROOT
TORSDOF 0
ENDMDL
