MODEL 1
REMARK minimizedAffinity -6.2362175
REMARK minimizedRMSD -1
REMARK  0 active torsions:
REMARK  status: ('A' for Active; 'I' for Inactive)
ROOT
ATOM      1  C1  DEN d   1       0.369  -0.384  -0.852  0.00  0.00     0.130 A 
ATOM      2  C2  DEN d   1       0.891  -1.191   0.247  0.00  0.00    -0.031 A 
ATOM      3  C3  DEN d   1       0.636  -0.464   1.507  0.00  0.00     0.027 A 
ATOM      4  C4  DEN d   1      -0.514   1.817   1.861  0.00  0.00     0.027 A 
ATOM      5  C5  DEN d   1      -1.112   2.883   1.226  0.00  0.00    -0.003 A 
ATOM      6  C6  DEN d   1      -1.227   2.950  -0.138  0.00  0.00     0.001 A 
ATOM      7  C7  DEN d   1      -0.777   1.911  -0.908  0.00  0.00     0.017 A 
ATOM      8  C8  DEN d   1      -0.166   0.836  -0.276  0.00  0.00    -0.094 A 
ATOM      9  C9  DEN d   1      -0.070   0.782   1.104  0.00  0.00    -0.072 A 
ENDROOT
TORSDOF 0
ENDMDL
