MODEL 1
REMARK minimizedAffinity -5.65719509
REMARK minimizedRMSD -1
REMARK  0 active torsions:
REMARK  status: ('A' for Active; 'I' for Inactive)
ROOT
ATOM      1  C1  DEN d   1       0.101  -0.519  -0.768  0.00  0.00     0.130 A 
ATOM      2  C2  DEN d   1       0.411  -1.228   0.470  0.00  0.00    -0.031 A 
ATOM      3  C3  DEN d   1       0.128  -0.320   1.600  0.00  0.00     0.027 A 
ATOM      4  C4  DEN d   1      -0.758   2.101   1.553  0.00  0.00     0.027 A 
ATOM      5  C5  DEN d   1      -1.157   3.135   0.734  0.00  0.00    -0.003 A 
ATOM      6  C6  DEN d   1      -1.132   3.036  -0.632  0.00  0.00     0.001 A 
ATOM      7  C7  DEN d   1      -0.742   1.862  -1.220  0.00  0.00     0.017 A 
ATOM      8  C8  DEN d   1      -0.332   0.818  -0.402  0.00  0.00    -0.094 A 
ATOM      9  C9  DEN d   1      -0.376   0.933   0.977  0.00  0.00    -0.072 A 
ENDROOT
TORSDOF 0
ENDMDL
