MODEL 1
REMARK minimizedAffinity -7.03311825
REMARK minimizedRMSD -1
REMARK  0 active torsions:
REMARK  status: ('A' for Active; 'I' for Inactive)
ROOT
ATOM      1  C1  DEN d   1       0.561   0.422  -1.133  0.00  0.00     0.130 A 
ATOM      2  C2  DEN d   1       0.435  -0.492  -0.001  0.00  0.00    -0.031 A 
ATOM      3  C3  DEN d   1      -0.248   0.228   1.093  0.00  0.00     0.027 A 
ATOM      4  C4  DEN d   1      -1.123   2.653   1.141  0.00  0.00     0.027 A 
ATOM      5  C5  DEN d   1      -1.236   3.821   0.419  0.00  0.00    -0.003 A 
ATOM      6  C6  DEN d   1      -0.732   3.947  -0.848  0.00  0.00     0.001 A 
ATOM      7  C7  DEN d   1      -0.131   2.872  -1.450  0.00  0.00     0.017 A 
ATOM      8  C8  DEN d   1      -0.007   1.694  -0.725  0.00  0.00    -0.094 A 
ATOM      9  C9  DEN d   1      -0.534   1.583   0.550  0.00  0.00    -0.072 A 
ENDROOT
TORSDOF 0
ENDMDL
