MODEL 1
REMARK minimizedAffinity 5.26441383
REMARK minimizedRMSD -1
REMARK  0 active torsions:
REMARK  status: ('A' for Active; 'I' for Inactive)
ROOT
ATOM      1  C1  DEN d   1      -1.468   1.198  -0.995  0.00  0.00     0.130 A 
ATOM      2  C2  DEN d   1      -0.665   0.065  -1.449  0.00  0.00    -0.031 A 
ATOM      3  C3  DEN d   1      -1.536  -0.820  -2.248  0.00  0.00     0.027 A 
ATOM      4  C4  DEN d   1      -4.034  -0.546  -2.828  0.00  0.00     0.027 A 
ATOM      5  C5  DEN d   1      -5.145   0.251  -2.658  0.00  0.00    -0.003 A 
ATOM      6  C6  DEN d   1      -5.117   1.391  -1.900  0.00  0.00     0.001 A 
ATOM      7  C7  DEN d   1      -3.942   1.792  -1.320  0.00  0.00     0.017 A 
ATOM      8  C8  DEN d   1      -2.820   0.990  -1.481  0.00  0.00    -0.094 A 
ATOM      9  C9  DEN d   1      -2.865  -0.152  -2.261  0.00  0.00    -0.072 A 
ENDROOT
TORSDOF 0
ENDMDL
