MODEL 1
REMARK minimizedAffinity -0.311418861
REMARK minimizedRMSD -1
REMARK  0 active torsions:
REMARK  status: ('A' for Active; 'I' for Inactive)
ROOT
ATOM      1  C1  DEN d   1       0.906   4.016   0.548  0.00  0.00     0.130 A 
ATOM      2  C2  DEN d   1       0.139   4.224  -0.677  0.00  0.00    -0.031 A 
ATOM      3  C3  DEN d   1      -0.849   3.131  -0.789  0.00  0.00     0.027 A 
ATOM      4  C4  DEN d   1      -1.265   1.151   0.811  0.00  0.00     0.027 A 
ATOM      5  C5  DEN d   1      -0.855   0.545   1.978  0.00  0.00    -0.003 A 
ATOM      6  C6  DEN d   1       0.185   1.031   2.726  0.00  0.00     0.001 A 
ATOM      7  C7  DEN d   1       0.821   2.180   2.339  0.00  0.00     0.017 A 
ATOM      8  C8  DEN d   1       0.418   2.793   1.160  0.00  0.00    -0.094 A 
ATOM      9  C9  DEN d   1      -0.644   2.294   0.424  0.00  0.00    -0.072 A 
ENDROOT
TORSDOF 0
ENDMDL
