MODEL 1
REMARK minimizedAffinity 9.35895061
REMARK minimizedRMSD -1
REMARK  1 active torsions:
REMARK  status: ('A' for Active; 'I' for Inactive)
REMARK    1  A    between atoms: C1_2  and  C2_3 
ROOT
ATOM      1  C2  UNL d   1      -5.212  -3.629  -3.752  0.00  0.00    -0.076 A 
ATOM      2  C3  UNL d   1      -4.813  -3.386  -5.078  0.00  0.00     0.004 A 
ATOM      3  C4  UNL d   1      -4.711  -4.428  -5.999  0.00  0.00    -0.003 A 
ATOM      4  C5  UNL d   1      -5.007  -5.730  -5.608  0.00  0.00     0.000 A 
ATOM      5  C6  UNL d   1      -5.421  -5.986  -4.301  0.00  0.00     0.000 A 
ATOM      6  C7  UNL d   1      -5.544  -4.945  -3.365  0.00  0.00    -0.073 A 
ATOM      7  C8  UNL d   1      -5.989  -5.279  -1.968  0.00  0.00     0.078 C 
ENDROOT
BRANCH   1   8
ATOM      8  C1  UNL d   1      -5.278  -2.463  -2.791  0.00  0.00     0.053 C 
ATOM      9  C   UNL d   1      -6.000  -2.814  -1.499  0.00  0.00     0.018 C 
ENDBRANCH   1   8
TORSDOF 1
ENDMDL
