MODEL 1
REMARK minimizedAffinity 2.82325339
REMARK minimizedRMSD -1
REMARK  1 active torsions:
REMARK  status: ('A' for Active; 'I' for Inactive)
REMARK    1  A    between atoms: C1_2  and  C2_3 
ROOT
ATOM      1  C2  UNL d   1       0.971  -2.000   3.354  0.00  0.00    -0.076 A 
ATOM      2  C3  UNL d   1       0.325  -3.244   3.459  0.00  0.00     0.004 A 
ATOM      3  C4  UNL d   1       0.224  -4.094   2.359  0.00  0.00    -0.003 A 
ATOM      4  C5  UNL d   1       0.768  -3.715   1.137  0.00  0.00     0.000 A 
ATOM      5  C6  UNL d   1       1.428  -2.492   1.020  0.00  0.00     0.000 A 
ATOM      6  C7  UNL d   1       1.552  -1.630   2.123  0.00  0.00    -0.073 A 
ATOM      7  C8  UNL d   1       2.269  -0.320   1.938  0.00  0.00     0.078 C 
ENDROOT
BRANCH   1   8
ATOM      8  C1  UNL d   1       1.026  -1.107   4.574  0.00  0.00     0.053 C 
ATOM      9  C   UNL d   1       1.334  -1.880   5.847  0.00  0.00     0.018 C 
ENDBRANCH   1   8
TORSDOF 1
ENDMDL
