MODEL 1
REMARK minimizedAffinity 7.01098347
REMARK minimizedRMSD -1
REMARK  1 active torsions:
REMARK  status: ('A' for Active; 'I' for Inactive)
REMARK    1  A    between atoms: C1_2  and  C2_3 
ROOT
ATOM      1  C2  UNL d   1       0.426  -3.058   1.577  0.00  0.00    -0.076 A 
ATOM      2  C3  UNL d   1       1.119  -1.991   0.980  0.00  0.00     0.004 A 
ATOM      3  C4  UNL d   1       1.743  -1.015   1.756  0.00  0.00    -0.003 A 
ATOM      4  C5  UNL d   1       1.684  -1.092   3.143  0.00  0.00     0.000 A 
ATOM      5  C6  UNL d   1       1.016  -2.153   3.753  0.00  0.00     0.000 A 
ATOM      6  C7  UNL d   1       0.396  -3.153   2.985  0.00  0.00    -0.073 A 
ATOM      7  C8  UNL d   1      -0.316  -4.272   3.695  0.00  0.00     0.078 C 
ENDROOT
BRANCH   1   8
ATOM      8  C1  UNL d   1      -0.253  -4.071   0.684  0.00  0.00     0.053 C 
ATOM      9  C   UNL d   1       0.703  -4.698  -0.319  0.00  0.00     0.018 C 
ENDBRANCH   1   8
TORSDOF 1
ENDMDL
