MODEL 1
REMARK minimizedAffinity 11.0841541
REMARK minimizedRMSD -1
REMARK  1 active torsions:
REMARK  status: ('A' for Active; 'I' for Inactive)
REMARK    1  A    between atoms: C1_2  and  C2_3 
ROOT
ATOM      1  C2  UNL d   1       3.246  -3.408   3.711  0.00  0.00    -0.076 A 
ATOM      2  C3  UNL d   1       4.139  -2.862   2.773  0.00  0.00     0.004 A 
ATOM      3  C4  UNL d   1       5.505  -2.788   3.041  0.00  0.00    -0.003 A 
ATOM      4  C5  UNL d   1       6.000  -3.258   4.252  0.00  0.00     0.000 A 
ATOM      5  C6  UNL d   1       5.131  -3.819   5.188  0.00  0.00     0.000 A 
ATOM      6  C7  UNL d   1       3.753  -3.917   4.926  0.00  0.00    -0.073 A 
ATOM      7  C8  UNL d   1       2.861  -4.525   5.973  0.00  0.00     0.078 C 
ENDROOT
BRANCH   1   8
ATOM      8  C1  UNL d   1       1.772  -3.438   3.376  0.00  0.00     0.053 C 
ATOM      9  C   UNL d   1       1.316  -2.188   2.639  0.00  0.00     0.018 C 
ENDBRANCH   1   8
TORSDOF 1
ENDMDL
