MODEL 1
REMARK minimizedAffinity 7.05067015
REMARK minimizedRMSD -1
REMARK  1 active torsions:
REMARK  status: ('A' for Active; 'I' for Inactive)
REMARK    1  A    between atoms: C1_2  and  C2_3 
ROOT
ATOM      1  C2  UNL d   1      -5.345  -4.021  -4.413  0.00  0.00    -0.076 A 
ATOM      2  C3  UNL d   1      -5.999  -2.858  -3.970  0.00  0.00     0.004 A 
ATOM      3  C4  UNL d   1      -5.900  -2.439  -2.644  0.00  0.00    -0.003 A 
ATOM      4  C5  UNL d   1      -5.144  -3.176  -1.740  0.00  0.00     0.000 A 
ATOM      5  C6  UNL d   1      -4.473  -4.322  -2.165  0.00  0.00     0.000 A 
ATOM      6  C7  UNL d   1      -4.550  -4.749  -3.502  0.00  0.00    -0.073 A 
ATOM      7  C8  UNL d   1      -3.811  -5.996  -3.905  0.00  0.00     0.078 C 
ENDROOT
BRANCH   1   8
ATOM      8  C1  UNL d   1      -5.511  -4.441  -5.856  0.00  0.00     0.053 C 
ATOM      9  C   UNL d   1      -5.899  -5.905  -5.995  0.00  0.00     0.018 C 
ENDBRANCH   1   8
TORSDOF 1
ENDMDL
