MODEL 1
REMARK minimizedAffinity 0.276161432
REMARK minimizedRMSD -1
REMARK  1 active torsions:
REMARK  status: ('A' for Active; 'I' for Inactive)
REMARK    1  A    between atoms: C1_2  and  C2_3 
ROOT
ATOM      1  C2  UNL d   1      -5.570  -4.167  -4.077  0.00  0.00    -0.076 A 
ATOM      2  C3  UNL d   1      -5.955  -3.603  -2.848  0.00  0.00     0.004 A 
ATOM      3  C4  UNL d   1      -5.607  -4.206  -1.641  0.00  0.00    -0.003 A 
ATOM      4  C5  UNL d   1      -4.867  -5.383  -1.642  0.00  0.00     0.000 A 
ATOM      5  C6  UNL d   1      -4.461  -5.947  -2.851  0.00  0.00     0.000 A 
ATOM      6  C7  UNL d   1      -4.790  -5.343  -4.077  0.00  0.00    -0.073 A 
ATOM      7  C8  UNL d   1      -4.331  -5.998  -5.351  0.00  0.00     0.078 C 
ENDROOT
BRANCH   1   8
ATOM      8  C1  UNL d   1      -6.000  -3.483  -5.355  0.00  0.00     0.053 C 
ATOM      9  C   UNL d   1      -4.879  -2.673  -5.988  0.00  0.00     0.018 C 
ENDBRANCH   1   8
TORSDOF 1
ENDMDL
