MODEL 1
REMARK minimizedAffinity 11.9930763
REMARK minimizedRMSD -1
REMARK  1 active torsions:
REMARK  status: ('A' for Active; 'I' for Inactive)
REMARK    1  A    between atoms: C1_2  and  C2_3 
ROOT
ATOM      1  C2  UNL d   1       2.402  -2.745   3.470  0.00  0.00    -0.076 A 
ATOM      2  C3  UNL d   1       2.506  -1.369   3.204  0.00  0.00     0.004 A 
ATOM      3  C4  UNL d   1       1.787  -0.784   2.163  0.00  0.00    -0.003 A 
ATOM      4  C5  UNL d   1       0.951  -1.565   1.372  0.00  0.00     0.000 A 
ATOM      5  C6  UNL d   1       0.822  -2.929   1.634  0.00  0.00     0.000 A 
ATOM      6  C7  UNL d   1       1.528  -3.531   2.690  0.00  0.00    -0.073 A 
ATOM      7  C8  UNL d   1       1.355  -5.007   2.923  0.00  0.00     0.078 C 
ENDROOT
BRANCH   1   8
ATOM      8  C1  UNL d   1       3.226  -3.329   4.595  0.00  0.00     0.053 C 
ATOM      9  C   UNL d   1       4.718  -3.304   4.298  0.00  0.00     0.018 C 
ENDBRANCH   1   8
TORSDOF 1
ENDMDL
