MODEL 1
REMARK minimizedAffinity -2.9811399
REMARK minimizedRMSD -1
REMARK  1 active torsions:
REMARK  status: ('A' for Active; 'I' for Inactive)
REMARK    1  A    between atoms: C1_2  and  C2_3 
ROOT
ATOM      1  C2  UNL d   1       4.017   1.159  -4.963  0.00  0.00    -0.076 A 
ATOM      2  C3  UNL d   1       3.434   2.438  -4.980  0.00  0.00     0.004 A 
ATOM      3  C4  UNL d   1       4.127   3.535  -5.489  0.00  0.00    -0.003 A 
ATOM      4  C5  UNL d   1       5.413   3.371  -5.991  0.00  0.00     0.000 A 
ATOM      5  C6  UNL d   1       6.000   2.106  -5.999  0.00  0.00     0.000 A 
ATOM      6  C7  UNL d   1       5.309   0.986  -5.504  0.00  0.00    -0.073 A 
ATOM      7  C8  UNL d   1       5.992  -0.354  -5.531  0.00  0.00     0.078 C 
ENDROOT
BRANCH   1   8
ATOM      8  C1  UNL d   1       3.228   0.012  -4.374  0.00  0.00     0.053 C 
ATOM      9  C   UNL d   1       3.999  -0.731  -3.294  0.00  0.00     0.018 C 
ENDBRANCH   1   8
TORSDOF 1
ENDMDL
