MODEL 1
REMARK minimizedAffinity -2.11718917
REMARK minimizedRMSD -1
REMARK  1 active torsions:
REMARK  status: ('A' for Active; 'I' for Inactive)
REMARK    1  A    between atoms: C1_2  and  C2_3 
ROOT
ATOM      1  C2  UNL d   1      -4.898  -5.310  -3.499  0.00  0.00    -0.076 A 
ATOM      2  C3  UNL d   1      -4.592  -5.998  -4.685  0.00  0.00     0.004 A 
ATOM      3  C4  UNL d   1      -4.989  -5.502  -5.926  0.00  0.00    -0.003 A 
ATOM      4  C5  UNL d   1      -5.699  -4.309  -6.000  0.00  0.00     0.000 A 
ATOM      5  C6  UNL d   1      -5.997  -3.604  -4.834  0.00  0.00     0.000 A 
ATOM      6  C7  UNL d   1      -5.589  -4.082  -3.577  0.00  0.00    -0.073 A 
ATOM      7  C8  UNL d   1      -5.943  -3.284  -2.352  0.00  0.00     0.078 C 
ENDROOT
BRANCH   1   8
ATOM      8  C1  UNL d   1      -4.465  -5.910  -2.181  0.00  0.00     0.053 C 
ATOM      9  C   UNL d   1      -5.605  -5.999  -1.178  0.00  0.00     0.018 C 
ENDBRANCH   1   8
TORSDOF 1
ENDMDL
