MODEL 1
REMARK minimizedAffinity 2.76903629
REMARK minimizedRMSD -1
REMARK  1 active torsions:
REMARK  status: ('A' for Active; 'I' for Inactive)
REMARK    1  A    between atoms: C1_2  and  C2_3 
ROOT
ATOM      1  C2  UNL d   1       1.317  -3.750   2.359  0.00  0.00    -0.076 A 
ATOM      2  C3  UNL d   1       0.571  -4.527   1.455  0.00  0.00     0.004 A 
ATOM      3  C4  UNL d   1       1.149  -5.608   0.791  0.00  0.00    -0.003 A 
ATOM      4  C5  UNL d   1       2.483  -5.930   1.021  0.00  0.00     0.000 A 
ATOM      5  C6  UNL d   1       3.232  -5.181   1.928  0.00  0.00     0.000 A 
ATOM      6  C7  UNL d   1       2.660  -4.098   2.617  0.00  0.00    -0.073 A 
ATOM      7  C8  UNL d   1       3.516  -3.321   3.580  0.00  0.00     0.078 C 
ENDROOT
BRANCH   1   8
ATOM      8  C1  UNL d   1       0.644  -2.574   3.029  0.00  0.00     0.053 C 
ATOM      9  C   UNL d   1       0.993  -1.249   2.367  0.00  0.00     0.018 C 
ENDBRANCH   1   8
TORSDOF 1
ENDMDL
