MODEL 1
REMARK minimizedAffinity -0.754590273
REMARK minimizedRMSD -1
REMARK  1 active torsions:
REMARK  status: ('A' for Active; 'I' for Inactive)
REMARK    1  A    between atoms: C1_2  and  C2_3 
ROOT
ATOM      1  C2  UNL d   1       3.283  -2.678   3.192  0.00  0.00    -0.076 A 
ATOM      2  C3  UNL d   1       3.305  -1.681   2.201  0.00  0.00     0.004 A 
ATOM      3  C4  UNL d   1       2.131  -1.263   1.578  0.00  0.00    -0.003 A 
ATOM      4  C5  UNL d   1       0.915  -1.834   1.936  0.00  0.00     0.000 A 
ATOM      5  C6  UNL d   1       0.872  -2.812   2.929  0.00  0.00     0.000 A 
ATOM      6  C7  UNL d   1       2.044  -3.234   3.579  0.00  0.00    -0.073 A 
ATOM      7  C8  UNL d   1       1.941  -4.296   4.638  0.00  0.00     0.078 C 
ENDROOT
BRANCH   1   8
ATOM      8  C1  UNL d   1       4.592  -3.111   3.813  0.00  0.00     0.053 C 
ATOM      9  C   UNL d   1       5.774  -2.916   2.877  0.00  0.00     0.018 C 
ENDBRANCH   1   8
TORSDOF 1
ENDMDL
