MODEL 1
REMARK minimizedAffinity 5.92566824
REMARK minimizedRMSD -1
REMARK  0 active torsions:
REMARK  status: ('A' for Active; 'I' for Inactive)
ROOT
ATOM      1  C   UNL d   1       3.947   5.618  -5.996  0.00  0.00    -0.002 A 
ATOM      2  C1  UNL d   1       5.289   5.969  -5.968  0.00  0.00     0.010 A 
ATOM      3  C2  UNL d   1       6.000   5.967  -4.766  0.00  0.00     0.041 A 
ATOM      4  C3  UNL d   1       5.332   5.600  -3.581  0.00  0.00    -0.075 A 
ATOM      5  S   UNL d   1       6.000   5.524  -1.993  0.00  0.00     0.015 SA
ATOM      6  C4  UNL d   1       4.519   5.023  -1.314  0.00  0.00     0.022 A 
ATOM      7  C5  UNL d   1       3.529   4.912  -2.261  0.00  0.00     0.026 A 
ATOM      8  C6  UNL d   1       3.981   5.242  -3.583  0.00  0.00    -0.082 A 
ATOM      9  C7  UNL d   1       3.288   5.255  -4.818  0.00  0.00     0.045 A 
ENDROOT
TORSDOF 0
ENDMDL
