MODEL 1
REMARK minimizedAffinity -5.45958376
REMARK minimizedRMSD -1
REMARK  0 active torsions:
REMARK  status: ('A' for Active; 'I' for Inactive)
ROOT
ATOM      1  C   UNL d   1       3.893   5.652  -1.506  0.00  0.00    -0.002 A 
ATOM      2  C1  UNL d   1       5.270   5.514  -1.400  0.00  0.00     0.010 A 
ATOM      3  C2  UNL d   1       5.998   4.872  -2.403  0.00  0.00     0.041 A 
ATOM      4  C3  UNL d   1       5.314   4.367  -3.526  0.00  0.00    -0.075 A 
ATOM      5  S   UNL d   1       5.998   3.545  -4.878  0.00  0.00     0.015 SA
ATOM      6  C4  UNL d   1       4.479   3.359  -5.629  0.00  0.00     0.022 A 
ATOM      7  C5  UNL d   1       3.464   3.905  -4.880  0.00  0.00     0.026 A 
ATOM      8  C6  UNL d   1       3.928   4.495  -3.656  0.00  0.00    -0.082 A 
ATOM      9  C7  UNL d   1       3.217   5.151  -2.622  0.00  0.00     0.045 A 
ENDROOT
TORSDOF 0
ENDMDL
