MODEL 1
REMARK minimizedAffinity -1.85831892
REMARK minimizedRMSD -1
REMARK  0 active torsions:
REMARK  status: ('A' for Active; 'I' for Inactive)
ROOT
ATOM      1  C   UNL d   1       4.431   5.164  -1.720  0.00  0.00    -0.002 A 
ATOM      2  C1  UNL d   1       5.449   5.995  -2.167  0.00  0.00     0.010 A 
ATOM      3  C2  UNL d   1       5.992   5.830  -3.443  0.00  0.00     0.041 A 
ATOM      4  C3  UNL d   1       5.488   4.807  -4.271  0.00  0.00    -0.075 A 
ATOM      5  S   UNL d   1       5.998   4.419  -5.871  0.00  0.00     0.015 SA
ATOM      6  C4  UNL d   1       4.876   3.142  -5.999  0.00  0.00     0.022 A 
ATOM      7  C5  UNL d   1       4.123   3.001  -4.858  0.00  0.00     0.026 A 
ATOM      8  C6  UNL d   1       4.462   3.959  -3.843  0.00  0.00    -0.082 A 
ATOM      9  C7  UNL d   1       3.934   4.151  -2.544  0.00  0.00     0.045 A 
ENDROOT
TORSDOF 0
ENDMDL
