MODEL 1
REMARK minimizedAffinity 0.413068533
REMARK minimizedRMSD -1
REMARK  0 active torsions:
REMARK  status: ('A' for Active; 'I' for Inactive)
ROOT
ATOM      1  C   UNL d   1       2.138   4.908  -2.906  0.00  0.00    -0.002 A 
ATOM      2  C1  UNL d   1       2.131   5.934  -3.840  0.00  0.00     0.010 A 
ATOM      3  C2  UNL d   1       3.110   5.998  -4.833  0.00  0.00     0.041 A 
ATOM      4  C3  UNL d   1       4.105   5.002  -4.873  0.00  0.00    -0.075 A 
ATOM      5  S   UNL d   1       5.404   4.876  -6.000  0.00  0.00     0.015 SA
ATOM      6  C4  UNL d   1       5.999   3.456  -5.269  0.00  0.00     0.022 A 
ATOM      7  C5  UNL d   1       5.238   3.073  -4.190  0.00  0.00     0.026 A 
ATOM      8  C6  UNL d   1       4.133   3.958  -3.945  0.00  0.00    -0.082 A 
ATOM      9  C7  UNL d   1       3.127   3.921  -2.949  0.00  0.00     0.045 A 
ENDROOT
TORSDOF 0
ENDMDL
