MODEL 1
REMARK minimizedAffinity 0.109470308
REMARK minimizedRMSD -1
REMARK  0 active torsions:
REMARK  status: ('A' for Active; 'I' for Inactive)
ROOT
ATOM      1  C   UNL d   1       5.322   2.184  -6.000  0.00  0.00    -0.002 A 
ATOM      2  C1  UNL d   1       5.959   1.711  -4.861  0.00  0.00     0.010 A 
ATOM      3  C2  UNL d   1       6.000   2.482  -3.698  0.00  0.00     0.041 A 
ATOM      4  C3  UNL d   1       5.383   3.748  -3.698  0.00  0.00    -0.075 A 
ATOM      5  S   UNL d   1       5.306   4.867  -2.388  0.00  0.00     0.015 SA
ATOM      6  C4  UNL d   1       4.425   5.999  -3.308  0.00  0.00     0.022 A 
ATOM      7  C5  UNL d   1       4.187   5.551  -4.586  0.00  0.00     0.026 A 
ATOM      8  C6  UNL d   1       4.735   4.246  -4.831  0.00  0.00    -0.082 A 
ATOM      9  C7  UNL d   1       4.711   3.441  -5.996  0.00  0.00     0.045 A 
ENDROOT
TORSDOF 0
ENDMDL
