MODEL 1
REMARK minimizedAffinity 2.11399531
REMARK minimizedRMSD -1
REMARK  0 active torsions:
REMARK  status: ('A' for Active; 'I' for Inactive)
ROOT
ATOM      1  C   UNL d   1       0.482  -2.228  -2.017  0.00  0.00    -0.002 A 
ATOM      2  C1  UNL d   1      -0.366  -1.517  -2.855  0.00  0.00     0.010 A 
ATOM      3  C2  UNL d   1      -1.122  -2.177  -3.826  0.00  0.00     0.041 A 
ATOM      4  C3  UNL d   1      -1.012  -3.576  -3.941  0.00  0.00    -0.075 A 
ATOM      5  S   UNL d   1      -1.841  -4.597  -5.056  0.00  0.00     0.015 SA
ATOM      6  C4  UNL d   1      -1.090  -6.000  -4.446  0.00  0.00     0.022 A 
ATOM      7  C5  UNL d   1      -0.224  -5.715  -3.417  0.00  0.00     0.026 A 
ATOM      8  C6  UNL d   1      -0.165  -4.314  -3.108  0.00  0.00    -0.082 A 
ATOM      9  C7  UNL d   1       0.589  -3.616  -2.134  0.00  0.00     0.045 A 
ENDROOT
TORSDOF 0
ENDMDL
