MODEL 1
REMARK minimizedAffinity -2.27606225
REMARK minimizedRMSD -1
REMARK  0 active torsions:
REMARK  status: ('A' for Active; 'I' for Inactive)
ROOT
ATOM      1  C   UNL d   1       4.064   5.987  -2.916  0.00  0.00    -0.002 A 
ATOM      2  C1  UNL d   1       5.295   5.574  -2.426  0.00  0.00     0.010 A 
ATOM      3  C2  UNL d   1       5.962   4.491  -3.003  0.00  0.00     0.041 A 
ATOM      4  C3  UNL d   1       5.366   3.826  -4.092  0.00  0.00    -0.075 A 
ATOM      5  S   UNL d   1       5.999   2.476  -4.958  0.00  0.00     0.015 SA
ATOM      6  C4  UNL d   1       4.651   2.416  -5.999  0.00  0.00     0.022 A 
ATOM      7  C5  UNL d   1       3.730   3.395  -5.707  0.00  0.00     0.026 A 
ATOM      8  C6  UNL d   1       4.127   4.224  -4.604  0.00  0.00    -0.082 A 
ATOM      9  C7  UNL d   1       3.476   5.324  -3.997  0.00  0.00     0.045 A 
ENDROOT
TORSDOF 0
ENDMDL
