MODEL 1
REMARK minimizedAffinity 1.90073097
REMARK minimizedRMSD -1
REMARK  0 active torsions:
REMARK  status: ('A' for Active; 'I' for Inactive)
ROOT
ATOM      1  C   UNL d   1       3.879   4.630  -1.464  0.00  0.00    -0.002 A 
ATOM      2  C1  UNL d   1       5.253   4.803  -1.379  0.00  0.00     0.010 A 
ATOM      3  C2  UNL d   1       5.986   5.223  -2.491  0.00  0.00     0.041 A 
ATOM      4  C3  UNL d   1       5.307   5.469  -3.701  0.00  0.00    -0.075 A 
ATOM      5  S   UNL d   1       5.998   5.991  -5.192  0.00  0.00     0.015 SA
ATOM      6  C4  UNL d   1       4.484   5.997  -5.976  0.00  0.00     0.022 A 
ATOM      7  C5  UNL d   1       3.467   5.612  -5.136  0.00  0.00     0.026 A 
ATOM      8  C6  UNL d   1       3.924   5.303  -3.811  0.00  0.00    -0.082 A 
ATOM      9  C7  UNL d   1       3.210   4.875  -2.665  0.00  0.00     0.045 A 
ENDROOT
TORSDOF 0
ENDMDL
