MODEL 1
REMARK minimizedAffinity 3.62511253
REMARK minimizedRMSD -1
REMARK  0 active torsions:
REMARK  status: ('A' for Active; 'I' for Inactive)
ROOT
ATOM      1  C   UNL d   1       4.097   5.393  -1.420  0.00  0.00    -0.002 A 
ATOM      2  C1  UNL d   1       5.341   5.987  -1.578  0.00  0.00     0.010 A 
ATOM      3  C2  UNL d   1       6.000   5.941  -2.808  0.00  0.00     0.041 A 
ATOM      4  C3  UNL d   1       5.380   5.281  -3.888  0.00  0.00    -0.075 A 
ATOM      5  S   UNL d   1       5.999   5.099  -5.487  0.00  0.00     0.015 SA
ATOM      6  C4  UNL d   1       4.626   4.228  -5.999  0.00  0.00     0.022 A 
ATOM      7  C5  UNL d   1       3.709   4.071  -4.987  0.00  0.00     0.026 A 
ATOM      8  C6  UNL d   1       4.128   4.676  -3.754  0.00  0.00    -0.082 A 
ATOM      9  C7  UNL d   1       3.486   4.739  -2.494  0.00  0.00     0.045 A 
ENDROOT
TORSDOF 0
ENDMDL
