MODEL 1
REMARK minimizedAffinity -0.319665253
REMARK minimizedRMSD -1
REMARK  0 active torsions:
REMARK  status: ('A' for Active; 'I' for Inactive)
ROOT
ATOM      1  C   UNL d   1       3.413   4.878  -1.504  0.00  0.00    -0.002 A 
ATOM      2  C1  UNL d   1       2.617   4.125  -2.355  0.00  0.00     0.010 A 
ATOM      3  C2  UNL d   1       2.936   4.009  -3.709  0.00  0.00     0.041 A 
ATOM      4  C3  UNL d   1       4.081   4.667  -4.198  0.00  0.00    -0.075 A 
ATOM      5  S   UNL d   1       4.668   4.666  -5.819  0.00  0.00     0.015 SA
ATOM      6  C4  UNL d   1       5.991   5.664  -5.420  0.00  0.00     0.022 A 
ATOM      7  C5  UNL d   1       6.000   6.000  -4.087  0.00  0.00     0.026 A 
ATOM      8  C6  UNL d   1       4.900   5.430  -3.361  0.00  0.00    -0.082 A 
ATOM      9  C7  UNL d   1       4.549   5.530  -1.993  0.00  0.00     0.045 A 
ENDROOT
TORSDOF 0
ENDMDL
