MODEL 1
REMARK minimizedAffinity 8.33235359
REMARK minimizedRMSD -1
REMARK  0 active torsions:
REMARK  status: ('A' for Active; 'I' for Inactive)
ROOT
ATOM      1  C   UNL d   1       5.203   5.922  -1.605  0.00  0.00    -0.002 A 
ATOM      2  C1  UNL d   1       3.827   5.997  -1.771  0.00  0.00     0.010 A 
ATOM      3  C2  UNL d   1       3.216   5.437  -2.895  0.00  0.00     0.041 A 
ATOM      4  C3  UNL d   1       4.018   4.791  -3.856  0.00  0.00    -0.075 A 
ATOM      5  S   UNL d   1       3.489   4.031  -5.310  0.00  0.00     0.015 SA
ATOM      6  C4  UNL d   1       5.076   3.587  -5.744  0.00  0.00     0.022 A 
ATOM      7  C5  UNL d   1       6.000   4.001  -4.814  0.00  0.00     0.026 A 
ATOM      8  C6  UNL d   1       5.405   4.701  -3.710  0.00  0.00    -0.082 A 
ATOM      9  C7  UNL d   1       5.995   5.280  -2.561  0.00  0.00     0.045 A 
ENDROOT
TORSDOF 0
ENDMDL
