MODEL 1
REMARK minimizedAffinity 4.18524027
REMARK minimizedRMSD -1
REMARK  0 active torsions:
REMARK  status: ('A' for Active; 'I' for Inactive)
ROOT
ATOM      1  C   UNL d   1       3.376  -3.292  -4.487  0.00  0.00    -0.002 A 
ATOM      2  C1  UNL d   1       3.724  -1.994  -4.139  0.00  0.00     0.010 A 
ATOM      3  C2  UNL d   1       4.534  -1.749  -3.029  0.00  0.00     0.041 A 
ATOM      4  C3  UNL d   1       4.996  -2.841  -2.268  0.00  0.00    -0.075 A 
ATOM      5  S   UNL d   1       6.000  -2.781  -0.868  0.00  0.00     0.015 SA
ATOM      6  C4  UNL d   1       5.992  -4.477  -0.698  0.00  0.00     0.022 A 
ATOM      7  C5  UNL d   1       5.246  -5.090  -1.677  0.00  0.00     0.026 A 
ATOM      8  C6  UNL d   1       4.660  -4.157  -2.598  0.00  0.00    -0.082 A 
ATOM      9  C7  UNL d   1       3.836  -4.373  -3.729  0.00  0.00     0.045 A 
ENDROOT
TORSDOF 0
ENDMDL
