MODEL 1
REMARK minimizedAffinity 6.43762016
REMARK minimizedRMSD -1
REMARK  0 active torsions:
REMARK  status: ('A' for Active; 'I' for Inactive)
ROOT
ATOM      1  C   UNL d   1       3.958   4.924  -5.966  0.00  0.00    -0.002 A 
ATOM      2  C1  UNL d   1       5.293   5.301  -5.931  0.00  0.00     0.010 A 
ATOM      3  C2  UNL d   1       5.999   5.303  -4.727  0.00  0.00     0.041 A 
ATOM      4  C3  UNL d   1       5.335   4.914  -3.547  0.00  0.00    -0.075 A 
ATOM      5  S   UNL d   1       5.999   4.838  -1.957  0.00  0.00     0.015 SA
ATOM      6  C4  UNL d   1       4.526   4.302  -1.287  0.00  0.00     0.022 A 
ATOM      7  C5  UNL d   1       3.541   4.179  -2.239  0.00  0.00     0.026 A 
ATOM      8  C6  UNL d   1       3.991   4.529  -3.557  0.00  0.00    -0.082 A 
ATOM      9  C7  UNL d   1       3.303   4.538  -4.793  0.00  0.00     0.045 A 
ENDROOT
TORSDOF 0
ENDMDL
