MODEL 1
REMARK minimizedAffinity 1.13970566
REMARK minimizedRMSD -1
REMARK  0 active torsions:
REMARK  status: ('A' for Active; 'I' for Inactive)
ROOT
ATOM      1  C   UNL d   1      -1.902   0.411   1.307  0.00  0.00     0.078 C 
ATOM      2  C1  UNL d   1      -0.409   0.270   1.286  0.00  0.00    -0.077 A 
ATOM      3  C2  UNL d   1       0.420   1.318   1.704  0.00  0.00    -0.001 A 
ATOM      4  C3  UNL d   1       1.809   1.177   1.669  0.00  0.00     0.003 A 
ATOM      5  C4  UNL d   1       2.380  -0.011   1.218  0.00  0.00    -0.005 A 
ATOM      6  C5  UNL d   1       1.563  -1.059   0.798  0.00  0.00     0.003 A 
ATOM      7  C6  UNL d   1       0.174  -0.919   0.832  0.00  0.00    -0.001 A 
ENDROOT
TORSDOF 0
ENDMDL
