MODEL 1
REMARK minimizedAffinity 5.68913651
REMARK minimizedRMSD -1
REMARK  0 active torsions:
REMARK  status: ('A' for Active; 'I' for Inactive)
ROOT
ATOM      1  C   UNL d   1       0.185  -2.559  -0.926  0.00  0.00     0.078 C 
ATOM      2  C1  UNL d   1       1.119  -1.975   0.092  0.00  0.00    -0.077 A 
ATOM      3  C2  UNL d   1       0.633  -1.222   1.168  0.00  0.00    -0.001 A 
ATOM      4  C3  UNL d   1       1.515  -0.675   2.102  0.00  0.00     0.003 A 
ATOM      5  C4  UNL d   1       2.887  -0.876   1.969  0.00  0.00    -0.005 A 
ATOM      6  C5  UNL d   1       3.380  -1.622   0.901  0.00  0.00     0.003 A 
ATOM      7  C6  UNL d   1       2.500  -2.169  -0.035  0.00  0.00    -0.001 A 
ENDROOT
TORSDOF 0
ENDMDL
