MODEL 1
REMARK minimizedAffinity 2.17497087
REMARK minimizedRMSD -1
REMARK  0 active torsions:
REMARK  status: ('A' for Active; 'I' for Inactive)
ROOT
ATOM      1  C   UNL d   1       1.493  -0.609  -0.285  0.00  0.00     0.078 C 
ATOM      2  C1  UNL d   1       1.253  -0.129  -1.686  0.00  0.00    -0.077 A 
ATOM      3  C2  UNL d   1       0.269  -0.717  -2.491  0.00  0.00    -0.001 A 
ATOM      4  C3  UNL d   1       0.063  -0.267  -3.796  0.00  0.00     0.003 A 
ATOM      5  C4  UNL d   1       0.838   0.772  -4.308  0.00  0.00    -0.005 A 
ATOM      6  C5  UNL d   1       1.821   1.361  -3.516  0.00  0.00     0.003 A 
ATOM      7  C6  UNL d   1       2.028   0.912  -2.210  0.00  0.00    -0.001 A 
ENDROOT
TORSDOF 0
ENDMDL
