MODEL 1
REMARK minimizedAffinity 3.18735909
REMARK minimizedRMSD -1
REMARK  0 active torsions:
REMARK  status: ('A' for Active; 'I' for Inactive)
ROOT
ATOM      1  C   UNL d   1      -0.488  -0.480  -5.831  0.00  0.00     0.078 C 
ATOM      2  C1  UNL d   1       0.452   0.046  -4.788  0.00  0.00    -0.077 A 
ATOM      3  C2  UNL d   1       1.496   0.915  -5.130  0.00  0.00    -0.001 A 
ATOM      4  C3  UNL d   1       2.370   1.388  -4.150  0.00  0.00     0.003 A 
ATOM      5  C4  UNL d   1       2.209   0.998  -2.822  0.00  0.00    -0.005 A 
ATOM      6  C5  UNL d   1       1.175   0.133  -2.472  0.00  0.00     0.003 A 
ATOM      7  C6  UNL d   1       0.300  -0.342  -3.451  0.00  0.00    -0.001 A 
ENDROOT
TORSDOF 0
ENDMDL
