MODEL 1
REMARK minimizedAffinity 4.68240786
REMARK minimizedRMSD -1
REMARK  0 active torsions:
REMARK  status: ('A' for Active; 'I' for Inactive)
ROOT
ATOM      1  C   UNL d   1       1.564  -1.361  -0.840  0.00  0.00     0.078 C 
ATOM      2  C1  UNL d   1       1.524  -0.612  -2.139  0.00  0.00    -0.077 A 
ATOM      3  C2  UNL d   1       0.592  -0.940  -3.132  0.00  0.00    -0.001 A 
ATOM      4  C3  UNL d   1       0.573  -0.240  -4.339  0.00  0.00     0.003 A 
ATOM      5  C4  UNL d   1       1.483   0.790  -4.566  0.00  0.00    -0.005 A 
ATOM      6  C5  UNL d   1       2.415   1.122  -3.585  0.00  0.00     0.003 A 
ATOM      7  C6  UNL d   1       2.436   0.424  -2.376  0.00  0.00    -0.001 A 
ENDROOT
TORSDOF 0
ENDMDL
