MODEL 1
REMARK minimizedAffinity -4.89267778
REMARK minimizedRMSD -1
REMARK  0 active torsions:
REMARK  status: ('A' for Active; 'I' for Inactive)
ROOT
ATOM      1  C   UNL d   1      -0.132  -0.956  -2.137  0.00  0.00     0.077 C 
ATOM      2  C1  UNL d   1       0.272  -0.587  -0.740  0.00  0.00    -0.074 A 
ATOM      3  C2  UNL d   1       1.394  -1.168  -0.140  0.00  0.00    -0.005 A 
ATOM      4  C3  UNL d   1       1.763  -0.808   1.157  0.00  0.00     0.006 A 
ATOM      5  C4  UNL d   1       1.015   0.134   1.864  0.00  0.00    -0.005 A 
ATOM      6  C5  UNL d   1      -0.109   0.726   1.280  0.00  0.00    -0.074 A 
ATOM      7  C6  UNL d   1      -0.918   1.747   2.023  0.00  0.00     0.077 C 
ATOM      8  C7  UNL d   1      -0.469   0.364  -0.026  0.00  0.00    -0.001 A 
ENDROOT
TORSDOF 0
ENDMDL
