MODEL 1
REMARK minimizedAffinity -4.86107779
REMARK minimizedRMSD -1
REMARK  0 active torsions:
REMARK  status: ('A' for Active; 'I' for Inactive)
ROOT
ATOM      1  C   UNL d   1      -1.504  -0.550  -4.605  0.00  0.00     0.077 C 
ATOM      2  C1  UNL d   1      -0.771  -0.636  -3.300  0.00  0.00    -0.074 A 
ATOM      3  C2  UNL d   1       0.586  -0.975  -3.258  0.00  0.00    -0.005 A 
ATOM      4  C3  UNL d   1       1.256  -1.042  -2.037  0.00  0.00     0.006 A 
ATOM      5  C4  UNL d   1       0.579  -0.770  -0.847  0.00  0.00    -0.005 A 
ATOM      6  C5  UNL d   1      -0.776  -0.428  -0.869  0.00  0.00    -0.074 A 
ATOM      7  C6  UNL d   1      -1.517  -0.122   0.399  0.00  0.00     0.077 C 
ATOM      8  C7  UNL d   1      -1.442  -0.356  -2.101  0.00  0.00    -0.001 A 
ENDROOT
TORSDOF 0
ENDMDL
