MODEL 1
REMARK minimizedAffinity -5.17793608
REMARK minimizedRMSD -1
REMARK  0 active torsions:
REMARK  status: ('A' for Active; 'I' for Inactive)
ROOT
ATOM      1  C   UNL d   1      -0.743   1.910   2.327  0.00  0.00     0.077 C 
ATOM      2  C1  UNL d   1       0.123   0.891   1.647  0.00  0.00    -0.074 A 
ATOM      3  C2  UNL d   1       1.336   0.485   2.213  0.00  0.00    -0.005 A 
ATOM      4  C3  UNL d   1       2.125  -0.470   1.573  0.00  0.00     0.006 A 
ATOM      5  C4  UNL d   1       1.711  -1.029   0.364  0.00  0.00    -0.005 A 
ATOM      6  C5  UNL d   1       0.501  -0.636  -0.217  0.00  0.00    -0.074 A 
ATOM      7  C6  UNL d   1       0.036  -1.234  -1.511  0.00  0.00     0.077 C 
ATOM      8  C7  UNL d   1      -0.290   0.319   0.435  0.00  0.00    -0.001 A 
ENDROOT
TORSDOF 0
ENDMDL
