MODEL 1
REMARK minimizedAffinity -3.77929688
REMARK minimizedRMSD -1
REMARK  0 active torsions:
REMARK  status: ('A' for Active; 'I' for Inactive)
ROOT
ATOM      1  C   UNL d   1      -2.545  -0.771   3.678  0.00  0.00     0.077 C 
ATOM      2  C1  UNL d   1      -1.611   0.012   2.804  0.00  0.00    -0.074 A 
ATOM      3  C2  UNL d   1      -1.077   1.232   3.234  0.00  0.00    -0.005 A 
ATOM      4  C3  UNL d   1      -0.202   1.944   2.414  0.00  0.00     0.006 A 
ATOM      5  C4  UNL d   1       0.147   1.446   1.158  0.00  0.00    -0.005 A 
ATOM      6  C5  UNL d   1      -0.376   0.229   0.712  0.00  0.00    -0.074 A 
ATOM      7  C6  UNL d   1      -0.002  -0.326  -0.631  0.00  0.00     0.077 C 
ATOM      8  C7  UNL d   1      -1.249  -0.485   1.544  0.00  0.00    -0.001 A 
ENDROOT
TORSDOF 0
ENDMDL
