MODEL 1
REMARK minimizedAffinity -3.92586732
REMARK minimizedRMSD -1
REMARK  0 active torsions:
REMARK  status: ('A' for Active; 'I' for Inactive)
ROOT
ATOM      1  C   UNL d   1      -3.376   0.649   1.521  0.00  0.00     0.077 C 
ATOM      2  C1  UNL d   1      -1.886   0.510   1.408  0.00  0.00    -0.074 A 
ATOM      3  C2  UNL d   1      -1.053   0.794   2.495  0.00  0.00    -0.005 A 
ATOM      4  C3  UNL d   1       0.329   0.651   2.378  0.00  0.00     0.006 A 
ATOM      5  C4  UNL d   1       0.892   0.223   1.175  0.00  0.00    -0.005 A 
ATOM      6  C5  UNL d   1       0.074  -0.066   0.077  0.00  0.00    -0.074 A 
ATOM      7  C6  UNL d   1       0.662  -0.537  -1.220  0.00  0.00     0.077 C 
ATOM      8  C7  UNL d   1      -1.314   0.073   0.205  0.00  0.00    -0.001 A 
ENDROOT
TORSDOF 0
ENDMDL
