MODEL 1
REMARK minimizedAffinity -3.4929378
REMARK minimizedRMSD -1
REMARK  0 active torsions:
REMARK  status: ('A' for Active; 'I' for Inactive)
ROOT
ATOM      1  C   UNL d   1      -0.461   1.626   2.980  0.00  0.00     0.077 C 
ATOM      2  C1  UNL d   1      -0.541   0.781   1.743  0.00  0.00    -0.074 A 
ATOM      3  C2  UNL d   1      -1.774   0.488   1.152  0.00  0.00    -0.005 A 
ATOM      4  C3  UNL d   1      -1.832  -0.291  -0.004  0.00  0.00     0.006 A 
ATOM      5  C4  UNL d   1      -0.660  -0.783  -0.579  0.00  0.00    -0.005 A 
ATOM      6  C5  UNL d   1       0.582  -0.500  -0.002  0.00  0.00    -0.074 A 
ATOM      7  C6  UNL d   1       1.852  -1.013  -0.613  0.00  0.00     0.077 C 
ATOM      8  C7  UNL d   1       0.632   0.289   1.155  0.00  0.00    -0.001 A 
ENDROOT
TORSDOF 0
ENDMDL
