MODEL 1
REMARK minimizedAffinity -3.57108831
REMARK minimizedRMSD -1
REMARK  0 active torsions:
REMARK  status: ('A' for Active; 'I' for Inactive)
ROOT
ATOM      1  C   UNL d   1      -3.213   0.146   2.015  0.00  0.00     0.077 C 
ATOM      2  C1  UNL d   1      -1.757   0.450   1.830  0.00  0.00    -0.074 A 
ATOM      3  C2  UNL d   1      -1.139   1.476   2.552  0.00  0.00    -0.005 A 
ATOM      4  C3  UNL d   1       0.219   1.741   2.376  0.00  0.00     0.006 A 
ATOM      5  C4  UNL d   1       0.972   0.985   1.477  0.00  0.00    -0.005 A 
ATOM      6  C5  UNL d   1       0.372  -0.045   0.746  0.00  0.00    -0.074 A 
ATOM      7  C6  UNL d   1       1.168  -0.874  -0.217  0.00  0.00     0.077 C 
ATOM      8  C7  UNL d   1      -0.992  -0.310   0.934  0.00  0.00    -0.001 A 
ENDROOT
TORSDOF 0
ENDMDL
