MODEL 1
REMARK minimizedAffinity -4.18139362
REMARK minimizedRMSD -1
REMARK  0 active torsions:
REMARK  status: ('A' for Active; 'I' for Inactive)
ROOT
ATOM      1  C   UNL d   1      -0.641   1.734   2.971  0.00  0.00     0.077 C 
ATOM      2  C1  UNL d   1       0.094   0.896   1.967  0.00  0.00    -0.074 A 
ATOM      3  C2  UNL d   1       1.448   0.591   2.139  0.00  0.00    -0.005 A 
ATOM      4  C3  UNL d   1       2.116  -0.198   1.202  0.00  0.00     0.006 A 
ATOM      5  C4  UNL d   1       1.438  -0.688   0.086  0.00  0.00    -0.005 A 
ATOM      6  C5  UNL d   1       0.084  -0.395  -0.102  0.00  0.00    -0.074 A 
ATOM      7  C6  UNL d   1      -0.663  -0.923  -1.291  0.00  0.00     0.077 C 
ATOM      8  C7  UNL d   1      -0.582   0.392   0.847  0.00  0.00    -0.001 A 
ENDROOT
TORSDOF 0
ENDMDL
