MODEL 1
REMARK minimizedAffinity -4.27720928
REMARK minimizedRMSD -1
REMARK  0 active torsions:
REMARK  status: ('A' for Active; 'I' for Inactive)
ROOT
ATOM      1  C   UNL d   1      -3.108   0.784   2.254  0.00  0.00     0.077 C 
ATOM      2  C1  UNL d   1      -1.652   0.710   1.905  0.00  0.00    -0.074 A 
ATOM      3  C2  UNL d   1      -0.675   1.166   2.796  0.00  0.00    -0.005 A 
ATOM      4  C3  UNL d   1       0.677   1.083   2.461  0.00  0.00     0.006 A 
ATOM      5  C4  UNL d   1       1.064   0.543   1.234  0.00  0.00    -0.005 A 
ATOM      6  C5  UNL d   1       0.102   0.082   0.331  0.00  0.00    -0.074 A 
ATOM      7  C6  UNL d   1       0.502  -0.510  -0.988  0.00  0.00     0.077 C 
ATOM      8  C7  UNL d   1      -1.254   0.163   0.677  0.00  0.00    -0.001 A 
ENDROOT
TORSDOF 0
ENDMDL
