MODEL 1
REMARK minimizedAffinity -3.80365586
REMARK minimizedRMSD -1
REMARK  0 active torsions:
REMARK  status: ('A' for Active; 'I' for Inactive)
ROOT
ATOM      1  O1  BZF d   1      -1.003  -2.281   1.177  0.00  0.00    -0.204 OA
ATOM      2  C2  BZF d   1      -0.194  -3.162   0.486  0.00  0.00     0.174 A 
ATOM      3  C3  BZF d   1       0.481  -2.525  -0.492  0.00  0.00    -0.012 A 
ATOM      4  C3A BZF d   1       0.138  -1.143  -0.348  0.00  0.00    -0.107 A 
ATOM      5  C4  BZF d   1       0.503  -0.010  -1.017  0.00  0.00     0.055 A 
ATOM      6  C5  BZF d   1      -0.069   1.173  -0.673  0.00  0.00    -0.016 A 
ATOM      7  C6  BZF d   1      -1.013   1.259   0.330  0.00  0.00     0.022 A 
ATOM      8  C7  BZF d   1      -1.403   0.164   1.025  0.00  0.00     0.029 A 
ATOM      9  C7A BZF d   1      -0.803  -1.029   0.702  0.00  0.00     0.058 A 
ENDROOT
TORSDOF 0
ENDMDL
