MODEL 1
REMARK minimizedAffinity -3.27890921
REMARK minimizedRMSD -1
REMARK  0 active torsions:
REMARK  status: ('A' for Active; 'I' for Inactive)
ROOT
ATOM      1  O1  BZF d   1      -0.616   0.727   0.064  0.00  0.00    -0.204 OA
ATOM      2  C2  BZF d   1      -0.006   1.328  -1.020  0.00  0.00     0.174 A 
ATOM      3  C3  BZF d   1       0.845   0.474  -1.624  0.00  0.00    -0.012 A 
ATOM      4  C3A BZF d   1       0.693  -0.766  -0.927  0.00  0.00    -0.107 A 
ATOM      5  C4  BZF d   1       1.260  -2.000  -1.070  0.00  0.00     0.055 A 
ATOM      6  C5  BZF d   1       0.949  -2.977  -0.179  0.00  0.00    -0.016 A 
ATOM      7  C6  BZF d   1       0.081  -2.755   0.870  0.00  0.00     0.022 A 
ATOM      8  C7  BZF d   1      -0.510  -1.548   1.050  0.00  0.00     0.029 A 
ATOM      9  C7A BZF d   1      -0.224  -0.568   0.132  0.00  0.00     0.058 A 
ENDROOT
TORSDOF 0
ENDMDL
