MODEL 1
REMARK minimizedAffinity -1.13631284
REMARK minimizedRMSD -1
REMARK  0 active torsions:
REMARK  status: ('A' for Active; 'I' for Inactive)
ROOT
ATOM      1  O1  BZF d   1       0.700   0.746  -1.212  0.00  0.00    -0.204 OA
ATOM      2  C2  BZF d   1       0.380   1.973  -0.664  0.00  0.00     0.174 A 
ATOM      3  C3  BZF d   1      -0.460   1.827   0.380  0.00  0.00    -0.012 A 
ATOM      4  C3A BZF d   1      -0.607   0.413   0.550  0.00  0.00    -0.107 A 
ATOM      5  C4  BZF d   1      -1.305  -0.359   1.434  0.00  0.00     0.055 A 
ATOM      6  C5  BZF d   1      -1.295  -1.709   1.283  0.00  0.00    -0.016 A 
ATOM      7  C6  BZF d   1      -0.603  -2.320   0.257  0.00  0.00     0.022 A 
ATOM      8  C7  BZF d   1       0.108  -1.596  -0.641  0.00  0.00     0.029 A 
ATOM      9  C7A BZF d   1       0.127  -0.233  -0.472  0.00  0.00     0.058 A 
ENDROOT
TORSDOF 0
ENDMDL
