MODEL 1
REMARK minimizedAffinity -3.34342623
REMARK minimizedRMSD -1
REMARK  0 active torsions:
REMARK  status: ('A' for Active; 'I' for Inactive)
ROOT
ATOM      1  O1  BZF d   1       1.419   0.473  -0.501  0.00  0.00    -0.204 OA
ATOM      2  C2  BZF d   1       0.796   1.659  -0.166  0.00  0.00     0.174 A 
ATOM      3  C3  BZF d   1      -0.397   1.424   0.418  0.00  0.00    -0.012 A 
ATOM      4  C3A BZF d   1      -0.486   0.001   0.533  0.00  0.00    -0.107 A 
ATOM      5  C4  BZF d   1      -1.430  -0.842   1.046  0.00  0.00     0.055 A 
ATOM      6  C5  BZF d   1      -1.245  -2.184   0.937  0.00  0.00    -0.016 A 
ATOM      7  C6  BZF d   1      -0.133  -2.717   0.319  0.00  0.00     0.022 A 
ATOM      8  C7  BZF d   1       0.833  -1.920  -0.199  0.00  0.00     0.029 A 
ATOM      9  C7A BZF d   1       0.666  -0.564  -0.062  0.00  0.00     0.058 A 
ENDROOT
TORSDOF 0
ENDMDL
