MODEL 1
REMARK minimizedAffinity -3.16676712
REMARK minimizedRMSD -1
REMARK  0 active torsions:
REMARK  status: ('A' for Active; 'I' for Inactive)
ROOT
ATOM      1  O1  BZF d   1       1.191   3.874  -0.191  0.00  0.00    -0.204 OA
ATOM      2  C2  BZF d   1       2.390   3.923   0.493  0.00  0.00     0.174 A 
ATOM      3  C3  BZF d   1       2.659   2.734   1.071  0.00  0.00    -0.012 A 
ATOM      4  C3A BZF d   1       1.605   1.864   0.651  0.00  0.00    -0.107 A 
ATOM      5  C4  BZF d   1       1.325   0.547   0.883  0.00  0.00     0.055 A 
ATOM      6  C5  BZF d   1       0.177   0.018   0.385  0.00  0.00    -0.016 A 
ATOM      7  C6  BZF d   1      -0.716   0.776  -0.344  0.00  0.00     0.022 A 
ATOM      8  C7  BZF d   1      -0.479   2.085  -0.605  0.00  0.00     0.029 A 
ATOM      9  C7A BZF d   1       0.696   2.614  -0.131  0.00  0.00     0.058 A 
ENDROOT
TORSDOF 0
ENDMDL
