MODEL 1
REMARK minimizedAffinity -2.30251741
REMARK minimizedRMSD -1
REMARK  0 active torsions:
REMARK  status: ('A' for Active; 'I' for Inactive)
ROOT
ATOM      1  O1  BZF d   1      -1.050   0.759   0.427  0.00  0.00    -0.204 OA
ATOM      2  C2  BZF d   1       0.282   0.989   0.139  0.00  0.00     0.174 A 
ATOM      3  C3  BZF d   1       0.972  -0.169   0.108  0.00  0.00    -0.012 A 
ATOM      4  C3A BZF d   1      -0.006  -1.195   0.303  0.00  0.00    -0.107 A 
ATOM      5  C4  BZF d   1       0.061  -2.558   0.356  0.00  0.00     0.055 A 
ATOM      6  C5  BZF d   1      -1.067  -3.265   0.634  0.00  0.00    -0.016 A 
ATOM      7  C6  BZF d   1      -2.275  -2.641   0.869  0.00  0.00     0.022 A 
ATOM      8  C7  BZF d   1      -2.391  -1.292   0.823  0.00  0.00     0.029 A 
ATOM      9  C7A BZF d   1      -1.261  -0.577   0.509  0.00  0.00     0.058 A 
ENDROOT
TORSDOF 0
ENDMDL
