MODEL 1
REMARK minimizedAffinity -2.21888232
REMARK minimizedRMSD -1
REMARK  0 active torsions:
REMARK  status: ('A' for Active; 'I' for Inactive)
ROOT
ATOM      1  O1  BZF d   1       0.850   0.320  -0.180  0.00  0.00    -0.204 OA
ATOM      2  C2  BZF d   1       0.061   1.160   0.582  0.00  0.00     0.174 A 
ATOM      3  C3  BZF d   1      -0.991   0.491   1.096  0.00  0.00    -0.012 A 
ATOM      4  C3A BZF d   1      -0.800  -0.871   0.702  0.00  0.00    -0.107 A 
ATOM      5  C4  BZF d   1      -1.505  -2.020   0.922  0.00  0.00     0.055 A 
ATOM      6  C5  BZF d   1      -1.089  -3.173   0.336  0.00  0.00    -0.016 A 
ATOM      7  C6  BZF d   1       0.024  -3.213  -0.479  0.00  0.00     0.022 A 
ATOM      8  C7  BZF d   1       0.758  -2.100  -0.723  0.00  0.00     0.029 A 
ATOM      9  C7A BZF d   1       0.358  -0.940  -0.105  0.00  0.00     0.058 A 
ENDROOT
TORSDOF 0
ENDMDL
