MODEL 1
REMARK minimizedAffinity -3.39564347
REMARK minimizedRMSD -1
REMARK  0 active torsions:
REMARK  status: ('A' for Active; 'I' for Inactive)
ROOT
ATOM      1  O1  BZF d   1      -0.355  -1.385   1.341  0.00  0.00    -0.204 OA
ATOM      2  C2  BZF d   1       0.005  -2.705   1.149  0.00  0.00     0.174 A 
ATOM      3  C3  BZF d   1       0.434  -2.904  -0.114  0.00  0.00    -0.012 A 
ATOM      4  C3A BZF d   1       0.424  -1.610  -0.724  0.00  0.00    -0.107 A 
ATOM      5  C4  BZF d   1       0.761  -1.155  -1.966  0.00  0.00     0.055 A 
ATOM      6  C5  BZF d   1       0.565   0.157  -2.265  0.00  0.00    -0.016 A 
ATOM      7  C6  BZF d   1       0.032   1.038  -1.348  0.00  0.00     0.022 A 
ATOM      8  C7  BZF d   1      -0.313   0.635  -0.101  0.00  0.00     0.029 A 
ATOM      9  C7A BZF d   1      -0.086  -0.683   0.215  0.00  0.00     0.058 A 
ENDROOT
TORSDOF 0
ENDMDL
