MODEL 1
REMARK minimizedAffinity -6.82054329
REMARK minimizedRMSD -1
REMARK  0 active torsions:
REMARK  status: ('A' for Active; 'I' for Inactive)
ROOT
ATOM      1  O1  BZF d   1      -0.259  -1.265   1.396  0.00  0.00    -0.204 OA
ATOM      2  C2  BZF d   1      -0.184  -2.638   1.261  0.00  0.00     0.174 A 
ATOM      3  C3  BZF d   1      -0.041  -2.984  -0.034  0.00  0.00    -0.012 A 
ATOM      4  C3A BZF d   1       0.068  -1.747  -0.745  0.00  0.00    -0.107 A 
ATOM      5  C4  BZF d   1       0.243  -1.433  -2.062  0.00  0.00     0.055 A 
ATOM      6  C5  BZF d   1       0.234  -0.127  -2.437  0.00  0.00    -0.016 A 
ATOM      7  C6  BZF d   1       0.048   0.889  -1.523  0.00  0.00     0.022 A 
ATOM      8  C7  BZF d   1      -0.125   0.628  -0.204  0.00  0.00     0.029 A 
ATOM      9  C7A BZF d   1      -0.083  -0.690   0.182  0.00  0.00     0.058 A 
ENDROOT
TORSDOF 0
ENDMDL
