MODEL 1
REMARK minimizedAffinity -4.29804802
REMARK minimizedRMSD -1
REMARK  0 active torsions:
REMARK  status: ('A' for Active; 'I' for Inactive)
ROOT
ATOM      1  O1  BZF d   1       0.779  -2.569   0.017  0.00  0.00    -0.204 OA
ATOM      2  C2  BZF d   1      -0.194  -3.181   0.783  0.00  0.00     0.174 A 
ATOM      3  C3  BZF d   1      -1.080  -2.275   1.245  0.00  0.00    -0.012 A 
ATOM      4  C3A BZF d   1      -0.685  -1.031   0.659  0.00  0.00    -0.107 A 
ATOM      5  C4  BZF d   1      -1.184   0.239   0.726  0.00  0.00     0.055 A 
ATOM      6  C5  BZF d   1      -0.521   1.243   0.094  0.00  0.00    -0.016 A 
ATOM      7  C6  BZF d   1       0.644   1.015  -0.607  0.00  0.00     0.022 A 
ATOM      8  C7  BZF d   1       1.175  -0.228  -0.706  0.00  0.00     0.029 A 
ATOM      9  C7A BZF d   1       0.490  -1.251  -0.096  0.00  0.00     0.058 A 
ENDROOT
TORSDOF 0
ENDMDL
