MODEL 1
REMARK minimizedAffinity -2.40016508
REMARK minimizedRMSD -1
REMARK  0 active torsions:
REMARK  status: ('A' for Active; 'I' for Inactive)
ROOT
ATOM      1  O1  BZF d   1      -0.750  -2.960   0.603  0.00  0.00    -0.204 OA
ATOM      2  C2  BZF d   1       0.158  -3.463  -0.309  0.00  0.00     0.174 A 
ATOM      3  C3  BZF d   1       0.710  -2.468  -1.033  0.00  0.00    -0.012 A 
ATOM      4  C3A BZF d   1       0.177  -1.260  -0.481  0.00  0.00    -0.107 A 
ATOM      5  C4  BZF d   1       0.360   0.063  -0.766  0.00  0.00     0.055 A 
ATOM      6  C5  BZF d   1      -0.366   0.991  -0.088  0.00  0.00    -0.016 A 
ATOM      7  C6  BZF d   1      -1.286   0.631   0.875  0.00  0.00     0.022 A 
ATOM      8  C7  BZF d   1      -1.498  -0.668   1.195  0.00  0.00     0.029 A 
ATOM      9  C7A BZF d   1      -0.742  -1.607   0.536  0.00  0.00     0.058 A 
ENDROOT
TORSDOF 0
ENDMDL
