MODEL 1
REMARK minimizedAffinity -3.72192931
REMARK minimizedRMSD -1
REMARK  0 active torsions:
REMARK  status: ('A' for Active; 'I' for Inactive)
ROOT
ATOM      1  O1  BZF d   1       0.780  -0.635  -1.549  0.00  0.00    -0.204 OA
ATOM      2  C2  BZF d   1       0.510   0.720  -1.561  0.00  0.00     0.174 A 
ATOM      3  C3  BZF d   1      -0.158   1.084  -0.447  0.00  0.00    -0.012 A 
ATOM      4  C3A BZF d   1      -0.234  -0.101   0.351  0.00  0.00    -0.107 A 
ATOM      5  C4  BZF d   1      -0.766  -0.374   1.578  0.00  0.00     0.055 A 
ATOM      6  C5  BZF d   1      -0.739  -1.651   2.041  0.00  0.00    -0.016 A 
ATOM      7  C6  BZF d   1      -0.192  -2.680   1.302  0.00  0.00     0.022 A 
ATOM      8  C7  BZF d   1       0.352  -2.457   0.081  0.00  0.00     0.029 A 
ATOM      9  C7A BZF d   1       0.355  -1.162  -0.375  0.00  0.00     0.058 A 
ENDROOT
TORSDOF 0
ENDMDL
