MODEL 1
REMARK minimizedAffinity -4.53970194
REMARK minimizedRMSD -1
REMARK  0 active torsions:
REMARK  status: ('A' for Active; 'I' for Inactive)
ROOT
ATOM      1  O1  BZF d   1       1.009  -2.605  -1.323  0.00  0.00    -0.204 OA
ATOM      2  C2  BZF d   1       1.249  -1.580  -2.217  0.00  0.00     0.174 A 
ATOM      3  C3  BZF d   1       0.698  -0.428  -1.784  0.00  0.00    -0.012 A 
ATOM      4  C3A BZF d   1       0.152  -0.733  -0.497  0.00  0.00    -0.107 A 
ATOM      5  C4  BZF d   1      -0.511   0.006   0.441  0.00  0.00     0.055 A 
ATOM      6  C5  BZF d   1      -0.974  -0.609   1.560  0.00  0.00    -0.016 A 
ATOM      7  C6  BZF d   1      -0.798  -1.961   1.771  0.00  0.00     0.022 A 
ATOM      8  C7  BZF d   1      -0.142  -2.735   0.872  0.00  0.00     0.029 A 
ATOM      9  C7A BZF d   1       0.356  -2.109  -0.245  0.00  0.00     0.058 A 
ENDROOT
TORSDOF 0
ENDMDL
