MODEL 1
REMARK minimizedAffinity -0.823507249
REMARK minimizedRMSD -1
REMARK  0 active torsions:
REMARK  status: ('A' for Active; 'I' for Inactive)
ROOT
ATOM      1  O1  BZF d   1      -1.514  -0.177   0.545  0.00  0.00    -0.204 OA
ATOM      2  C2  BZF d   1      -0.734   0.833   0.016  0.00  0.00     0.174 A 
ATOM      3  C3  BZF d   1       0.485   0.367  -0.326  0.00  0.00    -0.012 A 
ATOM      4  C3A BZF d   1       0.434  -1.040  -0.074  0.00  0.00    -0.107 A 
ATOM      5  C4  BZF d   1       1.335  -2.055  -0.230  0.00  0.00     0.055 A 
ATOM      6  C5  BZF d   1       0.998  -3.306   0.180  0.00  0.00    -0.016 A 
ATOM      7  C6  BZF d   1      -0.227  -3.577   0.753  0.00  0.00     0.022 A 
ATOM      8  C7  BZF d   1      -1.155  -2.604   0.924  0.00  0.00     0.029 A 
ATOM      9  C7A BZF d   1      -0.830  -1.345   0.481  0.00  0.00     0.058 A 
ENDROOT
TORSDOF 0
ENDMDL
