MODEL 1
REMARK minimizedAffinity -0.436641335
REMARK minimizedRMSD -1
REMARK  0 active torsions:
REMARK  status: ('A' for Active; 'I' for Inactive)
ROOT
ATOM      1  O1  BZF d   1      -0.767  -2.569  -0.286  0.00  0.00    -0.204 OA
ATOM      2  C2  BZF d   1      -1.123  -2.364   1.033  0.00  0.00     0.174 A 
ATOM      3  C3  BZF d   1      -0.920  -1.079   1.389  0.00  0.00    -0.012 A 
ATOM      4  C3A BZF d   1      -0.492  -0.420   0.194  0.00  0.00    -0.107 A 
ATOM      5  C4  BZF d   1      -0.151   0.870  -0.097  0.00  0.00     0.055 A 
ATOM      6  C5  BZF d   1       0.293   1.170  -1.345  0.00  0.00    -0.016 A 
ATOM      7  C6  BZF d   1       0.414   0.206  -2.325  0.00  0.00     0.022 A 
ATOM      8  C7  BZF d   1       0.084  -1.086  -2.085  0.00  0.00     0.029 A 
ATOM      9  C7A BZF d   1      -0.397  -1.387  -0.834  0.00  0.00     0.058 A 
ENDROOT
TORSDOF 0
ENDMDL
