MODEL 1
REMARK minimizedAffinity -3.75444293
REMARK minimizedRMSD -1
REMARK  0 active torsions:
REMARK  status: ('A' for Active; 'I' for Inactive)
ROOT
ATOM      1  O1  BZF d   1       0.385   0.615  -0.951  0.00  0.00    -0.204 OA
ATOM      2  C2  BZF d   1      -0.301   1.647  -0.342  0.00  0.00     0.174 A 
ATOM      3  C3  BZF d   1      -1.096   1.179   0.642  0.00  0.00    -0.012 A 
ATOM      4  C3A BZF d   1      -0.825  -0.224   0.709  0.00  0.00    -0.107 A 
ATOM      5  C4  BZF d   1      -1.294  -1.234   1.499  0.00  0.00     0.055 A 
ATOM      6  C5  BZF d   1      -0.881  -2.507   1.259  0.00  0.00    -0.016 A 
ATOM      7  C6  BZF d   1      -0.006  -2.805   0.235  0.00  0.00     0.022 A 
ATOM      8  C7  BZF d   1       0.490  -1.836  -0.572  0.00  0.00     0.029 A 
ATOM      9  C7A BZF d   1       0.100  -0.545  -0.311  0.00  0.00     0.058 A 
ENDROOT
TORSDOF 0
ENDMDL
