MODEL 1
REMARK minimizedAffinity -2.96933317
REMARK minimizedRMSD -1
REMARK  0 active torsions:
REMARK  status: ('A' for Active; 'I' for Inactive)
ROOT
ATOM      1  O1  BZF d   1      -0.773   0.712   0.674  0.00  0.00    -0.204 OA
ATOM      2  C2  BZF d   1       0.004   1.516  -0.137  0.00  0.00     0.174 A 
ATOM      3  C3  BZF d   1       0.888   0.777  -0.837  0.00  0.00    -0.012 A 
ATOM      4  C3A BZF d   1       0.587  -0.582  -0.508  0.00  0.00    -0.107 A 
ATOM      5  C4  BZF d   1       1.111  -1.781  -0.899  0.00  0.00     0.055 A 
ATOM      6  C5  BZF d   1       0.639  -2.924  -0.335  0.00  0.00    -0.016 A 
ATOM      7  C6  BZF d   1      -0.351  -2.904   0.626  0.00  0.00     0.022 A 
ATOM      8  C7  BZF d   1      -0.905  -1.739   1.042  0.00  0.00     0.029 A 
ATOM      9  C7A BZF d   1      -0.453  -0.585   0.450  0.00  0.00     0.058 A 
ENDROOT
TORSDOF 0
ENDMDL
