MODEL 1
REMARK minimizedAffinity 4.43727255
REMARK minimizedRMSD -1
REMARK  0 active torsions:
REMARK  status: ('A' for Active; 'I' for Inactive)
ROOT
ATOM      1  C   UNL d   1       5.879  -3.682   4.685  0.00  0.00     0.124 A 
ATOM      2  C1  UNL d   1       5.865  -2.371   4.231  0.00  0.00     0.062 A 
ATOM      3  C2  UNL d   1       5.881  -2.103   2.865  0.00  0.00     0.162 A 
ATOM      4  C3  UNL d   1       5.910  -3.149   1.943  0.00  0.00    -0.034 A 
ATOM      5  C4  UNL d   1       5.925  -4.465   2.408  0.00  0.00     0.162 A 
ATOM      6  C5  UNL d   1       5.909  -4.728   3.774  0.00  0.00     0.062 A 
ATOM      7  F   UNL d   1       5.923  -5.996   4.211  0.00  0.00    -0.097 F 
ATOM      8  F1  UNL d   1       5.953  -5.495   1.549  0.00  0.00    -0.096 F 
ATOM      9  I   UNL d   1       5.934  -2.753  -0.100  0.00  0.00    -0.060 I 
ATOM     10  F2  UNL d   1       5.867  -0.826   2.454  0.00  0.00    -0.096 F 
ATOM     11  F3  UNL d   1       5.838  -1.358   5.110  0.00  0.00    -0.097 F 
ATOM     12  F4  UNL d   1       5.865  -3.937   6.000  0.00  0.00    -0.092 F 
ENDROOT
TORSDOF 0
ENDMDL
