MODEL 1
REMARK minimizedAffinity -2.53890252
REMARK minimizedRMSD -1
REMARK  0 active torsions:
REMARK  status: ('A' for Active; 'I' for Inactive)
ROOT
ATOM      1  C   UNL d   1       5.954  -3.633   0.972  0.00  0.00     0.124 A 
ATOM      2  C1  UNL d   1       5.951  -4.831   1.673  0.00  0.00     0.062 A 
ATOM      3  C2  UNL d   1       5.905  -4.828   3.064  0.00  0.00     0.162 A 
ATOM      4  C3  UNL d   1       5.859  -3.622   3.764  0.00  0.00    -0.034 A 
ATOM      5  C4  UNL d   1       5.863  -2.421   3.051  0.00  0.00     0.162 A 
ATOM      6  C5  UNL d   1       5.909  -2.430   1.661  0.00  0.00     0.062 A 
ATOM      7  F   UNL d   1       5.912  -1.271   0.985  0.00  0.00    -0.097 F 
ATOM      8  F1  UNL d   1       5.819  -1.244   3.693  0.00  0.00    -0.096 F 
ATOM      9  I   UNL d   1       5.789  -3.612   5.844  0.00  0.00    -0.060 I 
ATOM     10  F2  UNL d   1       5.904  -6.000   3.716  0.00  0.00    -0.096 F 
ATOM     11  F3  UNL d   1       5.995  -5.995   1.009  0.00  0.00    -0.097 F 
ATOM     12  F4  UNL d   1       6.000  -3.639  -0.367  0.00  0.00    -0.092 F 
ENDROOT
TORSDOF 0
ENDMDL
