MODEL 1
REMARK minimizedAffinity -2.20391655
REMARK minimizedRMSD -1
REMARK  0 active torsions:
REMARK  status: ('A' for Active; 'I' for Inactive)
ROOT
ATOM      1  C   UNL d   1       5.626  -2.377   2.320  0.00  0.00     0.124 A 
ATOM      2  C1  UNL d   1       5.762  -3.688   1.886  0.00  0.00     0.062 A 
ATOM      3  C2  UNL d   1       5.868  -4.724   2.809  0.00  0.00     0.162 A 
ATOM      4  C3  UNL d   1       5.838  -4.453   4.177  0.00  0.00    -0.034 A 
ATOM      5  C4  UNL d   1       5.702  -3.132   4.607  0.00  0.00     0.162 A 
ATOM      6  C5  UNL d   1       5.597  -2.100   3.680  0.00  0.00     0.062 A 
ATOM      7  F   UNL d   1       5.465  -0.834   4.101  0.00  0.00    -0.097 F 
ATOM      8  F1  UNL d   1       5.670  -2.836   5.914  0.00  0.00    -0.096 F 
ATOM      9  I   UNL d   1       5.997  -6.000   5.561  0.00  0.00    -0.060 I 
ATOM     10  F2  UNL d   1       5.999  -5.982   2.361  0.00  0.00    -0.096 F 
ATOM     11  F3  UNL d   1       5.792  -3.958   0.573  0.00  0.00    -0.097 F 
ATOM     12  F4  UNL d   1       5.525  -1.382   1.429  0.00  0.00    -0.092 F 
ENDROOT
TORSDOF 0
ENDMDL
