MODEL 1
REMARK minimizedAffinity -0.317214191
REMARK minimizedRMSD -1
REMARK  0 active torsions:
REMARK  status: ('A' for Active; 'I' for Inactive)
ROOT
ATOM      1  C   UNL d   1       5.990  -2.549   1.800  0.00  0.00     0.124 A 
ATOM      2  C1  UNL d   1       5.989  -3.937   1.783  0.00  0.00     0.062 A 
ATOM      3  C2  UNL d   1       5.989  -4.652   2.977  0.00  0.00     0.162 A 
ATOM      4  C3  UNL d   1       5.988  -3.980   4.200  0.00  0.00    -0.034 A 
ATOM      5  C4  UNL d   1       5.990  -2.584   4.209  0.00  0.00     0.162 A 
ATOM      6  C5  UNL d   1       5.991  -1.874   3.013  0.00  0.00     0.062 A 
ATOM      7  F   UNL d   1       5.992  -0.533   3.032  0.00  0.00    -0.097 F 
ATOM      8  F1  UNL d   1       5.989  -1.906   5.367  0.00  0.00    -0.096 F 
ATOM      9  I   UNL d   1       5.987  -5.045   5.988  0.00  0.00    -0.060 I 
ATOM     10  F2  UNL d   1       5.988  -5.992   2.931  0.00  0.00    -0.096 F 
ATOM     11  F3  UNL d   1       5.990  -4.591   0.613  0.00  0.00    -0.097 F 
ATOM     12  F4  UNL d   1       5.992  -1.863   0.650  0.00  0.00    -0.092 F 
ENDROOT
TORSDOF 0
ENDMDL
