MODEL 1
REMARK minimizedAffinity -1.1618911
REMARK minimizedRMSD -1
REMARK  0 active torsions:
REMARK  status: ('A' for Active; 'I' for Inactive)
ROOT
ATOM      1  C   UNL d   1       5.913  -3.636   1.133  0.00  0.00     0.124 A 
ATOM      2  C1  UNL d   1       5.823  -2.422   1.800  0.00  0.00     0.062 A 
ATOM      3  C2  UNL d   1       5.733  -2.391   3.189  0.00  0.00     0.162 A 
ATOM      4  C3  UNL d   1       5.733  -3.578   3.921  0.00  0.00    -0.034 A 
ATOM      5  C4  UNL d   1       5.822  -4.796   3.243  0.00  0.00     0.162 A 
ATOM      6  C5  UNL d   1       5.912  -4.821   1.855  0.00  0.00     0.062 A 
ATOM      7  F   UNL d   1       5.999  -5.995   1.212  0.00  0.00    -0.097 F 
ATOM      8  F1  UNL d   1       5.825  -5.956   3.915  0.00  0.00    -0.096 F 
ATOM      9  I   UNL d   1       5.598  -3.537   5.997  0.00  0.00    -0.060 I 
ATOM     10  F2  UNL d   1       5.648  -1.204   3.807  0.00  0.00    -0.096 F 
ATOM     11  F3  UNL d   1       5.823  -1.275   1.105  0.00  0.00    -0.097 F 
ATOM     12  F4  UNL d   1       5.998  -3.662  -0.203  0.00  0.00    -0.092 F 
ENDROOT
TORSDOF 0
ENDMDL
