MODEL 1
REMARK minimizedAffinity -2.32020569
REMARK minimizedRMSD -1
REMARK  0 active torsions:
REMARK  status: ('A' for Active; 'I' for Inactive)
ROOT
ATOM      1  C   UNL d   1       5.631  -2.378   2.451  0.00  0.00     0.124 A 
ATOM      2  C1  UNL d   1       5.748  -3.700   2.044  0.00  0.00     0.062 A 
ATOM      3  C2  UNL d   1       5.606  -4.732   2.967  0.00  0.00     0.162 A 
ATOM      4  C3  UNL d   1       5.346  -4.446   4.308  0.00  0.00    -0.034 A 
ATOM      5  C4  UNL d   1       5.230  -3.114   4.710  0.00  0.00     0.162 A 
ATOM      6  C5  UNL d   1       5.372  -2.087   3.783  0.00  0.00     0.062 A 
ATOM      7  F   UNL d   1       5.259  -0.810   4.178  0.00  0.00    -0.097 F 
ATOM      8  F1  UNL d   1       4.980  -2.804   5.990  0.00  0.00    -0.096 F 
ATOM      9  I   UNL d   1       5.134  -5.986   5.691  0.00  0.00    -0.060 I 
ATOM     10  F2  UNL d   1       5.724  -6.000   2.546  0.00  0.00    -0.096 F 
ATOM     11  F3  UNL d   1       5.999  -3.984   0.758  0.00  0.00    -0.097 F 
ATOM     12  F4  UNL d   1       5.768  -1.387   1.561  0.00  0.00    -0.092 F 
ENDROOT
TORSDOF 0
ENDMDL
