MODEL 1
REMARK minimizedAffinity -1.13460159
REMARK minimizedRMSD -1
REMARK  0 active torsions:
REMARK  status: ('A' for Active; 'I' for Inactive)
ROOT
ATOM      1  C   UNL d   1       5.999  -2.557   1.744  0.00  0.00     0.124 A 
ATOM      2  C1  UNL d   1       5.999  -3.945   1.728  0.00  0.00     0.062 A 
ATOM      3  C2  UNL d   1       5.999  -4.659   2.922  0.00  0.00     0.162 A 
ATOM      4  C3  UNL d   1       5.999  -3.986   4.144  0.00  0.00    -0.034 A 
ATOM      5  C4  UNL d   1       6.000  -2.590   4.153  0.00  0.00     0.162 A 
ATOM      6  C5  UNL d   1       5.999  -1.881   2.956  0.00  0.00     0.062 A 
ATOM      7  F   UNL d   1       5.999  -0.540   2.974  0.00  0.00    -0.097 F 
ATOM      8  F1  UNL d   1       5.999  -1.912   5.310  0.00  0.00    -0.096 F 
ATOM      9  I   UNL d   1       5.999  -5.051   5.933  0.00  0.00    -0.060 I 
ATOM     10  F2  UNL d   1       5.999  -5.999   2.876  0.00  0.00    -0.096 F 
ATOM     11  F3  UNL d   1       6.000  -4.600   0.558  0.00  0.00    -0.097 F 
ATOM     12  F4  UNL d   1       6.000  -1.872   0.593  0.00  0.00    -0.092 F 
ENDROOT
TORSDOF 0
ENDMDL
