MODEL 1
REMARK minimizedAffinity 7.23904181
REMARK minimizedRMSD -1
REMARK  0 active torsions:
REMARK  status: ('A' for Active; 'I' for Inactive)
ROOT
ATOM      1  C   UNL d   1       5.859  -3.616   1.150  0.00  0.00     0.124 A 
ATOM      2  C1  UNL d   1       5.812  -2.372   1.763  0.00  0.00     0.062 A 
ATOM      3  C2  UNL d   1       5.667  -2.277   3.144  0.00  0.00     0.162 A 
ATOM      4  C3  UNL d   1       5.568  -3.431   3.922  0.00  0.00    -0.034 A 
ATOM      5  C4  UNL d   1       5.615  -4.679   3.298  0.00  0.00     0.162 A 
ATOM      6  C5  UNL d   1       5.761  -4.768   1.918  0.00  0.00     0.062 A 
ATOM      7  F   UNL d   1       5.806  -5.971   1.327  0.00  0.00    -0.097 F 
ATOM      8  F1  UNL d   1       5.524  -5.808   4.016  0.00  0.00    -0.096 F 
ATOM      9  I   UNL d   1       5.351  -3.293   5.988  0.00  0.00    -0.060 I 
ATOM     10  F2  UNL d   1       5.625  -1.062   3.710  0.00  0.00    -0.096 F 
ATOM     11  F3  UNL d   1       5.906  -1.258   1.024  0.00  0.00    -0.097 F 
ATOM     12  F4  UNL d   1       5.998  -3.705  -0.179  0.00  0.00    -0.092 F 
ENDROOT
TORSDOF 0
ENDMDL
