MODEL 1
REMARK minimizedAffinity 2.56717277
REMARK minimizedRMSD -1
REMARK  0 active torsions:
REMARK  status: ('A' for Active; 'I' for Inactive)
ROOT
ATOM      1  C   UNL d   1       5.990  -2.363   1.393  0.00  0.00     0.124 A 
ATOM      2  C1  UNL d   1       5.993  -3.740   1.566  0.00  0.00     0.062 A 
ATOM      3  C2  UNL d   1       5.991  -4.285   2.847  0.00  0.00     0.162 A 
ATOM      4  C3  UNL d   1       5.985  -3.452   3.966  0.00  0.00    -0.034 A 
ATOM      5  C4  UNL d   1       5.983  -2.068   3.784  0.00  0.00     0.162 A 
ATOM      6  C5  UNL d   1       5.985  -1.528   2.502  0.00  0.00     0.062 A 
ATOM      7  F   UNL d   1       5.983  -0.198   2.336  0.00  0.00    -0.097 F 
ATOM      8  F1  UNL d   1       5.978  -1.238   4.838  0.00  0.00    -0.096 F 
ATOM      9  I   UNL d   1       5.982  -4.262   5.883  0.00  0.00    -0.060 I 
ATOM     10  F2  UNL d   1       5.994  -5.619   2.985  0.00  0.00    -0.096 F 
ATOM     11  F3  UNL d   1       5.999  -4.549   0.497  0.00  0.00    -0.097 F 
ATOM     12  F4  UNL d   1       5.993  -1.842   0.160  0.00  0.00    -0.092 F 
ENDROOT
TORSDOF 0
ENDMDL
