MODEL 1
REMARK minimizedAffinity 1.42622507
REMARK minimizedRMSD -1
REMARK  0 active torsions:
REMARK  status: ('A' for Active; 'I' for Inactive)
ROOT
ATOM      1  C   UNL d   1       5.829  -2.449   4.611  0.00  0.00     0.124 A 
ATOM      2  C1  UNL d   1       5.866  -3.829   4.761  0.00  0.00     0.062 A 
ATOM      3  C2  UNL d   1       5.909  -4.654   3.641  0.00  0.00     0.162 A 
ATOM      4  C3  UNL d   1       5.918  -4.102   2.360  0.00  0.00    -0.034 A 
ATOM      5  C4  UNL d   1       5.879  -2.714   2.217  0.00  0.00     0.162 A 
ATOM      6  C5  UNL d   1       5.836  -1.893   3.339  0.00  0.00     0.062 A 
ATOM      7  F   UNL d   1       5.801  -0.561   3.192  0.00  0.00    -0.097 F 
ATOM      8  F1  UNL d   1       5.886  -2.149   1.000  0.00  0.00    -0.096 F 
ATOM      9  I   UNL d   1       5.983  -5.332   0.682  0.00  0.00    -0.060 I 
ATOM     10  F2  UNL d   1       5.944  -5.983   3.816  0.00  0.00    -0.096 F 
ATOM     11  F3  UNL d   1       5.858  -4.368   5.988  0.00  0.00    -0.097 F 
ATOM     12  F4  UNL d   1       5.786  -1.658   5.690  0.00  0.00    -0.092 F 
ENDROOT
TORSDOF 0
ENDMDL
