MODEL 1
REMARK minimizedAffinity -0.48308298
REMARK minimizedRMSD -1
REMARK  0 active torsions:
REMARK  status: ('A' for Active; 'I' for Inactive)
ROOT
ATOM      1  C   UNL d   1       5.643  -2.342   2.424  0.00  0.00     0.124 A 
ATOM      2  C1  UNL d   1       5.400  -1.926   3.726  0.00  0.00     0.062 A 
ATOM      3  C2  UNL d   1       5.277  -2.863   4.748  0.00  0.00     0.162 A 
ATOM      4  C3  UNL d   1       5.399  -4.225   4.473  0.00  0.00    -0.034 A 
ATOM      5  C4  UNL d   1       5.643  -4.635   3.161  0.00  0.00     0.162 A 
ATOM      6  C5  UNL d   1       5.765  -3.696   2.143  0.00  0.00     0.062 A 
ATOM      7  F   UNL d   1       6.000  -4.099   0.886  0.00  0.00    -0.097 F 
ATOM      8  F1  UNL d   1       5.765  -5.937   2.862  0.00  0.00    -0.096 F 
ATOM      9  I   UNL d   1       5.216  -5.628   5.999  0.00  0.00    -0.060 I 
ATOM     10  F2  UNL d   1       5.042  -2.433   5.997  0.00  0.00    -0.096 F 
ATOM     11  F3  UNL d   1       5.282  -0.619   4.000  0.00  0.00    -0.097 F 
ATOM     12  F4  UNL d   1       5.760  -1.439   1.442  0.00  0.00    -0.092 F 
ENDROOT
TORSDOF 0
ENDMDL
