MODEL 1
REMARK minimizedAffinity 9.16976929
REMARK minimizedRMSD -1
REMARK  0 active torsions:
REMARK  status: ('A' for Active; 'I' for Inactive)
ROOT
ATOM      1  C2' OXE d   1       1.435  -0.108  -0.029  0.00  0.00     0.078 C 
ATOM      2  C1' OXE d   1      -0.971  -0.390  -1.447  0.00  0.00     0.078 C 
ATOM      3  C1  OXE d   1       0.253  -1.081  -1.994  0.00  0.00    -0.078 A 
ATOM      4  C2  OXE d   1       1.436  -0.899  -1.319  0.00  0.00    -0.078 A 
ATOM      5  C3  OXE d   1       2.584  -1.558  -1.750  0.00  0.00     0.003 A 
ATOM      6  C4  OXE d   1       2.579  -2.280  -2.950  0.00  0.00    -0.002 A 
ATOM      7  C5  OXE d   1       1.393  -2.444  -3.674  0.00  0.00    -0.002 A 
ATOM      8  C6  OXE d   1       0.215  -1.888  -3.188  0.00  0.00     0.003 A 
ENDROOT
TORSDOF 0
ENDMDL
