MODEL 1
REMARK minimizedAffinity 3.19057441
REMARK minimizedRMSD -1
REMARK  0 active torsions:
REMARK  status: ('A' for Active; 'I' for Inactive)
ROOT
ATOM      1  C2' OXE d   1       5.251   5.998   3.180  0.00  0.00     0.078 C 
ATOM      2  C1' OXE d   1       5.277   5.974   5.987  0.00  0.00     0.078 C 
ATOM      3  C1  OXE d   1       4.376   4.990   5.283  0.00  0.00    -0.078 A 
ATOM      4  C2  OXE d   1       4.335   5.040   3.911  0.00  0.00    -0.078 A 
ATOM      5  C3  OXE d   1       3.562   4.119   3.210  0.00  0.00     0.003 A 
ATOM      6  C4  OXE d   1       2.710   3.243   3.894  0.00  0.00    -0.002 A 
ATOM      7  C5  OXE d   1       2.707   3.202   5.292  0.00  0.00    -0.002 A 
ATOM      8  C6  OXE d   1       3.564   4.038   6.000  0.00  0.00     0.003 A 
ENDROOT
TORSDOF 0
ENDMDL
