MODEL 1
REMARK minimizedAffinity 13.0886507
REMARK minimizedRMSD -1
REMARK  0 active torsions:
REMARK  status: ('A' for Active; 'I' for Inactive)
ROOT
ATOM      1  C2' OXE d   1      -5.856   2.150   5.919  0.00  0.00     0.078 C 
ATOM      2  C1' OXE d   1      -5.564   2.247   3.129  0.00  0.00     0.078 C 
ATOM      3  C1  OXE d   1      -5.690   3.555   3.869  0.00  0.00    -0.078 A 
ATOM      4  C2  OXE d   1      -5.879   3.497   5.229  0.00  0.00    -0.078 A 
ATOM      5  C3  OXE d   1      -5.946   4.675   5.966  0.00  0.00     0.003 A 
ATOM      6  C4  OXE d   1      -5.977   5.916   5.319  0.00  0.00    -0.002 A 
ATOM      7  C5  OXE d   1      -5.826   5.996   3.931  0.00  0.00    -0.002 A 
ATOM      8  C6  OXE d   1      -5.639   4.830   3.197  0.00  0.00     0.003 A 
ENDROOT
TORSDOF 0
ENDMDL
