MODEL 1
REMARK minimizedAffinity 6.71815348
REMARK minimizedRMSD -1
REMARK  0 active torsions:
REMARK  status: ('A' for Active; 'I' for Inactive)
ROOT
ATOM      1  C2' OXE d   1       2.486  -1.271  -0.065  0.00  0.00     0.078 C 
ATOM      2  C1' OXE d   1       1.166   0.961   1.010  0.00  0.00     0.078 C 
ATOM      3  C1  OXE d   1       2.601   1.133   0.579  0.00  0.00    -0.078 A 
ATOM      4  C2  OXE d   1       3.253   0.023   0.097  0.00  0.00    -0.078 A 
ATOM      5  C3  OXE d   1       4.561   0.139  -0.366  0.00  0.00     0.003 A 
ATOM      6  C4  OXE d   1       5.267   1.337  -0.203  0.00  0.00    -0.002 A 
ATOM      7  C5  OXE d   1       4.634   2.468   0.322  0.00  0.00    -0.002 A 
ATOM      8  C6  OXE d   1       3.292   2.395   0.678  0.00  0.00     0.003 A 
ENDROOT
TORSDOF 0
ENDMDL
