MODEL 1
REMARK minimizedAffinity 5.92171621
REMARK minimizedRMSD -1
REMARK  0 active torsions:
REMARK  status: ('A' for Active; 'I' for Inactive)
ROOT
ATOM      1  C2' OXE d   1       3.755  -3.000  -2.312  0.00  0.00     0.078 C 
ATOM      2  C1' OXE d   1       1.955  -2.684  -0.182  0.00  0.00     0.078 C 
ATOM      3  C1  OXE d   1       2.851  -1.520  -0.524  0.00  0.00    -0.078 A 
ATOM      4  C2  OXE d   1       3.761  -1.699  -1.538  0.00  0.00    -0.078 A 
ATOM      5  C3  OXE d   1       4.574  -0.640  -1.931  0.00  0.00     0.003 A 
ATOM      6  C4  OXE d   1       4.580   0.556  -1.203  0.00  0.00    -0.002 A 
ATOM      7  C5  OXE d   1       3.688   0.746  -0.142  0.00  0.00    -0.002 A 
ATOM      8  C6  OXE d   1       2.790  -0.264   0.182  0.00  0.00     0.003 A 
ENDROOT
TORSDOF 0
ENDMDL
