MODEL 1
REMARK minimizedAffinity 3.05932117
REMARK minimizedRMSD -1
REMARK  0 active torsions:
REMARK  status: ('A' for Active; 'I' for Inactive)
ROOT
ATOM      1  C2' OXE d   1      -1.172  -3.696  -1.331  0.00  0.00     0.078 C 
ATOM      2  C1' OXE d   1      -1.128  -1.020  -2.178  0.00  0.00     0.078 C 
ATOM      3  C1  OXE d   1       0.075  -1.542  -1.434  0.00  0.00    -0.078 A 
ATOM      4  C2  OXE d   1       0.026  -2.839  -0.982  0.00  0.00    -0.078 A 
ATOM      5  C3  OXE d   1       1.131  -3.387  -0.338  0.00  0.00     0.003 A 
ATOM      6  C4  OXE d   1       2.231  -2.585  -0.010  0.00  0.00    -0.002 A 
ATOM      7  C5  OXE d   1       2.284  -1.250  -0.425  0.00  0.00    -0.002 A 
ATOM      8  C6  OXE d   1       1.236  -0.727  -1.174  0.00  0.00     0.003 A 
ENDROOT
TORSDOF 0
ENDMDL
