MODEL 1
REMARK minimizedAffinity 12.1881123
REMARK minimizedRMSD -1
REMARK  0 active torsions:
REMARK  status: ('A' for Active; 'I' for Inactive)
ROOT
ATOM      1  C2' OXE d   1       2.477   1.482   2.916  0.00  0.00     0.078 C 
ATOM      2  C1' OXE d   1       3.248  -1.164   2.383  0.00  0.00     0.078 C 
ATOM      3  C1  OXE d   1       2.789  -0.318   1.222  0.00  0.00    -0.078 A 
ATOM      4  C2  OXE d   1       2.369   0.961   1.499  0.00  0.00    -0.078 A 
ATOM      5  C3  OXE d   1       1.987   1.802   0.458  0.00  0.00     0.003 A 
ATOM      6  C4  OXE d   1       1.879   1.309  -0.849  0.00  0.00    -0.002 A 
ATOM      7  C5  OXE d   1       2.264  -0.003  -1.146  0.00  0.00    -0.002 A 
ATOM      8  C6  OXE d   1       2.760  -0.814  -0.132  0.00  0.00     0.003 A 
ENDROOT
TORSDOF 0
ENDMDL
