MODEL 1
REMARK minimizedAffinity 11.2682867
REMARK minimizedRMSD -1
REMARK  0 active torsions:
REMARK  status: ('A' for Active; 'I' for Inactive)
ROOT
ATOM      1  C2' OXE d   1      -5.708   1.898   5.643  0.00  0.00     0.078 C 
ATOM      2  C1' OXE d   1      -4.667   2.417   3.088  0.00  0.00     0.078 C 
ATOM      3  C1  OXE d   1      -5.091   3.596   3.928  0.00  0.00    -0.078 A 
ATOM      4  C2  OXE d   1      -5.642   3.330   5.158  0.00  0.00    -0.078 A 
ATOM      5  C3  OXE d   1      -6.000   4.383   5.996  0.00  0.00     0.003 A 
ATOM      6  C4  OXE d   1      -5.945   5.704   5.536  0.00  0.00    -0.002 A 
ATOM      7  C5  OXE d   1      -5.424   5.995   4.271  0.00  0.00    -0.002 A 
ATOM      8  C6  OXE d   1      -4.953   4.958   3.473  0.00  0.00     0.003 A 
ENDROOT
TORSDOF 0
ENDMDL
