MODEL 1
REMARK minimizedAffinity 19.3656788
REMARK minimizedRMSD -1
REMARK  0 active torsions:
REMARK  status: ('A' for Active; 'I' for Inactive)
ROOT
ATOM      1  C2' OXE d   1       0.297  -0.673   3.253  0.00  0.00     0.078 C 
ATOM      2  C1' OXE d   1       1.938   0.002   1.078  0.00  0.00     0.078 C 
ATOM      3  C1  OXE d   1       1.811   1.002   2.200  0.00  0.00    -0.078 A 
ATOM      4  C2  OXE d   1       0.970   0.683   3.239  0.00  0.00    -0.078 A 
ATOM      5  C3  OXE d   1       0.859   1.545   4.326  0.00  0.00     0.003 A 
ATOM      6  C4  OXE d   1       1.477   2.801   4.300  0.00  0.00    -0.002 A 
ATOM      7  C5  OXE d   1       2.307   3.163   3.233  0.00  0.00    -0.002 A 
ATOM      8  C6  OXE d   1       2.518   2.259   2.198  0.00  0.00     0.003 A 
ENDROOT
TORSDOF 0
ENDMDL
