MODEL 1
REMARK minimizedAffinity 1.46638799
REMARK minimizedRMSD -1
REMARK  0 active torsions:
REMARK  status: ('A' for Active; 'I' for Inactive)
ROOT
ATOM      1  C2' OXE d   1      -2.226   5.984   1.828  0.00  0.00     0.078 C 
ATOM      2  C1' OXE d   1      -4.621   5.968   0.364  0.00  0.00     0.078 C 
ATOM      3  C1  OXE d   1      -4.717   5.975   1.869  0.00  0.00    -0.078 A 
ATOM      4  C2  OXE d   1      -3.540   5.936   2.578  0.00  0.00    -0.078 A 
ATOM      5  C3  OXE d   1      -3.570   5.995   3.968  0.00  0.00     0.003 A 
ATOM      6  C4  OXE d   1      -4.789   5.940   4.654  0.00  0.00    -0.002 A 
ATOM      7  C5  OXE d   1      -5.999   5.939   3.952  0.00  0.00    -0.002 A 
ATOM      8  C6  OXE d   1      -5.981   5.999   2.563  0.00  0.00     0.003 A 
ENDROOT
TORSDOF 0
ENDMDL
