MODEL 1
REMARK minimizedAffinity 14.0352201
REMARK minimizedRMSD -1
REMARK  1 active torsions:
REMARK  status: ('A' for Active; 'I' for Inactive)
REMARK    1  A    between atoms: C1_2  and  C2_3 
ROOT
ATOM      1  C2  UNL d   1       5.421  -4.405   4.272  0.00  0.00    -0.081 A 
ATOM      2  C3  UNL d   1       5.999  -3.555   3.322  0.00  0.00     0.006 A 
ATOM      3  C4  UNL d   1       5.832  -3.800   1.957  0.00  0.00     0.002 A 
ATOM      4  C5  UNL d   1       5.078  -4.894   1.519  0.00  0.00    -0.080 A 
ATOM      5  C6  UNL d   1       4.866  -5.151   0.057  0.00  0.00     0.076 C 
ATOM      6  C7  UNL d   1       4.514  -5.754   2.468  0.00  0.00     0.002 A 
ATOM      7  C8  UNL d   1       4.681  -5.509   3.833  0.00  0.00     0.006 A 
ENDROOT
BRANCH   1   8
ATOM      8  C1  UNL d   1       5.545  -4.107   5.744  0.00  0.00     0.054 C 
ATOM      9  C   UNL d   1       5.652  -2.610   5.998  0.00  0.00     0.018 C 
ENDBRANCH   1   8
TORSDOF 1
ENDMDL
