MODEL 1
REMARK minimizedAffinity 6.05893707
REMARK minimizedRMSD -1
REMARK  1 active torsions:
REMARK  status: ('A' for Active; 'I' for Inactive)
REMARK    1  A    between atoms: C1_2  and  C2_3 
ROOT
ATOM      1  C2  UNL d   1       0.636  -0.465   2.739  0.00  0.00    -0.081 A 
ATOM      2  C3  UNL d   1      -0.509   0.108   3.305  0.00  0.00     0.006 A 
ATOM      3  C4  UNL d   1      -0.511   1.449   3.695  0.00  0.00     0.002 A 
ATOM      4  C5  UNL d   1       0.629   2.241   3.519  0.00  0.00    -0.080 A 
ATOM      5  C6  UNL d   1       0.630   3.690   3.907  0.00  0.00     0.076 C 
ATOM      6  C7  UNL d   1       1.779   1.664   2.970  0.00  0.00     0.002 A 
ATOM      7  C8  UNL d   1       1.781   0.323   2.580  0.00  0.00     0.006 A 
ENDROOT
BRANCH   1   8
ATOM      8  C1  UNL d   1       0.621  -1.893   2.257  0.00  0.00     0.054 C 
ATOM      9  C   UNL d   1       1.415  -2.051   0.968  0.00  0.00     0.018 C 
ENDBRANCH   1   8
TORSDOF 1
ENDMDL
