MODEL 1
REMARK minimizedAffinity 18.5513783
REMARK minimizedRMSD -1
REMARK  1 active torsions:
REMARK  status: ('A' for Active; 'I' for Inactive)
REMARK    1  A    between atoms: C1_2  and  C2_3 
ROOT
ATOM      1  C2  UNL d   1       5.123  -1.718  -0.071  0.00  0.00    -0.081 A 
ATOM      2  C3  UNL d   1       3.728  -1.600  -0.097  0.00  0.00     0.006 A 
ATOM      3  C4  UNL d   1       2.920  -2.678   0.274  0.00  0.00     0.002 A 
ATOM      4  C5  UNL d   1       3.492  -3.887   0.684  0.00  0.00    -0.080 A 
ATOM      5  C6  UNL d   1       2.636  -5.041   1.113  0.00  0.00     0.076 C 
ATOM      6  C7  UNL d   1       4.885  -4.010   0.693  0.00  0.00     0.002 A 
ATOM      7  C8  UNL d   1       5.694  -2.934   0.322  0.00  0.00     0.006 A 
ENDROOT
BRANCH   1   8
ATOM      8  C1  UNL d   1       5.999  -0.538  -0.408  0.00  0.00     0.054 C 
ATOM      9  C   UNL d   1       5.282   0.777  -0.138  0.00  0.00     0.018 C 
ENDBRANCH   1   8
TORSDOF 1
ENDMDL
