MODEL 1
REMARK minimizedAffinity 9.90915298
REMARK minimizedRMSD -1
REMARK  1 active torsions:
REMARK  status: ('A' for Active; 'I' for Inactive)
REMARK    1  A    between atoms: C1_2  and  C2_3 
ROOT
ATOM      1  C2  UNL d   1       4.245  -4.498   0.357  0.00  0.00    -0.081 A 
ATOM      2  C3  UNL d   1       3.011  -4.838   0.925  0.00  0.00     0.006 A 
ATOM      3  C4  UNL d   1       2.029  -3.865   1.121  0.00  0.00     0.002 A 
ATOM      4  C5  UNL d   1       2.261  -2.537   0.745  0.00  0.00    -0.080 A 
ATOM      5  C6  UNL d   1       1.204  -1.488   0.922  0.00  0.00     0.076 C 
ATOM      6  C7  UNL d   1       3.500  -2.193   0.194  0.00  0.00     0.002 A 
ATOM      7  C8  UNL d   1       4.482  -3.166  -0.001  0.00  0.00     0.006 A 
ENDROOT
BRANCH   1   8
ATOM      8  C1  UNL d   1       5.282  -5.558   0.085  0.00  0.00     0.054 C 
ATOM      9  C   UNL d   1       5.252  -6.000  -1.371  0.00  0.00     0.018 C 
ENDBRANCH   1   8
TORSDOF 1
ENDMDL
