MODEL 1
REMARK minimizedAffinity 12.9404078
REMARK minimizedRMSD -1
REMARK  1 active torsions:
REMARK  status: ('A' for Active; 'I' for Inactive)
REMARK    1  A    between atoms: C1_2  and  C2_3 
ROOT
ATOM      1  C2  UNL d   1       4.611  -4.697   2.318  0.00  0.00    -0.081 A 
ATOM      2  C3  UNL d   1       5.521  -5.684   1.922  0.00  0.00     0.006 A 
ATOM      3  C4  UNL d   1       5.680  -6.000   0.570  0.00  0.00     0.002 A 
ATOM      4  C5  UNL d   1       4.938  -5.328  -0.407  0.00  0.00    -0.080 A 
ATOM      5  C6  UNL d   1       5.121  -5.636  -1.864  0.00  0.00     0.076 C 
ATOM      6  C7  UNL d   1       4.016  -4.354  -0.010  0.00  0.00     0.002 A 
ATOM      7  C8  UNL d   1       3.857  -4.038   1.341  0.00  0.00     0.006 A 
ENDROOT
BRANCH   1   8
ATOM      8  C1  UNL d   1       4.485  -4.309   3.769  0.00  0.00     0.054 C 
ATOM      9  C   UNL d   1       4.848  -5.468   4.686  0.00  0.00     0.018 C 
ENDBRANCH   1   8
TORSDOF 1
ENDMDL
