MODEL 1
REMARK minimizedAffinity 13.2683992
REMARK minimizedRMSD -1
REMARK  1 active torsions:
REMARK  status: ('A' for Active; 'I' for Inactive)
REMARK    1  A    between atoms: C1_2  and  C2_3 
ROOT
ATOM      1  C2  UNL d   1       2.558  -0.784   0.816  0.00  0.00    -0.081 A 
ATOM      2  C3  UNL d   1       3.714  -0.311   0.183  0.00  0.00     0.006 A 
ATOM      3  C4  UNL d   1       4.402   0.791   0.696  0.00  0.00     0.002 A 
ATOM      4  C5  UNL d   1       3.951   1.433   1.854  0.00  0.00    -0.080 A 
ATOM      5  C6  UNL d   1       4.697   2.598   2.432  0.00  0.00     0.076 C 
ATOM      6  C7  UNL d   1       2.786   0.972   2.477  0.00  0.00     0.002 A 
ATOM      7  C8  UNL d   1       2.097  -0.129   1.964  0.00  0.00     0.006 A 
ENDROOT
BRANCH   1   8
ATOM      8  C1  UNL d   1       1.850  -2.012   0.302  0.00  0.00     0.054 C 
ATOM      9  C   UNL d   1       2.832  -3.141   0.025  0.00  0.00     0.018 C 
ENDBRANCH   1   8
TORSDOF 1
ENDMDL
