MODEL 1
REMARK minimizedAffinity 3.37493658
REMARK minimizedRMSD -1
REMARK  0 active torsions:
REMARK  status: ('A' for Active; 'I' for Inactive)
ROOT
ATOM      1  C   UNL d   1      -2.748   1.217   0.137  0.00  0.00     0.077 C 
ATOM      2  C1  UNL d   1      -2.881   2.696   0.343  0.00  0.00    -0.074 A 
ATOM      3  C2  UNL d   1      -2.446   3.299   1.527  0.00  0.00    -0.005 A 
ATOM      4  C3  UNL d   1      -2.567   4.678   1.701  0.00  0.00     0.006 A 
ATOM      5  C4  UNL d   1      -3.123   5.467   0.693  0.00  0.00    -0.005 A 
ATOM      6  C5  UNL d   1      -3.563   4.881  -0.499  0.00  0.00    -0.074 A 
ATOM      7  C6  UNL d   1      -4.154   5.716  -1.597  0.00  0.00     0.077 C 
ATOM      8  C7  UNL d   1      -3.431   3.496  -0.669  0.00  0.00    -0.001 A 
ENDROOT
TORSDOF 0
ENDMDL
