MODEL 1
REMARK minimizedAffinity 19.6588116
REMARK minimizedRMSD -1
REMARK  0 active torsions:
REMARK  status: ('A' for Active; 'I' for Inactive)
ROOT
ATOM      1  C   UNL d   1      -2.417  -2.517  -3.429  0.00  0.00     0.077 C 
ATOM      2  C1  UNL d   1      -2.961  -3.712  -4.153  0.00  0.00    -0.074 A 
ATOM      3  C2  UNL d   1      -2.266  -4.281  -5.226  0.00  0.00    -0.005 A 
ATOM      4  C3  UNL d   1      -2.779  -5.399  -5.883  0.00  0.00     0.006 A 
ATOM      5  C4  UNL d   1      -3.991  -5.959  -5.476  0.00  0.00    -0.005 A 
ATOM      6  C5  UNL d   1      -4.699  -5.404  -4.405  0.00  0.00    -0.074 A 
ATOM      7  C6  UNL d   1      -5.998  -6.000  -3.948  0.00  0.00     0.077 C 
ATOM      8  C7  UNL d   1      -4.173  -4.285  -3.745  0.00  0.00    -0.001 A 
ENDROOT
TORSDOF 0
ENDMDL
