MODEL 1
REMARK minimizedAffinity 13.4539709
REMARK minimizedRMSD -1
REMARK  0 active torsions:
REMARK  status: ('A' for Active; 'I' for Inactive)
ROOT
ATOM      1  C   UNL d   1       4.655  -5.593  -4.571  0.00  0.00     0.077 C 
ATOM      2  C1  UNL d   1       4.461  -4.318  -3.805  0.00  0.00    -0.074 A 
ATOM      3  C2  UNL d   1       3.460  -3.409  -4.164  0.00  0.00    -0.005 A 
ATOM      4  C3  UNL d   1       3.285  -2.232  -3.436  0.00  0.00     0.006 A 
ATOM      5  C4  UNL d   1       4.107  -1.953  -2.344  0.00  0.00    -0.005 A 
ATOM      6  C5  UNL d   1       5.113  -2.850  -1.969  0.00  0.00    -0.074 A 
ATOM      7  C6  UNL d   1       5.999  -2.570  -0.792  0.00  0.00     0.077 C 
ATOM      8  C7  UNL d   1       5.278  -4.034  -2.701  0.00  0.00    -0.001 A 
ENDROOT
TORSDOF 0
ENDMDL
