MODEL 1
REMARK minimizedAffinity 11.8835411
REMARK minimizedRMSD -1
REMARK  0 active torsions:
REMARK  status: ('A' for Active; 'I' for Inactive)
ROOT
ATOM      1  C   UNL d   1       6.000   1.138  -5.927  0.00  0.00     0.077 C 
ATOM      2  C1  UNL d   1       5.255   2.193  -5.164  0.00  0.00    -0.074 A 
ATOM      3  C2  UNL d   1       3.886   2.395  -5.367  0.00  0.00    -0.005 A 
ATOM      4  C3  UNL d   1       3.206   3.374  -4.643  0.00  0.00     0.006 A 
ATOM      5  C4  UNL d   1       3.885   4.159  -3.711  0.00  0.00    -0.005 A 
ATOM      6  C5  UNL d   1       5.254   3.970  -3.494  0.00  0.00    -0.074 A 
ATOM      7  C6  UNL d   1       5.998   4.798  -2.488  0.00  0.00     0.077 C 
ATOM      8  C7  UNL d   1       5.930   2.980  -4.220  0.00  0.00    -0.001 A 
ENDROOT
TORSDOF 0
ENDMDL
