MODEL 1
REMARK minimizedAffinity 10.3186989
REMARK minimizedRMSD -1
REMARK  0 active torsions:
REMARK  status: ('A' for Active; 'I' for Inactive)
ROOT
ATOM      1  C   UNL d   1      -5.696   5.252  -1.508  0.00  0.00     0.077 C 
ATOM      2  C1  UNL d   1      -4.505   5.034  -0.622  0.00  0.00    -0.074 A 
ATOM      3  C2  UNL d   1      -4.119   6.000   0.313  0.00  0.00    -0.005 A 
ATOM      4  C3  UNL d   1      -3.015   5.779   1.136  0.00  0.00     0.006 A 
ATOM      5  C4  UNL d   1      -2.287   4.593   1.033  0.00  0.00    -0.005 A 
ATOM      6  C5  UNL d   1      -2.658   3.616   0.104  0.00  0.00    -0.074 A 
ATOM      7  C6  UNL d   1      -1.893   2.332  -0.013  0.00  0.00     0.077 C 
ATOM      8  C7  UNL d   1      -3.773   3.842  -0.715  0.00  0.00    -0.001 A 
ENDROOT
TORSDOF 0
ENDMDL
