MODEL 1
REMARK minimizedAffinity 18.8382854
REMARK minimizedRMSD -1
REMARK  0 active torsions:
REMARK  status: ('A' for Active; 'I' for Inactive)
ROOT
ATOM      1  C   UNL d   1       1.063   5.999   3.505  0.00  0.00     0.077 C 
ATOM      2  C1  UNL d   1       0.824   5.254   2.225  0.00  0.00    -0.074 A 
ATOM      3  C2  UNL d   1       1.512   5.596   1.056  0.00  0.00    -0.005 A 
ATOM      4  C3  UNL d   1       1.286   4.888  -0.125  0.00  0.00     0.006 A 
ATOM      5  C4  UNL d   1       0.372   3.833  -0.148  0.00  0.00    -0.005 A 
ATOM      6  C5  UNL d   1      -0.324   3.477   1.012  0.00  0.00    -0.074 A 
ATOM      7  C6  UNL d   1      -1.302   2.340   1.006  0.00  0.00     0.077 C 
ATOM      8  C7  UNL d   1      -0.086   4.189   2.196  0.00  0.00    -0.001 A 
ENDROOT
TORSDOF 0
ENDMDL
