MODEL 1
REMARK minimizedAffinity 15.2304258
REMARK minimizedRMSD -1
REMARK  0 active torsions:
REMARK  status: ('A' for Active; 'I' for Inactive)
ROOT
ATOM      1  C   UNL d   1      -0.115   2.220   0.186  0.00  0.00     0.077 C 
ATOM      2  C1  UNL d   1       0.509   3.542   0.520  0.00  0.00    -0.074 A 
ATOM      3  C2  UNL d   1      -0.053   4.377   1.491  0.00  0.00    -0.005 A 
ATOM      4  C3  UNL d   1       0.544   5.600   1.798  0.00  0.00     0.006 A 
ATOM      5  C4  UNL d   1       1.707   5.999   1.139  0.00  0.00    -0.005 A 
ATOM      6  C5  UNL d   1       2.284   5.176   0.167  0.00  0.00    -0.074 A 
ATOM      7  C6  UNL d   1       3.540   5.586  -0.544  0.00  0.00     0.077 C 
ATOM      8  C7  UNL d   1       1.682   3.946  -0.132  0.00  0.00    -0.001 A 
ENDROOT
TORSDOF 0
ENDMDL
