MODEL 1
REMARK minimizedAffinity 18.0899754
REMARK minimizedRMSD -1
REMARK  0 active torsions:
REMARK  status: ('A' for Active; 'I' for Inactive)
ROOT
ATOM      1  C   UNL d   1      -1.313   1.896   5.103  0.00  0.00     0.077 C 
ATOM      2  C1  UNL d   1      -2.387   0.899   5.423  0.00  0.00    -0.074 A 
ATOM      3  C2  UNL d   1      -3.714   1.304   5.598  0.00  0.00    -0.005 A 
ATOM      4  C3  UNL d   1      -4.704   0.365   5.885  0.00  0.00     0.006 A 
ATOM      5  C4  UNL d   1      -4.378  -0.987   6.000  0.00  0.00    -0.005 A 
ATOM      6  C5  UNL d   1      -3.056  -1.411   5.827  0.00  0.00    -0.074 A 
ATOM      7  C6  UNL d   1      -2.690  -2.861   5.937  0.00  0.00     0.077 C 
ATOM      8  C7  UNL d   1      -2.068  -0.462   5.531  0.00  0.00    -0.001 A 
ENDROOT
TORSDOF 0
ENDMDL
