MODEL 1
REMARK minimizedAffinity 16.1742706
REMARK minimizedRMSD -1
REMARK  0 active torsions:
REMARK  status: ('A' for Active; 'I' for Inactive)
ROOT
ATOM      1  C   UNL d   1       0.806  -2.945   1.431  0.00  0.00     0.077 C 
ATOM      2  C1  UNL d   1      -0.006  -2.568   0.227  0.00  0.00    -0.074 A 
ATOM      3  C2  UNL d   1       0.611  -2.288  -0.996  0.00  0.00    -0.005 A 
ATOM      4  C3  UNL d   1      -0.157  -1.948  -2.110  0.00  0.00     0.006 A 
ATOM      5  C4  UNL d   1      -1.548  -1.885  -2.011  0.00  0.00    -0.005 A 
ATOM      6  C5  UNL d   1      -2.182  -2.163  -0.796  0.00  0.00    -0.074 A 
ATOM      7  C6  UNL d   1      -3.676  -2.109  -0.676  0.00  0.00     0.077 C 
ATOM      8  C7  UNL d   1      -1.404  -2.510   0.316  0.00  0.00    -0.001 A 
ENDROOT
TORSDOF 0
ENDMDL
