MODEL 1
REMARK minimizedAffinity 19.9503822
REMARK minimizedRMSD -1
REMARK  0 active torsions:
REMARK  status: ('A' for Active; 'I' for Inactive)
ROOT
ATOM      1  C   UNL d   1      -3.722  -1.796   0.491  0.00  0.00     0.077 C 
ATOM      2  C1  UNL d   1      -2.297  -2.025   0.083  0.00  0.00    -0.074 A 
ATOM      3  C2  UNL d   1      -1.416  -2.727   0.911  0.00  0.00    -0.005 A 
ATOM      4  C3  UNL d   1      -0.096  -2.940   0.514  0.00  0.00     0.006 A 
ATOM      5  C4  UNL d   1       0.355  -2.454  -0.714  0.00  0.00    -0.005 A 
ATOM      6  C5  UNL d   1      -0.511  -1.751  -1.556  0.00  0.00    -0.074 A 
ATOM      7  C6  UNL d   1      -0.045  -1.230  -2.883  0.00  0.00     0.077 C 
ATOM      8  C7  UNL d   1      -1.838  -1.546  -1.153  0.00  0.00    -0.001 A 
ENDROOT
TORSDOF 0
ENDMDL
