MODEL 1
REMARK minimizedAffinity 23.9973354
REMARK minimizedRMSD -1
REMARK  0 active torsions:
REMARK  status: ('A' for Active; 'I' for Inactive)
ROOT
ATOM      1  C   UNL d   1       1.762   5.134  -3.537  0.00  0.00     0.077 C 
ATOM      2  C1  UNL d   1       3.047   4.363  -3.500  0.00  0.00    -0.074 A 
ATOM      3  C2  UNL d   1       4.175   4.876  -2.851  0.00  0.00    -0.005 A 
ATOM      4  C3  UNL d   1       5.361   4.142  -2.817  0.00  0.00     0.006 A 
ATOM      5  C4  UNL d   1       5.431   2.891  -3.431  0.00  0.00    -0.005 A 
ATOM      6  C5  UNL d   1       4.314   2.361  -4.083  0.00  0.00    -0.074 A 
ATOM      7  C6  UNL d   1       4.369   1.014  -4.739  0.00  0.00     0.077 C 
ATOM      8  C7  UNL d   1       3.123   3.101  -4.107  0.00  0.00    -0.001 A 
ENDROOT
TORSDOF 0
ENDMDL
