MODEL 1
REMARK minimizedAffinity 16.6460648
REMARK minimizedRMSD -1
REMARK  0 active torsions:
REMARK  status: ('A' for Active; 'I' for Inactive)
ROOT
ATOM      1  C   UNL d   1      -1.927   2.537   0.309  0.00  0.00     0.077 C 
ATOM      2  C1  UNL d   1      -1.833   1.048   0.156  0.00  0.00    -0.074 A 
ATOM      3  C2  UNL d   1      -2.730   0.200   0.814  0.00  0.00    -0.005 A 
ATOM      4  C3  UNL d   1      -2.637  -1.182   0.654  0.00  0.00     0.006 A 
ATOM      5  C4  UNL d   1      -1.647  -1.730  -0.163  0.00  0.00    -0.005 A 
ATOM      6  C5  UNL d   1      -0.743  -0.898  -0.830  0.00  0.00    -0.074 A 
ATOM      7  C6  UNL d   1       0.320  -1.469  -1.720  0.00  0.00     0.077 C 
ATOM      8  C7  UNL d   1      -0.847   0.491  -0.670  0.00  0.00    -0.001 A 
ENDROOT
TORSDOF 0
ENDMDL
