MODEL 1
REMARK minimizedAffinity 18.4869328
REMARK minimizedRMSD -1
REMARK  0 active torsions:
REMARK  status: ('A' for Active; 'I' for Inactive)
ROOT
ATOM      1  C   UNL d   1      -0.700   2.939   0.743  0.00  0.00     0.077 C 
ATOM      2  C1  UNL d   1       0.338   4.001   0.953  0.00  0.00    -0.074 A 
ATOM      3  C2  UNL d   1       0.140   5.025   1.885  0.00  0.00    -0.005 A 
ATOM      4  C3  UNL d   1       1.119   6.000   2.077  0.00  0.00     0.006 A 
ATOM      5  C4  UNL d   1       2.304   5.961   1.340  0.00  0.00    -0.005 A 
ATOM      6  C5  UNL d   1       2.520   4.944   0.405  0.00  0.00    -0.074 A 
ATOM      7  C6  UNL d   1       3.792   4.881  -0.387  0.00  0.00     0.077 C 
ATOM      8  C7  UNL d   1       1.535   3.964   0.223  0.00  0.00    -0.001 A 
ENDROOT
TORSDOF 0
ENDMDL
