MODEL 1
REMARK minimizedAffinity 5.31273794
REMARK minimizedRMSD -1
REMARK  0 active torsions:
REMARK  status: ('A' for Active; 'I' for Inactive)
ROOT
ATOM      1  C   UNL d   1       6.000  -5.719  -4.507  0.00  0.00     0.077 C 
ATOM      2  C1  UNL d   1       5.904  -4.233  -4.334  0.00  0.00    -0.074 A 
ATOM      3  C2  UNL d   1       5.879  -3.380  -5.442  0.00  0.00    -0.005 A 
ATOM      4  C3  UNL d   1       5.780  -2.000  -5.266  0.00  0.00     0.006 A 
ATOM      5  C4  UNL d   1       5.704  -1.460  -3.982  0.00  0.00    -0.005 A 
ATOM      6  C5  UNL d   1       5.726  -2.297  -2.862  0.00  0.00    -0.074 A 
ATOM      7  C6  UNL d   1       5.635  -1.733  -1.475  0.00  0.00     0.077 C 
ATOM      8  C7  UNL d   1       5.819  -3.683  -3.047  0.00  0.00    -0.001 A 
ENDROOT
TORSDOF 0
ENDMDL
