MODEL 1
REMARK minimizedAffinity -3.80176163
REMARK minimizedRMSD -1
REMARK  2 active torsions:
REMARK  status: ('A' for Active; 'I' for Inactive)
REMARK    1  A    between atoms: C1_2  and  C2_3 
REMARK    2  A    between atoms: C2_3  and  C3_4 
ROOT
ATOM      1  C3  UNL d   1       1.402  -5.141  -4.391  0.00  0.00    -0.075 A 
ATOM      2  C4  UNL d   1       1.153  -5.577  -3.082  0.00  0.00     0.002 A 
ATOM      3  C5  UNL d   1       2.201  -5.999  -2.264  0.00  0.00     0.002 A 
ATOM      4  C6  UNL d   1       3.508  -6.000  -2.747  0.00  0.00    -0.004 A 
ATOM      5  C7  UNL d   1       3.765  -5.584  -4.052  0.00  0.00     0.002 A 
ATOM      6  C8  UNL d   1       2.718  -5.157  -4.871  0.00  0.00     0.002 A 
ENDROOT
BRANCH   1   7
ATOM      7  C2  UNL d   1       0.275  -4.655  -5.271  0.00  0.00     0.056 C 
BRANCH   7   8
ATOM      8  C1  UNL d   1      -0.810  -5.705  -5.533  0.00  0.00     0.007 C 
ATOM      9  C   UNL d   1      -2.134  -5.102  -5.980  0.00  0.00     0.009 C 
ENDBRANCH   7   8
ENDBRANCH   1   7
TORSDOF 2
ENDMDL
