MODEL 1
REMARK minimizedAffinity 19.3711834
REMARK minimizedRMSD -1
REMARK  2 active torsions:
REMARK  status: ('A' for Active; 'I' for Inactive)
REMARK    1  A    between atoms: C1_2  and  C2_3 
REMARK    2  A    between atoms: C2_3  and  C3_4 
ROOT
ATOM      1  C3  UNL d   1       1.856  -3.024  -0.393  0.00  0.00    -0.075 A 
ATOM      2  C4  UNL d   1       2.112  -1.692  -0.750  0.00  0.00     0.002 A 
ATOM      3  C5  UNL d   1       3.375  -1.135  -0.548  0.00  0.00     0.002 A 
ATOM      4  C6  UNL d   1       4.393  -1.898   0.020  0.00  0.00    -0.004 A 
ATOM      5  C7  UNL d   1       4.145  -3.217   0.394  0.00  0.00     0.002 A 
ATOM      6  C8  UNL d   1       2.884  -3.778   0.189  0.00  0.00     0.002 A 
ENDROOT
BRANCH   1   7
ATOM      7  C2  UNL d   1       0.499  -3.642  -0.635  0.00  0.00     0.056 C 
BRANCH   7   8
ATOM      8  C1  UNL d   1       0.477  -4.671  -1.770  0.00  0.00     0.007 C 
ATOM      9  C   UNL d   1       1.115  -6.000  -1.388  0.00  0.00     0.009 C 
ENDBRANCH   7   8
ENDBRANCH   1   7
TORSDOF 2
ENDMDL
