MODEL 1
REMARK minimizedAffinity 3.62155914
REMARK minimizedRMSD -1
REMARK  2 active torsions:
REMARK  status: ('A' for Active; 'I' for Inactive)
REMARK    1  A    between atoms: C1_2  and  C2_3 
REMARK    2  A    between atoms: C2_3  and  C3_4 
ROOT
ATOM      1  C3  UNL d   1      -0.298  -5.103  -4.011  0.00  0.00    -0.075 A 
ATOM      2  C4  UNL d   1      -1.400  -5.971  -4.011  0.00  0.00     0.002 A 
ATOM      3  C5  UNL d   1      -2.376  -5.876  -5.004  0.00  0.00     0.002 A 
ATOM      4  C6  UNL d   1      -2.269  -4.908  -6.000  0.00  0.00    -0.004 A 
ATOM      5  C7  UNL d   1      -1.187  -4.029  -5.999  0.00  0.00     0.002 A 
ATOM      6  C8  UNL d   1      -0.207  -4.125  -5.010  0.00  0.00     0.002 A 
ENDROOT
BRANCH   1   7
ATOM      7  C2  UNL d   1       0.777  -5.220  -2.957  0.00  0.00     0.056 C 
BRANCH   7   8
ATOM      8  C1  UNL d   1       0.420  -4.553  -1.625  0.00  0.00     0.007 C 
ATOM      9  C   UNL d   1       1.498  -3.602  -1.121  0.00  0.00     0.009 C 
ENDBRANCH   7   8
ENDBRANCH   1   7
TORSDOF 2
ENDMDL
