MODEL 1
REMARK minimizedAffinity 3.57434082
REMARK minimizedRMSD -1
REMARK  2 active torsions:
REMARK  status: ('A' for Active; 'I' for Inactive)
REMARK    1  A    between atoms: C1_2  and  C2_3 
REMARK    2  A    between atoms: C2_3  and  C3_4 
ROOT
ATOM      1  C3  UNL d   1      -3.380  -2.810   5.379  0.00  0.00    -0.075 A 
ATOM      2  C4  UNL d   1      -4.227  -3.742   5.996  0.00  0.00     0.002 A 
ATOM      3  C5  UNL d   1      -5.493  -4.005   5.471  0.00  0.00     0.002 A 
ATOM      4  C6  UNL d   1      -5.931  -3.334   4.332  0.00  0.00    -0.004 A 
ATOM      5  C7  UNL d   1      -5.104  -2.394   3.720  0.00  0.00     0.002 A 
ATOM      6  C8  UNL d   1      -3.835  -2.133   4.240  0.00  0.00     0.002 A 
ENDROOT
BRANCH   1   7
ATOM      7  C2  UNL d   1      -1.997  -2.543   5.925  0.00  0.00     0.056 C 
BRANCH   7   8
ATOM      8  C1  UNL d   1      -1.406  -1.197   5.493  0.00  0.00     0.007 C 
ATOM      9  C   UNL d   1       0.056  -1.030   5.886  0.00  0.00     0.009 C 
ENDBRANCH   7   8
ENDBRANCH   1   7
TORSDOF 2
ENDMDL
