MODEL 1
REMARK minimizedAffinity 15.0368757
REMARK minimizedRMSD -1
REMARK  2 active torsions:
REMARK  status: ('A' for Active; 'I' for Inactive)
REMARK    1  A    between atoms: C1_2  and  C2_3 
REMARK    2  A    between atoms: C2_3  and  C3_4 
ROOT
ATOM      1  C3  UNL d   1      -1.162   1.927   0.897  0.00  0.00    -0.075 A 
ATOM      2  C4  UNL d   1       0.194   1.686   1.161  0.00  0.00     0.002 A 
ATOM      3  C5  UNL d   1       1.174   2.091   0.254  0.00  0.00     0.002 A 
ATOM      4  C6  UNL d   1       0.812   2.730  -0.929  0.00  0.00    -0.004 A 
ATOM      5  C7  UNL d   1      -0.534   2.960  -1.209  0.00  0.00     0.002 A 
ATOM      6  C8  UNL d   1      -1.516   2.560  -0.301  0.00  0.00     0.002 A 
ENDROOT
BRANCH   1   7
ATOM      7  C2  UNL d   1      -2.226   1.518   1.888  0.00  0.00     0.056 C 
BRANCH   7   8
ATOM      8  C1  UNL d   1      -3.442   0.838   1.252  0.00  0.00     0.007 C 
ATOM      9  C   UNL d   1      -3.145  -0.563   0.735  0.00  0.00     0.009 C 
ENDBRANCH   7   8
ENDBRANCH   1   7
TORSDOF 2
ENDMDL
