MODEL 1
REMARK minimizedAffinity 8.91460896
REMARK minimizedRMSD -1
REMARK  2 active torsions:
REMARK  status: ('A' for Active; 'I' for Inactive)
REMARK    1  A    between atoms: C1_2  and  C2_3 
REMARK    2  A    between atoms: C2_3  and  C3_4 
ROOT
ATOM      1  C3  UNL d   1      -0.667   2.559  -1.126  0.00  0.00    -0.075 A 
ATOM      2  C4  UNL d   1      -0.791   1.531  -0.181  0.00  0.00     0.002 A 
ATOM      3  C5  UNL d   1      -0.035   1.553   0.992  0.00  0.00     0.002 A 
ATOM      4  C6  UNL d   1       0.859   2.594   1.229  0.00  0.00    -0.004 A 
ATOM      5  C7  UNL d   1       1.003   3.612   0.289  0.00  0.00     0.002 A 
ATOM      6  C8  UNL d   1       0.245   3.596  -0.883  0.00  0.00     0.002 A 
ENDROOT
BRANCH   1   7
ATOM      7  C2  UNL d   1      -1.503   2.558  -2.384  0.00  0.00     0.056 C 
BRANCH   7   8
ATOM      8  C1  UNL d   1      -2.979   2.219  -2.151  0.00  0.00     0.007 C 
ATOM      9  C   UNL d   1      -3.701   1.777  -3.417  0.00  0.00     0.009 C 
ENDBRANCH   7   8
ENDBRANCH   1   7
TORSDOF 2
ENDMDL
