MODEL 1
REMARK minimizedAffinity 7.36976671
REMARK minimizedRMSD -1
REMARK  2 active torsions:
REMARK  status: ('A' for Active; 'I' for Inactive)
REMARK    1  A    between atoms: C1_2  and  C2_3 
REMARK    2  A    between atoms: C2_3  and  C3_4 
ROOT
ATOM      1  C3  UNL d   1      -1.126   4.886  -1.493  0.00  0.00    -0.075 A 
ATOM      2  C4  UNL d   1      -0.273   5.998  -1.471  0.00  0.00     0.002 A 
ATOM      3  C5  UNL d   1       1.060   5.862  -1.082  0.00  0.00     0.002 A 
ATOM      4  C6  UNL d   1       1.553   4.616  -0.701  0.00  0.00    -0.004 A 
ATOM      5  C7  UNL d   1       0.710   3.507  -0.703  0.00  0.00     0.002 A 
ATOM      6  C8  UNL d   1      -0.623   3.640  -1.096  0.00  0.00     0.002 A 
ENDROOT
BRANCH   1   7
ATOM      7  C2  UNL d   1      -2.562   5.021  -1.942  0.00  0.00     0.056 C 
BRANCH   7   8
ATOM      8  C1  UNL d   1      -3.129   3.763  -2.608  0.00  0.00     0.007 C 
ATOM      9  C   UNL d   1      -2.979   3.768  -4.124  0.00  0.00     0.009 C 
ENDBRANCH   7   8
ENDBRANCH   1   7
TORSDOF 2
ENDMDL
