MODEL 1
REMARK minimizedAffinity 14.5426178
REMARK minimizedRMSD -1
REMARK  2 active torsions:
REMARK  status: ('A' for Active; 'I' for Inactive)
REMARK    1  A    between atoms: C1_2  and  C2_3 
REMARK    2  A    between atoms: C2_3  and  C3_4 
ROOT
ATOM      1  C3  UNL d   1      -0.996   4.143  -2.593  0.00  0.00    -0.075 A 
ATOM      2  C4  UNL d   1      -1.086   4.839  -1.379  0.00  0.00     0.002 A 
ATOM      3  C5  UNL d   1      -0.765   4.210  -0.176  0.00  0.00     0.002 A 
ATOM      4  C6  UNL d   1      -0.361   2.877  -0.170  0.00  0.00    -0.004 A 
ATOM      5  C7  UNL d   1      -0.284   2.171  -1.369  0.00  0.00     0.002 A 
ATOM      6  C8  UNL d   1      -0.600   2.799  -2.574  0.00  0.00     0.002 A 
ENDROOT
BRANCH   1   7
ATOM      7  C2  UNL d   1      -1.313   4.827  -3.902  0.00  0.00     0.056 C 
BRANCH   7   8
ATOM      8  C1  UNL d   1      -0.222   4.675  -4.966  0.00  0.00     0.007 C 
ATOM      9  C   UNL d   1       0.476   5.986  -5.303  0.00  0.00     0.009 C 
ENDBRANCH   7   8
ENDBRANCH   1   7
TORSDOF 2
ENDMDL
