MODEL 1
REMARK minimizedAffinity -4.84504461
REMARK minimizedRMSD -1
REMARK  1 active torsions:
REMARK  status: ('A' for Active; 'I' for Inactive)
REMARK    1  A    between atoms: C1_2  and  C2_3 
ROOT
ATOM      1  C2  UNL d   1       0.042  -0.349   0.141  0.00  0.00    -0.076 A 
ATOM      2  C3  UNL d   1      -0.882   0.123   1.090  0.00  0.00     0.004 A 
ATOM      3  C4  UNL d   1      -0.662  -0.054   2.455  0.00  0.00    -0.003 A 
ATOM      4  C5  UNL d   1       0.485  -0.706   2.893  0.00  0.00     0.000 A 
ATOM      5  C6  UNL d   1       1.420  -1.165   1.967  0.00  0.00     0.000 A 
ATOM      6  C7  UNL d   1       1.222  -0.980   0.588  0.00  0.00    -0.073 A 
ATOM      7  C8  UNL d   1       2.261  -1.502  -0.367  0.00  0.00     0.078 C 
ENDROOT
BRANCH   1   8
ATOM      8  C1  UNL d   1      -0.263  -0.152  -1.327  0.00  0.00     0.053 C 
ATOM      9  C   UNL d   1      -0.400   1.316  -1.701  0.00  0.00     0.018 C 
ENDBRANCH   1   8
TORSDOF 1
ENDMDL
