MODEL 1
REMARK minimizedAffinity -3.29131413
REMARK minimizedRMSD -1
REMARK  1 active torsions:
REMARK  status: ('A' for Active; 'I' for Inactive)
REMARK    1  A    between atoms: C1_2  and  C2_3 
ROOT
ATOM      1  C2  UNL d   1       0.119  -0.079   0.005  0.00  0.00    -0.076 A 
ATOM      2  C3  UNL d   1      -0.690   0.470   1.015  0.00  0.00     0.004 A 
ATOM      3  C4  UNL d   1      -0.304   0.412   2.353  0.00  0.00    -0.003 A 
ATOM      4  C5  UNL d   1       0.896  -0.197   2.703  0.00  0.00     0.000 A 
ATOM      5  C6  UNL d   1       1.719  -0.731   1.712  0.00  0.00     0.000 A 
ATOM      6  C7  UNL d   1       1.353  -0.666   0.357  0.00  0.00    -0.073 A 
ATOM      7  C8  UNL d   1       2.276  -1.264  -0.670  0.00  0.00     0.078 C 
ENDROOT
BRANCH   1   8
ATOM      8  C1  UNL d   1      -0.364  -0.010  -1.426  0.00  0.00     0.053 C 
ATOM      9  C   UNL d   1      -0.173   1.369  -2.040  0.00  0.00     0.018 C 
ENDBRANCH   1   8
TORSDOF 1
ENDMDL
