MODEL 1
REMARK minimizedAffinity -4.53281021
REMARK minimizedRMSD -1
REMARK  1 active torsions:
REMARK  status: ('A' for Active; 'I' for Inactive)
REMARK    1  A    between atoms: C1_2  and  C2_3 
ROOT
ATOM      1  C2  UNL d   1       0.157  -0.476   1.230  0.00  0.00    -0.076 A 
ATOM      2  C3  UNL d   1       1.290  -0.699   0.429  0.00  0.00     0.004 A 
ATOM      3  C4  UNL d   1       1.244  -0.498  -0.950  0.00  0.00    -0.003 A 
ATOM      4  C5  UNL d   1       0.065  -0.070  -1.549  0.00  0.00     0.000 A 
ATOM      5  C6  UNL d   1      -1.063   0.173  -0.768  0.00  0.00     0.000 A 
ATOM      6  C7  UNL d   1      -1.030  -0.009   0.626  0.00  0.00    -0.073 A 
ATOM      7  C8  UNL d   1      -2.279   0.263   1.419  0.00  0.00     0.078 C 
ENDROOT
BRANCH   1   8
ATOM      8  C1  UNL d   1       0.258  -0.736   2.716  0.00  0.00     0.053 C 
ATOM      9  C   UNL d   1       1.662  -0.510   3.253  0.00  0.00     0.018 C 
ENDBRANCH   1   8
TORSDOF 1
ENDMDL
