MODEL 1
REMARK minimizedAffinity -4.59261084
REMARK minimizedRMSD -1
REMARK  1 active torsions:
REMARK  status: ('A' for Active; 'I' for Inactive)
REMARK    1  A    between atoms: C1_2  and  C2_3 
ROOT
ATOM      1  C2  UNL d   1       0.648  -0.453   0.067  0.00  0.00    -0.076 A 
ATOM      2  C3  UNL d   1       1.782  -1.077  -0.481  0.00  0.00     0.004 A 
ATOM      3  C4  UNL d   1       2.706  -1.728   0.334  0.00  0.00    -0.003 A 
ATOM      4  C5  UNL d   1       2.511  -1.768   1.710  0.00  0.00     0.000 A 
ATOM      5  C6  UNL d   1       1.382  -1.170   2.269  0.00  0.00     0.000 A 
ATOM      6  C7  UNL d   1       0.432  -0.523   1.460  0.00  0.00    -0.073 A 
ATOM      7  C8  UNL d   1      -0.764   0.110   2.117  0.00  0.00     0.078 C 
ENDROOT
BRANCH   1   8
ATOM      8  C1  UNL d   1      -0.306   0.262  -0.863  0.00  0.00     0.053 C 
ATOM      9  C   UNL d   1       0.353   1.421  -1.595  0.00  0.00     0.018 C 
ENDBRANCH   1   8
TORSDOF 1
ENDMDL
