MODEL 1
REMARK minimizedAffinity -2.48391128
REMARK minimizedRMSD -1
REMARK  1 active torsions:
REMARK  status: ('A' for Active; 'I' for Inactive)
REMARK    1  A    between atoms: C1_2  and  C2_3 
ROOT
ATOM      1  C2  UNL d   1      -0.370   0.307   0.301  0.00  0.00    -0.076 A 
ATOM      2  C3  UNL d   1       0.982  -0.077   0.257  0.00  0.00     0.004 A 
ATOM      3  C4  UNL d   1       1.615  -0.603   1.381  0.00  0.00    -0.003 A 
ATOM      4  C5  UNL d   1       0.907  -0.755   2.568  0.00  0.00     0.000 A 
ATOM      5  C6  UNL d   1      -0.439  -0.396   2.625  0.00  0.00     0.000 A 
ATOM      6  C7  UNL d   1      -1.097   0.122   1.496  0.00  0.00    -0.073 A 
ATOM      7  C8  UNL d   1      -2.548   0.498   1.615  0.00  0.00     0.078 C 
ENDROOT
BRANCH   1   8
ATOM      8  C1  UNL d   1      -0.996   0.898  -0.942  0.00  0.00     0.053 C 
ATOM      9  C   UNL d   1       0.032   1.218  -2.016  0.00  0.00     0.018 C 
ENDBRANCH   1   8
TORSDOF 1
ENDMDL
