MODEL 1
REMARK minimizedAffinity -2.71536136
REMARK minimizedRMSD -1
REMARK  1 active torsions:
REMARK  status: ('A' for Active; 'I' for Inactive)
REMARK    1  A    between atoms: C1_2  and  C2_3 
ROOT
ATOM      1  C2  UNL d   1       0.081   0.171  -0.106  0.00  0.00    -0.076 A 
ATOM      2  C3  UNL d   1      -0.665   0.873   0.857  0.00  0.00     0.004 A 
ATOM      3  C4  UNL d   1      -0.415   0.708   2.218  0.00  0.00    -0.003 A 
ATOM      4  C5  UNL d   1       0.585  -0.162   2.639  0.00  0.00     0.000 A 
ATOM      5  C6  UNL d   1       1.346  -0.854   1.697  0.00  0.00     0.000 A 
ATOM      6  C7  UNL d   1       1.118  -0.686   0.320  0.00  0.00    -0.073 A 
ATOM      7  C8  UNL d   1       1.965  -1.462  -0.652  0.00  0.00     0.078 C 
ENDROOT
BRANCH   1   8
ATOM      8  C1  UNL d   1      -0.254   0.370  -1.567  0.00  0.00     0.053 C 
ATOM      9  C   UNL d   1      -0.422   1.836  -1.932  0.00  0.00     0.018 C 
ENDBRANCH   1   8
TORSDOF 1
ENDMDL
