MODEL 1
REMARK minimizedAffinity 2.90315771
REMARK minimizedRMSD -1
REMARK  0 active torsions:
REMARK  status: ('A' for Active; 'I' for Inactive)
ROOT
ATOM      1  C   UNL d   1       2.054  -0.541  -1.485  0.00  0.00     0.172 C 
ATOM      2  N   UNL d   1       3.227   0.201  -1.088  0.00  0.00    -0.070 N 
ATOM      3  C1  UNL d   1       4.100   0.828  -1.937  0.00  0.00    -0.004 A 
ATOM      4  C2  UNL d   1       5.081   1.421  -1.172  0.00  0.00    -0.047 A 
ATOM      5  C3  UNL d   1       4.788   1.140   0.184  0.00  0.00    -0.047 A 
ATOM      6  C4  UNL d   1       3.635   0.384   0.207  0.00  0.00    -0.004 A 
ENDROOT
TORSDOF 0
ENDMDL
