MODEL 1
REMARK minimizedAffinity 1.00190973
REMARK minimizedRMSD -1
REMARK  0 active torsions:
REMARK  status: ('A' for Active; 'I' for Inactive)
ROOT
ATOM      1  C   UNL d   1       4.488   1.883  -2.559  0.00  0.00     0.172 C 
ATOM      2  N   UNL d   1       3.730   1.362  -1.445  0.00  0.00    -0.070 N 
ATOM      3  C1  UNL d   1       4.026   1.547  -0.121  0.00  0.00    -0.004 A 
ATOM      4  C2  UNL d   1       3.066   0.894   0.621  0.00  0.00    -0.047 A 
ATOM      5  C3  UNL d   1       2.163   0.294  -0.288  0.00  0.00    -0.047 A 
ATOM      6  C4  UNL d   1       2.598   0.600  -1.560  0.00  0.00    -0.004 A 
ENDROOT
TORSDOF 0
ENDMDL
