MODEL 1
REMARK minimizedAffinity 0.279572666
REMARK minimizedRMSD -1
REMARK  0 active torsions:
REMARK  status: ('A' for Active; 'I' for Inactive)
ROOT
ATOM      1  C   UNL d   1       5.490   2.593  -2.629  0.00  0.00     0.172 C 
ATOM      2  N   UNL d   1       4.648   1.773  -1.791  0.00  0.00    -0.070 N 
ATOM      3  C1  UNL d   1       4.746   1.658  -0.430  0.00  0.00    -0.004 A 
ATOM      4  C2  UNL d   1       3.766   0.785  -0.008  0.00  0.00    -0.047 A 
ATOM      5  C3  UNL d   1       3.055   0.361  -1.156  0.00  0.00    -0.047 A 
ATOM      6  C4  UNL d   1       3.621   0.988  -2.245  0.00  0.00    -0.004 A 
ENDROOT
TORSDOF 0
ENDMDL
