MODEL 1
REMARK minimizedAffinity 0.474162757
REMARK minimizedRMSD -1
REMARK  0 active torsions:
REMARK  status: ('A' for Active; 'I' for Inactive)
ROOT
ATOM      1  C   UNL d   1       5.256   2.752  -2.649  0.00  0.00     0.172 C 
ATOM      2  N   UNL d   1       4.505   1.862  -1.795  0.00  0.00    -0.070 N 
ATOM      3  C1  UNL d   1       4.653   1.744  -0.439  0.00  0.00    -0.004 A 
ATOM      4  C2  UNL d   1       3.757   0.794   0.002  0.00  0.00    -0.047 A 
ATOM      5  C3  UNL d   1       3.047   0.325  -1.129  0.00  0.00    -0.047 A 
ATOM      6  C4  UNL d   1       3.530   1.003  -2.228  0.00  0.00    -0.004 A 
ENDROOT
TORSDOF 0
ENDMDL
