MODEL 1
REMARK minimizedAffinity -0.0989322886
REMARK minimizedRMSD -1
REMARK  0 active torsions:
REMARK  status: ('A' for Active; 'I' for Inactive)
ROOT
ATOM      1  C   UNL d   1       6.000   2.326  -3.002  0.00  0.00     0.172 C 
ATOM      2  N   UNL d   1       5.038   1.431  -2.401  0.00  0.00    -0.070 N 
ATOM      3  C1  UNL d   1       4.156   0.635  -3.081  0.00  0.00    -0.004 A 
ATOM      4  C2  UNL d   1       3.416  -0.064  -2.151  0.00  0.00    -0.047 A 
ATOM      5  C3  UNL d   1       3.869   0.327  -0.869  0.00  0.00    -0.047 A 
ATOM      6  C4  UNL d   1       4.873   1.253  -1.053  0.00  0.00    -0.004 A 
ENDROOT
TORSDOF 0
ENDMDL
