MODEL 1
REMARK minimizedAffinity 2.99114466
REMARK minimizedRMSD -1
REMARK  0 active torsions:
REMARK  status: ('A' for Active; 'I' for Inactive)
ROOT
ATOM      1  C   UNL d   1       1.761  -2.422  -3.796  0.00  0.00     0.172 C 
ATOM      2  N   UNL d   1       2.216  -1.278  -3.043  0.00  0.00    -0.070 N 
ATOM      3  C1  UNL d   1       1.913  -1.011  -1.734  0.00  0.00    -0.004 A 
ATOM      4  C2  UNL d   1       2.538   0.167  -1.388  0.00  0.00    -0.047 A 
ATOM      5  C3  UNL d   1       3.240   0.625  -2.528  0.00  0.00    -0.047 A 
ATOM      6  C4  UNL d   1       3.024  -0.288  -3.538  0.00  0.00    -0.004 A 
ENDROOT
TORSDOF 0
ENDMDL
