MODEL 1
REMARK minimizedAffinity 8.44310665
REMARK minimizedRMSD -1
REMARK  0 active torsions:
REMARK  status: ('A' for Active; 'I' for Inactive)
ROOT
ATOM      1  C   UNL d   1      -5.998   2.290  -5.488  0.00  0.00     0.172 C 
ATOM      2  N   UNL d   1      -5.735   0.909  -5.156  0.00  0.00    -0.070 N 
ATOM      3  C1  UNL d   1      -5.189  -0.024  -5.997  0.00  0.00    -0.004 A 
ATOM      4  C2  UNL d   1      -5.101  -1.214  -5.308  0.00  0.00    -0.047 A 
ATOM      5  C3  UNL d   1      -5.613  -0.988  -4.008  0.00  0.00    -0.047 A 
ATOM      6  C4  UNL d   1      -5.998   0.334  -3.941  0.00  0.00    -0.004 A 
ENDROOT
TORSDOF 0
ENDMDL
