MODEL 1
REMARK minimizedAffinity 5.22025585
REMARK minimizedRMSD -1
REMARK  0 active torsions:
REMARK  status: ('A' for Active; 'I' for Inactive)
ROOT
ATOM      1  C   UNL d   1       4.109   1.288  -2.639  0.00  0.00     0.172 C 
ATOM      2  N   UNL d   1       3.447   0.815  -1.446  0.00  0.00    -0.070 N 
ATOM      3  C1  UNL d   1       3.857   1.046  -0.160  0.00  0.00    -0.004 A 
ATOM      4  C2  UNL d   1       2.960   0.430   0.686  0.00  0.00    -0.047 A 
ATOM      5  C3  UNL d   1       1.979  -0.195  -0.119  0.00  0.00    -0.047 A 
ATOM      6  C4  UNL d   1       2.304   0.060  -1.435  0.00  0.00    -0.004 A 
ENDROOT
TORSDOF 0
ENDMDL
