MODEL 1
REMARK minimizedAffinity 10.3918486
REMARK minimizedRMSD -1
REMARK  0 active torsions:
REMARK  status: ('A' for Active; 'I' for Inactive)
ROOT
ATOM      1  C   UNL d   1      -5.994   2.117  -5.439  0.00  0.00     0.172 C 
ATOM      2  N   UNL d   1      -5.645   0.751  -5.127  0.00  0.00    -0.070 N 
ATOM      3  C1  UNL d   1      -5.101  -0.153  -6.000  0.00  0.00    -0.004 A 
ATOM      4  C2  UNL d   1      -4.917  -1.338  -5.320  0.00  0.00    -0.047 A 
ATOM      5  C3  UNL d   1      -5.367  -1.139  -3.993  0.00  0.00    -0.047 A 
ATOM      6  C4  UNL d   1      -5.812   0.163  -3.901  0.00  0.00    -0.004 A 
ENDROOT
TORSDOF 0
ENDMDL
