MODEL 1
REMARK minimizedAffinity 2.36027598
REMARK minimizedRMSD -1
REMARK  0 active torsions:
REMARK  status: ('A' for Active; 'I' for Inactive)
ROOT
ATOM      1  C   UNL d   1      -5.940   2.550  -2.325  0.00  0.00     0.078 C 
ATOM      2  C1  UNL d   1      -5.953   1.727  -3.578  0.00  0.00    -0.077 A 
ATOM      3  C2  UNL d   1      -5.956   2.334  -4.840  0.00  0.00    -0.001 A 
ATOM      4  C3  UNL d   1      -5.978   1.556  -5.998  0.00  0.00     0.003 A 
ATOM      5  C4  UNL d   1      -5.999   0.166  -5.907  0.00  0.00    -0.005 A 
ATOM      6  C5  UNL d   1      -5.999  -0.448  -4.656  0.00  0.00     0.003 A 
ATOM      7  C6  UNL d   1      -5.977   0.329  -3.496  0.00  0.00    -0.001 A 
ENDROOT
TORSDOF 0
ENDMDL
