MODEL 1
REMARK minimizedAffinity 5.70134449
REMARK minimizedRMSD -1
REMARK  0 active torsions:
REMARK  status: ('A' for Active; 'I' for Inactive)
ROOT
ATOM      1  C   UNL d   1      -5.879   3.275  -2.717  0.00  0.00     0.078 C 
ATOM      2  C1  UNL d   1      -5.916   2.122  -3.675  0.00  0.00    -0.077 A 
ATOM      3  C2  UNL d   1      -5.973   0.802  -3.213  0.00  0.00    -0.001 A 
ATOM      4  C3  UNL d   1      -5.997  -0.262  -4.116  0.00  0.00     0.003 A 
ATOM      5  C4  UNL d   1      -5.963  -0.017  -5.487  0.00  0.00    -0.005 A 
ATOM      6  C5  UNL d   1      -5.903   1.293  -5.957  0.00  0.00     0.003 A 
ATOM      7  C6  UNL d   1      -5.879   2.359  -5.055  0.00  0.00    -0.001 A 
ENDROOT
TORSDOF 0
ENDMDL
