MODEL 1
REMARK minimizedAffinity 0.351740599
REMARK minimizedRMSD -1
REMARK  0 active torsions:
REMARK  status: ('A' for Active; 'I' for Inactive)
ROOT
ATOM      1  C   UNL d   1       0.943   3.315  -2.746  0.00  0.00     0.078 C 
ATOM      2  C1  UNL d   1       0.378   4.128  -3.872  0.00  0.00    -0.077 A 
ATOM      3  C2  UNL d   1      -0.969   4.508  -3.883  0.00  0.00    -0.001 A 
ATOM      4  C3  UNL d   1      -1.484   5.257  -4.942  0.00  0.00     0.003 A 
ATOM      5  C4  UNL d   1      -0.657   5.632  -6.000  0.00  0.00    -0.005 A 
ATOM      6  C5  UNL d   1       0.685   5.257  -5.999  0.00  0.00     0.003 A 
ATOM      7  C6  UNL d   1       1.201   4.508  -4.940  0.00  0.00    -0.001 A 
ENDROOT
TORSDOF 0
ENDMDL
