MODEL 1
REMARK minimizedAffinity 0.333488643
REMARK minimizedRMSD -1
REMARK  0 active torsions:
REMARK  status: ('A' for Active; 'I' for Inactive)
ROOT
ATOM      1  C   UNL d   1       1.231   3.498  -2.630  0.00  0.00     0.078 C 
ATOM      2  C1  UNL d   1       0.749   4.308  -3.797  0.00  0.00    -0.077 A 
ATOM      3  C2  UNL d   1      -0.536   4.865  -3.806  0.00  0.00    -0.001 A 
ATOM      4  C3  UNL d   1      -0.976   5.608  -4.903  0.00  0.00     0.003 A 
ATOM      5  C4  UNL d   1      -0.137   5.800  -5.999  0.00  0.00    -0.005 A 
ATOM      6  C5  UNL d   1       1.142   5.248  -6.000  0.00  0.00     0.003 A 
ATOM      7  C6  UNL d   1       1.583   4.504  -4.904  0.00  0.00    -0.001 A 
ENDROOT
TORSDOF 0
ENDMDL
