MODEL 1
REMARK minimizedAffinity 1.32682049
REMARK minimizedRMSD -1
REMARK  0 active torsions:
REMARK  status: ('A' for Active; 'I' for Inactive)
ROOT
ATOM      1  C   UNL d   1       2.370   4.532  -3.423  0.00  0.00     0.078 C 
ATOM      2  C1  UNL d   1       1.136   4.804  -4.230  0.00  0.00    -0.077 A 
ATOM      3  C2  UNL d   1       1.142   5.751  -5.262  0.00  0.00    -0.001 A 
ATOM      4  C3  UNL d   1      -0.017   6.000  -5.999  0.00  0.00     0.003 A 
ATOM      5  C4  UNL d   1      -1.191   5.307  -5.711  0.00  0.00    -0.005 A 
ATOM      6  C5  UNL d   1      -1.208   4.364  -4.686  0.00  0.00     0.003 A 
ATOM      7  C6  UNL d   1      -0.050   4.114  -3.947  0.00  0.00    -0.001 A 
ENDROOT
TORSDOF 0
ENDMDL
