MODEL 1
REMARK minimizedAffinity 1.22412109
REMARK minimizedRMSD -1
REMARK  0 active torsions:
REMARK  status: ('A' for Active; 'I' for Inactive)
ROOT
ATOM      1  C   UNL d   1      -5.948  -5.998  -5.139  0.00  0.00     0.078 C 
ATOM      2  C1  UNL d   1      -4.467  -5.993  -4.907  0.00  0.00    -0.077 A 
ATOM      3  C2  UNL d   1      -3.940  -5.969  -3.609  0.00  0.00    -0.001 A 
ATOM      4  C3  UNL d   1      -2.559  -5.955  -3.408  0.00  0.00     0.003 A 
ATOM      5  C4  UNL d   1      -1.693  -5.964  -4.500  0.00  0.00    -0.005 A 
ATOM      6  C5  UNL d   1      -2.208  -5.986  -5.794  0.00  0.00     0.003 A 
ATOM      7  C6  UNL d   1      -3.588  -6.000  -5.997  0.00  0.00    -0.001 A 
ENDROOT
TORSDOF 0
ENDMDL
