MODEL 1
REMARK minimizedAffinity 1.12335122
REMARK minimizedRMSD -1
REMARK  0 active torsions:
REMARK  status: ('A' for Active; 'I' for Inactive)
ROOT
ATOM      1  C   UNL d   1       1.497   3.289  -2.782  0.00  0.00     0.078 C 
ATOM      2  C1  UNL d   1       1.131   4.241  -3.881  0.00  0.00    -0.077 A 
ATOM      3  C2  UNL d   1      -0.077   4.949  -3.850  0.00  0.00    -0.001 A 
ATOM      4  C3  UNL d   1      -0.410   5.824  -4.885  0.00  0.00     0.003 A 
ATOM      5  C4  UNL d   1       0.460   6.000  -5.959  0.00  0.00    -0.005 A 
ATOM      6  C5  UNL d   1       1.664   5.299  -6.000  0.00  0.00     0.003 A 
ATOM      7  C6  UNL d   1       1.998   4.423  -4.966  0.00  0.00    -0.001 A 
ENDROOT
TORSDOF 0
ENDMDL
