MODEL 1
REMARK minimizedAffinity 3.04842114
REMARK minimizedRMSD -1
REMARK  0 active torsions:
REMARK  status: ('A' for Active; 'I' for Inactive)
ROOT
ATOM      1  C   UNL d   1      -5.970   3.291  -2.978  0.00  0.00     0.078 C 
ATOM      2  C1  UNL d   1      -5.987   1.992  -3.726  0.00  0.00    -0.077 A 
ATOM      3  C2  UNL d   1      -5.985   0.768  -3.046  0.00  0.00    -0.001 A 
ATOM      4  C3  UNL d   1      -5.992  -0.434  -3.756  0.00  0.00     0.003 A 
ATOM      5  C4  UNL d   1      -5.999  -0.424  -5.149  0.00  0.00    -0.005 A 
ATOM      6  C5  UNL d   1      -5.999   0.789  -5.835  0.00  0.00     0.003 A 
ATOM      7  C6  UNL d   1      -5.992   1.992  -5.127  0.00  0.00    -0.001 A 
ENDROOT
TORSDOF 0
ENDMDL
