MODEL 1
REMARK minimizedAffinity 4.55349779
REMARK minimizedRMSD -1
REMARK  0 active torsions:
REMARK  status: ('A' for Active; 'I' for Inactive)
ROOT
ATOM      1  C   UNL d   1      -5.885   2.597  -2.337  0.00  0.00     0.078 C 
ATOM      2  C1  UNL d   1      -5.927   1.754  -3.577  0.00  0.00    -0.077 A 
ATOM      3  C2  UNL d   1      -5.965   0.357  -3.499  0.00  0.00    -0.001 A 
ATOM      4  C3  UNL d   1      -5.994  -0.415  -4.661  0.00  0.00     0.003 A 
ATOM      5  C4  UNL d   1      -5.983   0.202  -5.911  0.00  0.00    -0.005 A 
ATOM      6  C5  UNL d   1      -5.943   1.592  -5.999  0.00  0.00     0.003 A 
ATOM      7  C6  UNL d   1      -5.914   2.365  -4.837  0.00  0.00    -0.001 A 
ENDROOT
TORSDOF 0
ENDMDL
