MODEL 1
REMARK minimizedAffinity 5.95600557
REMARK minimizedRMSD -1
REMARK  0 active torsions:
REMARK  status: ('A' for Active; 'I' for Inactive)
ROOT
ATOM      1  C   UNL d   1       3.460  -0.908   1.947  0.00  0.00     0.078 C 
ATOM      2  C1  UNL d   1       2.790  -0.073   0.896  0.00  0.00    -0.077 A 
ATOM      3  C2  UNL d   1       2.907  -0.393  -0.462  0.00  0.00    -0.001 A 
ATOM      4  C3  UNL d   1       2.287   0.398  -1.430  0.00  0.00     0.003 A 
ATOM      5  C4  UNL d   1       1.546   1.515  -1.051  0.00  0.00    -0.005 A 
ATOM      6  C5  UNL d   1       1.425   1.843   0.298  0.00  0.00     0.003 A 
ATOM      7  C6  UNL d   1       2.045   1.053   1.268  0.00  0.00    -0.001 A 
ENDROOT
TORSDOF 0
ENDMDL
