MODEL 1
REMARK minimizedAffinity 4.23578978
REMARK minimizedRMSD -1
REMARK  0 active torsions:
REMARK  status: ('A' for Active; 'I' for Inactive)
ROOT
ATOM      1  C   UNL d   1      -1.915  -4.901  -4.166  0.00  0.00     0.078 C 
ATOM      2  C1  UNL d   1      -3.339  -4.960  -4.632  0.00  0.00    -0.077 A 
ATOM      3  C2  UNL d   1      -4.297  -4.067  -4.137  0.00  0.00    -0.001 A 
ATOM      4  C3  UNL d   1      -5.621  -4.140  -4.572  0.00  0.00     0.003 A 
ATOM      5  C4  UNL d   1      -6.000  -5.105  -5.503  0.00  0.00    -0.005 A 
ATOM      6  C5  UNL d   1      -5.053  -6.000  -6.000  0.00  0.00     0.003 A 
ATOM      7  C6  UNL d   1      -3.729  -5.928  -5.566  0.00  0.00    -0.001 A 
ENDROOT
TORSDOF 0
ENDMDL
