MODEL 1
REMARK minimizedAffinity 2.21874428
REMARK minimizedRMSD -1
REMARK  0 active torsions:
REMARK  status: ('A' for Active; 'I' for Inactive)
ROOT
ATOM      1  C   UNL d   1      -2.403  -0.042   4.708  0.00  0.00     0.078 C 
ATOM      2  C1  UNL d   1      -3.099  -0.418   3.434  0.00  0.00    -0.077 A 
ATOM      3  C2  UNL d   1      -2.496  -1.281   2.510  0.00  0.00    -0.001 A 
ATOM      4  C3  UNL d   1      -3.151  -1.614   1.324  0.00  0.00     0.003 A 
ATOM      5  C4  UNL d   1      -4.412  -1.089   1.049  0.00  0.00    -0.005 A 
ATOM      6  C5  UNL d   1      -5.019  -0.228   1.961  0.00  0.00     0.003 A 
ATOM      7  C6  UNL d   1      -4.365   0.107   3.148  0.00  0.00    -0.001 A 
ENDROOT
TORSDOF 0
ENDMDL
