MODEL 1
REMARK minimizedAffinity -0.316953212
REMARK minimizedRMSD -1
REMARK  1 active torsions:
REMARK  status: ('A' for Active; 'I' for Inactive)
REMARK    1  A    between atoms: C3_4  and  O_7 
ROOT
ATOM      1  C   UNL d   1       5.995   4.861  -4.917  0.00  0.00    -0.033 A 
ATOM      2  C1  UNL d   1       5.682   4.493  -3.607  0.00  0.00     0.039 A 
ATOM      3  C2  UNL d   1       4.458   4.867  -3.049  0.00  0.00    -0.080 A 
ATOM      4  C3  UNL d   1       3.557   5.607  -3.810  0.00  0.00     0.150 A 
ATOM      5  C4  UNL d   1       3.862   5.974  -5.117  0.00  0.00    -0.007 A 
ATOM      6  C5  UNL d   1       5.085   5.600  -5.673  0.00  0.00     0.039 A 
ENDROOT
BRANCH   4   7
ATOM      7  O   UNL d   1       2.353   6.000  -3.307  0.00  0.00    -0.526 OA
ATOM      8  H5  UNL d   1       2.292   5.700  -2.385  0.00  0.00     0.418 HD
ENDBRANCH   4   7
TORSDOF 1
ENDMDL
