MODEL 1
REMARK minimizedAffinity 3.68535113
REMARK minimizedRMSD -1
REMARK  1 active torsions:
REMARK  status: ('A' for Active; 'I' for Inactive)
REMARK    1  A    between atoms: C3_4  and  O_7 
ROOT
ATOM      1  C   UNL d   1       3.919   5.875  -4.437  0.00  0.00    -0.033 A 
ATOM      2  C1  UNL d   1       3.214   5.692  -3.246  0.00  0.00     0.039 A 
ATOM      3  C2  UNL d   1       3.899   5.619  -2.031  0.00  0.00    -0.080 A 
ATOM      4  C3  UNL d   1       5.287   5.731  -2.022  0.00  0.00     0.150 A 
ATOM      5  C4  UNL d   1       5.995   5.917  -3.204  0.00  0.00    -0.007 A 
ATOM      6  C5  UNL d   1       5.309   5.989  -4.416  0.00  0.00     0.039 A 
ENDROOT
BRANCH   4   7
ATOM      7  O   UNL d   1       5.999   5.661  -0.862  0.00  0.00    -0.526 OA
ATOM      8  H5  UNL d   1       5.381   5.501  -0.130  0.00  0.00     0.418 HD
ENDBRANCH   4   7
TORSDOF 1
ENDMDL
