MODEL 1
REMARK minimizedAffinity -1.83786488
REMARK minimizedRMSD -1
REMARK  1 active torsions:
REMARK  status: ('A' for Active; 'I' for Inactive)
REMARK    1  A    between atoms: C3_4  and  O_7 
ROOT
ATOM      1  C   UNL d   1       3.942   3.999  -4.455  0.00  0.00    -0.033 A 
ATOM      2  C1  UNL d   1       3.239   4.492  -3.354  0.00  0.00     0.039 A 
ATOM      3  C2  UNL d   1       3.917   5.167  -2.336  0.00  0.00    -0.080 A 
ATOM      4  C3  UNL d   1       5.294   5.343  -2.433  0.00  0.00     0.150 A 
ATOM      5  C4  UNL d   1       6.000   4.858  -3.529  0.00  0.00    -0.007 A 
ATOM      6  C5  UNL d   1       5.322   4.183  -4.543  0.00  0.00     0.039 A 
ENDROOT
BRANCH   4   7
ATOM      7  O   UNL d   1       6.000   5.990  -1.462  0.00  0.00    -0.526 OA
ATOM      8  H5  UNL d   1       5.386   6.244  -0.753  0.00  0.00     0.418 HD
ENDBRANCH   4   7
TORSDOF 1
ENDMDL
