MODEL 1
REMARK minimizedAffinity 3.07800293
REMARK minimizedRMSD -1
REMARK  1 active torsions:
REMARK  status: ('A' for Active; 'I' for Inactive)
REMARK    1  A    between atoms: C3_4  and  O_7 
ROOT
ATOM      1  C   UNL d   1      -2.774  -1.214   5.720  0.00  0.00    -0.033 A 
ATOM      2  C1  UNL d   1      -2.116   0.014   5.616  0.00  0.00     0.039 A 
ATOM      3  C2  UNL d   1      -0.724   0.071   5.707  0.00  0.00    -0.080 A 
ATOM      4  C3  UNL d   1      -0.003  -1.103   5.900  0.00  0.00     0.150 A 
ATOM      5  C4  UNL d   1      -0.651  -2.330   6.000  0.00  0.00    -0.007 A 
ATOM      6  C5  UNL d   1      -2.041  -2.386   5.910  0.00  0.00     0.039 A 
ENDROOT
BRANCH   4   7
ATOM      7  O   UNL d   1       1.357  -1.096   5.999  0.00  0.00    -0.526 OA
ATOM      8  H5  UNL d   1       1.665  -0.177   5.941  0.00  0.00     0.418 HD
ENDBRANCH   4   7
TORSDOF 1
ENDMDL
