MODEL 1
REMARK minimizedAffinity 4.59161091
REMARK minimizedRMSD -1
REMARK  1 active torsions:
REMARK  status: ('A' for Active; 'I' for Inactive)
REMARK    1  A    between atoms: C3_4  and  O_7 
ROOT
ATOM      1  C   UNL d   1       3.845   4.337  -4.430  0.00  0.00    -0.033 A 
ATOM      2  C1  UNL d   1       3.304   5.425  -3.741  0.00  0.00     0.039 A 
ATOM      3  C2  UNL d   1       4.004   5.998  -2.677  0.00  0.00    -0.080 A 
ATOM      4  C3  UNL d   1       5.242   5.476  -2.314  0.00  0.00     0.150 A 
ATOM      5  C4  UNL d   1       5.789   4.396  -2.998  0.00  0.00    -0.007 A 
ATOM      6  C5  UNL d   1       5.089   3.824  -4.059  0.00  0.00     0.039 A 
ENDROOT
BRANCH   4   7
ATOM      7  O   UNL d   1       5.960   6.000  -1.280  0.00  0.00    -0.526 OA
ATOM      8  H5  UNL d   1       5.445   6.722  -0.882  0.00  0.00     0.418 HD
ENDBRANCH   4   7
TORSDOF 1
ENDMDL
