MODEL 1
REMARK minimizedAffinity 1.5119127
REMARK minimizedRMSD -1
REMARK  1 active torsions:
REMARK  status: ('A' for Active; 'I' for Inactive)
REMARK    1  A    between atoms: C3_4  and  O_7 
ROOT
ATOM      1  C   UNL d   1      -0.126  -3.208  -3.827  0.00  0.00    -0.033 A 
ATOM      2  C1  UNL d   1       0.068  -1.973  -3.204  0.00  0.00     0.039 A 
ATOM      3  C2  UNL d   1      -0.153  -1.839  -1.832  0.00  0.00    -0.080 A 
ATOM      4  C3  UNL d   1      -0.566  -2.946  -1.095  0.00  0.00     0.150 A 
ATOM      5  C4  UNL d   1      -0.757  -4.180  -1.708  0.00  0.00    -0.007 A 
ATOM      6  C5  UNL d   1      -0.537  -4.312  -3.078  0.00  0.00     0.039 A 
ENDROOT
BRANCH   4   7
ATOM      7  O   UNL d   1      -0.800  -2.862   0.246  0.00  0.00    -0.526 OA
ATOM      8  H5  UNL d   1      -0.655  -1.943   0.527  0.00  0.00     0.418 HD
ENDBRANCH   4   7
TORSDOF 1
ENDMDL
