MODEL 1
REMARK minimizedAffinity -1.69038343
REMARK minimizedRMSD -1
REMARK  1 active torsions:
REMARK  status: ('A' for Active; 'I' for Inactive)
REMARK    1  A    between atoms: C3_4  and  O_7 
ROOT
ATOM      1  C   UNL d   1       5.836  -3.752   4.902  0.00  0.00    -0.033 A 
ATOM      2  C1  UNL d   1       4.712  -3.749   4.073  0.00  0.00     0.039 A 
ATOM      3  C2  UNL d   1       3.744  -2.752   4.208  0.00  0.00    -0.080 A 
ATOM      4  C3  UNL d   1       3.913  -1.763   5.174  0.00  0.00     0.150 A 
ATOM      5  C4  UNL d   1       5.032  -1.757   6.000  0.00  0.00    -0.007 A 
ATOM      6  C5  UNL d   1       5.996  -2.754   5.864  0.00  0.00     0.039 A 
ENDROOT
BRANCH   4   7
ATOM      7  O   UNL d   1       2.994  -0.771   5.346  0.00  0.00    -0.526 OA
ATOM      8  H5  UNL d   1       2.261  -0.920   4.726  0.00  0.00     0.418 HD
ENDBRANCH   4   7
TORSDOF 1
ENDMDL
