MODEL 1
REMARK minimizedAffinity -3.00692034
REMARK minimizedRMSD -1
REMARK  1 active torsions:
REMARK  status: ('A' for Active; 'I' for Inactive)
REMARK    1  A    between atoms: C3_4  and  O_7 
ROOT
ATOM      1  C   UNL d   1       4.080   4.038  -4.636  0.00  0.00    -0.033 A 
ATOM      2  C1  UNL d   1       5.334   4.608  -4.860  0.00  0.00     0.039 A 
ATOM      3  C2  UNL d   1       5.996   5.272  -3.825  0.00  0.00    -0.080 A 
ATOM      4  C3  UNL d   1       5.395   5.358  -2.573  0.00  0.00     0.150 A 
ATOM      5  C4  UNL d   1       4.147   4.788  -2.341  0.00  0.00    -0.007 A 
ATOM      6  C5  UNL d   1       3.487   4.126  -3.376  0.00  0.00     0.039 A 
ENDROOT
BRANCH   4   7
ATOM      7  O   UNL d   1       6.000   6.000  -1.534  0.00  0.00    -0.526 OA
ATOM      8  H5  UNL d   1       6.842   6.368  -1.848  0.00  0.00     0.418 HD
ENDBRANCH   4   7
TORSDOF 1
ENDMDL
