MODEL 1
REMARK minimizedAffinity 3.74245691
REMARK minimizedRMSD -1
REMARK  1 active torsions:
REMARK  status: ('A' for Active; 'I' for Inactive)
REMARK    1  A    between atoms: C3_4  and  O_7 
ROOT
ATOM      1  C   UNL d   1       5.995  -3.054   5.998  0.00  0.00    -0.033 A 
ATOM      2  C1  UNL d   1       5.965  -1.660   5.921  0.00  0.00     0.039 A 
ATOM      3  C2  UNL d   1       4.753  -0.995   5.723  0.00  0.00    -0.080 A 
ATOM      4  C3  UNL d   1       3.580  -1.735   5.604  0.00  0.00     0.150 A 
ATOM      5  C4  UNL d   1       3.601  -3.123   5.683  0.00  0.00    -0.007 A 
ATOM      6  C5  UNL d   1       4.813  -3.785   5.880  0.00  0.00     0.039 A 
ENDROOT
BRANCH   4   7
ATOM      7  O   UNL d   1       2.374  -1.131   5.405  0.00  0.00    -0.526 OA
ATOM      8  H5  UNL d   1       2.517  -0.172   5.342  0.00  0.00     0.418 HD
ENDBRANCH   4   7
TORSDOF 1
ENDMDL
