MODEL 1
REMARK minimizedAffinity 3.55922627
REMARK minimizedRMSD -1
REMARK  1 active torsions:
REMARK  status: ('A' for Active; 'I' for Inactive)
REMARK    1  A    between atoms: C3_4  and  O_7 
ROOT
ATOM      1  C   UNL d   1       3.978   4.501  -4.346  0.00  0.00    -0.033 A 
ATOM      2  C1  UNL d   1       5.277   4.061  -4.083  0.00  0.00     0.039 A 
ATOM      3  C2  UNL d   1       5.972   4.555  -2.978  0.00  0.00    -0.080 A 
ATOM      4  C3  UNL d   1       5.359   5.486  -2.144  0.00  0.00     0.150 A 
ATOM      5  C4  UNL d   1       4.064   5.926  -2.398  0.00  0.00    -0.007 A 
ATOM      6  C5  UNL d   1       3.371   5.432  -3.502  0.00  0.00     0.039 A 
ENDROOT
BRANCH   4   7
ATOM      7  O   UNL d   1       6.000   6.000  -1.056  0.00  0.00    -0.526 OA
ATOM      8  H5  UNL d   1       6.897   5.627  -1.023  0.00  0.00     0.418 HD
ENDBRANCH   4   7
TORSDOF 1
ENDMDL
