MODEL 1
REMARK minimizedAffinity -3.17530394
REMARK minimizedRMSD -1
REMARK  1 active torsions:
REMARK  status: ('A' for Active; 'I' for Inactive)
REMARK    1  A    between atoms: C3_4  and  O_7 
ROOT
ATOM      1  C   UNL d   1       6.000   4.501  -4.269  0.00  0.00    -0.033 A 
ATOM      2  C1  UNL d   1       4.952   3.997  -5.043  0.00  0.00     0.039 A 
ATOM      3  C2  UNL d   1       3.658   4.491  -4.874  0.00  0.00    -0.080 A 
ATOM      4  C3  UNL d   1       3.424   5.489  -3.932  0.00  0.00     0.150 A 
ATOM      5  C4  UNL d   1       4.464   5.998  -3.161  0.00  0.00    -0.007 A 
ATOM      6  C5  UNL d   1       5.756   5.502  -3.329  0.00  0.00     0.039 A 
ENDROOT
BRANCH   4   7
ATOM      7  O   UNL d   1       2.177   6.000  -3.729  0.00  0.00    -0.526 OA
ATOM      8  H5  UNL d   1       1.554   5.533  -4.311  0.00  0.00     0.418 HD
ENDBRANCH   4   7
TORSDOF 1
ENDMDL
