MODEL 1
REMARK minimizedAffinity -2.36523652
REMARK minimizedRMSD -1
REMARK  1 active torsions:
REMARK  status: ('A' for Active; 'I' for Inactive)
REMARK    1  A    between atoms: C3_4  and  O_7 
ROOT
ATOM      1  C   UNL d   1       5.242   4.887  -4.515  0.00  0.00    -0.033 A 
ATOM      2  C1  UNL d   1       5.739   3.686  -4.007  0.00  0.00     0.039 A 
ATOM      3  C2  UNL d   1       5.999   3.558  -2.641  0.00  0.00    -0.080 A 
ATOM      4  C3  UNL d   1       5.757   4.637  -1.795  0.00  0.00     0.150 A 
ATOM      5  C4  UNL d   1       5.257   5.836  -2.294  0.00  0.00    -0.007 A 
ATOM      6  C5  UNL d   1       4.999   5.962  -3.658  0.00  0.00     0.039 A 
ENDROOT
BRANCH   4   7
ATOM      7  O   UNL d   1       5.999   4.561  -0.456  0.00  0.00    -0.526 OA
ATOM      8  H5  UNL d   1       6.369   3.684  -0.259  0.00  0.00     0.418 HD
ENDBRANCH   4   7
TORSDOF 1
ENDMDL
