MODEL 1
REMARK minimizedAffinity -3.95355034
REMARK minimizedRMSD -1
REMARK  1 active torsions:
REMARK  status: ('A' for Active; 'I' for Inactive)
REMARK    1  A    between atoms: C3_4  and  O_7 
ROOT
ATOM      1  C   UNL d   1       4.513   3.748  -4.924  0.00  0.00    -0.033 A 
ATOM      2  C1  UNL d   1       3.418   4.139  -4.152  0.00  0.00     0.039 A 
ATOM      3  C2  UNL d   1       3.612   4.893  -2.993  0.00  0.00    -0.080 A 
ATOM      4  C3  UNL d   1       4.904   5.249  -2.618  0.00  0.00     0.150 A 
ATOM      5  C4  UNL d   1       6.000   4.866  -3.385  0.00  0.00    -0.007 A 
ATOM      6  C5  UNL d   1       5.804   4.113  -4.541  0.00  0.00     0.039 A 
ENDROOT
BRANCH   4   7
ATOM      7  O   UNL d   1       5.144   5.980  -1.493  0.00  0.00    -0.526 OA
ATOM      8  H5  UNL d   1       4.296   6.148  -1.048  0.00  0.00     0.418 HD
ENDBRANCH   4   7
TORSDOF 1
ENDMDL
