MODEL 1
REMARK minimizedAffinity -1.17882419
REMARK minimizedRMSD -1
REMARK  1 active torsions:
REMARK  status: ('A' for Active; 'I' for Inactive)
REMARK    1  A    between atoms: C3_4  and  O_7 
ROOT
ATOM      1  C   UNL d   1       4.310   4.886  -6.000  0.00  0.00    -0.033 A 
ATOM      2  C1  UNL d   1       5.423   4.055  -5.858  0.00  0.00     0.039 A 
ATOM      3  C2  UNL d   1       6.000   3.866  -4.601  0.00  0.00    -0.080 A 
ATOM      4  C3  UNL d   1       5.455   4.512  -3.495  0.00  0.00     0.150 A 
ATOM      5  C4  UNL d   1       4.343   5.338  -3.628  0.00  0.00    -0.007 A 
ATOM      6  C5  UNL d   1       3.769   5.526  -4.885  0.00  0.00     0.039 A 
ENDROOT
BRANCH   4   7
ATOM      7  O   UNL d   1       5.986   4.363  -2.249  0.00  0.00    -0.526 OA
ATOM      8  H5  UNL d   1       6.767   3.787  -2.314  0.00  0.00     0.418 HD
ENDBRANCH   4   7
TORSDOF 1
ENDMDL
