MODEL 1
REMARK minimizedAffinity -4.46697044
REMARK minimizedRMSD -1
REMARK  1 active torsions:
REMARK  status: ('A' for Active; 'I' for Inactive)
REMARK    1  A    between atoms: C1_2  and  C2_3 
ROOT
ATOM      1  C2  UNL d   1      -0.133  -0.279  -0.384  0.00  0.00    -0.077 A 
ATOM      2  C3  UNL d   1      -0.807  -0.276   0.846  0.00  0.00     0.002 A 
ATOM      3  C4  UNL d   1      -2.192  -0.449   0.893  0.00  0.00     0.002 A 
ATOM      4  C5  UNL d   1      -2.913  -0.630  -0.285  0.00  0.00    -0.004 A 
ATOM      5  C6  UNL d   1      -2.253  -0.633  -1.513  0.00  0.00     0.002 A 
ATOM      6  C7  UNL d   1      -0.869  -0.459  -1.562  0.00  0.00     0.002 A 
ENDROOT
BRANCH   1   7
ATOM      7  C1  UNL d   1       1.366  -0.142  -0.433  0.00  0.00     0.055 C 
ATOM      8  C   UNL d   1       1.829   1.128   0.265  0.00  0.00     0.019 C 
ENDBRANCH   1   7
TORSDOF 1
ENDMDL
