MODEL 1
REMARK minimizedAffinity -2.76872754
REMARK minimizedRMSD -1
REMARK  1 active torsions:
REMARK  status: ('A' for Active; 'I' for Inactive)
REMARK    1  A    between atoms: C1_2  and  C2_3 
ROOT
ATOM      1  C2  UNL d   1      -0.609  -0.088  -0.588  0.00  0.00    -0.077 A 
ATOM      2  C3  UNL d   1      -0.903  -0.185   0.779  0.00  0.00     0.002 A 
ATOM      3  C4  UNL d   1      -2.156  -0.632   1.202  0.00  0.00     0.002 A 
ATOM      4  C5  UNL d   1      -3.123  -0.989   0.265  0.00  0.00    -0.004 A 
ATOM      5  C6  UNL d   1      -2.841  -0.894  -1.097  0.00  0.00     0.002 A 
ATOM      6  C7  UNL d   1      -1.590  -0.446  -1.522  0.00  0.00     0.002 A 
ENDROOT
BRANCH   1   7
ATOM      7  C1  UNL d   1       0.759   0.347  -1.046  0.00  0.00     0.055 C 
ATOM      8  C   UNL d   1       1.817   0.044   0.004  0.00  0.00     0.019 C 
ENDBRANCH   1   7
TORSDOF 1
ENDMDL
