MODEL 1
REMARK minimizedAffinity -4.0050106
REMARK minimizedRMSD -1
REMARK  1 active torsions:
REMARK  status: ('A' for Active; 'I' for Inactive)
REMARK    1  A    between atoms: C1_2  and  C2_3 
ROOT
ATOM      1  C2  UNL d   1       0.357   0.017  -0.193  0.00  0.00    -0.077 A 
ATOM      2  C3  UNL d   1      -0.679  -0.326   0.687  0.00  0.00     0.002 A 
ATOM      3  C4  UNL d   1      -1.986  -0.469   0.218  0.00  0.00     0.002 A 
ATOM      4  C5  UNL d   1      -2.269  -0.274  -1.133  0.00  0.00    -0.004 A 
ATOM      5  C6  UNL d   1      -1.246   0.069  -2.016  0.00  0.00     0.002 A 
ATOM      6  C7  UNL d   1       0.061   0.213  -1.548  0.00  0.00     0.002 A 
ENDROOT
BRANCH   1   7
ATOM      7  C1  UNL d   1       1.776   0.122   0.302  0.00  0.00     0.055 C 
ATOM      8  C   UNL d   1       2.102   1.540   0.748  0.00  0.00     0.019 C 
ENDBRANCH   1   7
TORSDOF 1
ENDMDL
