MODEL 1
REMARK minimizedAffinity -4.60564947
REMARK minimizedRMSD -1
REMARK  1 active torsions:
REMARK  status: ('A' for Active; 'I' for Inactive)
REMARK    1  A    between atoms: C1_2  and  C2_3 
ROOT
ATOM      1  C2  UNL d   1       2.015   0.842   1.050  0.00  0.00    -0.077 A 
ATOM      2  C3  UNL d   1       2.434   1.496  -0.117  0.00  0.00     0.002 A 
ATOM      3  C4  UNL d   1       3.157   2.687  -0.038  0.00  0.00     0.002 A 
ATOM      4  C5  UNL d   1       3.471   3.233   1.205  0.00  0.00    -0.004 A 
ATOM      5  C6  UNL d   1       3.057   2.591   2.372  0.00  0.00     0.002 A 
ATOM      6  C7  UNL d   1       2.333   1.401   2.295  0.00  0.00     0.002 A 
ENDROOT
BRANCH   1   7
ATOM      7  C1  UNL d   1       1.277  -0.469   0.968  0.00  0.00     0.055 C 
ATOM      8  C   UNL d   1      -0.219  -0.253   0.800  0.00  0.00     0.019 C 
ENDBRANCH   1   7
TORSDOF 1
ENDMDL
