MODEL 1
REMARK minimizedAffinity -4.42715073
REMARK minimizedRMSD -1
REMARK  1 active torsions:
REMARK  status: ('A' for Active; 'I' for Inactive)
REMARK    1  A    between atoms: C1_2  and  C2_3 
ROOT
ATOM      1  C2  UNL d   1       0.421   0.085  -0.078  0.00  0.00    -0.077 A 
ATOM      2  C3  UNL d   1      -0.583  -0.633   0.586  0.00  0.00     0.002 A 
ATOM      3  C4  UNL d   1      -1.876  -0.690   0.062  0.00  0.00     0.002 A 
ATOM      4  C5  UNL d   1      -2.175  -0.034  -1.131  0.00  0.00    -0.004 A 
ATOM      5  C6  UNL d   1      -1.184   0.685  -1.798  0.00  0.00     0.002 A 
ATOM      6  C7  UNL d   1       0.109   0.743  -1.274  0.00  0.00     0.002 A 
ENDROOT
BRANCH   1   7
ATOM      7  C1  UNL d   1       1.828   0.106   0.460  0.00  0.00     0.055 C 
ATOM      8  C   UNL d   1       2.523   1.421   0.141  0.00  0.00     0.019 C 
ENDBRANCH   1   7
TORSDOF 1
ENDMDL
