MODEL 1
REMARK minimizedAffinity -3.44959354
REMARK minimizedRMSD -1
REMARK  1 active torsions:
REMARK  status: ('A' for Active; 'I' for Inactive)
REMARK    1  A    between atoms: C1_2  and  C2_3 
ROOT
ATOM      1  C2  UNL d   1       0.300   0.258  -0.355  0.00  0.00    -0.077 A 
ATOM      2  C3  UNL d   1      -0.584  -0.187   0.637  0.00  0.00     0.002 A 
ATOM      3  C4  UNL d   1      -1.883  -0.576   0.303  0.00  0.00     0.002 A 
ATOM      4  C5  UNL d   1      -2.307  -0.528  -1.023  0.00  0.00    -0.004 A 
ATOM      5  C6  UNL d   1      -1.435  -0.085  -2.017  0.00  0.00     0.002 A 
ATOM      6  C7  UNL d   1      -0.137   0.305  -1.685  0.00  0.00     0.002 A 
ENDROOT
BRANCH   1   7
ATOM      7  C1  UNL d   1       1.717   0.631  -0.003  0.00  0.00     0.055 C 
ATOM      8  C   UNL d   1       1.758   1.619   1.154  0.00  0.00     0.019 C 
ENDBRANCH   1   7
TORSDOF 1
ENDMDL
