MODEL 1
REMARK minimizedAffinity -3.69894624
REMARK minimizedRMSD -1
REMARK  1 active torsions:
REMARK  status: ('A' for Active; 'I' for Inactive)
REMARK    1  A    between atoms: C1_2  and  C2_3 
ROOT
ATOM      1  C2  UNL d   1       0.627   0.154   0.186  0.00  0.00    -0.077 A 
ATOM      2  C3  UNL d   1      -0.466  -0.400   0.866  0.00  0.00     0.002 A 
ATOM      3  C4  UNL d   1      -1.688  -0.577   0.214  0.00  0.00     0.002 A 
ATOM      4  C5  UNL d   1      -1.826  -0.207  -1.122  0.00  0.00    -0.004 A 
ATOM      5  C6  UNL d   1      -0.745   0.347  -1.807  0.00  0.00     0.002 A 
ATOM      6  C7  UNL d   1       0.476   0.526  -1.156  0.00  0.00     0.002 A 
ENDROOT
BRANCH   1   7
ATOM      7  C1  UNL d   1       1.960   0.301   0.873  0.00  0.00     0.055 C 
ATOM      8  C   UNL d   1       2.483   1.726   0.768  0.00  0.00     0.019 C 
ENDBRANCH   1   7
TORSDOF 1
ENDMDL
