MODEL 1
REMARK minimizedAffinity -4.25724459
REMARK minimizedRMSD -1
REMARK  1 active torsions:
REMARK  status: ('A' for Active; 'I' for Inactive)
REMARK    1  A    between atoms: C1_2  and  C2_3 
ROOT
ATOM      1  C2  UNL d   1       0.178   0.019   0.121  0.00  0.00    -0.077 A 
ATOM      2  C3  UNL d   1      -0.076   0.293  -1.230  0.00  0.00     0.002 A 
ATOM      3  C4  UNL d   1      -1.352   0.097  -1.762  0.00  0.00     0.002 A 
ATOM      4  C5  UNL d   1      -2.384  -0.369  -0.950  0.00  0.00    -0.004 A 
ATOM      5  C6  UNL d   1      -2.140  -0.645   0.395  0.00  0.00     0.002 A 
ATOM      6  C7  UNL d   1      -0.865  -0.451   0.928  0.00  0.00     0.002 A 
ENDROOT
BRANCH   1   7
ATOM      7  C1  UNL d   1       1.541   0.277   0.708  0.00  0.00     0.055 C 
ATOM      8  C   UNL d   1       1.828   1.768   0.810  0.00  0.00     0.019 C 
ENDBRANCH   1   7
TORSDOF 1
ENDMDL
