MODEL 1
REMARK minimizedAffinity -2.30280185
REMARK minimizedRMSD -1
REMARK  1 active torsions:
REMARK  status: ('A' for Active; 'I' for Inactive)
REMARK    1  A    between atoms: C1_2  and  C2_3 
ROOT
ATOM      1  C2  UNL d   1      -0.265  -0.205  -0.650  0.00  0.00    -0.077 A 
ATOM      2  C3  UNL d   1      -0.691  -0.353   0.677  0.00  0.00     0.002 A 
ATOM      3  C4  UNL d   1      -2.042  -0.559   0.966  0.00  0.00     0.002 A 
ATOM      4  C5  UNL d   1      -2.975  -0.623  -0.066  0.00  0.00    -0.004 A 
ATOM      5  C6  UNL d   1      -2.561  -0.475  -1.389  0.00  0.00     0.002 A 
ATOM      6  C7  UNL d   1      -1.212  -0.268  -1.680  0.00  0.00     0.002 A 
ENDROOT
BRANCH   1   7
ATOM      7  C1  UNL d   1       1.197  -0.032  -0.968  0.00  0.00     0.055 C 
ATOM      8  C   UNL d   1       1.810   1.099  -0.155  0.00  0.00     0.019 C 
ENDBRANCH   1   7
TORSDOF 1
ENDMDL
