MODEL 1
REMARK minimizedAffinity -2.47549224
REMARK minimizedRMSD -1
REMARK  1 active torsions:
REMARK  status: ('A' for Active; 'I' for Inactive)
REMARK    1  A    between atoms: N_2  and  C1_3 
ROOT
ATOM      1  C1  UNL d   1       0.436   1.336   0.527  0.00  0.00     0.143 A 
ATOM      2  C2  UNL d   1       0.153   2.457  -0.261  0.00  0.00    -0.057 A 
ATOM      3  C3  UNL d   1       0.077   2.363  -1.656  0.00  0.00     0.033 A 
ATOM      4  C4  UNL d   1       0.313   1.148  -2.292  0.00  0.00    -0.042 A 
ATOM      5  C5  UNL d   1       0.621   0.026  -1.530  0.00  0.00     0.033 A 
ATOM      6  C6  UNL d   1       0.688   0.125  -0.137  0.00  0.00    -0.057 A 
ENDROOT
BRANCH   1   7
ATOM      7  N   UNL d   1       0.621   1.385   1.911  0.00  0.00    -0.732 N 
ATOM      8  C   UNL d   1       1.576   0.511   2.558  0.00  0.00     0.284 C 
ATOM      9  H3  UNL d   1       0.619   2.337   2.269  0.00  0.00     0.395 HD
ENDBRANCH   1   7
TORSDOF 1
ENDMDL
