MODEL 1
REMARK minimizedAffinity -4.90397882
REMARK minimizedRMSD -1
REMARK  1 active torsions:
REMARK  status: ('A' for Active; 'I' for Inactive)
REMARK    1  A    between atoms: N_2  and  C1_3 
ROOT
ATOM      1  C1  UNL d   1       0.144   0.181   0.384  0.00  0.00     0.143 A 
ATOM      2  C2  UNL d   1       0.726   0.198   1.656  0.00  0.00    -0.057 A 
ATOM      3  C3  UNL d   1       0.301   1.101   2.637  0.00  0.00     0.033 A 
ATOM      4  C4  UNL d   1      -0.700   2.025   2.354  0.00  0.00    -0.042 A 
ATOM      5  C5  UNL d   1      -1.276   2.043   1.089  0.00  0.00     0.033 A 
ATOM      6  C6  UNL d   1      -0.851   1.135   0.115  0.00  0.00    -0.057 A 
ENDROOT
BRANCH   1   7
ATOM      7  N   UNL d   1       0.591  -0.625  -0.666  0.00  0.00    -0.732 N 
ATOM      8  C   UNL d   1       0.174  -2.008  -0.762  0.00  0.00     0.284 C 
ATOM      9  H3  UNL d   1       0.605  -0.132  -1.556  0.00  0.00     0.395 HD
ENDBRANCH   1   7
TORSDOF 1
ENDMDL
