MODEL 1
REMARK minimizedAffinity -3.86153102
REMARK minimizedRMSD -1
REMARK  1 active torsions:
REMARK  status: ('A' for Active; 'I' for Inactive)
REMARK    1  A    between atoms: N_2  and  C1_3 
ROOT
ATOM      1  C1  UNL d   1      -0.042   0.795   0.631  0.00  0.00     0.143 A 
ATOM      2  C2  UNL d   1      -0.063   1.371   1.906  0.00  0.00    -0.057 A 
ATOM      3  C3  UNL d   1      -0.327   2.734   2.083  0.00  0.00     0.033 A 
ATOM      4  C4  UNL d   1      -0.546   3.555   0.981  0.00  0.00    -0.042 A 
ATOM      5  C5  UNL d   1      -0.505   3.010  -0.297  0.00  0.00     0.033 A 
ATOM      6  C6  UNL d   1      -0.248   1.646  -0.467  0.00  0.00    -0.057 A 
ENDROOT
BRANCH   1   7
ATOM      7  N   UNL d   1       0.311  -0.533   0.383  0.00  0.00    -0.732 N 
ATOM      8  C   UNL d   1       0.688  -0.960  -0.948  0.00  0.00     0.284 C 
ATOM      9  H3  UNL d   1       0.887  -0.927   1.124  0.00  0.00     0.395 HD
ENDBRANCH   1   7
TORSDOF 1
ENDMDL
