MODEL 1
REMARK minimizedAffinity -4.18659067
REMARK minimizedRMSD -1
REMARK  1 active torsions:
REMARK  status: ('A' for Active; 'I' for Inactive)
REMARK    1  A    between atoms: N_2  and  C1_3 
ROOT
ATOM      1  C1  UNL d   1      -0.163   1.095   0.163  0.00  0.00     0.143 A 
ATOM      2  C2  UNL d   1      -0.344   1.866   1.317  0.00  0.00    -0.057 A 
ATOM      3  C3  UNL d   1      -0.796   3.189   1.243  0.00  0.00     0.033 A 
ATOM      4  C4  UNL d   1      -1.049   3.775   0.007  0.00  0.00    -0.042 A 
ATOM      5  C5  UNL d   1      -0.853   3.036  -1.154  0.00  0.00     0.033 A 
ATOM      6  C6  UNL d   1      -0.407   1.713  -1.073  0.00  0.00    -0.057 A 
ENDROOT
BRANCH   1   7
ATOM      7  N   UNL d   1       0.377  -0.193   0.165  0.00  0.00    -0.732 N 
ATOM      8  C   UNL d   1      -0.119  -1.203  -0.746  0.00  0.00     0.284 C 
ATOM      9  H3  UNL d   1       1.389  -0.190   0.270  0.00  0.00     0.395 HD
ENDBRANCH   1   7
TORSDOF 1
ENDMDL
