MODEL 1
REMARK minimizedAffinity -4.98265266
REMARK minimizedRMSD -1
REMARK  1 active torsions:
REMARK  status: ('A' for Active; 'I' for Inactive)
REMARK    1  A    between atoms: N_2  and  C1_3 
ROOT
ATOM      1  C1  UNL d   1       0.368  -0.013   0.260  0.00  0.00     0.143 A 
ATOM      2  C2  UNL d   1       0.949   0.320   1.489  0.00  0.00    -0.057 A 
ATOM      3  C3  UNL d   1       0.335   1.229   2.359  0.00  0.00     0.033 A 
ATOM      4  C4  UNL d   1      -0.859   1.846   2.002  0.00  0.00    -0.042 A 
ATOM      5  C5  UNL d   1      -1.442   1.549   0.775  0.00  0.00     0.033 A 
ATOM      6  C6  UNL d   1      -0.827   0.635  -0.087  0.00  0.00    -0.057 A 
ENDROOT
BRANCH   1   7
ATOM      7  N   UNL d   1       0.978  -0.834  -0.691  0.00  0.00    -0.732 N 
ATOM      8  C   UNL d   1       0.207  -1.818  -1.419  0.00  0.00     0.284 C 
ATOM      9  H3  UNL d   1       1.655  -0.331  -1.262  0.00  0.00     0.395 HD
ENDBRANCH   1   7
TORSDOF 1
ENDMDL
