MODEL 1
REMARK minimizedAffinity -2.02361751
REMARK minimizedRMSD -1
REMARK  1 active torsions:
REMARK  status: ('A' for Active; 'I' for Inactive)
REMARK    1  A    between atoms: N_2  and  C1_3 
ROOT
ATOM      1  C1  UNL d   1      -1.307   0.619  -0.546  0.00  0.00     0.143 A 
ATOM      2  C2  UNL d   1      -1.331   0.688   0.851  0.00  0.00    -0.057 A 
ATOM      3  C3  UNL d   1      -0.226   0.300   1.617  0.00  0.00     0.033 A 
ATOM      4  C4  UNL d   1       0.918  -0.194   0.998  0.00  0.00    -0.042 A 
ATOM      5  C5  UNL d   1       0.956  -0.295  -0.388  0.00  0.00     0.033 A 
ATOM      6  C6  UNL d   1      -0.149   0.101  -1.148  0.00  0.00    -0.057 A 
ENDROOT
BRANCH   1   7
ATOM      7  N   UNL d   1      -2.409   0.898  -1.358  0.00  0.00    -0.732 N 
ATOM      8  C   UNL d   1      -3.477   1.751  -0.884  0.00  0.00     0.284 C 
ATOM      9  H3  UNL d   1      -2.145   1.061  -2.327  0.00  0.00     0.395 HD
ENDBRANCH   1   7
TORSDOF 1
ENDMDL
