MODEL 1
REMARK minimizedAffinity 3.4436059
REMARK minimizedRMSD -1
REMARK  1 active torsions:
REMARK  status: ('A' for Active; 'I' for Inactive)
REMARK    1  A    between atoms: N_2  and  C1_3 
ROOT
ATOM      1  C1  UNL d   1       1.140  -0.279   1.416  0.00  0.00     0.143 A 
ATOM      2  C2  UNL d   1       0.742   1.028   1.720  0.00  0.00    -0.057 A 
ATOM      3  C3  UNL d   1       0.614   1.458   3.046  0.00  0.00     0.033 A 
ATOM      4  C4  UNL d   1       0.855   0.578   4.096  0.00  0.00    -0.042 A 
ATOM      5  C5  UNL d   1       1.228  -0.732   3.818  0.00  0.00     0.033 A 
ATOM      6  C6  UNL d   1       1.360  -1.154   2.491  0.00  0.00    -0.057 A 
ENDROOT
BRANCH   1   7
ATOM      7  N   UNL d   1       1.190  -0.795   0.119  0.00  0.00    -0.732 N 
ATOM      8  C   UNL d   1       1.020  -2.213  -0.117  0.00  0.00     0.284 C 
ATOM      9  H3  UNL d   1       0.711  -0.201  -0.554  0.00  0.00     0.395 HD
ENDBRANCH   1   7
TORSDOF 1
ENDMDL
