MODEL 1
REMARK minimizedAffinity -3.25428343
REMARK minimizedRMSD -1
REMARK  1 active torsions:
REMARK  status: ('A' for Active; 'I' for Inactive)
REMARK    1  A    between atoms: N_2  and  C1_3 
ROOT
ATOM      1  C1  UNL d   1       0.644   1.165   0.756  0.00  0.00     0.143 A 
ATOM      2  C2  UNL d   1       0.277   1.696   1.997  0.00  0.00    -0.057 A 
ATOM      3  C3  UNL d   1       0.692   1.100   3.194  0.00  0.00     0.033 A 
ATOM      4  C4  UNL d   1       1.460  -0.060   3.170  0.00  0.00    -0.042 A 
ATOM      5  C5  UNL d   1       1.816  -0.620   1.948  0.00  0.00     0.033 A 
ATOM      6  C6  UNL d   1       1.403  -0.016   0.756  0.00  0.00    -0.057 A 
ENDROOT
BRANCH   1   7
ATOM      7  N   UNL d   1       0.180   1.655  -0.468  0.00  0.00    -0.732 N 
ATOM      8  C   UNL d   1      -1.204   1.485  -0.854  0.00  0.00     0.284 C 
ATOM      9  H3  UNL d   1       0.564   2.571  -0.689  0.00  0.00     0.395 HD
ENDBRANCH   1   7
TORSDOF 1
ENDMDL
