MODEL 1
REMARK minimizedAffinity -3.65431023
REMARK minimizedRMSD -1
REMARK  0 active torsions:
REMARK  status: ('A' for Active; 'I' for Inactive)
ROOT
ATOM      1  O1  BZF d   1       0.078   0.439  -1.312  0.00  0.00    -0.204 OA
ATOM      2  C2  BZF d   1       0.798  -0.738  -1.369  0.00  0.00     0.174 A 
ATOM      3  C3  BZF d   1       0.807  -1.351  -0.168  0.00  0.00    -0.012 A 
ATOM      4  C3A BZF d   1      -0.033  -0.551   0.670  0.00  0.00    -0.107 A 
ATOM      5  C4  BZF d   1      -0.430  -0.652   1.973  0.00  0.00     0.055 A 
ATOM      6  C5  BZF d   1      -1.194   0.335   2.509  0.00  0.00    -0.016 A 
ATOM      7  C6  BZF d   1      -1.574   1.439   1.774  0.00  0.00     0.022 A 
ATOM      8  C7  BZF d   1      -1.209   1.581   0.477  0.00  0.00     0.029 A 
ATOM      9  C7A BZF d   1      -0.465   0.569  -0.078  0.00  0.00     0.058 A 
ENDROOT
TORSDOF 0
ENDMDL
