MODEL 1
REMARK minimizedAffinity -4.10837412
REMARK minimizedRMSD -1
REMARK  0 active torsions:
REMARK  status: ('A' for Active; 'I' for Inactive)
ROOT
ATOM      1  O1  BZF d   1      -1.444   1.259   2.146  0.00  0.00    -0.204 OA
ATOM      2  C2  BZF d   1      -2.093   2.309   1.526  0.00  0.00     0.174 A 
ATOM      3  C3  BZF d   1      -1.858   2.299   0.198  0.00  0.00    -0.012 A 
ATOM      4  C3A BZF d   1      -1.083   1.119  -0.038  0.00  0.00    -0.107 A 
ATOM      5  C4  BZF d   1      -0.555   0.553  -1.163  0.00  0.00     0.055 A 
ATOM      6  C5  BZF d   1       0.212  -0.562  -1.042  0.00  0.00    -0.016 A 
ATOM      7  C6  BZF d   1       0.475  -1.134   0.185  0.00  0.00     0.022 A 
ATOM      8  C7  BZF d   1      -0.032  -0.611   1.328  0.00  0.00     0.029 A 
ATOM      9  C7A BZF d   1      -0.835   0.497   1.207  0.00  0.00     0.058 A 
ENDROOT
TORSDOF 0
ENDMDL
