MODEL 1
REMARK minimizedAffinity -0.343687743
REMARK minimizedRMSD -1
REMARK  0 active torsions:
REMARK  status: ('A' for Active; 'I' for Inactive)
ROOT
ATOM      1  O1  BZF d   1       0.363   0.332  -0.896  0.00  0.00    -0.204 OA
ATOM      2  C2  BZF d   1       1.056  -0.845  -1.108  0.00  0.00     0.174 A 
ATOM      3  C3  BZF d   1       1.041  -1.614  -0.000  0.00  0.00    -0.012 A 
ATOM      4  C3A BZF d   1       0.214  -0.914   0.934  0.00  0.00    -0.107 A 
ATOM      5  C4  BZF d   1      -0.196  -1.180   2.209  0.00  0.00     0.055 A 
ATOM      6  C5  BZF d   1      -0.941  -0.255   2.870  0.00  0.00    -0.016 A 
ATOM      7  C6  BZF d   1      -1.289   0.946   2.289  0.00  0.00     0.022 A 
ATOM      8  C7  BZF d   1      -0.911   1.253   1.025  0.00  0.00     0.029 A 
ATOM      9  C7A BZF d   1      -0.186   0.307   0.342  0.00  0.00     0.058 A 
ENDROOT
TORSDOF 0
ENDMDL
