MODEL 1
REMARK minimizedAffinity -3.91297984
REMARK minimizedRMSD -1
REMARK  0 active torsions:
REMARK  status: ('A' for Active; 'I' for Inactive)
ROOT
ATOM      1  O1  BZF d   1       0.628  -1.414   0.333  0.00  0.00    -0.204 OA
ATOM      2  C2  BZF d   1       1.048  -1.143  -0.955  0.00  0.00     0.174 A 
ATOM      3  C3  BZF d   1       0.511   0.011  -1.401  0.00  0.00    -0.012 A 
ATOM      4  C3A BZF d   1      -0.221   0.539  -0.291  0.00  0.00    -0.107 A 
ATOM      5  C4  BZF d   1      -0.961   1.672  -0.108  0.00  0.00     0.055 A 
ATOM      6  C5  BZF d   1      -1.608   1.855   1.073  0.00  0.00    -0.016 A 
ATOM      7  C6  BZF d   1      -1.542   0.924   2.089  0.00  0.00     0.022 A 
ATOM      8  C7  BZF d   1      -0.817  -0.214   1.955  0.00  0.00     0.029 A 
ATOM      9  C7A BZF d   1      -0.135  -0.385   0.776  0.00  0.00     0.058 A 
ENDROOT
TORSDOF 0
ENDMDL
