MODEL 1
REMARK minimizedAffinity -1.08392704
REMARK minimizedRMSD -1
REMARK  0 active torsions:
REMARK  status: ('A' for Active; 'I' for Inactive)
ROOT
ATOM      1  O1  BZF d   1      -0.274  -3.435  -0.841  0.00  0.00    -0.204 OA
ATOM      2  C2  BZF d   1       0.370  -3.768  -2.017  0.00  0.00     0.174 A 
ATOM      3  C3  BZF d   1       0.983  -2.690  -2.549  0.00  0.00    -0.012 A 
ATOM      4  C3A BZF d   1       0.782  -1.637  -1.600  0.00  0.00    -0.107 A 
ATOM      5  C4  BZF d   1       1.168  -0.328  -1.556  0.00  0.00     0.055 A 
ATOM      6  C5  BZF d   1       0.746   0.450  -0.524  0.00  0.00    -0.016 A 
ATOM      7  C6  BZF d   1      -0.065  -0.046   0.475  0.00  0.00     0.022 A 
ATOM      8  C7  BZF d   1      -0.470  -1.340   0.476  0.00  0.00     0.029 A 
ATOM      9  C7A BZF d   1      -0.018  -2.137  -0.547  0.00  0.00     0.058 A 
ENDROOT
TORSDOF 0
ENDMDL
