MODEL 1
REMARK minimizedAffinity -4.78502703
REMARK minimizedRMSD -1
REMARK  0 active torsions:
REMARK  status: ('A' for Active; 'I' for Inactive)
ROOT
ATOM      1  O1  BZF d   1       0.307  -1.206   1.077  0.00  0.00    -0.204 OA
ATOM      2  C2  BZF d   1       0.486  -1.623  -0.227  0.00  0.00     0.174 A 
ATOM      3  C3  BZF d   1      -0.156  -0.803  -1.084  0.00  0.00    -0.012 A 
ATOM      4  C3A BZF d   1      -0.698   0.242  -0.270  0.00  0.00    -0.107 A 
ATOM      5  C4  BZF d   1      -1.429   1.363  -0.545  0.00  0.00     0.055 A 
ATOM      6  C5  BZF d   1      -1.863   2.136   0.485  0.00  0.00    -0.016 A 
ATOM      7  C6  BZF d   1      -1.591   1.816   1.799  0.00  0.00     0.022 A 
ATOM      8  C7  BZF d   1      -0.866   0.717   2.120  0.00  0.00     0.029 A 
ATOM      9  C7A BZF d   1      -0.397  -0.049   1.081  0.00  0.00     0.058 A 
ENDROOT
TORSDOF 0
ENDMDL
