MODEL 1
REMARK minimizedAffinity -2.86231971
REMARK minimizedRMSD -1
REMARK  0 active torsions:
REMARK  status: ('A' for Active; 'I' for Inactive)
ROOT
ATOM      1  O1  BZF d   1       1.655   0.218  -1.425  0.00  0.00    -0.204 OA
ATOM      2  C2  BZF d   1       2.210  -0.868  -0.777  0.00  0.00     0.174 A 
ATOM      3  C3  BZF d   1       1.613  -1.071   0.415  0.00  0.00    -0.012 A 
ATOM      4  C3A BZF d   1       0.560  -0.103   0.477  0.00  0.00    -0.107 A 
ATOM      5  C4  BZF d   1      -0.397   0.185   1.408  0.00  0.00     0.055 A 
ATOM      6  C5  BZF d   1      -1.228   1.239   1.197  0.00  0.00    -0.016 A 
ATOM      7  C6  BZF d   1      -1.127   2.028   0.070  0.00  0.00     0.022 A 
ATOM      8  C7  BZF d   1      -0.197   1.779  -0.884  0.00  0.00     0.029 A 
ATOM      9  C7A BZF d   1       0.623   0.694  -0.689  0.00  0.00     0.058 A 
ENDROOT
TORSDOF 0
ENDMDL
