MODEL 1
REMARK minimizedAffinity -4.75390339
REMARK minimizedRMSD -1
REMARK  0 active torsions:
REMARK  status: ('A' for Active; 'I' for Inactive)
ROOT
ATOM      1  O1  BZF d   1       1.332  -2.638  -1.929  0.00  0.00    -0.204 OA
ATOM      2  C2  BZF d   1       0.381  -3.058  -2.838  0.00  0.00     0.174 A 
ATOM      3  C3  BZF d   1      -0.828  -2.541  -2.539  0.00  0.00    -0.012 A 
ATOM      4  C3A BZF d   1      -0.601  -1.674  -1.423  0.00  0.00    -0.107 A 
ATOM      5  C4  BZF d   1      -1.414  -0.864  -0.683  0.00  0.00     0.055 A 
ATOM      6  C5  BZF d   1      -0.894  -0.206   0.386  0.00  0.00    -0.016 A 
ATOM      7  C6  BZF d   1       0.431  -0.338   0.746  0.00  0.00     0.022 A 
ATOM      8  C7  BZF d   1       1.278  -1.127   0.039  0.00  0.00     0.029 A 
ATOM      9  C7A BZF d   1       0.763  -1.767  -1.061  0.00  0.00     0.058 A 
ENDROOT
TORSDOF 0
ENDMDL
