MODEL 1
REMARK minimizedAffinity -4.20676899
REMARK minimizedRMSD -1
REMARK  0 active torsions:
REMARK  status: ('A' for Active; 'I' for Inactive)
ROOT
ATOM      1  O1  BZF d   1       1.532  -2.134  -0.347  0.00  0.00    -0.204 OA
ATOM      2  C2  BZF d   1       1.403  -2.304  -1.712  0.00  0.00     0.174 A 
ATOM      3  C3  BZF d   1       0.473  -1.465  -2.213  0.00  0.00    -0.012 A 
ATOM      4  C3A BZF d   1       0.057  -0.660  -1.106  0.00  0.00    -0.107 A 
ATOM      5  C4  BZF d   1      -0.835   0.365  -0.973  0.00  0.00     0.055 A 
ATOM      6  C5  BZF d   1      -1.063   0.888   0.260  0.00  0.00    -0.016 A 
ATOM      7  C6  BZF d   1      -0.420   0.407   1.382  0.00  0.00     0.022 A 
ATOM      8  C7  BZF d   1       0.477  -0.605   1.300  0.00  0.00     0.029 A 
ATOM      9  C7A BZF d   1       0.734  -1.114   0.050  0.00  0.00     0.058 A 
ENDROOT
TORSDOF 0
ENDMDL
