MODEL 1
REMARK minimizedAffinity -2.02864146
REMARK minimizedRMSD -1
REMARK  0 active torsions:
REMARK  status: ('A' for Active; 'I' for Inactive)
ROOT
ATOM      1  O1  BZF d   1      -0.006   0.766  -1.190  0.00  0.00    -0.204 OA
ATOM      2  C2  BZF d   1       0.747  -0.391  -1.235  0.00  0.00     0.174 A 
ATOM      3  C3  BZF d   1       0.711  -1.032  -0.049  0.00  0.00    -0.012 A 
ATOM      4  C3A BZF d   1      -0.192  -0.273   0.761  0.00  0.00    -0.107 A 
ATOM      5  C4  BZF d   1      -0.652  -0.415   2.039  0.00  0.00     0.055 A 
ATOM      6  C5  BZF d   1      -1.469   0.540   2.556  0.00  0.00    -0.016 A 
ATOM      7  C6  BZF d   1      -1.840   1.650   1.827  0.00  0.00     0.022 A 
ATOM      8  C7  BZF d   1      -1.413   1.832   0.554  0.00  0.00     0.029 A 
ATOM      9  C7A BZF d   1      -0.614   0.853   0.017  0.00  0.00     0.058 A 
ENDROOT
TORSDOF 0
ENDMDL
