MODEL 1
REMARK minimizedAffinity -4.44795513
REMARK minimizedRMSD -1
REMARK  0 active torsions:
REMARK  status: ('A' for Active; 'I' for Inactive)
ROOT
ATOM      1  O1  BZF d   1       1.057   0.864  -1.083  0.00  0.00    -0.204 OA
ATOM      2  C2  BZF d   1       1.523  -0.418  -0.866  0.00  0.00     0.174 A 
ATOM      3  C3  BZF d   1       0.888  -0.987   0.178  0.00  0.00    -0.012 A 
ATOM      4  C3A BZF d   1      -0.097  -0.033   0.586  0.00  0.00    -0.107 A 
ATOM      5  C4  BZF d   1      -1.051  -0.027   1.563  0.00  0.00     0.055 A 
ATOM      6  C5  BZF d   1      -1.804   1.089   1.744  0.00  0.00    -0.016 A 
ATOM      7  C6  BZF d   1      -1.626   2.218   0.972  0.00  0.00     0.022 A 
ATOM      8  C7  BZF d   1      -0.696   2.259  -0.013  0.00  0.00     0.029 A 
ATOM      9  C7A BZF d   1       0.044   1.120  -0.221  0.00  0.00     0.058 A 
ENDROOT
TORSDOF 0
ENDMDL
