MODEL 1
REMARK minimizedAffinity -3.8114984
REMARK minimizedRMSD -1
REMARK  0 active torsions:
REMARK  status: ('A' for Active; 'I' for Inactive)
ROOT
ATOM      1  O1  BZF d   1      -1.283  -0.013   1.054  0.00  0.00    -0.204 OA
ATOM      2  C2  BZF d   1      -2.087   1.111   1.048  0.00  0.00     0.174 A 
ATOM      3  C3  BZF d   1      -1.590   2.050   0.217  0.00  0.00    -0.012 A 
ATOM      4  C3A BZF d   1      -0.451   1.442  -0.401  0.00  0.00    -0.107 A 
ATOM      5  C4  BZF d   1       0.450   1.869  -1.333  0.00  0.00     0.055 A 
ATOM      6  C5  BZF d   1       1.488   1.057  -1.668  0.00  0.00    -0.016 A 
ATOM      7  C6  BZF d   1       1.657  -0.182  -1.087  0.00  0.00     0.022 A 
ATOM      8  C7  BZF d   1       0.785  -0.651  -0.161  0.00  0.00     0.029 A 
ATOM      9  C7A BZF d   1      -0.283   0.153   0.155  0.00  0.00     0.058 A 
ENDROOT
TORSDOF 0
ENDMDL
