MODEL 1
REMARK minimizedAffinity -4.88800478
REMARK minimizedRMSD -1
REMARK  0 active torsions:
REMARK  status: ('A' for Active; 'I' for Inactive)
ROOT
ATOM      1  O1  BZF d   1       0.778  -0.220  -0.726  0.00  0.00    -0.204 OA
ATOM      2  C2  BZF d   1       0.412  -1.216   0.158  0.00  0.00     0.174 A 
ATOM      3  C3  BZF d   1      -0.356  -0.718   1.148  0.00  0.00    -0.012 A 
ATOM      4  C3A BZF d   1      -0.554   0.659   0.815  0.00  0.00    -0.107 A 
ATOM      5  C4  BZF d   1      -1.244   1.678   1.407  0.00  0.00     0.055 A 
ATOM      6  C5  BZF d   1      -1.175   2.923   0.866  0.00  0.00    -0.016 A 
ATOM      7  C6  BZF d   1      -0.424   3.185  -0.260  0.00  0.00     0.022 A 
ATOM      8  C7  BZF d   1       0.274   2.205  -0.885  0.00  0.00     0.029 A 
ATOM      9  C7A BZF d   1       0.180   0.939  -0.360  0.00  0.00     0.058 A 
ENDROOT
TORSDOF 0
ENDMDL
