MODEL 1
REMARK minimizedAffinity -4.12826347
REMARK minimizedRMSD -1
REMARK  0 active torsions:
REMARK  status: ('A' for Active; 'I' for Inactive)
ROOT
ATOM      1  O1  BZF d   1      -1.550   2.161   0.417  0.00  0.00    -0.204 OA
ATOM      2  C2  BZF d   1      -2.071   2.220   1.695  0.00  0.00     0.174 A 
ATOM      3  C3  BZF d   1      -1.629   1.186   2.440  0.00  0.00    -0.012 A 
ATOM      4  C3A BZF d   1      -0.705   0.486   1.601  0.00  0.00    -0.107 A 
ATOM      5  C4  BZF d   1       0.075  -0.620   1.782  0.00  0.00     0.055 A 
ATOM      6  C5  BZF d   1       0.810  -1.088   0.739  0.00  0.00    -0.016 A 
ATOM      7  C6  BZF d   1       0.785  -0.479  -0.498  0.00  0.00     0.022 A 
ATOM      8  C7  BZF d   1       0.030   0.624  -0.724  0.00  0.00     0.029 A 
ATOM      9  C7A BZF d   1      -0.688   1.119   0.337  0.00  0.00     0.058 A 
ENDROOT
TORSDOF 0
ENDMDL
