MODEL 1
REMARK minimizedAffinity -4.95616913
REMARK minimizedRMSD -1
REMARK  0 active torsions:
REMARK  status: ('A' for Active; 'I' for Inactive)
ROOT
ATOM      1  O1  BZF d   1       0.380  -0.892   1.150  0.00  0.00    -0.204 OA
ATOM      2  C2  BZF d   1       1.169  -0.834   0.017  0.00  0.00     0.174 A 
ATOM      3  C3  BZF d   1       0.772   0.170  -0.791  0.00  0.00    -0.012 A 
ATOM      4  C3A BZF d   1      -0.275   0.835  -0.079  0.00  0.00    -0.107 A 
ATOM      5  C4  BZF d   1      -1.056   1.920  -0.355  0.00  0.00     0.055 A 
ATOM      6  C5  BZF d   1      -2.037   2.269   0.519  0.00  0.00    -0.016 A 
ATOM      7  C6  BZF d   1      -2.266   1.552   1.675  0.00  0.00     0.022 A 
ATOM      8  C7  BZF d   1      -1.514   0.471   1.995  0.00  0.00     0.029 A 
ATOM      9  C7A BZF d   1      -0.501   0.137   1.130  0.00  0.00     0.058 A 
ENDROOT
TORSDOF 0
ENDMDL
