MODEL 1
REMARK minimizedAffinity -4.08374548
REMARK minimizedRMSD -1
REMARK  0 active torsions:
REMARK  status: ('A' for Active; 'I' for Inactive)
ROOT
ATOM      1  O1  BZF d   1       0.801  -0.904   0.248  0.00  0.00    -0.204 OA
ATOM      2  C2  BZF d   1       0.826  -0.710  -1.120  0.00  0.00     0.174 A 
ATOM      3  C3  BZF d   1      -0.048   0.251  -1.482  0.00  0.00    -0.012 A 
ATOM      4  C3A BZF d   1      -0.590   0.750  -0.256  0.00  0.00    -0.107 A 
ATOM      5  C4  BZF d   1      -1.498   1.726   0.042  0.00  0.00     0.055 A 
ATOM      6  C5  BZF d   1      -1.864   1.914   1.337  0.00  0.00    -0.016 A 
ATOM      7  C6  BZF d   1      -1.347   1.144   2.357  0.00  0.00     0.022 A 
ATOM      8  C7  BZF d   1      -0.440   0.167   2.112  0.00  0.00     0.029 A 
ATOM      9  C7A BZF d   1      -0.043  -0.004   0.808  0.00  0.00     0.058 A 
ENDROOT
TORSDOF 0
ENDMDL
