MODEL 1
REMARK minimizedAffinity -3.31531215
REMARK minimizedRMSD -1
REMARK  0 active torsions:
REMARK  status: ('A' for Active; 'I' for Inactive)
ROOT
ATOM      1  O1  BZF d   1       1.028  -0.081  -0.410  0.00  0.00    -0.204 OA
ATOM      2  C2  BZF d   1       1.130   0.952  -1.321  0.00  0.00     0.174 A 
ATOM      3  C3  BZF d   1       0.134   1.844  -1.148  0.00  0.00    -0.012 A 
ATOM      4  C3A BZF d   1      -0.587   1.384  -0.000  0.00  0.00    -0.107 A 
ATOM      5  C4  BZF d   1      -1.675   1.857   0.677  0.00  0.00     0.055 A 
ATOM      6  C5  BZF d   1      -2.174   1.133   1.713  0.00  0.00    -0.016 A 
ATOM      7  C6  BZF d   1      -1.615  -0.069   2.095  0.00  0.00     0.022 A 
ATOM      8  C7  BZF d   1      -0.532  -0.576   1.457  0.00  0.00     0.029 A 
ATOM      9  C7A BZF d   1      -0.005   0.170   0.430  0.00  0.00     0.058 A 
ENDROOT
TORSDOF 0
ENDMDL
