MODEL 1
REMARK minimizedAffinity -4.70541191
REMARK minimizedRMSD -1
REMARK  0 active torsions:
REMARK  status: ('A' for Active; 'I' for Inactive)
ROOT
ATOM      1  O1  BZF d   1       0.812  -0.415   1.543  0.00  0.00    -0.204 OA
ATOM      2  C2  BZF d   1       1.189  -0.948   0.326  0.00  0.00     0.174 A 
ATOM      3  C3  BZF d   1       0.377  -0.512  -0.659  0.00  0.00    -0.012 A 
ATOM      4  C3A BZF d   1      -0.509   0.420  -0.031  0.00  0.00    -0.107 A 
ATOM      5  C4  BZF d   1      -1.532   1.198  -0.492  0.00  0.00     0.055 A 
ATOM      6  C5  BZF d   1      -2.245   1.942   0.394  0.00  0.00    -0.016 A 
ATOM      7  C6  BZF d   1      -1.967   1.928   1.745  0.00  0.00     0.022 A 
ATOM      8  C7  BZF d   1      -0.958   1.176   2.248  0.00  0.00     0.029 A 
ATOM      9  C7A BZF d   1      -0.214   0.448   1.351  0.00  0.00     0.058 A 
ENDROOT
TORSDOF 0
ENDMDL
