MODEL 1
REMARK minimizedAffinity -3.2799201
REMARK minimizedRMSD -1
REMARK  0 active torsions:
REMARK  status: ('A' for Active; 'I' for Inactive)
ROOT
ATOM      1  O1  BZF d   1       1.356  -0.013  -1.444  0.00  0.00    -0.204 OA
ATOM      2  C2  BZF d   1       1.200  -1.069  -0.567  0.00  0.00     0.174 A 
ATOM      3  C3  BZF d   1       0.273  -0.779   0.370  0.00  0.00    -0.012 A 
ATOM      4  C3A BZF d   1      -0.244   0.503   0.004  0.00  0.00    -0.107 A 
ATOM      5  C4  BZF d   1      -1.202   1.317   0.538  0.00  0.00     0.055 A 
ATOM      6  C5  BZF d   1      -1.417   2.538  -0.018  0.00  0.00    -0.016 A 
ATOM      7  C6  BZF d   1      -0.689   2.979  -1.104  0.00  0.00     0.022 A 
ATOM      8  C7  BZF d   1       0.268   2.206  -1.672  0.00  0.00     0.029 A 
ATOM      9  C7A BZF d   1       0.465   0.958  -1.132  0.00  0.00     0.058 A 
ENDROOT
TORSDOF 0
ENDMDL
