MODEL 1
REMARK minimizedAffinity -1.29898036
REMARK minimizedRMSD -1
REMARK  0 active torsions:
REMARK  status: ('A' for Active; 'I' for Inactive)
ROOT
ATOM      1  C   UNL d   1      -1.594  -1.860   0.882  0.00  0.00     0.023 A 
ATOM      2  C1  UNL d   1      -1.629  -0.491   1.149  0.00  0.00     0.003 A 
ATOM      3  C2  UNL d   1      -0.469   0.276   1.026  0.00  0.00     0.048 A 
ATOM      4  C3  UNL d   1       0.723  -0.332   0.634  0.00  0.00     0.023 A 
ATOM      5  C4  UNL d   1       0.763  -1.701   0.365  0.00  0.00     0.048 A 
ATOM      6  C5  UNL d   1      -0.399  -2.464   0.490  0.00  0.00     0.003 A 
ATOM      7  I   UNL d   1       2.451   0.808   0.450  0.00  0.00    -0.146 I 
ENDROOT
TORSDOF 0
ENDMDL
