MODEL 1
REMARK minimizedAffinity 0.0031403068
REMARK minimizedRMSD -1
REMARK  0 active torsions:
REMARK  status: ('A' for Active; 'I' for Inactive)
ROOT
ATOM      1  C   UNL d   1       0.165  -0.983   0.639  0.00  0.00     0.023 A 
ATOM      2  C1  UNL d   1       1.543  -0.792   0.731  0.00  0.00     0.003 A 
ATOM      3  C2  UNL d   1       2.415  -1.852   0.476  0.00  0.00     0.048 A 
ATOM      4  C3  UNL d   1       1.902  -3.101   0.128  0.00  0.00     0.023 A 
ATOM      5  C4  UNL d   1       0.524  -3.297   0.034  0.00  0.00     0.048 A 
ATOM      6  C5  UNL d   1      -0.345  -2.235   0.290  0.00  0.00     0.003 A 
ATOM      7  I   UNL d   1       3.199  -4.680  -0.252  0.00  0.00    -0.146 I 
ENDROOT
TORSDOF 0
ENDMDL
