MODEL 1
REMARK minimizedAffinity -0.321767986
REMARK minimizedRMSD -1
REMARK  0 active torsions:
REMARK  status: ('A' for Active; 'I' for Inactive)
ROOT
ATOM      1  C   UNL d   1       2.477   0.764  -4.283  0.00  0.00     0.023 A 
ATOM      2  C1  UNL d   1       3.603   0.315  -3.593  0.00  0.00     0.003 A 
ATOM      3  C2  UNL d   1       4.436   1.228  -2.943  0.00  0.00     0.048 A 
ATOM      4  C3  UNL d   1       4.135   2.589  -2.985  0.00  0.00     0.023 A 
ATOM      5  C4  UNL d   1       3.009   3.043  -3.674  0.00  0.00     0.048 A 
ATOM      6  C5  UNL d   1       2.181   2.126  -4.323  0.00  0.00     0.003 A 
ATOM      7  I   UNL d   1       5.373   3.950  -2.018  0.00  0.00    -0.146 I 
ENDROOT
TORSDOF 0
ENDMDL
