MODEL 1
REMARK minimizedAffinity 1.45388079
REMARK minimizedRMSD -1
REMARK  0 active torsions:
REMARK  status: ('A' for Active; 'I' for Inactive)
ROOT
ATOM      1  C   UNL d   1       1.601  -2.212  -0.411  0.00  0.00     0.023 A 
ATOM      2  C1  UNL d   1       1.809  -0.882  -0.047  0.00  0.00     0.003 A 
ATOM      3  C2  UNL d   1       0.831  -0.194   0.675  0.00  0.00     0.048 A 
ATOM      4  C3  UNL d   1      -0.351  -0.842   1.031  0.00  0.00     0.023 A 
ATOM      5  C4  UNL d   1      -0.562  -2.174   0.670  0.00  0.00     0.048 A 
ATOM      6  C5  UNL d   1       0.417  -2.858  -0.053  0.00  0.00     0.003 A 
ATOM      7  I   UNL d   1      -1.807   0.180   2.106  0.00  0.00    -0.146 I 
ENDROOT
TORSDOF 0
ENDMDL
