MODEL 1
REMARK minimizedAffinity -0.216210753
REMARK minimizedRMSD -1
REMARK  0 active torsions:
REMARK  status: ('A' for Active; 'I' for Inactive)
ROOT
ATOM      1  C   UNL d   1       0.366  -1.450   0.100  0.00  0.00     0.023 A 
ATOM      2  C1  UNL d   1       0.170  -2.826  -0.009  0.00  0.00     0.003 A 
ATOM      3  C2  UNL d   1       1.267  -3.681  -0.138  0.00  0.00     0.048 A 
ATOM      4  C3  UNL d   1       2.557  -3.152  -0.156  0.00  0.00     0.023 A 
ATOM      5  C4  UNL d   1       2.758  -1.776  -0.047  0.00  0.00     0.048 A 
ATOM      6  C5  UNL d   1       1.658  -0.925   0.080  0.00  0.00     0.003 A 
ATOM      7  I   UNL d   1       4.191  -4.423  -0.348  0.00  0.00    -0.146 I 
ENDROOT
TORSDOF 0
ENDMDL
