MODEL 1
REMARK minimizedAffinity 5.70586109
REMARK minimizedRMSD -1
REMARK  0 active torsions:
REMARK  status: ('A' for Active; 'I' for Inactive)
ROOT
ATOM      1  C   UNL d   1       1.220  -1.701   0.338  0.00  0.00     0.023 A 
ATOM      2  C1  UNL d   1       0.836  -2.856  -0.342  0.00  0.00     0.003 A 
ATOM      3  C2  UNL d   1      -0.477  -3.323  -0.241  0.00  0.00     0.048 A 
ATOM      4  C3  UNL d   1      -1.399  -2.628   0.540  0.00  0.00     0.023 A 
ATOM      5  C4  UNL d   1      -1.019  -1.471   1.222  0.00  0.00     0.048 A 
ATOM      6  C5  UNL d   1       0.294  -1.009   1.119  0.00  0.00     0.003 A 
ATOM      7  I   UNL d   1      -3.353  -3.320   0.691  0.00  0.00    -0.146 I 
ENDROOT
TORSDOF 0
ENDMDL
