MODEL 1
REMARK minimizedAffinity 4.12488747
REMARK minimizedRMSD -1
REMARK  0 active torsions:
REMARK  status: ('A' for Active; 'I' for Inactive)
ROOT
ATOM      1  C   UNL d   1      -0.653  -1.208   0.451  0.00  0.00     0.023 A 
ATOM      2  C1  UNL d   1       0.189  -2.202  -0.048  0.00  0.00     0.003 A 
ATOM      3  C2  UNL d   1       1.557  -2.166   0.231  0.00  0.00     0.048 A 
ATOM      4  C3  UNL d   1       2.076  -1.133   1.010  0.00  0.00     0.023 A 
ATOM      5  C4  UNL d   1       1.238  -0.136   1.513  0.00  0.00     0.048 A 
ATOM      6  C5  UNL d   1      -0.129  -0.176   1.230  0.00  0.00     0.003 A 
ATOM      7  I   UNL d   1       4.111  -1.077   1.427  0.00  0.00    -0.146 I 
ENDROOT
TORSDOF 0
ENDMDL
