MODEL 1
REMARK minimizedAffinity 2.63337708
REMARK minimizedRMSD -1
REMARK  0 active torsions:
REMARK  status: ('A' for Active; 'I' for Inactive)
ROOT
ATOM      1  C   UNL d   1      -3.324   1.402   1.146  0.00  0.00     0.023 A 
ATOM      2  C1  UNL d   1      -3.527   0.284   0.337  0.00  0.00     0.003 A 
ATOM      3  C2  UNL d   1      -2.553  -0.714   0.266  0.00  0.00     0.048 A 
ATOM      4  C3  UNL d   1      -1.379  -0.588   1.007  0.00  0.00     0.023 A 
ATOM      5  C4  UNL d   1      -1.172   0.528   1.820  0.00  0.00     0.048 A 
ATOM      6  C5  UNL d   1      -2.149   1.524   1.887  0.00  0.00     0.003 A 
ATOM      7  I   UNL d   1       0.073  -2.072   0.903  0.00  0.00    -0.146 I 
ENDROOT
TORSDOF 0
ENDMDL
