MODEL 1
REMARK minimizedAffinity -2.02128935
REMARK minimizedRMSD -1
REMARK  0 active torsions:
REMARK  status: ('A' for Active; 'I' for Inactive)
ROOT
ATOM      1  C   UNL d   1       0.697  -0.023   1.767  0.00  0.00     0.023 A 
ATOM      2  C1  UNL d   1       1.844  -0.211   0.996  0.00  0.00     0.003 A 
ATOM      3  C2  UNL d   1       1.879  -1.217   0.028  0.00  0.00     0.048 A 
ATOM      4  C3  UNL d   1       0.763  -2.031  -0.164  0.00  0.00     0.023 A 
ATOM      5  C4  UNL d   1      -0.387  -1.846   0.605  0.00  0.00     0.048 A 
ATOM      6  C5  UNL d   1      -0.417  -0.839   1.572  0.00  0.00     0.003 A 
ATOM      7  I   UNL d   1       0.813  -3.528  -1.604  0.00  0.00    -0.146 I 
ENDROOT
TORSDOF 0
ENDMDL
