MODEL 1
REMARK minimizedAffinity -0.170001879
REMARK minimizedRMSD -1
REMARK  0 active torsions:
REMARK  status: ('A' for Active; 'I' for Inactive)
ROOT
ATOM      1  C   UNL d   1       2.149  -2.305  -0.306  0.00  0.00     0.023 A 
ATOM      2  C1  UNL d   1       2.380  -1.053   0.264  0.00  0.00     0.003 A 
ATOM      3  C2  UNL d   1       1.346  -0.382   0.922  0.00  0.00     0.048 A 
ATOM      4  C3  UNL d   1       0.085  -0.970   1.007  0.00  0.00     0.023 A 
ATOM      5  C4  UNL d   1      -0.151  -2.224   0.438  0.00  0.00     0.048 A 
ATOM      6  C5  UNL d   1       0.886  -2.889  -0.219  0.00  0.00     0.003 A 
ATOM      7  I   UNL d   1      -1.455   0.025   1.985  0.00  0.00    -0.146 I 
ENDROOT
TORSDOF 0
ENDMDL
