MODEL 1
REMARK minimizedAffinity 1.44373548
REMARK minimizedRMSD -1
REMARK  0 active torsions:
REMARK  status: ('A' for Active; 'I' for Inactive)
ROOT
ATOM      1  C   UNL d   1      -1.309   5.999  -4.564  0.00  0.00     0.023 A 
ATOM      2  C1  UNL d   1      -0.349   5.976  -5.576  0.00  0.00     0.003 A 
ATOM      3  C2  UNL d   1       0.784   5.172  -5.447  0.00  0.00     0.048 A 
ATOM      4  C3  UNL d   1       0.952   4.392  -4.303  0.00  0.00     0.023 A 
ATOM      5  C4  UNL d   1      -0.007   4.411  -3.288  0.00  0.00     0.048 A 
ATOM      6  C5  UNL d   1      -1.138   5.218  -3.422  0.00  0.00     0.003 A 
ATOM      7  I   UNL d   1       2.638   3.193  -4.108  0.00  0.00    -0.146 I 
ENDROOT
TORSDOF 0
ENDMDL
