MODEL 1
REMARK minimizedAffinity 3.28658772
REMARK minimizedRMSD -1
REMARK  0 active torsions:
REMARK  status: ('A' for Active; 'I' for Inactive)
ROOT
ATOM      1  C   UNL d   1       0.773   0.225   1.675  0.00  0.00     0.023 A 
ATOM      2  C1  UNL d   1       1.902  -0.163   0.952  0.00  0.00     0.003 A 
ATOM      3  C2  UNL d   1       1.848  -1.284   0.121  0.00  0.00     0.048 A 
ATOM      4  C3  UNL d   1       0.663  -2.011   0.016  0.00  0.00     0.023 A 
ATOM      5  C4  UNL d   1      -0.469  -1.625   0.736  0.00  0.00     0.048 A 
ATOM      6  C5  UNL d   1      -0.410  -0.505   1.566  0.00  0.00     0.003 A 
ATOM      7  I   UNL d   1       0.581  -3.679  -1.221  0.00  0.00    -0.146 I 
ENDROOT
TORSDOF 0
ENDMDL
