MODEL 1
REMARK minimizedAffinity 2.60629296
REMARK minimizedRMSD -1
REMARK  0 active torsions:
REMARK  status: ('A' for Active; 'I' for Inactive)
ROOT
ATOM      1  C   UNL d   1       0.937  -4.184  -0.375  0.00  0.00     0.023 A 
ATOM      2  C1  UNL d   1       0.466  -2.999   0.191  0.00  0.00     0.003 A 
ATOM      3  C2  UNL d   1       1.364  -1.998   0.568  0.00  0.00     0.048 A 
ATOM      4  C3  UNL d   1       2.732  -2.188   0.374  0.00  0.00     0.023 A 
ATOM      5  C4  UNL d   1       3.208  -3.371  -0.193  0.00  0.00     0.048 A 
ATOM      6  C5  UNL d   1       2.307  -4.369  -0.567  0.00  0.00     0.003 A 
ATOM      7  I   UNL d   1       4.070  -0.699   0.933  0.00  0.00    -0.146 I 
ENDROOT
TORSDOF 0
ENDMDL
