MODEL 1
REMARK minimizedAffinity -3.73011041
REMARK minimizedRMSD -1
REMARK  0 active torsions:
REMARK  status: ('A' for Active; 'I' for Inactive)
ROOT
ATOM      1  C   UNL d   1       1.067   2.678   0.358  0.00  0.00     0.020 A 
ATOM      2  C1  UNL d   1       2.102   1.840  -0.054  0.00  0.00     0.020 A 
ATOM      3  C2  UNL d   1       1.927   0.454  -0.037  0.00  0.00     0.034 A 
ATOM      4  C3  UNL d   1       0.715  -0.097   0.392  0.00  0.00     0.017 A 
ATOM      5  C4  UNL d   1      -0.324   0.745   0.805  0.00  0.00     0.017 A 
ATOM      6  C5  UNL d   1      -0.144   2.132   0.786  0.00  0.00     0.034 A 
ATOM      7 Cl   UNL d   1      -1.849   0.139   1.348  0.00  0.00    -0.070 Cl
ATOM      8 Cl1  UNL d   1       0.568  -1.819   0.386  0.00  0.00    -0.070 Cl
ENDROOT
TORSDOF 0
ENDMDL
