MODEL 1
REMARK minimizedAffinity 5.51619434
REMARK minimizedRMSD -1
REMARK  0 active torsions:
REMARK  status: ('A' for Active; 'I' for Inactive)
ROOT
ATOM      1  C   UNL d   1      -1.903  -4.372  -1.563  0.00  0.00     0.020 A 
ATOM      2  C1  UNL d   1      -2.380  -5.332  -0.672  0.00  0.00     0.020 A 
ATOM      3  C2  UNL d   1      -1.862  -5.402   0.623  0.00  0.00     0.034 A 
ATOM      4  C3  UNL d   1      -0.864  -4.509   1.031  0.00  0.00     0.017 A 
ATOM      5  C4  UNL d   1      -0.386  -3.545   0.136  0.00  0.00     0.017 A 
ATOM      6  C5  UNL d   1      -0.908  -3.480  -1.160  0.00  0.00     0.034 A 
ATOM      7 Cl   UNL d   1       0.844  -2.410   0.566  0.00  0.00    -0.070 Cl
ATOM      8 Cl1  UNL d   1      -0.270  -4.652   2.647  0.00  0.00    -0.070 Cl
ENDROOT
TORSDOF 0
ENDMDL
