MODEL 1
REMARK minimizedAffinity 8.79735947
REMARK minimizedRMSD -1
REMARK  0 active torsions:
REMARK  status: ('A' for Active; 'I' for Inactive)
ROOT
ATOM      1  C   UNL d   1      -2.569  -2.972  -0.933  0.00  0.00     0.020 A 
ATOM      2  C1  UNL d   1      -2.241  -3.379  -2.225  0.00  0.00     0.020 A 
ATOM      3  C2  UNL d   1      -1.076  -4.116  -2.451  0.00  0.00     0.034 A 
ATOM      4  C3  UNL d   1      -0.235  -4.446  -1.382  0.00  0.00     0.017 A 
ATOM      5  C4  UNL d   1      -0.565  -4.037  -0.085  0.00  0.00     0.017 A 
ATOM      6  C5  UNL d   1      -1.733  -3.300   0.135  0.00  0.00     0.034 A 
ATOM      7 Cl   UNL d   1       0.423  -4.407   1.284  0.00  0.00    -0.070 Cl
ATOM      8 Cl1  UNL d   1       1.189  -5.359  -1.734  0.00  0.00    -0.070 Cl
ENDROOT
TORSDOF 0
ENDMDL
