MODEL 1
REMARK minimizedAffinity 0.708026469
REMARK minimizedRMSD -1
REMARK  0 active torsions:
REMARK  status: ('A' for Active; 'I' for Inactive)
ROOT
ATOM      1  C   UNL d   1      -1.741  -3.874  -1.377  0.00  0.00     0.020 A 
ATOM      2  C1  UNL d   1      -2.205  -4.863  -0.511  0.00  0.00     0.020 A 
ATOM      3  C2  UNL d   1      -1.799  -4.868   0.825  0.00  0.00     0.034 A 
ATOM      4  C3  UNL d   1      -0.926  -3.882   1.299  0.00  0.00     0.017 A 
ATOM      5  C4  UNL d   1      -0.461  -2.889   0.428  0.00  0.00     0.017 A 
ATOM      6  C5  UNL d   1      -0.871  -2.889  -0.909  0.00  0.00     0.034 A 
ATOM      7 Cl   UNL d   1       0.618  -1.639   0.939  0.00  0.00    -0.070 Cl
ATOM      8 Cl1  UNL d   1      -0.465  -3.948   2.963  0.00  0.00    -0.070 Cl
ENDROOT
TORSDOF 0
ENDMDL
