MODEL 1
REMARK minimizedAffinity 7.88803005
REMARK minimizedRMSD -1
REMARK  0 active torsions:
REMARK  status: ('A' for Active; 'I' for Inactive)
ROOT
ATOM      1  C   UNL d   1       2.133  -1.773  -0.882  0.00  0.00     0.020 A 
ATOM      2  C1  UNL d   1       2.602  -1.825   0.430  0.00  0.00     0.020 A 
ATOM      3  C2  UNL d   1       1.912  -2.571   1.388  0.00  0.00     0.034 A 
ATOM      4  C3  UNL d   1       0.749  -3.266   1.036  0.00  0.00     0.017 A 
ATOM      5  C4  UNL d   1       0.280  -3.212  -0.281  0.00  0.00     0.017 A 
ATOM      6  C5  UNL d   1       0.975  -2.464  -1.237  0.00  0.00     0.034 A 
ATOM      7 Cl   UNL d   1      -1.147  -4.043  -0.791  0.00  0.00    -0.070 Cl
ATOM      8 Cl1  UNL d   1      -0.053  -4.168   2.272  0.00  0.00    -0.070 Cl
ENDROOT
TORSDOF 0
ENDMDL
