MODEL 1
REMARK minimizedAffinity -0.993716598
REMARK minimizedRMSD -1
REMARK  0 active torsions:
REMARK  status: ('A' for Active; 'I' for Inactive)
ROOT
ATOM      1  C   UNL d   1       0.687   0.491   1.213  0.00  0.00     0.020 A 
ATOM      2  C1  UNL d   1       1.211  -0.670   0.646  0.00  0.00     0.020 A 
ATOM      3  C2  UNL d   1       0.381  -1.767   0.410  0.00  0.00     0.034 A 
ATOM      4  C3  UNL d   1      -0.978  -1.706   0.740  0.00  0.00     0.017 A 
ATOM      5  C4  UNL d   1      -1.503  -0.541   1.310  0.00  0.00     0.017 A 
ATOM      6  C5  UNL d   1      -0.667   0.555   1.544  0.00  0.00     0.034 A 
ATOM      7 Cl   UNL d   1      -3.169  -0.390   1.745  0.00  0.00    -0.070 Cl
ATOM      8 Cl1  UNL d   1      -1.946  -3.101   0.420  0.00  0.00    -0.070 Cl
ENDROOT
TORSDOF 0
ENDMDL
