MODEL 1
REMARK minimizedAffinity 3.45631075
REMARK minimizedRMSD -1
REMARK  0 active torsions:
REMARK  status: ('A' for Active; 'I' for Inactive)
ROOT
ATOM      1  C   UNL d   1      -2.922  -5.568   1.661  0.00  0.00     0.020 A 
ATOM      2  C1  UNL d   1      -3.749  -5.656   0.542  0.00  0.00     0.020 A 
ATOM      3  C2  UNL d   1      -3.428  -4.950  -0.620  0.00  0.00     0.034 A 
ATOM      4  C3  UNL d   1      -2.279  -4.153  -0.664  0.00  0.00     0.017 A 
ATOM      5  C4  UNL d   1      -1.450  -4.065   0.460  0.00  0.00     0.017 A 
ATOM      6  C5  UNL d   1      -1.775  -4.775   1.620  0.00  0.00     0.034 A 
ATOM      7 Cl   UNL d   1      -0.015  -3.102   0.480  0.00  0.00    -0.070 Cl
ATOM      8 Cl1  UNL d   1      -1.944  -3.308  -2.134  0.00  0.00    -0.070 Cl
ENDROOT
TORSDOF 0
ENDMDL
