MODEL 1
REMARK minimizedAffinity 4.43157053
REMARK minimizedRMSD -1
REMARK  0 active torsions:
REMARK  status: ('A' for Active; 'I' for Inactive)
ROOT
ATOM      1  C   UNL d   1       2.257   1.196   1.886  0.00  0.00     0.020 A 
ATOM      2  C1  UNL d   1       2.631   1.863   0.720  0.00  0.00     0.020 A 
ATOM      3  C2  UNL d   1       1.781   2.820   0.161  0.00  0.00     0.034 A 
ATOM      4  C3  UNL d   1       0.554   3.113   0.767  0.00  0.00     0.017 A 
ATOM      5  C4  UNL d   1       0.180   2.442   1.937  0.00  0.00     0.017 A 
ATOM      6  C5  UNL d   1       1.034   1.485   2.493  0.00  0.00     0.034 A 
ATOM      7 Cl   UNL d   1      -1.318   2.749   2.742  0.00  0.00    -0.070 Cl
ATOM      8 Cl1  UNL d   1      -0.446   4.308   0.021  0.00  0.00    -0.070 Cl
ENDROOT
TORSDOF 0
ENDMDL
