MODEL 1
REMARK minimizedAffinity 10.5613279
REMARK minimizedRMSD -1
REMARK  0 active torsions:
REMARK  status: ('A' for Active; 'I' for Inactive)
ROOT
ATOM      1  C   UNL d   1       3.213  -4.530  -1.452  0.00  0.00     0.020 A 
ATOM      2  C1  UNL d   1       3.970  -3.584  -0.761  0.00  0.00     0.020 A 
ATOM      3  C2  UNL d   1       3.335  -2.537  -0.089  0.00  0.00     0.034 A 
ATOM      4  C3  UNL d   1       1.940  -2.434  -0.106  0.00  0.00     0.017 A 
ATOM      5  C4  UNL d   1       1.181  -3.384  -0.799  0.00  0.00     0.017 A 
ATOM      6  C5  UNL d   1       1.822  -4.430  -1.471  0.00  0.00     0.034 A 
ATOM      7 Cl   UNL d   1      -0.545  -3.322  -0.865  0.00  0.00    -0.070 Cl
ATOM      8 Cl1  UNL d   1       1.222  -1.114   0.748  0.00  0.00    -0.070 Cl
ENDROOT
TORSDOF 0
ENDMDL
