MODEL 1
REMARK minimizedAffinity 1.93308485
REMARK minimizedRMSD -1
REMARK  0 active torsions:
REMARK  status: ('A' for Active; 'I' for Inactive)
ROOT
ATOM      1  C   UNL d   1       0.860   2.136  -4.448  0.00  0.00     0.020 A 
ATOM      2  C1  UNL d   1       0.968   3.002  -5.536  0.00  0.00     0.020 A 
ATOM      3  C2  UNL d   1      -0.158   3.685  -5.999  0.00  0.00     0.034 A 
ATOM      4  C3  UNL d   1      -1.397   3.505  -5.374  0.00  0.00     0.017 A 
ATOM      5  C4  UNL d   1      -1.505   2.636  -4.283  0.00  0.00     0.017 A 
ATOM      6  C5  UNL d   1      -0.374   1.954  -3.823  0.00  0.00     0.034 A 
ATOM      7 Cl   UNL d   1      -3.000   2.361  -3.460  0.00  0.00    -0.070 Cl
ATOM      8 Cl1  UNL d   1      -2.748   4.382  -6.000  0.00  0.00    -0.070 Cl
ENDROOT
TORSDOF 0
ENDMDL
