MODEL 1
REMARK minimizedAffinity 9.97722912
REMARK minimizedRMSD -1
REMARK  0 active torsions:
REMARK  status: ('A' for Active; 'I' for Inactive)
ROOT
ATOM      1  C   UNL d   1       5.995   5.768   0.479  0.00  0.00     0.020 A 
ATOM      2  C1  UNL d   1       5.937   4.483  -0.060  0.00  0.00     0.020 A 
ATOM      3  C2  UNL d   1       5.465   3.422   0.715  0.00  0.00     0.034 A 
ATOM      4  C3  UNL d   1       5.048   3.643   2.032  0.00  0.00     0.017 A 
ATOM      5  C4  UNL d   1       5.106   4.933   2.572  0.00  0.00     0.017 A 
ATOM      6  C5  UNL d   1       5.580   5.992   1.792  0.00  0.00     0.034 A 
ATOM      7 Cl   UNL d   1       4.609   5.284   4.190  0.00  0.00    -0.070 Cl
ATOM      8 Cl1  UNL d   1       4.475   2.284   2.933  0.00  0.00    -0.070 Cl
ENDROOT
TORSDOF 0
ENDMDL
