MODEL 1
REMARK minimizedAffinity 8.39279079
REMARK minimizedRMSD -1
REMARK  0 active torsions:
REMARK  status: ('A' for Active; 'I' for Inactive)
ROOT
ATOM      1  C   UNL d   1      -4.594   1.252   0.865  0.00  0.00     0.020 A 
ATOM      2  C1  UNL d   1      -4.841  -0.116   0.975  0.00  0.00     0.020 A 
ATOM      3  C2  UNL d   1      -3.811  -0.984   1.346  0.00  0.00     0.034 A 
ATOM      4  C3  UNL d   1      -2.530  -0.485   1.608  0.00  0.00     0.017 A 
ATOM      5  C4  UNL d   1      -2.283   0.888   1.497  0.00  0.00     0.017 A 
ATOM      6  C5  UNL d   1      -3.318   1.752   1.126  0.00  0.00     0.034 A 
ATOM      7 Cl   UNL d   1      -0.728   1.578   1.805  0.00  0.00    -0.070 Cl
ATOM      8 Cl1  UNL d   1      -1.305  -1.616   2.061  0.00  0.00    -0.070 Cl
ENDROOT
TORSDOF 0
ENDMDL
