MODEL 1
REMARK minimizedAffinity 4.67283773
REMARK minimizedRMSD -1
REMARK  0 active torsions:
REMARK  status: ('A' for Active; 'I' for Inactive)
ROOT
ATOM      1  C   UNL d   1      -1.918  -3.967  -1.887  0.00  0.00     0.020 A 
ATOM      2  C1  UNL d   1      -2.737  -4.601  -0.953  0.00  0.00     0.020 A 
ATOM      3  C2  UNL d   1      -2.513  -4.414   0.412  0.00  0.00     0.034 A 
ATOM      4  C3  UNL d   1      -1.468  -3.590   0.848  0.00  0.00     0.017 A 
ATOM      5  C4  UNL d   1      -0.647  -2.954  -0.090  0.00  0.00     0.017 A 
ATOM      6  C5  UNL d   1      -0.876  -3.145  -1.457  0.00  0.00     0.034 A 
ATOM      7 Cl   UNL d   1       0.661  -1.924   0.371  0.00  0.00    -0.070 Cl
ATOM      8 Cl1  UNL d   1      -1.249  -3.403   2.552  0.00  0.00    -0.070 Cl
ENDROOT
TORSDOF 0
ENDMDL
