MODEL 1
REMARK minimizedAffinity 4.16067553
REMARK minimizedRMSD -1
REMARK  0 active torsions:
REMARK  status: ('A' for Active; 'I' for Inactive)
ROOT
ATOM      1  C   UNL d   1      -3.754   2.759  -5.696  0.00  0.00     0.020 A 
ATOM      2  C1  UNL d   1      -3.380   1.623  -4.979  0.00  0.00     0.020 A 
ATOM      3  C2  UNL d   1      -2.055   1.463  -4.566  0.00  0.00     0.034 A 
ATOM      4  C3  UNL d   1      -1.100   2.440  -4.869  0.00  0.00     0.017 A 
ATOM      5  C4  UNL d   1      -1.477   3.580  -5.589  0.00  0.00     0.017 A 
ATOM      6  C5  UNL d   1      -2.804   3.735  -6.000  0.00  0.00     0.034 A 
ATOM      7 Cl   UNL d   1      -0.355   4.829  -6.000  0.00  0.00    -0.070 Cl
ATOM      8 Cl1  UNL d   1       0.519   2.177  -4.326  0.00  0.00    -0.070 Cl
ENDROOT
TORSDOF 0
ENDMDL
