MODEL 1
REMARK minimizedAffinity 0.825871587
REMARK minimizedRMSD -1
REMARK  0 active torsions:
REMARK  status: ('A' for Active; 'I' for Inactive)
ROOT
ATOM      1  C   UNL d   1       2.096   3.676   0.403  0.00  0.00     0.020 A 
ATOM      2  C1  UNL d   1       2.658   2.400   0.410  0.00  0.00     0.020 A 
ATOM      3  C2  UNL d   1       1.917   1.313   0.878  0.00  0.00     0.034 A 
ATOM      4  C3  UNL d   1       0.609   1.499   1.341  0.00  0.00     0.017 A 
ATOM      5  C4  UNL d   1       0.046   2.781   1.333  0.00  0.00     0.017 A 
ATOM      6  C5  UNL d   1       0.792   3.865   0.863  0.00  0.00     0.034 A 
ATOM      7 Cl   UNL d   1      -1.562   3.089   1.887  0.00  0.00    -0.070 Cl
ATOM      8 Cl1  UNL d   1      -0.249   0.110   1.905  0.00  0.00    -0.070 Cl
ENDROOT
TORSDOF 0
ENDMDL
