MODEL 1
REMARK minimizedAffinity 5.20447826
REMARK minimizedRMSD -1
REMARK  0 active torsions:
REMARK  status: ('A' for Active; 'I' for Inactive)
ROOT
ATOM      1  C   UNL d   1      -2.258   2.606  -6.000  0.00  0.00     0.020 A 
ATOM      2  C1  UNL d   1      -2.955   2.614  -4.792  0.00  0.00     0.020 A 
ATOM      3  C2  UNL d   1      -2.256   2.609  -3.583  0.00  0.00     0.034 A 
ATOM      4  C3  UNL d   1      -0.856   2.595  -3.579  0.00  0.00     0.017 A 
ATOM      5  C4  UNL d   1      -0.158   2.587  -4.792  0.00  0.00     0.017 A 
ATOM      6  C5  UNL d   1      -0.863   2.593  -6.000  0.00  0.00     0.034 A 
ATOM      7 Cl   UNL d   1       1.568   2.570  -4.868  0.00  0.00    -0.070 Cl
ATOM      8 Cl1  UNL d   1      -0.057   2.589  -2.047  0.00  0.00    -0.070 Cl
ENDROOT
TORSDOF 0
ENDMDL
