MODEL 1
REMARK minimizedAffinity 10.4651098
REMARK minimizedRMSD -1
REMARK  0 active torsions:
REMARK  status: ('A' for Active; 'I' for Inactive)
ROOT
ATOM      1  C   UNL d   1      -1.285  -3.495  -1.892  0.00  0.00     0.020 A 
ATOM      2  C1  UNL d   1      -0.767  -4.075  -0.734  0.00  0.00     0.020 A 
ATOM      3  C2  UNL d   1      -1.591  -4.844   0.090  0.00  0.00     0.034 A 
ATOM      4  C3  UNL d   1      -2.938  -5.034  -0.242  0.00  0.00     0.017 A 
ATOM      5  C4  UNL d   1      -3.456  -4.452  -1.404  0.00  0.00     0.017 A 
ATOM      6  C5  UNL d   1      -2.626  -3.683  -2.226  0.00  0.00     0.034 A 
ATOM      7 Cl   UNL d   1      -5.107  -4.643  -1.879  0.00  0.00    -0.070 Cl
ATOM      8 Cl1  UNL d   1      -3.899  -5.997   0.824  0.00  0.00    -0.070 Cl
ENDROOT
TORSDOF 0
ENDMDL
