MODEL 1
REMARK minimizedAffinity -1.74448025
REMARK minimizedRMSD -1
REMARK  0 active torsions:
REMARK  status: ('A' for Active; 'I' for Inactive)
ROOT
ATOM      1  O1  BZF d   1       1.130  -0.788   1.776  0.00  0.00    -0.204 OA
ATOM      2  C2  BZF d   1       0.198  -1.010   2.770  0.00  0.00     0.174 A 
ATOM      3  C3  BZF d   1      -0.938  -0.327   2.523  0.00  0.00    -0.012 A 
ATOM      4  C3A BZF d   1      -0.734   0.293   1.250  0.00  0.00    -0.107 A 
ATOM      5  C4  BZF d   1      -1.511   1.092   0.459  0.00  0.00     0.055 A 
ATOM      6  C5  BZF d   1      -0.988   1.590  -0.692  0.00  0.00    -0.016 A 
ATOM      7  C6  BZF d   1       0.306   1.314  -1.081  0.00  0.00     0.022 A 
ATOM      8  C7  BZF d   1       1.113   0.522  -0.333  0.00  0.00     0.029 A 
ATOM      9  C7A BZF d   1       0.577  -0.009   0.815  0.00  0.00     0.058 A 
ENDROOT
TORSDOF 0
ENDMDL
