MODEL 1
REMARK minimizedAffinity -4.47063494
REMARK minimizedRMSD -1
REMARK  0 active torsions:
REMARK  status: ('A' for Active; 'I' for Inactive)
ROOT
ATOM      1  O1  BZF d   1       0.419   0.561   0.366  0.00  0.00    -0.204 OA
ATOM      2  C2  BZF d   1      -0.874   0.675   0.839  0.00  0.00     0.174 A 
ATOM      3  C3  BZF d   1      -1.655  -0.303   0.336  0.00  0.00    -0.012 A 
ATOM      4  C3A BZF d   1      -0.775  -1.130  -0.431  0.00  0.00    -0.107 A 
ATOM      5  C4  BZF d   1      -0.957  -2.270  -1.161  0.00  0.00     0.055 A 
ATOM      6  C5  BZF d   1       0.094  -2.788  -1.850  0.00  0.00    -0.016 A 
ATOM      7  C6  BZF d   1       1.336  -2.190  -1.836  0.00  0.00     0.022 A 
ATOM      8  C7  BZF d   1       1.566  -1.060  -1.123  0.00  0.00     0.029 A 
ATOM      9  C7A BZF d   1       0.515  -0.553  -0.399  0.00  0.00     0.058 A 
ENDROOT
TORSDOF 0
ENDMDL
