MODEL 1
REMARK minimizedAffinity -6.19142246
REMARK minimizedRMSD -1
REMARK  0 active torsions:
REMARK  status: ('A' for Active; 'I' for Inactive)
ROOT
ATOM      1  O1  BZF d   1       0.679   0.777  -0.627  0.00  0.00    -0.204 OA
ATOM      2  C2  BZF d   1       0.478  -0.492  -0.120  0.00  0.00     0.174 A 
ATOM      3  C3  BZF d   1      -0.464  -0.479   0.845  0.00  0.00    -0.012 A 
ATOM      4  C3A BZF d   1      -0.944   0.868   0.884  0.00  0.00    -0.107 A 
ATOM      5  C4  BZF d   1      -1.896   1.504   1.627  0.00  0.00     0.055 A 
ATOM      6  C5  BZF d   1      -2.071   2.843   1.472  0.00  0.00    -0.016 A 
ATOM      7  C6  BZF d   1      -1.308   3.576   0.587  0.00  0.00     0.022 A 
ATOM      8  C7  BZF d   1      -0.354   2.989  -0.176  0.00  0.00     0.029 A 
ATOM      9  C7A BZF d   1      -0.198   1.630  -0.045  0.00  0.00     0.058 A 
ENDROOT
TORSDOF 0
ENDMDL
