MODEL 1
REMARK minimizedAffinity -2.4691925
REMARK minimizedRMSD -1
REMARK  0 active torsions:
REMARK  status: ('A' for Active; 'I' for Inactive)
ROOT
ATOM      1  O1  BZF d   1       0.485   1.299  -0.831  0.00  0.00    -0.204 OA
ATOM      2  C2  BZF d   1       1.023   0.029  -0.906  0.00  0.00     0.174 A 
ATOM      3  C3  BZF d   1       0.520  -0.761   0.065  0.00  0.00    -0.012 A 
ATOM      4  C3A BZF d   1      -0.458   0.041   0.734  0.00  0.00    -0.107 A 
ATOM      5  C4  BZF d   1      -1.309  -0.191   1.777  0.00  0.00     0.055 A 
ATOM      6  C5  BZF d   1      -2.084   0.826   2.235  0.00  0.00    -0.016 A 
ATOM      7  C6  BZF d   1      -2.032   2.087   1.679  0.00  0.00     0.022 A 
ATOM      8  C7  BZF d   1      -1.207   2.364   0.639  0.00  0.00     0.029 A 
ATOM      9  C7A BZF d   1      -0.446   1.330   0.152  0.00  0.00     0.058 A 
ENDROOT
TORSDOF 0
ENDMDL
