MODEL 1
REMARK minimizedAffinity -3.03126645
REMARK minimizedRMSD -1
REMARK  0 active torsions:
REMARK  status: ('A' for Active; 'I' for Inactive)
ROOT
ATOM      1  O1  BZF d   1      -0.530   2.735   1.109  0.00  0.00    -0.204 OA
ATOM      2  C2  BZF d   1      -1.240   2.451   2.260  0.00  0.00     0.174 A 
ATOM      3  C3  BZF d   1      -1.290   1.121   2.474  0.00  0.00    -0.012 A 
ATOM      4  C3A BZF d   1      -0.489   0.542   1.440  0.00  0.00    -0.107 A 
ATOM      5  C4  BZF d   1      -0.142  -0.742   1.128  0.00  0.00     0.055 A 
ATOM      6  C5  BZF d   1       0.594  -0.974   0.010  0.00  0.00    -0.016 A 
ATOM      7  C6  BZF d   1       0.994   0.052  -0.822  0.00  0.00     0.022 A 
ATOM      8  C7  BZF d   1       0.678   1.342  -0.551  0.00  0.00     0.029 A 
ATOM      9  C7A BZF d   1      -0.037   1.583   0.596  0.00  0.00     0.058 A 
ENDROOT
TORSDOF 0
ENDMDL
