MODEL 1
REMARK minimizedAffinity -0.210105821
REMARK minimizedRMSD -1
REMARK  0 active torsions:
REMARK  status: ('A' for Active; 'I' for Inactive)
ROOT
ATOM      1  O1  BZF d   1      -0.697  -2.000  -1.311  0.00  0.00    -0.204 OA
ATOM      2  C2  BZF d   1       0.635  -1.974  -1.678  0.00  0.00     0.174 A 
ATOM      3  C3  BZF d   1       1.351  -1.215  -0.824  0.00  0.00    -0.012 A 
ATOM      4  C3A BZF d   1       0.425  -0.812   0.189  0.00  0.00    -0.107 A 
ATOM      5  C4  BZF d   1       0.542  -0.057   1.321  0.00  0.00     0.055 A 
ATOM      6  C5  BZF d   1      -0.570   0.210   2.055  0.00  0.00    -0.016 A 
ATOM      7  C6  BZF d   1      -1.814  -0.258   1.685  0.00  0.00     0.022 A 
ATOM      8  C7  BZF d   1      -1.979  -1.016   0.573  0.00  0.00     0.029 A 
ATOM      9  C7A BZF d   1      -0.852  -1.314  -0.153  0.00  0.00     0.058 A 
ENDROOT
TORSDOF 0
ENDMDL
