MODEL 1
REMARK minimizedAffinity -4.95058107
REMARK minimizedRMSD -1
REMARK  0 active torsions:
REMARK  status: ('A' for Active; 'I' for Inactive)
ROOT
ATOM      1  O1  BZF d   1      -1.036   2.861  -0.014  0.00  0.00    -0.204 OA
ATOM      2  C2  BZF d   1      -1.964   2.882   1.009  0.00  0.00     0.174 A 
ATOM      3  C3  BZF d   1      -1.879   1.762   1.755  0.00  0.00    -0.012 A 
ATOM      4  C3A BZF d   1      -0.770   1.034   1.218  0.00  0.00    -0.107 A 
ATOM      5  C4  BZF d   1      -0.179  -0.152   1.544  0.00  0.00     0.055 A 
ATOM      6  C5  BZF d   1       0.840  -0.617   0.774  0.00  0.00    -0.016 A 
ATOM      7  C6  BZF d   1       1.288   0.076  -0.332  0.00  0.00     0.022 A 
ATOM      8  C7  BZF d   1       0.736   1.260  -0.692  0.00  0.00     0.029 A 
ATOM      9  C7A BZF d   1      -0.272   1.748   0.103  0.00  0.00     0.058 A 
ENDROOT
TORSDOF 0
ENDMDL
