MODEL 1
REMARK minimizedAffinity -6.11950493
REMARK minimizedRMSD -1
REMARK  0 active torsions:
REMARK  status: ('A' for Active; 'I' for Inactive)
ROOT
ATOM      1  O1  BZF d   1       0.809   0.661  -0.564  0.00  0.00    -0.204 OA
ATOM      2  C2  BZF d   1       0.713  -0.647  -0.129  0.00  0.00     0.174 A 
ATOM      3  C3  BZF d   1      -0.222  -0.762   0.837  0.00  0.00    -0.012 A 
ATOM      4  C3A BZF d   1      -0.808   0.539   0.951  0.00  0.00    -0.107 A 
ATOM      5  C4  BZF d   1      -1.803   1.055   1.730  0.00  0.00     0.055 A 
ATOM      6  C5  BZF d   1      -2.084   2.382   1.649  0.00  0.00    -0.016 A 
ATOM      7  C6  BZF d   1      -1.387   3.222   0.805  0.00  0.00     0.022 A 
ATOM      8  C7  BZF d   1      -0.394   2.755   0.010  0.00  0.00     0.029 A 
ATOM      9  C7A BZF d   1      -0.130   1.408   0.065  0.00  0.00     0.058 A 
ENDROOT
TORSDOF 0
ENDMDL
