MODEL 1
REMARK minimizedAffinity -6.20264101
REMARK minimizedRMSD -1
REMARK  0 active torsions:
REMARK  status: ('A' for Active; 'I' for Inactive)
ROOT
ATOM      1  O1  BZF d   1       0.498   0.322  -0.749  0.00  0.00    -0.204 OA
ATOM      2  C2  BZF d   1       0.294  -0.840  -0.030  0.00  0.00     0.174 A 
ATOM      3  C3  BZF d   1      -0.532  -0.618   1.013  0.00  0.00    -0.012 A 
ATOM      4  C3A BZF d   1      -0.939   0.748   0.886  0.00  0.00    -0.107 A 
ATOM      5  C4  BZF d   1      -1.771   1.551   1.613  0.00  0.00     0.055 A 
ATOM      6  C5  BZF d   1      -1.896   2.858   1.266  0.00  0.00    -0.016 A 
ATOM      7  C6  BZF d   1      -1.202   3.397   0.202  0.00  0.00     0.022 A 
ATOM      8  C7  BZF d   1      -0.370   2.639  -0.552  0.00  0.00     0.029 A 
ATOM      9  C7A BZF d   1      -0.266   1.309  -0.223  0.00  0.00     0.058 A 
ENDROOT
TORSDOF 0
ENDMDL
