MODEL 1
REMARK minimizedAffinity -4.47963667
REMARK minimizedRMSD -1
REMARK  0 active torsions:
REMARK  status: ('A' for Active; 'I' for Inactive)
ROOT
ATOM      1  O1  BZF d   1      -1.291   2.671   0.818  0.00  0.00    -0.204 OA
ATOM      2  C2  BZF d   1      -1.962   2.524   2.017  0.00  0.00     0.174 A 
ATOM      3  C3  BZF d   1      -1.788   1.282   2.513  0.00  0.00    -0.012 A 
ATOM      4  C3A BZF d   1      -0.881   0.640   1.612  0.00  0.00    -0.107 A 
ATOM      5  C4  BZF d   1      -0.313  -0.601   1.577  0.00  0.00     0.055 A 
ATOM      6  C5  BZF d   1       0.472  -0.939   0.520  0.00  0.00    -0.016 A 
ATOM      7  C6  BZF d   1       0.706  -0.063  -0.520  0.00  0.00     0.022 A 
ATOM      8  C7  BZF d   1       0.169   1.181  -0.527  0.00  0.00     0.029 A 
ATOM      9  C7A BZF d   1      -0.598   1.537   0.555  0.00  0.00     0.058 A 
ENDROOT
TORSDOF 0
ENDMDL
