MODEL 1
REMARK minimizedAffinity -4.7545433
REMARK minimizedRMSD -1
REMARK  0 active torsions:
REMARK  status: ('A' for Active; 'I' for Inactive)
ROOT
ATOM      1  O1  BZF d   1       0.350  -0.002  -0.917  0.00  0.00    -0.204 OA
ATOM      2  C2  BZF d   1       1.096  -0.740  -0.019  0.00  0.00     0.174 A 
ATOM      3  C3  BZF d   1       0.698  -0.498   1.246  0.00  0.00    -0.012 A 
ATOM      4  C3A BZF d   1      -0.425   0.380   1.126  0.00  0.00    -0.107 A 
ATOM      5  C4  BZF d   1      -1.263   0.964   2.033  0.00  0.00     0.055 A 
ATOM      6  C5  BZF d   1      -2.215   1.827   1.593  0.00  0.00    -0.016 A 
ATOM      7  C6  BZF d   1      -2.354   2.135   0.255  0.00  0.00     0.022 A 
ATOM      8  C7  BZF d   1      -1.550   1.577  -0.682  0.00  0.00     0.029 A 
ATOM      9  C7A BZF d   1      -0.608   0.679  -0.244  0.00  0.00     0.058 A 
ENDROOT
TORSDOF 0
ENDMDL
