MODEL 1
REMARK minimizedAffinity -4.42714977
REMARK minimizedRMSD -1
REMARK  0 active torsions:
REMARK  status: ('A' for Active; 'I' for Inactive)
ROOT
ATOM      1  O1  BZF d   1      -1.823   1.141   2.241  0.00  0.00    -0.204 OA
ATOM      2  C2  BZF d   1      -2.019   2.272   1.474  0.00  0.00     0.174 A 
ATOM      3  C3  BZF d   1      -1.333   2.190   0.315  0.00  0.00    -0.012 A 
ATOM      4  C3A BZF d   1      -0.741   0.888   0.321  0.00  0.00    -0.107 A 
ATOM      5  C4  BZF d   1       0.047   0.211  -0.566  0.00  0.00     0.055 A 
ATOM      6  C5  BZF d   1       0.517  -1.018  -0.227  0.00  0.00    -0.016 A 
ATOM      7  C6  BZF d   1       0.225  -1.597   0.990  0.00  0.00     0.022 A 
ATOM      8  C7  BZF d   1      -0.556  -0.967   1.901  0.00  0.00     0.029 A 
ATOM      9  C7A BZF d   1      -1.060   0.261   1.548  0.00  0.00     0.058 A 
ENDROOT
TORSDOF 0
ENDMDL
