MODEL 1
REMARK minimizedAffinity -1.84841979
REMARK minimizedRMSD -1
REMARK  0 active torsions:
REMARK  status: ('A' for Active; 'I' for Inactive)
ROOT
ATOM      1  O1  BZF d   1       1.698  -0.459   0.870  0.00  0.00    -0.204 OA
ATOM      2  C2  BZF d   1       1.558  -0.941  -0.417  0.00  0.00     0.174 A 
ATOM      3  C3  BZF d   1       0.313  -0.708  -0.882  0.00  0.00    -0.012 A 
ATOM      4  C3A BZF d   1      -0.338   0.043   0.146  0.00  0.00    -0.107 A 
ATOM      5  C4  BZF d   1      -1.586   0.584   0.266  0.00  0.00     0.055 A 
ATOM      6  C5  BZF d   1      -1.932   1.195   1.430  0.00  0.00    -0.016 A 
ATOM      7  C6  BZF d   1      -1.058   1.279   2.494  0.00  0.00     0.022 A 
ATOM      8  C7  BZF d   1       0.192   0.762   2.420  0.00  0.00     0.029 A 
ATOM      9  C7A BZF d   1       0.556   0.172   1.234  0.00  0.00     0.058 A 
ENDROOT
TORSDOF 0
ENDMDL
