MODEL 1
REMARK minimizedAffinity -5.48685884
REMARK minimizedRMSD -1
REMARK  0 active torsions:
REMARK  status: ('A' for Active; 'I' for Inactive)
ROOT
ATOM      1  O1  BZF d   1       0.524   2.263  -1.268  0.00  0.00    -0.204 OA
ATOM      2  C2  BZF d   1       0.392   3.633  -1.385  0.00  0.00     0.174 A 
ATOM      3  C3  BZF d   1      -0.530   4.101  -0.519  0.00  0.00    -0.012 A 
ATOM      4  C3A BZF d   1      -0.937   2.964   0.248  0.00  0.00    -0.107 A 
ATOM      5  C4  BZF d   1      -1.819   2.792   1.276  0.00  0.00     0.055 A 
ATOM      6  C5  BZF d   1      -2.040   1.539   1.754  0.00  0.00    -0.016 A 
ATOM      7  C6  BZF d   1      -1.401   0.437   1.225  0.00  0.00     0.022 A 
ATOM      8  C7  BZF d   1      -0.513   0.558   0.208  0.00  0.00     0.029 A 
ATOM      9  C7A BZF d   1      -0.264   1.827  -0.255  0.00  0.00     0.058 A 
ENDROOT
TORSDOF 0
ENDMDL
