MODEL 1
REMARK minimizedAffinity -5.4102273
REMARK minimizedRMSD -1
REMARK  0 active torsions:
REMARK  status: ('A' for Active; 'I' for Inactive)
ROOT
ATOM      1  O1  BZF d   1       0.543   0.464  -0.178  0.00  0.00    -0.204 OA
ATOM      2  C2  BZF d   1       0.478  -0.678   0.598  0.00  0.00     0.174 A 
ATOM      3  C3  BZF d   1      -0.406  -0.522   1.604  0.00  0.00    -0.012 A 
ATOM      4  C3A BZF d   1      -0.994   0.765   1.392  0.00  0.00    -0.107 A 
ATOM      5  C4  BZF d   1      -1.954   1.478   2.052  0.00  0.00     0.055 A 
ATOM      6  C5  BZF d   1      -2.248   2.736   1.631  0.00  0.00    -0.016 A 
ATOM      7  C6  BZF d   1      -1.600   3.313   0.558  0.00  0.00     0.022 A 
ATOM      8  C7  BZF d   1      -0.644   2.643  -0.131  0.00  0.00     0.029 A 
ATOM      9  C7A BZF d   1      -0.368   1.359   0.272  0.00  0.00     0.058 A 
ENDROOT
TORSDOF 0
ENDMDL
