MODEL 1
REMARK minimizedAffinity -3.62281132
REMARK minimizedRMSD -1
REMARK  0 active torsions:
REMARK  status: ('A' for Active; 'I' for Inactive)
ROOT
ATOM      1  O1  BZF d   1      -1.560   2.508   1.558  0.00  0.00    -0.204 OA
ATOM      2  C2  BZF d   1      -1.140   3.420   0.608  0.00  0.00     0.174 A 
ATOM      3  C3  BZF d   1      -0.322   2.833  -0.289  0.00  0.00    -0.012 A 
ATOM      4  C3A BZF d   1      -0.298   1.448   0.072  0.00  0.00    -0.107 A 
ATOM      5  C4  BZF d   1       0.325   0.352  -0.452  0.00  0.00     0.055 A 
ATOM      6  C5  BZF d   1       0.200  -0.844   0.182  0.00  0.00    -0.016 A 
ATOM      7  C6  BZF d   1      -0.534  -0.978   1.342  0.00  0.00     0.022 A 
ATOM      8  C7  BZF d   1      -1.174   0.080   1.896  0.00  0.00     0.029 A 
ATOM      9  C7A BZF d   1      -1.077   1.283   1.241  0.00  0.00     0.058 A 
ENDROOT
TORSDOF 0
ENDMDL
