MODEL 1
REMARK minimizedAffinity -6.08819008
REMARK minimizedRMSD -1
REMARK  2 active torsions:
REMARK  status: ('A' for Active; 'I' for Inactive)
REMARK    1  A    between atoms: C2'_3  and  C1'_4 
REMARK    2  A    between atoms: C1'_4  and  C1_5 
ROOT
ATOM      1  C1  I4B d   1       0.244  -0.583  -0.605  0.00  0.00    -0.075 A 
ATOM      2  C2  I4B d   1      -0.045   0.734  -0.863  0.00  0.00     0.003 A 
ATOM      3  C3  I4B d   1      -0.906   1.456  -0.001  0.00  0.00     0.002 A 
ATOM      4  C4  I4B d   1      -1.490   0.813   1.072  0.00  0.00    -0.004 A 
ATOM      5  C5  I4B d   1      -1.177  -0.515   1.344  0.00  0.00     0.002 A 
ATOM      6  C6  I4B d   1      -0.295  -1.215   0.508  0.00  0.00     0.003 A 
ENDROOT
BRANCH   1   7
ATOM      7  C1' I4B d   1       1.131  -1.325  -1.555  0.00  0.00     0.060 C 
BRANCH   7   8
ATOM      8  C2' I4B d   1       0.504  -2.680  -1.815  0.00  0.00    -0.013 C 
ATOM      9  C4' I4B d   1      -0.371  -2.649  -3.040  0.00  0.00     0.013 C 
ATOM     10  C3' I4B d   1       1.612  -3.680  -1.965  0.00  0.00     0.013 C 
ENDBRANCH   7   8
ENDBRANCH   1   7
TORSDOF 2
ENDMDL
