MODEL 1
REMARK minimizedAffinity -5.0168438
REMARK minimizedRMSD -1
REMARK  2 active torsions:
REMARK  status: ('A' for Active; 'I' for Inactive)
REMARK    1  A    between atoms: C2'_3  and  C1'_4 
REMARK    2  A    between atoms: C1'_4  and  C1_5 
ROOT
ATOM      1  C1  I4B d   1       0.073  -0.926   0.030  0.00  0.00    -0.075 A 
ATOM      2  C2  I4B d   1       1.138  -0.213  -0.462  0.00  0.00     0.003 A 
ATOM      3  C3  I4B d   1       1.889  -0.714  -1.552  0.00  0.00     0.002 A 
ATOM      4  C4  I4B d   1       1.573  -1.948  -2.085  0.00  0.00    -0.004 A 
ATOM      5  C5  I4B d   1       0.478  -2.658  -1.601  0.00  0.00     0.002 A 
ATOM      6  C6  I4B d   1      -0.285  -2.138  -0.545  0.00  0.00     0.003 A 
ENDROOT
BRANCH   1   7
ATOM      7  C1' I4B d   1      -0.678  -0.382   1.204  0.00  0.00     0.060 C 
BRANCH   7   8
ATOM      8  C2' I4B d   1      -1.315   0.928   0.785  0.00  0.00    -0.013 C 
ATOM      9  C4' I4B d   1      -2.728   0.719   0.310  0.00  0.00     0.013 C 
ATOM     10  C3' I4B d   1      -1.270   1.860   1.959  0.00  0.00     0.013 C 
ENDBRANCH   7   8
ENDBRANCH   1   7
TORSDOF 2
ENDMDL
