MODEL 1
REMARK minimizedAffinity -2.58677292
REMARK minimizedRMSD -1
REMARK  2 active torsions:
REMARK  status: ('A' for Active; 'I' for Inactive)
REMARK    1  A    between atoms: C2'_3  and  C1'_4 
REMARK    2  A    between atoms: C1'_4  and  C1_5 
ROOT
ATOM      1  C1  I4B d   1      -1.276   0.824   1.134  0.00  0.00    -0.075 A 
ATOM      2  C2  I4B d   1      -0.427   0.972   0.065  0.00  0.00     0.003 A 
ATOM      3  C3  I4B d   1       0.806   0.277   0.034  0.00  0.00     0.002 A 
ATOM      4  C4  I4B d   1       1.171  -0.509   1.107  0.00  0.00    -0.004 A 
ATOM      5  C5  I4B d   1       0.299  -0.675   2.179  0.00  0.00     0.002 A 
ATOM      6  C6  I4B d   1      -0.938  -0.014   2.188  0.00  0.00     0.003 A 
ENDROOT
BRANCH   1   7
ATOM      7  C1' I4B d   1      -2.556   1.598   1.149  0.00  0.00     0.060 C 
BRANCH   7   8
ATOM      8  C2' I4B d   1      -2.355   2.815   2.029  0.00  0.00    -0.013 C 
ATOM      9  C4' I4B d   1      -0.894   3.050   2.310  0.00  0.00     0.013 C 
ATOM     10  C3' I4B d   1      -2.969   3.995   1.334  0.00  0.00     0.013 C 
ENDBRANCH   7   8
ENDBRANCH   1   7
TORSDOF 2
ENDMDL
