MODEL 1
REMARK minimizedAffinity -3.06779051
REMARK minimizedRMSD -1
REMARK  2 active torsions:
REMARK  status: ('A' for Active; 'I' for Inactive)
REMARK    1  A    between atoms: C2'_3  and  C1'_4 
REMARK    2  A    between atoms: C1'_4  and  C1_5 
ROOT
ATOM      1  C1  I4B d   1      -0.108   2.250   0.490  0.00  0.00    -0.075 A 
ATOM      2  C2  I4B d   1       0.375   1.055   0.020  0.00  0.00     0.003 A 
ATOM      3  C3  I4B d   1       0.220  -0.127   0.786  0.00  0.00     0.002 A 
ATOM      4  C4  I4B d   1      -0.374  -0.058   2.029  0.00  0.00    -0.004 A 
ATOM      5  C5  I4B d   1      -0.883   1.151   2.494  0.00  0.00     0.002 A 
ATOM      6  C6  I4B d   1      -0.761   2.311   1.714  0.00  0.00     0.003 A 
ENDROOT
BRANCH   1   7
ATOM      7  C1' I4B d   1       0.101   3.484  -0.330  0.00  0.00     0.060 C 
BRANCH   7   8
ATOM      8  C2' I4B d   1       0.223   3.065  -1.781  0.00  0.00    -0.013 C 
ATOM      9  C4' I4B d   1      -0.471   4.044  -2.691  0.00  0.00     0.013 C 
ATOM     10  C3' I4B d   1       1.682   2.960  -2.111  0.00  0.00     0.013 C 
ENDBRANCH   7   8
ENDBRANCH   1   7
TORSDOF 2
ENDMDL
