MODEL 1
REMARK minimizedAffinity -5.21493864
REMARK minimizedRMSD -1
REMARK  2 active torsions:
REMARK  status: ('A' for Active; 'I' for Inactive)
REMARK    1  A    between atoms: C2'_3  and  C1'_4 
REMARK    2  A    between atoms: C1'_4  and  C1_5 
ROOT
ATOM      1  C1  I4B d   1       0.153   0.729   0.184  0.00  0.00    -0.075 A 
ATOM      2  C2  I4B d   1      -0.403   0.737   1.439  0.00  0.00     0.003 A 
ATOM      3  C3  I4B d   1      -1.013   1.912   1.941  0.00  0.00     0.002 A 
ATOM      4  C4  I4B d   1      -1.000   3.063   1.180  0.00  0.00    -0.004 A 
ATOM      5  C5  I4B d   1      -0.456   3.047  -0.101  0.00  0.00     0.002 A 
ATOM      6  C6  I4B d   1       0.113   1.870  -0.607  0.00  0.00     0.003 A 
ENDROOT
BRANCH   1   7
ATOM      7  C1' I4B d   1       0.818  -0.519  -0.302  0.00  0.00     0.060 C 
BRANCH   7   8
ATOM      8  C2' I4B d   1      -0.126  -1.204  -1.270  0.00  0.00    -0.013 C 
ATOM      9  C4' I4B d   1       0.440  -2.517  -1.745  0.00  0.00     0.013 C 
ATOM     10  C3' I4B d   1      -1.439  -1.401  -0.574  0.00  0.00     0.013 C 
ENDBRANCH   7   8
ENDBRANCH   1   7
TORSDOF 2
ENDMDL
