MODEL 1
REMARK minimizedAffinity -4.39955378
REMARK minimizedRMSD -1
REMARK  2 active torsions:
REMARK  status: ('A' for Active; 'I' for Inactive)
REMARK    1  A    between atoms: C2'_3  and  C1'_4 
REMARK    2  A    between atoms: C1'_4  and  C1_5 
ROOT
ATOM      1  C1  I4B d   1      -0.570   0.494   1.148  0.00  0.00    -0.075 A 
ATOM      2  C2  I4B d   1      -0.315   1.761   1.609  0.00  0.00     0.003 A 
ATOM      3  C3  I4B d   1      -1.324   2.754   1.558  0.00  0.00     0.002 A 
ATOM      4  C4  I4B d   1      -2.547   2.452   0.996  0.00  0.00    -0.004 A 
ATOM      5  C5  I4B d   1      -2.811   1.160   0.550  0.00  0.00     0.002 A 
ATOM      6  C6  I4B d   1      -1.820   0.171   0.637  0.00  0.00     0.003 A 
ENDROOT
BRANCH   1   7
ATOM      7  C1' I4B d   1       0.529  -0.521   1.186  0.00  0.00     0.060 C 
BRANCH   7   8
ATOM      8  C2' I4B d   1       1.222  -0.510  -0.162  0.00  0.00    -0.013 C 
ATOM      9  C4' I4B d   1       0.499  -1.384  -1.153  0.00  0.00     0.013 C 
ATOM     10  C3' I4B d   1       1.285   0.910  -0.638  0.00  0.00     0.013 C 
ENDBRANCH   7   8
ENDBRANCH   1   7
TORSDOF 2
ENDMDL
