MODEL 1
REMARK minimizedAffinity -4.59306097
REMARK minimizedRMSD -1
REMARK  2 active torsions:
REMARK  status: ('A' for Active; 'I' for Inactive)
REMARK    1  A    between atoms: C2'_3  and  C1'_4 
REMARK    2  A    between atoms: C1'_4  and  C1_5 
ROOT
ATOM      1  C1  I4B d   1      -1.363   0.915   0.314  0.00  0.00    -0.075 A 
ATOM      2  C2  I4B d   1      -0.727   1.936  -0.347  0.00  0.00     0.003 A 
ATOM      3  C3  I4B d   1      -1.106   3.280  -0.116  0.00  0.00     0.002 A 
ATOM      4  C4  I4B d   1      -2.153   3.554   0.740  0.00  0.00    -0.004 A 
ATOM      5  C5  I4B d   1      -2.782   2.520   1.427  0.00  0.00     0.002 A 
ATOM      6  C6  I4B d   1      -2.377   1.193   1.222  0.00  0.00     0.003 A 
ENDROOT
BRANCH   1   7
ATOM      7  C1' I4B d   1      -0.960  -0.495   0.022  0.00  0.00     0.060 C 
BRANCH   7   8
ATOM      8  C2' I4B d   1       0.491  -0.485  -0.416  0.00  0.00    -0.013 C 
ATOM      9  C4' I4B d   1       1.415  -0.337   0.763  0.00  0.00     0.013 C 
ATOM     10  C3' I4B d   1       0.759  -1.760  -1.158  0.00  0.00     0.013 C 
ENDBRANCH   7   8
ENDBRANCH   1   7
TORSDOF 2
ENDMDL
