MODEL 1
REMARK minimizedAffinity -5.24150658
REMARK minimizedRMSD -1
REMARK  2 active torsions:
REMARK  status: ('A' for Active; 'I' for Inactive)
REMARK    1  A    between atoms: C2'_3  and  C1'_4 
REMARK    2  A    between atoms: C1'_4  and  C1_5 
ROOT
ATOM      1  C1  I4B d   1      -0.744   0.898  -0.413  0.00  0.00    -0.075 A 
ATOM      2  C2  I4B d   1      -1.730   1.125   0.515  0.00  0.00     0.003 A 
ATOM      3  C3  I4B d   1      -1.975   2.437   0.988  0.00  0.00     0.002 A 
ATOM      4  C4  I4B d   1      -1.182   3.477   0.548  0.00  0.00    -0.004 A 
ATOM      5  C5  I4B d   1      -0.198   3.248  -0.409  0.00  0.00     0.002 A 
ATOM      6  C6  I4B d   1       0.014   1.953  -0.902  0.00  0.00     0.003 A 
ENDROOT
BRANCH   1   7
ATOM      7  C1' I4B d   1      -0.491  -0.505  -0.866  0.00  0.00     0.060 C 
BRANCH   7   8
ATOM      8  C2' I4B d   1       0.837  -0.950  -0.288  0.00  0.00    -0.013 C 
ATOM      9  C4' I4B d   1       0.815  -0.914   1.218  0.00  0.00     0.013 C 
ATOM     10  C3' I4B d   1       1.121  -2.333  -0.792  0.00  0.00     0.013 C 
ENDBRANCH   7   8
ENDBRANCH   1   7
TORSDOF 2
ENDMDL
