MODEL 1
REMARK minimizedAffinity -5.30536556
REMARK minimizedRMSD -1
REMARK  2 active torsions:
REMARK  status: ('A' for Active; 'I' for Inactive)
REMARK    1  A    between atoms: C2'_3  and  C1'_4 
REMARK    2  A    between atoms: C1'_4  and  C1_5 
ROOT
ATOM      1  C1  I4B d   1      -0.079   1.497  -0.135  0.00  0.00    -0.075 A 
ATOM      2  C2  I4B d   1      -0.997   1.333   0.871  0.00  0.00     0.003 A 
ATOM      3  C3  I4B d   1      -1.776   2.430   1.312  0.00  0.00     0.002 A 
ATOM      4  C4  I4B d   1      -1.570   3.676   0.756  0.00  0.00    -0.004 A 
ATOM      5  C5  I4B d   1      -0.655   3.836  -0.281  0.00  0.00     0.002 A 
ATOM      6  C6  I4B d   1       0.087   2.737  -0.738  0.00  0.00     0.003 A 
ENDROOT
BRANCH   1   7
ATOM      7  C1' I4B d   1       0.750   0.324  -0.553  0.00  0.00     0.060 C 
BRANCH   7   8
ATOM      8  C2' I4B d   1       0.059  -0.933  -0.067  0.00  0.00    -0.013 C 
ATOM      9  C4' I4B d   1       0.516  -2.141  -0.841  0.00  0.00     0.013 C 
ATOM     10  C3' I4B d   1       0.351  -1.085   1.397  0.00  0.00     0.013 C 
ENDBRANCH   7   8
ENDBRANCH   1   7
TORSDOF 2
ENDMDL
