MODEL 1
REMARK minimizedAffinity -4.30681133
REMARK minimizedRMSD -1
REMARK  2 active torsions:
REMARK  status: ('A' for Active; 'I' for Inactive)
REMARK    1  A    between atoms: C2'_3  and  C1'_4 
REMARK    2  A    between atoms: C1'_4  and  C1_5 
ROOT
ATOM      1  C1  I4B d   1      -0.941  -0.405   0.606  0.00  0.00    -0.075 A 
ATOM      2  C2  I4B d   1      -0.024   0.477   1.120  0.00  0.00     0.003 A 
ATOM      3  C3  I4B d   1      -0.402   1.810   1.411  0.00  0.00     0.002 A 
ATOM      4  C4  I4B d   1      -1.685   2.230   1.126  0.00  0.00    -0.004 A 
ATOM      5  C5  I4B d   1      -2.620   1.329   0.625  0.00  0.00     0.002 A 
ATOM      6  C6  I4B d   1      -2.250  -0.000   0.375  0.00  0.00     0.003 A 
ENDROOT
BRANCH   1   7
ATOM      7  C1' I4B d   1      -0.500  -1.796   0.280  0.00  0.00     0.060 C 
BRANCH   7   8
ATOM      8  C2' I4B d   1       0.539  -1.711  -0.820  0.00  0.00    -0.013 C 
ATOM      9  C4' I4B d   1       1.123  -3.065  -1.125  0.00  0.00     0.013 C 
ATOM     10  C3' I4B d   1      -0.118  -1.119  -2.032  0.00  0.00     0.013 C 
ENDBRANCH   7   8
ENDBRANCH   1   7
TORSDOF 2
ENDMDL
