MODEL 1
REMARK minimizedAffinity -3.99765372
REMARK minimizedRMSD -1
REMARK  2 active torsions:
REMARK  status: ('A' for Active; 'I' for Inactive)
REMARK    1  A    between atoms: C2'_3  and  C1'_4 
REMARK    2  A    between atoms: C1'_4  and  C1_5 
ROOT
ATOM      1  C1  I4B d   1      -1.211   0.798   0.503  0.00  0.00    -0.075 A 
ATOM      2  C2  I4B d   1      -0.930  -0.004  -0.574  0.00  0.00     0.003 A 
ATOM      3  C3  I4B d   1       0.132  -0.939  -0.509  0.00  0.00     0.002 A 
ATOM      4  C4  I4B d   1       0.913  -1.002   0.627  0.00  0.00    -0.004 A 
ATOM      5  C5  I4B d   1       0.612  -0.203   1.727  0.00  0.00     0.002 A 
ATOM      6  C6  I4B d   1      -0.465   0.694   1.669  0.00  0.00     0.003 A 
ENDROOT
BRANCH   1   7
ATOM      7  C1' I4B d   1      -2.319   1.798   0.388  0.00  0.00     0.060 C 
BRANCH   7   8
ATOM      8  C2' I4B d   1      -1.697   3.178   0.326  0.00  0.00    -0.013 C 
ATOM      9  C4' I4B d   1      -1.087   3.561   1.648  0.00  0.00     0.013 C 
ATOM     10  C3' I4B d   1      -0.668   3.174  -0.765  0.00  0.00     0.013 C 
ENDBRANCH   7   8
ENDBRANCH   1   7
TORSDOF 2
ENDMDL
