MODEL 1
REMARK minimizedAffinity -5.66569376
REMARK minimizedRMSD -1
REMARK  2 active torsions:
REMARK  status: ('A' for Active; 'I' for Inactive)
REMARK    1  A    between atoms: C2'_3  and  C1'_4 
REMARK    2  A    between atoms: C1'_4  and  C1_5 
ROOT
ATOM      1  C1  I4B d   1      -0.160   0.060   1.357  0.00  0.00    -0.075 A 
ATOM      2  C2  I4B d   1      -0.737  -0.297   0.164  0.00  0.00     0.003 A 
ATOM      3  C3  I4B d   1      -1.798   0.472  -0.373  0.00  0.00     0.002 A 
ATOM      4  C4  I4B d   1      -2.280   1.553   0.336  0.00  0.00    -0.004 A 
ATOM      5  C5  I4B d   1      -1.678   1.928   1.533  0.00  0.00     0.002 A 
ATOM      6  C6  I4B d   1      -0.603   1.184   2.042  0.00  0.00     0.003 A 
ENDROOT
BRANCH   1   7
ATOM      7  C1' I4B d   1       0.937  -0.793   1.911  0.00  0.00     0.060 C 
BRANCH   7   8
ATOM      8  C2' I4B d   1       0.727  -0.909   3.407  0.00  0.00    -0.013 C 
ATOM      9  C4' I4B d   1      -0.579  -1.590   3.723  0.00  0.00     0.013 C 
ATOM     10  C3' I4B d   1       1.886  -1.668   3.980  0.00  0.00     0.013 C 
ENDBRANCH   7   8
ENDBRANCH   1   7
TORSDOF 2
ENDMDL
