MODEL 1
REMARK minimizedAffinity -6.22597742
REMARK minimizedRMSD -1
REMARK  2 active torsions:
REMARK  status: ('A' for Active; 'I' for Inactive)
REMARK    1  A    between atoms: C2'_3  and  C1'_4 
REMARK    2  A    between atoms: C1'_4  and  C1_5 
ROOT
ATOM      1  C1  I4B d   1      -0.836   0.340  -0.311  0.00  0.00    -0.075 A 
ATOM      2  C2  I4B d   1      -0.028   1.227  -0.978  0.00  0.00     0.003 A 
ATOM      3  C3  I4B d   1      -0.003   2.591  -0.599  0.00  0.00     0.002 A 
ATOM      4  C4  I4B d   1      -0.834   3.032   0.410  0.00  0.00    -0.004 A 
ATOM      5  C5  I4B d   1      -1.636   2.127   1.100  0.00  0.00     0.002 A 
ATOM      6  C6  I4B d   1      -1.628   0.770   0.745  0.00  0.00     0.003 A 
ENDROOT
BRANCH   1   7
ATOM      7  C1' I4B d   1      -0.863  -1.088  -0.758  0.00  0.00     0.060 C 
BRANCH   7   8
ATOM      8  C2' I4B d   1       0.433  -1.371  -1.491  0.00  0.00    -0.013 C 
ATOM      9  C4' I4B d   1       1.380  -2.169  -0.633  0.00  0.00     0.013 C 
ATOM     10  C3' I4B d   1       0.099  -2.105  -2.755  0.00  0.00     0.013 C 
ENDBRANCH   7   8
ENDBRANCH   1   7
TORSDOF 2
ENDMDL
