MODEL 1
REMARK minimizedAffinity 13.267807
REMARK minimizedRMSD -1
REMARK  1 active torsions:
REMARK  status: ('A' for Active; 'I' for Inactive)
REMARK    1  A    between atoms: C1_2  and  C2_3 
ROOT
ATOM      1  C2  UNL d   1      -0.286  -0.932   3.857  0.00  0.00    -0.073 A 
ATOM      2  C3  UNL d   1       0.771  -0.855   2.943  0.00  0.00    -0.002 A 
ATOM      3  C4  UNL d   1       0.715  -1.558   1.739  0.00  0.00     0.004 A 
ATOM      4  C5  UNL d   1      -0.400  -2.339   1.434  0.00  0.00    -0.004 A 
ATOM      5  C6  UNL d   1      -1.472  -2.418   2.329  0.00  0.00    -0.075 A 
ATOM      6  C7  UNL d   1      -2.678  -3.255   2.016  0.00  0.00     0.076 C 
ATOM      7  C8  UNL d   1      -1.407  -1.711   3.537  0.00  0.00     0.001 A 
ENDROOT
BRANCH   1   8
ATOM      8  C1  UNL d   1      -0.232  -0.169   5.156  0.00  0.00     0.053 C 
ATOM      9  C   UNL d   1      -1.478  -0.389   5.998  0.00  0.00     0.018 C 
ENDBRANCH   1   8
TORSDOF 1
ENDMDL
