MODEL 1
REMARK minimizedAffinity 5.4300437
REMARK minimizedRMSD -1
REMARK  1 active torsions:
REMARK  status: ('A' for Active; 'I' for Inactive)
REMARK    1  A    between atoms: C1_2  and  C2_3 
ROOT
ATOM      1  C2  UNL d   1      -1.046  -2.114   3.832  0.00  0.00    -0.073 A 
ATOM      2  C3  UNL d   1      -0.877  -1.138   4.820  0.00  0.00    -0.002 A 
ATOM      3  C4  UNL d   1       0.177  -0.227   4.737  0.00  0.00     0.004 A 
ATOM      4  C5  UNL d   1       1.067  -0.278   3.664  0.00  0.00    -0.004 A 
ATOM      5  C6  UNL d   1       0.908  -1.240   2.661  0.00  0.00    -0.075 A 
ATOM      6  C7  UNL d   1       1.858  -1.310   1.502  0.00  0.00     0.076 C 
ATOM      7  C8  UNL d   1      -0.151  -2.153   2.753  0.00  0.00     0.001 A 
ENDROOT
BRANCH   1   8
ATOM      8  C1  UNL d   1      -2.186  -3.096   3.914  0.00  0.00     0.053 C 
ATOM      9  C   UNL d   1      -2.251  -3.997   2.691  0.00  0.00     0.018 C 
ENDBRANCH   1   8
TORSDOF 1
ENDMDL
