MODEL 1
REMARK minimizedAffinity 11.0723476
REMARK minimizedRMSD -1
REMARK  1 active torsions:
REMARK  status: ('A' for Active; 'I' for Inactive)
REMARK    1  A    between atoms: C1_2  and  C2_3 
ROOT
ATOM      1  C2  UNL d   1       0.746  -3.330   3.587  0.00  0.00    -0.073 A 
ATOM      2  C3  UNL d   1       1.268  -2.080   3.236  0.00  0.00    -0.002 A 
ATOM      3  C4  UNL d   1       0.486  -1.162   2.534  0.00  0.00     0.004 A 
ATOM      4  C5  UNL d   1      -0.826  -1.481   2.182  0.00  0.00    -0.004 A 
ATOM      5  C6  UNL d   1      -1.369  -2.721   2.534  0.00  0.00    -0.075 A 
ATOM      6  C7  UNL d   1      -2.777  -3.081   2.161  0.00  0.00     0.076 C 
ATOM      7  C8  UNL d   1      -0.576  -3.639   3.237  0.00  0.00     0.001 A 
ENDROOT
BRANCH   1   8
ATOM      8  C1  UNL d   1       1.585  -4.322   4.351  0.00  0.00     0.053 C 
ATOM      9  C   UNL d   1       2.062  -5.464   3.468  0.00  0.00     0.018 C 
ENDBRANCH   1   8
TORSDOF 1
ENDMDL
