MODEL 1
REMARK minimizedAffinity 8.26815224
REMARK minimizedRMSD -1
REMARK  1 active torsions:
REMARK  status: ('A' for Active; 'I' for Inactive)
REMARK    1  A    between atoms: C1_2  and  C2_3 
ROOT
ATOM      1  C2  UNL d   1       5.412  -3.642  -5.197  0.00  0.00    -0.073 A 
ATOM      2  C3  UNL d   1       4.446  -2.869  -5.850  0.00  0.00    -0.002 A 
ATOM      3  C4  UNL d   1       3.908  -1.740  -5.230  0.00  0.00     0.004 A 
ATOM      4  C5  UNL d   1       4.336  -1.369  -3.956  0.00  0.00    -0.004 A 
ATOM      5  C6  UNL d   1       5.309  -2.122  -3.291  0.00  0.00    -0.075 A 
ATOM      6  C7  UNL d   1       5.778  -1.738  -1.918  0.00  0.00     0.076 C 
ATOM      7  C8  UNL d   1       5.842  -3.256  -3.919  0.00  0.00     0.001 A 
ENDROOT
BRANCH   1   8
ATOM      8  C1  UNL d   1       6.000  -4.858  -5.865  0.00  0.00     0.053 C 
ATOM      9  C   UNL d   1       4.988  -5.986  -5.989  0.00  0.00     0.018 C 
ENDBRANCH   1   8
TORSDOF 1
ENDMDL
