MODEL 1
REMARK minimizedAffinity 11.5598078
REMARK minimizedRMSD -1
REMARK  1 active torsions:
REMARK  status: ('A' for Active; 'I' for Inactive)
REMARK    1  A    between atoms: C1_2  and  C2_3 
ROOT
ATOM      1  C2  UNL d   1      -1.533  -2.377   2.328  0.00  0.00    -0.073 A 
ATOM      2  C3  UNL d   1      -1.790  -1.468   3.360  0.00  0.00    -0.002 A 
ATOM      3  C4  UNL d   1      -0.803  -0.570   3.771  0.00  0.00     0.004 A 
ATOM      4  C5  UNL d   1       0.446  -0.567   3.150  0.00  0.00    -0.004 A 
ATOM      5  C6  UNL d   1       0.717  -1.460   2.108  0.00  0.00    -0.075 A 
ATOM      6  C7  UNL d   1       2.056  -1.471   1.431  0.00  0.00     0.076 C 
ATOM      7  C8  UNL d   1      -0.278  -2.360   1.703  0.00  0.00     0.001 A 
ENDROOT
BRANCH   1   8
ATOM      8  C1  UNL d   1      -2.597  -3.343   1.877  0.00  0.00     0.053 C 
ATOM      9  C   UNL d   1      -3.997  -2.785   2.078  0.00  0.00     0.018 C 
ENDBRANCH   1   8
TORSDOF 1
ENDMDL
