MODEL 1
REMARK minimizedAffinity 14.1882544
REMARK minimizedRMSD -1
REMARK  1 active torsions:
REMARK  status: ('A' for Active; 'I' for Inactive)
REMARK    1  A    between atoms: C1_2  and  C2_3 
ROOT
ATOM      1  C2  UNL d   1      -1.885   3.694  -3.547  0.00  0.00    -0.073 A 
ATOM      2  C3  UNL d   1      -2.913   2.779  -3.287  0.00  0.00    -0.002 A 
ATOM      3  C4  UNL d   1      -2.810   1.889  -2.217  0.00  0.00     0.004 A 
ATOM      4  C5  UNL d   1      -1.685   1.909  -1.393  0.00  0.00    -0.004 A 
ATOM      5  C6  UNL d   1      -0.654   2.823  -1.629  0.00  0.00    -0.075 A 
ATOM      6  C7  UNL d   1       0.564   2.855  -0.753  0.00  0.00     0.076 C 
ATOM      7  C8  UNL d   1      -0.763   3.712  -2.707  0.00  0.00     0.001 A 
ENDROOT
BRANCH   1   8
ATOM      8  C1  UNL d   1      -1.994   4.661  -4.697  0.00  0.00     0.053 C 
ATOM      9  C   UNL d   1      -2.347   3.960  -6.000  0.00  0.00     0.018 C 
ENDBRANCH   1   8
TORSDOF 1
ENDMDL
