MODEL 1
REMARK minimizedAffinity 9.89314365
REMARK minimizedRMSD -1
REMARK  1 active torsions:
REMARK  status: ('A' for Active; 'I' for Inactive)
REMARK    1  A    between atoms: C1_2  and  C2_3 
ROOT
ATOM      1  C2  UNL d   1      -0.781   3.979  -2.397  0.00  0.00    -0.073 A 
ATOM      2  C3  UNL d   1       0.310   4.748  -1.978  0.00  0.00    -0.002 A 
ATOM      3  C4  UNL d   1       1.170   4.270  -0.987  0.00  0.00     0.004 A 
ATOM      4  C5  UNL d   1       0.951   3.019  -0.412  0.00  0.00    -0.004 A 
ATOM      5  C6  UNL d   1      -0.127   2.230  -0.826  0.00  0.00    -0.075 A 
ATOM      6  C7  UNL d   1      -0.377   0.882  -0.216  0.00  0.00     0.076 C 
ATOM      7  C8  UNL d   1      -0.987   2.718  -1.820  0.00  0.00     0.001 A 
ENDROOT
BRANCH   1   8
ATOM      8  C1  UNL d   1      -1.708   4.487  -3.471  0.00  0.00     0.053 C 
ATOM      9  C   UNL d   1      -1.866   5.998  -3.419  0.00  0.00     0.018 C 
ENDBRANCH   1   8
TORSDOF 1
ENDMDL
