MODEL 1
REMARK minimizedAffinity 11.2167492
REMARK minimizedRMSD -1
REMARK  1 active torsions:
REMARK  status: ('A' for Active; 'I' for Inactive)
REMARK    1  A    between atoms: C1_2  and  C2_3 
ROOT
ATOM      1  C2  UNL d   1      -4.186  -4.510   0.695  0.00  0.00    -0.073 A 
ATOM      2  C3  UNL d   1      -5.367  -3.916   1.156  0.00  0.00    -0.002 A 
ATOM      3  C4  UNL d   1      -5.339  -3.046   2.247  0.00  0.00     0.004 A 
ATOM      4  C5  UNL d   1      -4.132  -2.756   2.882  0.00  0.00    -0.004 A 
ATOM      5  C6  UNL d   1      -2.940  -3.329   2.429  0.00  0.00    -0.075 A 
ATOM      6  C7  UNL d   1      -1.634  -3.029   3.103  0.00  0.00     0.076 C 
ATOM      7  C8  UNL d   1      -2.976  -4.204   1.335  0.00  0.00     0.001 A 
ENDROOT
BRANCH   1   8
ATOM      8  C1  UNL d   1      -4.210  -5.445  -0.487  0.00  0.00     0.053 C 
ATOM      9  C   UNL d   1      -5.602  -5.997  -0.748  0.00  0.00     0.018 C 
ENDBRANCH   1   8
TORSDOF 1
ENDMDL
