MODEL 1
REMARK minimizedAffinity 8.32324791
REMARK minimizedRMSD -1
REMARK  1 active torsions:
REMARK  status: ('A' for Active; 'I' for Inactive)
REMARK    1  A    between atoms: C1_2  and  C2_3 
ROOT
ATOM      1  C2  UNL d   1       2.543   0.509   0.041  0.00  0.00    -0.073 A 
ATOM      2  C3  UNL d   1       1.945  -0.483   0.826  0.00  0.00    -0.002 A 
ATOM      3  C4  UNL d   1       2.531  -1.745   0.934  0.00  0.00     0.004 A 
ATOM      4  C5  UNL d   1       3.722  -2.026   0.266  0.00  0.00    -0.004 A 
ATOM      5  C6  UNL d   1       4.342  -1.044  -0.514  0.00  0.00    -0.075 A 
ATOM      6  C7  UNL d   1       5.623  -1.330  -1.241  0.00  0.00     0.076 C 
ATOM      7  C8  UNL d   1       3.746   0.220  -0.620  0.00  0.00     0.001 A 
ENDROOT
BRANCH   1   8
ATOM      8  C1  UNL d   1       1.918   1.875  -0.073  0.00  0.00     0.053 C 
ATOM      9  C   UNL d   1       1.183   2.057  -1.392  0.00  0.00     0.018 C 
ENDBRANCH   1   8
TORSDOF 1
ENDMDL
