MODEL 1
REMARK minimizedAffinity 5.04078293
REMARK minimizedRMSD -1
REMARK  1 active torsions:
REMARK  status: ('A' for Active; 'I' for Inactive)
REMARK    1  A    between atoms: C1_2  and  C2_3 
ROOT
ATOM      1  C2  UNL d   1       0.568   4.657  -1.358  0.00  0.00    -0.073 A 
ATOM      2  C3  UNL d   1       0.873   3.442  -0.734  0.00  0.00    -0.002 A 
ATOM      3  C4  UNL d   1       0.367   2.244  -1.239  0.00  0.00     0.004 A 
ATOM      4  C5  UNL d   1      -0.442   2.246  -2.376  0.00  0.00    -0.004 A 
ATOM      5  C6  UNL d   1      -0.748   3.449  -3.021  0.00  0.00    -0.075 A 
ATOM      6  C7  UNL d   1      -1.618   3.469  -4.243  0.00  0.00     0.076 C 
ATOM      7  C8  UNL d   1      -0.238   4.649  -2.506  0.00  0.00     0.001 A 
ENDROOT
BRANCH   1   8
ATOM      8  C1  UNL d   1       1.117   5.953  -0.820  0.00  0.00     0.053 C 
ATOM      9  C   UNL d   1       1.097   5.993   0.699  0.00  0.00     0.018 C 
ENDBRANCH   1   8
TORSDOF 1
ENDMDL
