MODEL 1
REMARK minimizedAffinity 13.042366
REMARK minimizedRMSD -1
REMARK  1 active torsions:
REMARK  status: ('A' for Active; 'I' for Inactive)
REMARK    1  A    between atoms: C1_2  and  C2_3 
ROOT
ATOM      1  C2  UNL d   1       0.664  -0.983   4.166  0.00  0.00    -0.073 A 
ATOM      2  C3  UNL d   1       0.374  -2.152   3.452  0.00  0.00    -0.002 A 
ATOM      3  C4  UNL d   1       1.122  -2.493   2.324  0.00  0.00     0.004 A 
ATOM      4  C5  UNL d   1       2.171  -1.675   1.904  0.00  0.00    -0.004 A 
ATOM      5  C6  UNL d   1       2.484  -0.510   2.611  0.00  0.00    -0.075 A 
ATOM      6  C7  UNL d   1       3.607   0.382   2.170  0.00  0.00     0.076 C 
ATOM      7  C8  UNL d   1       1.726  -0.172   3.740  0.00  0.00     0.001 A 
ENDROOT
BRANCH   1   8
ATOM      8  C1  UNL d   1      -0.137  -0.614   5.387  0.00  0.00     0.053 C 
ATOM      9  C   UNL d   1      -1.621  -0.889   5.200  0.00  0.00     0.018 C 
ENDBRANCH   1   8
TORSDOF 1
ENDMDL
