MODEL 1
REMARK minimizedAffinity 20.2465801
REMARK minimizedRMSD -1
REMARK  1 active torsions:
REMARK  status: ('A' for Active; 'I' for Inactive)
REMARK    1  A    between atoms: C1_2  and  C2_3 
ROOT
ATOM      1  C2  UNL d   1       1.661   0.768   0.522  0.00  0.00    -0.073 A 
ATOM      2  C3  UNL d   1       2.756  -0.076   0.739  0.00  0.00    -0.002 A 
ATOM      3  C4  UNL d   1       2.557  -1.415   1.078  0.00  0.00     0.004 A 
ATOM      4  C5  UNL d   1       1.264  -1.924   1.198  0.00  0.00    -0.004 A 
ATOM      5  C6  UNL d   1       0.157  -1.099   0.974  0.00  0.00    -0.075 A 
ATOM      6  C7  UNL d   1      -1.240  -1.631   1.101  0.00  0.00     0.076 C 
ATOM      7  C8  UNL d   1       0.365   0.245   0.635  0.00  0.00     0.001 A 
ENDROOT
BRANCH   1   8
ATOM      8  C1  UNL d   1       1.871   2.213   0.148  0.00  0.00     0.053 C 
ATOM      9  C   UNL d   1       0.713   2.765  -0.668  0.00  0.00     0.018 C 
ENDBRANCH   1   8
TORSDOF 1
ENDMDL
