MODEL 1
REMARK minimizedAffinity 21.3374004
REMARK minimizedRMSD -1
REMARK  1 active torsions:
REMARK  status: ('A' for Active; 'I' for Inactive)
REMARK    1  A    between atoms: C1_2  and  C2_3 
ROOT
ATOM      1  C2  UNL d   1       1.449   1.030   0.648  0.00  0.00    -0.073 A 
ATOM      2  C3  UNL d   1       2.700   0.439   0.856  0.00  0.00    -0.002 A 
ATOM      3  C4  UNL d   1       2.796  -0.919   1.162  0.00  0.00     0.004 A 
ATOM      4  C5  UNL d   1       1.644  -1.700   1.255  0.00  0.00    -0.004 A 
ATOM      5  C6  UNL d   1       0.386  -1.130   1.039  0.00  0.00    -0.075 A 
ATOM      6  C7  UNL d   1      -0.863  -1.957   1.138  0.00  0.00     0.076 C 
ATOM      7  C8  UNL d   1       0.298   0.235   0.735  0.00  0.00     0.001 A 
ENDROOT
BRANCH   1   8
ATOM      8  C1  UNL d   1       1.341   2.495   0.311  0.00  0.00     0.053 C 
ATOM      9  C   UNL d   1       0.292   2.759  -0.757  0.00  0.00     0.018 C 
ENDBRANCH   1   8
TORSDOF 1
ENDMDL
