MODEL 1
REMARK minimizedAffinity 10.0861692
REMARK minimizedRMSD -1
REMARK  2 active torsions:
REMARK  status: ('A' for Active; 'I' for Inactive)
REMARK    1  A    between atoms: C2'_3  and  C1'_4 
REMARK    2  A    between atoms: C1'_4  and  C1_5 
ROOT
ATOM      1  C1  I4B d   1       2.547  -0.828   0.937  0.00  0.00    -0.075 A 
ATOM      2  C2  I4B d   1       1.231  -1.199   1.059  0.00  0.00     0.003 A 
ATOM      3  C3  I4B d   1       0.884  -2.374   1.768  0.00  0.00     0.002 A 
ATOM      4  C4  I4B d   1       1.881  -3.171   2.293  0.00  0.00    -0.004 A 
ATOM      5  C5  I4B d   1       3.213  -2.782   2.188  0.00  0.00     0.002 A 
ATOM      6  C6  I4B d   1       3.548  -1.597   1.517  0.00  0.00     0.003 A 
ENDROOT
BRANCH   1   7
ATOM      7  C1' I4B d   1       2.881   0.401   0.154  0.00  0.00     0.060 C 
BRANCH   7   8
ATOM      8  C2' I4B d   1       1.936   1.503   0.590  0.00  0.00    -0.013 C 
ATOM      9  C4' I4B d   1       2.060   1.774   2.067  0.00  0.00     0.013 C 
ATOM     10  C3' I4B d   1       2.253   2.729  -0.213  0.00  0.00     0.013 C 
ENDBRANCH   7   8
ENDBRANCH   1   7
TORSDOF 2
ENDMDL
