MODEL 1
REMARK minimizedAffinity 4.19015694
REMARK minimizedRMSD -1
REMARK  2 active torsions:
REMARK  status: ('A' for Active; 'I' for Inactive)
REMARK    1  A    between atoms: C2'_3  and  C1'_4 
REMARK    2  A    between atoms: C1'_4  and  C1_5 
ROOT
ATOM      1  C1  I4B d   1       1.322  -1.539   2.074  0.00  0.00    -0.075 A 
ATOM      2  C2  I4B d   1       1.201  -2.779   2.650  0.00  0.00     0.003 A 
ATOM      3  C3  I4B d   1      -0.047  -3.447   2.648  0.00  0.00     0.002 A 
ATOM      4  C4  I4B d   1      -1.152  -2.822   2.106  0.00  0.00    -0.004 A 
ATOM      5  C5  I4B d   1      -1.022  -1.575   1.502  0.00  0.00     0.002 A 
ATOM      6  C6  I4B d   1       0.225  -0.934   1.475  0.00  0.00     0.003 A 
ENDROOT
BRANCH   1   7
ATOM      7  C1' I4B d   1       2.647  -0.847   2.124  0.00  0.00     0.060 C 
BRANCH   7   8
ATOM      8  C2' I4B d   1       2.401   0.643   2.005  0.00  0.00    -0.013 C 
ATOM      9  C4' I4B d   1       2.689   1.349   3.303  0.00  0.00     0.013 C 
ATOM     10  C3' I4B d   1       3.268   1.168   0.899  0.00  0.00     0.013 C 
ENDBRANCH   7   8
ENDBRANCH   1   7
TORSDOF 2
ENDMDL
