MODEL 1
REMARK minimizedAffinity 9.43388176
REMARK minimizedRMSD -1
REMARK  2 active torsions:
REMARK  status: ('A' for Active; 'I' for Inactive)
REMARK    1  A    between atoms: C2'_3  and  C1'_4 
REMARK    2  A    between atoms: C1'_4  and  C1_5 
ROOT
ATOM      1  C1  I4B d   1       2.560   0.721   1.336  0.00  0.00    -0.075 A 
ATOM      2  C2  I4B d   1       3.256   1.291   0.300  0.00  0.00     0.003 A 
ATOM      3  C3  I4B d   1       2.856   2.544  -0.225  0.00  0.00     0.002 A 
ATOM      4  C4  I4B d   1       1.730   3.163   0.280  0.00  0.00    -0.004 A 
ATOM      5  C5  I4B d   1       1.039   2.595   1.346  0.00  0.00     0.002 A 
ATOM      6  C6  I4B d   1       1.463   1.372   1.886  0.00  0.00     0.003 A 
ENDROOT
BRANCH   1   7
ATOM      7  C1' I4B d   1       2.991  -0.618   1.843  0.00  0.00     0.060 C 
BRANCH   7   8
ATOM      8  C2' I4B d   1       1.797  -1.549   1.779  0.00  0.00    -0.013 C 
ATOM      9  C4' I4B d   1       1.576  -2.057   0.379  0.00  0.00     0.013 C 
ATOM     10  C3' I4B d   1       2.039  -2.679   2.735  0.00  0.00     0.013 C 
ENDBRANCH   7   8
ENDBRANCH   1   7
TORSDOF 2
ENDMDL
