MODEL 1
REMARK minimizedAffinity 2.63535595
REMARK minimizedRMSD -1
REMARK  2 active torsions:
REMARK  status: ('A' for Active; 'I' for Inactive)
REMARK    1  A    between atoms: C2'_3  and  C1'_4 
REMARK    2  A    between atoms: C1'_4  and  C1_5 
ROOT
ATOM      1  C1  I4B d   1       1.152  -2.494  -0.177  0.00  0.00    -0.075 A 
ATOM      2  C2  I4B d   1      -0.129  -2.009  -0.094  0.00  0.00     0.003 A 
ATOM      3  C3  I4B d   1      -0.868  -1.738  -1.271  0.00  0.00     0.002 A 
ATOM      4  C4  I4B d   1      -0.272  -1.917  -2.503  0.00  0.00    -0.004 A 
ATOM      5  C5  I4B d   1       1.019  -2.431  -2.586  0.00  0.00     0.002 A 
ATOM      6  C6  I4B d   1       1.731  -2.733  -1.417  0.00  0.00     0.003 A 
ENDROOT
BRANCH   1   7
ATOM      7  C1' I4B d   1       1.914  -2.738   1.086  0.00  0.00     0.060 C 
BRANCH   7   8
ATOM      8  C2' I4B d   1       1.797  -1.498   1.949  0.00  0.00    -0.013 C 
ATOM      9  C4' I4B d   1       1.671  -1.858   3.406  0.00  0.00     0.013 C 
ATOM     10  C3' I4B d   1       3.007  -0.647   1.704  0.00  0.00     0.013 C 
ENDBRANCH   7   8
ENDBRANCH   1   7
TORSDOF 2
ENDMDL
