MODEL 1
REMARK minimizedAffinity 7.29173803
REMARK minimizedRMSD -1
REMARK  2 active torsions:
REMARK  status: ('A' for Active; 'I' for Inactive)
REMARK    1  A    between atoms: C2'_3  and  C1'_4 
REMARK    2  A    between atoms: C1'_4  and  C1_5 
ROOT
ATOM      1  C1  I4B d   1       2.525  -0.763   1.700  0.00  0.00    -0.075 A 
ATOM      2  C2  I4B d   1       3.463  -0.475   0.741  0.00  0.00     0.003 A 
ATOM      3  C3  I4B d   1       3.911   0.856   0.559  0.00  0.00     0.002 A 
ATOM      4  C4  I4B d   1       3.361   1.868   1.319  0.00  0.00    -0.004 A 
ATOM      5  C5  I4B d   1       2.427   1.570   2.307  0.00  0.00     0.002 A 
ATOM      6  C6  I4B d   1       2.015   0.245   2.508  0.00  0.00     0.003 A 
ENDROOT
BRANCH   1   7
ATOM      7  C1' I4B d   1       2.050  -2.175   1.843  0.00  0.00     0.060 C 
BRANCH   7   8
ATOM      8  C2' I4B d   1       0.584  -2.138   2.225  0.00  0.00    -0.013 C 
ATOM      9  C4' I4B d   1      -0.278  -1.772   1.046  0.00  0.00     0.013 C 
ATOM     10  C3' I4B d   1       0.213  -3.485   2.770  0.00  0.00     0.013 C 
ENDBRANCH   7   8
ENDBRANCH   1   7
TORSDOF 2
ENDMDL
