MODEL 1
REMARK minimizedAffinity 4.11936712
REMARK minimizedRMSD -1
REMARK  0 active torsions:
REMARK  status: ('A' for Active; 'I' for Inactive)
ROOT
ATOM      1  C1  BNZ d   1       1.827  -0.651  -0.842  0.00  0.00     0.000 A 
ATOM      2  C2  BNZ d   1       1.341  -0.212   0.360  0.00  0.00     0.000 A 
ATOM      3  C3  BNZ d   1       1.461   1.100   0.726  0.00  0.00     0.000 A 
ATOM      4  C4  BNZ d   1       2.101   1.961  -0.092  0.00  0.00     0.000 A 
ATOM      5  C5  BNZ d   1       2.604   1.531  -1.303  0.00  0.00     0.000 A 
ATOM      6  C6  BNZ d   1       2.448   0.219  -1.685  0.00  0.00     0.000 A 
ENDROOT
TORSDOF 0
ENDMDL
