MODEL 1
REMARK minimizedAffinity 1.89358139
REMARK minimizedRMSD -1
REMARK  0 active torsions:
REMARK  status: ('A' for Active; 'I' for Inactive)
ROOT
ATOM      1  C1  BNZ d   1       1.642   1.039   0.742  0.00  0.00     0.000 A 
ATOM      2  C2  BNZ d   1       0.338   1.124   0.333  0.00  0.00     0.000 A 
ATOM      3  C3  BNZ d   1      -0.572   1.857   1.042  0.00  0.00     0.000 A 
ATOM      4  C4  BNZ d   1      -0.187   2.469   2.181  0.00  0.00     0.000 A 
ATOM      5  C5  BNZ d   1       1.122   2.385   2.612  0.00  0.00     0.000 A 
ATOM      6  C6  BNZ d   1       2.044   1.679   1.874  0.00  0.00     0.000 A 
ENDROOT
TORSDOF 0
ENDMDL
