MODEL 1
REMARK minimizedAffinity 3.30965519
REMARK minimizedRMSD -1
REMARK  0 active torsions:
REMARK  status: ('A' for Active; 'I' for Inactive)
ROOT
ATOM      1  C1  BNZ d   1       1.490  -1.268   0.297  0.00  0.00     0.000 A 
ATOM      2  C2  BNZ d   1       1.990  -1.521  -0.953  0.00  0.00     0.000 A 
ATOM      3  C3  BNZ d   1       2.398  -0.498  -1.763  0.00  0.00     0.000 A 
ATOM      4  C4  BNZ d   1       2.267   0.775  -1.340  0.00  0.00     0.000 A 
ATOM      5  C5  BNZ d   1       1.756   1.047  -0.087  0.00  0.00     0.000 A 
ATOM      6  C6  BNZ d   1       1.383   0.013   0.742  0.00  0.00     0.000 A 
ENDROOT
TORSDOF 0
ENDMDL
