MODEL 1
REMARK minimizedAffinity 6.38685417
REMARK minimizedRMSD -1
REMARK  0 active torsions:
REMARK  status: ('A' for Active; 'I' for Inactive)
ROOT
ATOM      1  C1  BNZ d   1       2.373   1.375   1.035  0.00  0.00     0.000 A 
ATOM      2  C2  BNZ d   1       1.016   1.271   0.887  0.00  0.00     0.000 A 
ATOM      3  C3  BNZ d   1       0.169   1.703   1.869  0.00  0.00     0.000 A 
ATOM      4  C4  BNZ d   1       0.680   2.200   3.014  0.00  0.00     0.000 A 
ATOM      5  C5  BNZ d   1       2.046   2.303   3.183  0.00  0.00     0.000 A 
ATOM      6  C6  BNZ d   1       2.895   1.904   2.176  0.00  0.00     0.000 A 
ENDROOT
TORSDOF 0
ENDMDL
