MODEL 1
REMARK minimizedAffinity 7.90128469
REMARK minimizedRMSD -1
REMARK  0 active torsions:
REMARK  status: ('A' for Active; 'I' for Inactive)
ROOT
ATOM      1  C1  BNZ d   1       3.331  -0.441  -3.077  0.00  0.00     0.000 A 
ATOM      2  C2  BNZ d   1       2.276   0.165  -3.706  0.00  0.00     0.000 A 
ATOM      3  C3  BNZ d   1       1.286   0.771  -2.985  0.00  0.00     0.000 A 
ATOM      4  C4  BNZ d   1       1.330   0.736  -1.637  0.00  0.00     0.000 A 
ATOM      5  C5  BNZ d   1       2.383   0.121  -0.989  0.00  0.00     0.000 A 
ATOM      6  C6  BNZ d   1       3.398  -0.454  -1.718  0.00  0.00     0.000 A 
ENDROOT
TORSDOF 0
ENDMDL
