MODEL 1
REMARK minimizedAffinity -0.678913057
REMARK minimizedRMSD -1
REMARK  0 active torsions:
REMARK  status: ('A' for Active; 'I' for Inactive)
ROOT
ATOM      1  C1  BNZ d   1       0.545   2.393   2.768  0.00  0.00     0.000 A 
ATOM      2  C2  BNZ d   1       1.721   2.806   3.337  0.00  0.00     0.000 A 
ATOM      3  C3  BNZ d   1       2.912   2.623   2.692  0.00  0.00     0.000 A 
ATOM      4  C4  BNZ d   1       2.931   1.994   1.500  0.00  0.00     0.000 A 
ATOM      5  C5  BNZ d   1       1.756   1.564   0.918  0.00  0.00     0.000 A 
ATOM      6  C6  BNZ d   1       0.554   1.784   1.552  0.00  0.00     0.000 A 
ENDROOT
TORSDOF 0
ENDMDL
