MODEL 1
REMARK minimizedAffinity 4.67153835
REMARK minimizedRMSD -1
REMARK  0 active torsions:
REMARK  status: ('A' for Active; 'I' for Inactive)
ROOT
ATOM      1  C1  BNZ d   1       2.878  -0.961  -1.447  0.00  0.00     0.000 A 
ATOM      2  C2  BNZ d   1       2.316   0.286  -1.381  0.00  0.00     0.000 A 
ATOM      3  C3  BNZ d   1       1.737   0.733  -0.226  0.00  0.00     0.000 A 
ATOM      4  C4  BNZ d   1       1.686  -0.082   0.847  0.00  0.00     0.000 A 
ATOM      5  C5  BNZ d   1       2.240  -1.345   0.794  0.00  0.00     0.000 A 
ATOM      6  C6  BNZ d   1       2.856  -1.777  -0.358  0.00  0.00     0.000 A 
ENDROOT
TORSDOF 0
ENDMDL
