MODEL 1
REMARK minimizedAffinity 8.34270954
REMARK minimizedRMSD -1
REMARK  0 active torsions:
REMARK  status: ('A' for Active; 'I' for Inactive)
ROOT
ATOM      1  C1  BNZ d   1       1.705   2.138   1.160  0.00  0.00     0.000 A 
ATOM      2  C2  BNZ d   1       2.700   1.276   0.781  0.00  0.00     0.000 A 
ATOM      3  C3  BNZ d   1       2.404   0.016   0.342  0.00  0.00     0.000 A 
ATOM      4  C4  BNZ d   1       1.120  -0.394   0.321  0.00  0.00     0.000 A 
ATOM      5  C5  BNZ d   1       0.107   0.460   0.709  0.00  0.00     0.000 A 
ATOM      6  C6  BNZ d   1       0.405   1.741   1.112  0.00  0.00     0.000 A 
ENDROOT
TORSDOF 0
ENDMDL
