MODEL 1
REMARK minimizedAffinity 3.47348619
REMARK minimizedRMSD -1
REMARK  0 active torsions:
REMARK  status: ('A' for Active; 'I' for Inactive)
ROOT
ATOM      1  C1  BNZ d   1      -5.603   2.524  -0.508  0.00  0.00     0.000 A 
ATOM      2  C2  BNZ d   1      -5.995   3.663  -1.161  0.00  0.00     0.000 A 
ATOM      3  C3  BNZ d   1      -5.998   4.870  -0.520  0.00  0.00     0.000 A 
ATOM      4  C4  BNZ d   1      -5.649   4.931   0.781  0.00  0.00     0.000 A 
ATOM      5  C5  BNZ d   1      -5.260   3.791   1.455  0.00  0.00     0.000 A 
ATOM      6  C6  BNZ d   1      -5.220   2.583   0.796  0.00  0.00     0.000 A 
ENDROOT
TORSDOF 0
ENDMDL
