MODEL 1
REMARK minimizedAffinity 4.04170418
REMARK minimizedRMSD -1
REMARK  0 active torsions:
REMARK  status: ('A' for Active; 'I' for Inactive)
ROOT
ATOM      1  C1  BNZ d   1       1.979  -1.102  -0.054  0.00  0.00     0.000 A 
ATOM      2  C2  BNZ d   1       1.430  -0.531   1.062  0.00  0.00     0.000 A 
ATOM      3  C3  BNZ d   1       1.496   0.820   1.262  0.00  0.00     0.000 A 
ATOM      4  C4  BNZ d   1       2.145   1.592   0.366  0.00  0.00     0.000 A 
ATOM      5  C5  BNZ d   1       2.712   1.029  -0.760  0.00  0.00     0.000 A 
ATOM      6  C6  BNZ d   1       2.610  -0.326  -0.977  0.00  0.00     0.000 A 
ENDROOT
TORSDOF 0
ENDMDL
