MODEL 1
REMARK minimizedAffinity 2.89948893
REMARK minimizedRMSD -1
REMARK  0 active torsions:
REMARK  status: ('A' for Active; 'I' for Inactive)
ROOT
ATOM      1  C1  BNZ d   1       2.269   1.603  -2.065  0.00  0.00     0.000 A 
ATOM      2  C2  BNZ d   1       1.463   2.355  -2.876  0.00  0.00     0.000 A 
ATOM      3  C3  BNZ d   1       0.886   1.811  -3.989  0.00  0.00     0.000 A 
ATOM      4  C4  BNZ d   1       1.148   0.528  -4.311  0.00  0.00     0.000 A 
ATOM      5  C5  BNZ d   1       1.966  -0.242  -3.508  0.00  0.00     0.000 A 
ATOM      6  C6  BNZ d   1       2.514   0.299  -2.367  0.00  0.00     0.000 A 
ENDROOT
TORSDOF 0
ENDMDL
