MODEL 1
REMARK minimizedAffinity 1.06287289
REMARK minimizedRMSD -1
REMARK  0 active torsions:
REMARK  status: ('A' for Active; 'I' for Inactive)
ROOT
ATOM      1  C1  BNZ d   1       2.370  -0.858  -0.567  0.00  0.00     0.000 A 
ATOM      2  C2  BNZ d   1       1.972  -0.551   0.707  0.00  0.00     0.000 A 
ATOM      3  C3  BNZ d   1       2.086   0.723   1.187  0.00  0.00     0.000 A 
ATOM      4  C4  BNZ d   1       2.633   1.679   0.409  0.00  0.00     0.000 A 
ATOM      5  C5  BNZ d   1       3.047   1.383  -0.875  0.00  0.00     0.000 A 
ATOM      6  C6  BNZ d   1       2.895   0.108  -1.369  0.00  0.00     0.000 A 
ENDROOT
TORSDOF 0
ENDMDL
