MODEL 1
REMARK minimizedAffinity 6.6787262
REMARK minimizedRMSD -1
REMARK  0 active torsions:
REMARK  status: ('A' for Active; 'I' for Inactive)
ROOT
ATOM      1  C1  BNZ d   1       2.478   0.079  -0.599  0.00  0.00     0.000 A 
ATOM      2  C2  BNZ d   1       3.352   0.915   0.042  0.00  0.00     0.000 A 
ATOM      3  C3  BNZ d   1       2.954   1.648   1.124  0.00  0.00     0.000 A 
ATOM      4  C4  BNZ d   1       1.672   1.576   1.538  0.00  0.00     0.000 A 
ATOM      5  C5  BNZ d   1       0.776   0.745   0.896  0.00  0.00     0.000 A 
ATOM      6  C6  BNZ d   1       1.191  -0.021  -0.168  0.00  0.00     0.000 A 
ENDROOT
TORSDOF 0
ENDMDL
