MODEL 1
REMARK minimizedAffinity -5.38965082
REMARK minimizedRMSD -1
REMARK  0 active torsions:
REMARK  status: ('A' for Active; 'I' for Inactive)
ROOT
ATOM      1  C   UNL d   1       1.764   2.486   1.645  0.00  0.00     0.020 A 
ATOM      2  C1  UNL d   1       2.506   1.941   0.598  0.00  0.00     0.020 A 
ATOM      3  C2  UNL d   1       1.971   0.906  -0.172  0.00  0.00     0.034 A 
ATOM      4  C3  UNL d   1       0.691   0.413   0.103  0.00  0.00     0.017 A 
ATOM      5  C4  UNL d   1      -0.054   0.961   1.154  0.00  0.00     0.017 A 
ATOM      6  C5  UNL d   1       0.486   1.997   1.922  0.00  0.00     0.034 A 
ATOM      7 Cl   UNL d   1      -1.641   0.405   1.554  0.00  0.00    -0.070 Cl
ATOM      8 Cl1  UNL d   1       0.092  -0.868  -0.891  0.00  0.00    -0.070 Cl
ENDROOT
TORSDOF 0
ENDMDL
