MODEL 1
REMARK minimizedAffinity -3.75833154
REMARK minimizedRMSD -1
REMARK  0 active torsions:
REMARK  status: ('A' for Active; 'I' for Inactive)
ROOT
ATOM      1  C   UNL d   1       1.561   2.954   1.990  0.00  0.00     0.020 A 
ATOM      2  C1  UNL d   1       0.180   2.762   2.001  0.00  0.00     0.020 A 
ATOM      3  C2  UNL d   1      -0.385   1.708   1.280  0.00  0.00     0.034 A 
ATOM      4  C3  UNL d   1       0.432   0.841   0.544  0.00  0.00     0.017 A 
ATOM      5  C4  UNL d   1       1.818   1.034   0.534  0.00  0.00     0.017 A 
ATOM      6  C5  UNL d   1       2.378   2.092   1.259  0.00  0.00     0.034 A 
ATOM      7 Cl   UNL d   1       2.891   0.006  -0.349  0.00  0.00    -0.070 Cl
ATOM      8 Cl1  UNL d   1      -0.333  -0.441  -0.324  0.00  0.00    -0.070 Cl
ENDROOT
TORSDOF 0
ENDMDL
