MODEL 1
REMARK minimizedAffinity -4.94148827
REMARK minimizedRMSD -1
REMARK  0 active torsions:
REMARK  status: ('A' for Active; 'I' for Inactive)
ROOT
ATOM      1  C   UNL d   1       2.436   2.791   0.857  0.00  0.00     0.020 A 
ATOM      2  C1  UNL d   1       3.027   1.915  -0.054  0.00  0.00     0.020 A 
ATOM      3  C2  UNL d   1       2.407   0.701  -0.358  0.00  0.00     0.034 A 
ATOM      4  C3  UNL d   1       1.193   0.360   0.248  0.00  0.00     0.017 A 
ATOM      5  C4  UNL d   1       0.601   1.239   1.162  0.00  0.00     0.017 A 
ATOM      6  C5  UNL d   1       1.226   2.453   1.463  0.00  0.00     0.034 A 
ATOM      7 Cl   UNL d   1      -0.896   0.887   1.951  0.00  0.00    -0.070 Cl
ATOM      8 Cl1  UNL d   1       0.482  -1.157  -0.175  0.00  0.00    -0.070 Cl
ENDROOT
TORSDOF 0
ENDMDL
