MODEL 1
REMARK minimizedAffinity -0.0805063248
REMARK minimizedRMSD -1
REMARK  0 active torsions:
REMARK  status: ('A' for Active; 'I' for Inactive)
ROOT
ATOM      1  C   UNL d   1       0.991   2.196   1.468  0.00  0.00     0.020 A 
ATOM      2  C1  UNL d   1       1.444   1.819   0.204  0.00  0.00     0.020 A 
ATOM      3  C2  UNL d   1       0.774   0.822  -0.508  0.00  0.00     0.034 A 
ATOM      4  C3  UNL d   1      -0.352   0.199   0.042  0.00  0.00     0.017 A 
ATOM      5  C4  UNL d   1      -0.806   0.579   1.311  0.00  0.00     0.017 A 
ATOM      6  C5  UNL d   1      -0.131   1.578   2.020  0.00  0.00     0.034 A 
ATOM      7 Cl   UNL d   1      -2.188  -0.143   2.055  0.00  0.00    -0.070 Cl
ATOM      8 Cl1  UNL d   1      -1.132  -1.025  -0.895  0.00  0.00    -0.070 Cl
ENDROOT
TORSDOF 0
ENDMDL
