MODEL 1
REMARK minimizedAffinity -1.6567651
REMARK minimizedRMSD -1
REMARK  0 active torsions:
REMARK  status: ('A' for Active; 'I' for Inactive)
ROOT
ATOM      1  C   UNL d   1      -3.321  -1.917  -2.365  0.00  0.00     0.020 A 
ATOM      2  C1  UNL d   1      -2.251  -1.937  -3.259  0.00  0.00     0.020 A 
ATOM      3  C2  UNL d   1      -0.969  -1.601  -2.821  0.00  0.00     0.034 A 
ATOM      4  C3  UNL d   1      -0.752  -1.242  -1.485  0.00  0.00     0.017 A 
ATOM      5  C4  UNL d   1      -1.826  -1.222  -0.588  0.00  0.00     0.017 A 
ATOM      6  C5  UNL d   1      -3.109  -1.560  -1.032  0.00  0.00     0.034 A 
ATOM      7 Cl   UNL d   1      -1.638  -0.791   1.075  0.00  0.00    -0.070 Cl
ATOM      8 Cl1  UNL d   1       0.860  -0.838  -1.013  0.00  0.00    -0.070 Cl
ENDROOT
TORSDOF 0
ENDMDL
