MODEL 1
REMARK minimizedAffinity -4.90959358
REMARK minimizedRMSD -1
REMARK  0 active torsions:
REMARK  status: ('A' for Active; 'I' for Inactive)
ROOT
ATOM      1  C   UNL d   1       1.816   2.778   1.259  0.00  0.00     0.020 A 
ATOM      2  C1  UNL d   1       2.652   1.812   0.701  0.00  0.00     0.020 A 
ATOM      3  C2  UNL d   1       2.115   0.612   0.230  0.00  0.00     0.034 A 
ATOM      4  C3  UNL d   1       0.738   0.376   0.315  0.00  0.00     0.017 A 
ATOM      5  C4  UNL d   1      -0.100   1.346   0.875  0.00  0.00     0.017 A 
ATOM      6  C5  UNL d   1       0.443   2.546   1.346  0.00  0.00     0.034 A 
ATOM      7 Cl   UNL d   1      -1.809   1.127   1.015  0.00  0.00    -0.070 Cl
ATOM      8 Cl1  UNL d   1       0.142  -1.130  -0.288  0.00  0.00    -0.070 Cl
ENDROOT
TORSDOF 0
ENDMDL
