MODEL 1
REMARK minimizedAffinity -2.69899058
REMARK minimizedRMSD -1
REMARK  0 active torsions:
REMARK  status: ('A' for Active; 'I' for Inactive)
ROOT
ATOM      1  C   UNL d   1       0.036  -0.827  -0.242  0.00  0.00     0.020 A 
ATOM      2  C1  UNL d   1      -0.748  -0.112   0.662  0.00  0.00     0.020 A 
ATOM      3  C2  UNL d   1      -0.231   1.024   1.288  0.00  0.00     0.034 A 
ATOM      4  C3  UNL d   1       1.073   1.449   1.010  0.00  0.00     0.017 A 
ATOM      5  C4  UNL d   1       1.859   0.731   0.102  0.00  0.00     0.017 A 
ATOM      6  C5  UNL d   1       1.337  -0.406  -0.522  0.00  0.00     0.034 A 
ATOM      7 Cl   UNL d   1       3.477   1.194  -0.292  0.00  0.00    -0.070 Cl
ATOM      8 Cl1  UNL d   1       1.647   2.864   1.820  0.00  0.00    -0.070 Cl
ENDROOT
TORSDOF 0
ENDMDL
