MODEL 1
REMARK minimizedAffinity -3.24585557
REMARK minimizedRMSD -1
REMARK  0 active torsions:
REMARK  status: ('A' for Active; 'I' for Inactive)
ROOT
ATOM      1  C   UNL d   1       1.656   2.075   0.528  0.00  0.00     0.020 A 
ATOM      2  C1  UNL d   1       1.450   2.080   1.907  0.00  0.00     0.020 A 
ATOM      3  C2  UNL d   1       0.402   1.341   2.459  0.00  0.00     0.034 A 
ATOM      4  C3  UNL d   1      -0.445   0.594   1.632  0.00  0.00     0.017 A 
ATOM      5  C4  UNL d   1      -0.237   0.589   0.248  0.00  0.00     0.017 A 
ATOM      6  C5  UNL d   1       0.814   1.331  -0.300  0.00  0.00     0.034 A 
ATOM      7 Cl   UNL d   1      -1.240  -0.308  -0.837  0.00  0.00    -0.070 Cl
ATOM      8 Cl1  UNL d   1      -1.721  -0.297   2.382  0.00  0.00    -0.070 Cl
ENDROOT
TORSDOF 0
ENDMDL
