MODEL 1
REMARK minimizedAffinity -2.33250213
REMARK minimizedRMSD -1
REMARK  0 active torsions:
REMARK  status: ('A' for Active; 'I' for Inactive)
ROOT
ATOM      1  C   UNL d   1      -0.945  -0.990  -0.048  0.00  0.00     0.020 A 
ATOM      2  C1  UNL d   1      -1.627  -0.082   0.762  0.00  0.00     0.020 A 
ATOM      3  C2  UNL d   1      -0.971   1.051   1.247  0.00  0.00     0.034 A 
ATOM      4  C3  UNL d   1       0.371   1.280   0.922  0.00  0.00     0.017 A 
ATOM      5  C4  UNL d   1       1.055   0.369   0.109  0.00  0.00     0.017 A 
ATOM      6  C5  UNL d   1       0.393  -0.764  -0.374  0.00  0.00     0.034 A 
ATOM      7 Cl   UNL d   1       2.712   0.584  -0.334  0.00  0.00    -0.070 Cl
ATOM      8 Cl1  UNL d   1       1.120   2.702   1.557  0.00  0.00    -0.070 Cl
ENDROOT
TORSDOF 0
ENDMDL
