MODEL 1
REMARK minimizedAffinity -3.94393921
REMARK minimizedRMSD -1
REMARK  0 active torsions:
REMARK  status: ('A' for Active; 'I' for Inactive)
ROOT
ATOM      1  C   UNL d   1       1.721   2.788   1.648  0.00  0.00     0.020 A 
ATOM      2  C1  UNL d   1       0.385   2.404   1.754  0.00  0.00     0.020 A 
ATOM      3  C2  UNL d   1      -0.070   1.267   1.082  0.00  0.00     0.034 A 
ATOM      4  C3  UNL d   1       0.812   0.512   0.300  0.00  0.00     0.017 A 
ATOM      5  C4  UNL d   1       2.153   0.899   0.195  0.00  0.00     0.017 A 
ATOM      6  C5  UNL d   1       2.603   2.037   0.870  0.00  0.00     0.034 A 
ATOM      7 Cl   UNL d   1       3.301   0.017  -0.750  0.00  0.00    -0.070 Cl
ATOM      8 Cl1  UNL d   1       0.182  -0.882  -0.503  0.00  0.00    -0.070 Cl
ENDROOT
TORSDOF 0
ENDMDL
