MODEL 1
REMARK minimizedAffinity -4.31220484
REMARK minimizedRMSD -1
REMARK  0 active torsions:
REMARK  status: ('A' for Active; 'I' for Inactive)
ROOT
ATOM      1  C   UNL d   1       2.173   1.872   0.190  0.00  0.00     0.020 A 
ATOM      2  C1  UNL d   1       1.778   2.317   1.451  0.00  0.00     0.020 A 
ATOM      3  C2  UNL d   1       0.625   1.799   2.044  0.00  0.00     0.034 A 
ATOM      4  C3  UNL d   1      -0.137   0.834   1.377  0.00  0.00     0.017 A 
ATOM      5  C4  UNL d   1       0.260   0.387   0.112  0.00  0.00     0.017 A 
ATOM      6  C5  UNL d   1       1.415   0.909  -0.478  0.00  0.00     0.034 A 
ATOM      7 Cl   UNL d   1      -0.629  -0.802  -0.773  0.00  0.00    -0.070 Cl
ATOM      8 Cl1  UNL d   1      -1.551   0.237   2.172  0.00  0.00    -0.070 Cl
ENDROOT
TORSDOF 0
ENDMDL
