MODEL 1
REMARK minimizedAffinity -3.91339421
REMARK minimizedRMSD -1
REMARK  0 active torsions:
REMARK  status: ('A' for Active; 'I' for Inactive)
ROOT
ATOM      1  C   UNL d   1       1.955   1.850  -0.260  0.00  0.00     0.020 A 
ATOM      2  C1  UNL d   1       1.544   2.582   0.853  0.00  0.00     0.020 A 
ATOM      3  C2  UNL d   1       0.456   2.146   1.613  0.00  0.00     0.034 A 
ATOM      4  C3  UNL d   1      -0.224   0.974   1.261  0.00  0.00     0.017 A 
ATOM      5  C4  UNL d   1       0.190   0.240   0.144  0.00  0.00     0.017 A 
ATOM      6  C5  UNL d   1       1.280   0.681  -0.613  0.00  0.00     0.034 A 
ATOM      7 Cl   UNL d   1      -0.598  -1.216  -0.353  0.00  0.00    -0.070 Cl
ATOM      8 Cl1  UNL d   1      -1.559   0.494   2.246  0.00  0.00    -0.070 Cl
ENDROOT
TORSDOF 0
ENDMDL
