MODEL 1
REMARK minimizedAffinity -5.76587343
REMARK minimizedRMSD -1
REMARK  0 active torsions:
REMARK  status: ('A' for Active; 'I' for Inactive)
ROOT
ATOM      1  C   UNL d   1       3.263   1.628   0.304  0.00  0.00     0.020 A 
ATOM      2  C1  UNL d   1       2.691   2.648   1.064  0.00  0.00     0.020 A 
ATOM      3  C2  UNL d   1       1.338   2.590   1.404  0.00  0.00     0.034 A 
ATOM      4  C3  UNL d   1       0.552   1.512   0.983  0.00  0.00     0.017 A 
ATOM      5  C4  UNL d   1       1.126   0.488   0.221  0.00  0.00     0.017 A 
ATOM      6  C5  UNL d   1       2.482   0.551  -0.117  0.00  0.00     0.034 A 
ATOM      7 Cl   UNL d   1       0.220  -0.875  -0.335  0.00  0.00    -0.070 Cl
ATOM      8 Cl1  UNL d   1      -1.115   1.506   1.440  0.00  0.00    -0.070 Cl
ENDROOT
TORSDOF 0
ENDMDL
