MODEL 1
REMARK minimizedAffinity -4.34022188
REMARK minimizedRMSD -1
REMARK  0 active torsions:
REMARK  status: ('A' for Active; 'I' for Inactive)
ROOT
ATOM      1  C   UNL d   1       2.067   1.811   0.563  0.00  0.00     0.020 A 
ATOM      2  C1  UNL d   1       1.235   2.431   1.494  0.00  0.00     0.020 A 
ATOM      3  C2  UNL d   1      -0.034   1.909   1.753  0.00  0.00     0.034 A 
ATOM      4  C3  UNL d   1      -0.475   0.764   1.081  0.00  0.00     0.017 A 
ATOM      5  C4  UNL d   1       0.362   0.141   0.147  0.00  0.00     0.017 A 
ATOM      6  C5  UNL d   1       1.631   0.668  -0.109  0.00  0.00     0.034 A 
ATOM      7 Cl   UNL d   1      -0.112  -1.276  -0.722  0.00  0.00    -0.070 Cl
ATOM      8 Cl1  UNL d   1      -2.056   0.173   1.450  0.00  0.00    -0.070 Cl
ENDROOT
TORSDOF 0
ENDMDL
