MODEL 1
REMARK minimizedAffinity -3.40187263
REMARK minimizedRMSD -1
REMARK  0 active torsions:
REMARK  status: ('A' for Active; 'I' for Inactive)
ROOT
ATOM      1  C   UNL d   1      -0.018  -0.833  -0.370  0.00  0.00     0.020 A 
ATOM      2  C1  UNL d   1      -0.853  -0.032   0.409  0.00  0.00     0.020 A 
ATOM      3  C2  UNL d   1      -0.380   1.177   0.922  0.00  0.00     0.034 A 
ATOM      4  C3  UNL d   1       0.931   1.590   0.658  0.00  0.00     0.017 A 
ATOM      5  C4  UNL d   1       1.768   0.785  -0.123  0.00  0.00     0.017 A 
ATOM      6  C5  UNL d   1       1.290  -0.425  -0.635  0.00  0.00     0.034 A 
ATOM      7 Cl   UNL d   1       3.398   1.228  -0.492  0.00  0.00    -0.070 Cl
ATOM      8 Cl1  UNL d   1       1.449   3.097   1.325  0.00  0.00    -0.070 Cl
ENDROOT
TORSDOF 0
ENDMDL
