MODEL 1
REMARK minimizedAffinity 0.456427962
REMARK minimizedRMSD -1
REMARK  0 active torsions:
REMARK  status: ('A' for Active; 'I' for Inactive)
ROOT
ATOM      1  C   UNL d   1       0.348   2.176   2.404  0.00  0.00     0.020 A 
ATOM      2  C1  UNL d   1       1.708   2.483   2.421  0.00  0.00     0.020 A 
ATOM      3  C2  UNL d   1       2.564   1.916   1.474  0.00  0.00     0.034 A 
ATOM      4  C3  UNL d   1       2.061   1.039   0.506  0.00  0.00     0.017 A 
ATOM      5  C4  UNL d   1       0.695   0.731   0.490  0.00  0.00     0.017 A 
ATOM      6  C5  UNL d   1      -0.157   1.302   1.440  0.00  0.00     0.034 A 
ATOM      7 Cl   UNL d   1       0.001  -0.342  -0.673  0.00  0.00    -0.070 Cl
ATOM      8 Cl1  UNL d   1       3.176   0.374  -0.634  0.00  0.00    -0.070 Cl
ENDROOT
TORSDOF 0
ENDMDL
