MODEL 1
REMARK minimizedAffinity -5.03527308
REMARK minimizedRMSD -1
REMARK  0 active torsions:
REMARK  status: ('A' for Active; 'I' for Inactive)
ROOT
ATOM      1  C   UNL d   1       0.228   2.498   1.430  0.00  0.00     0.020 A 
ATOM      2  C1  UNL d   1      -0.792   1.556   1.302  0.00  0.00     0.020 A 
ATOM      3  C2  UNL d   1      -0.553   0.355   0.630  0.00  0.00     0.034 A 
ATOM      4  C3  UNL d   1       0.708   0.094   0.083  0.00  0.00     0.017 A 
ATOM      5  C4  UNL d   1       1.731   1.040   0.212  0.00  0.00     0.017 A 
ATOM      6  C5  UNL d   1       1.487   2.240   0.886  0.00  0.00     0.034 A 
ATOM      7 Cl   UNL d   1       3.314   0.788  -0.437  0.00  0.00    -0.070 Cl
ATOM      8 Cl1  UNL d   1       0.932  -1.412  -0.734  0.00  0.00    -0.070 Cl
ENDROOT
TORSDOF 0
ENDMDL
