MODEL 1
REMARK minimizedAffinity -1.98782396
REMARK minimizedRMSD -1
REMARK  0 active torsions:
REMARK  status: ('A' for Active; 'I' for Inactive)
ROOT
ATOM      1  C   UNL d   1       1.778   1.217   0.494  0.00  0.00    -0.002 A 
ATOM      2  C1  UNL d   1       1.151  -0.016   0.380  0.00  0.00     0.010 A 
ATOM      3  C2  UNL d   1       1.482  -0.887  -0.660  0.00  0.00     0.041 A 
ATOM      4  C3  UNL d   1       2.465  -0.496  -1.590  0.00  0.00    -0.075 A 
ATOM      5  S   UNL d   1       3.033  -1.400  -2.944  0.00  0.00     0.015 SA
ATOM      6  C4  UNL d   1       4.122  -0.171  -3.402  0.00  0.00     0.022 A 
ATOM      7  C5  UNL d   1       4.066   0.909  -2.554  0.00  0.00     0.026 A 
ATOM      8  C6  UNL d   1       3.111   0.740  -1.496  0.00  0.00    -0.082 A 
ATOM      9  C7  UNL d   1       2.752   1.602  -0.431  0.00  0.00     0.045 A 
ENDROOT
TORSDOF 0
ENDMDL
