MODEL 1
REMARK minimizedAffinity 11.273345
REMARK minimizedRMSD -1
REMARK  0 active torsions:
REMARK  status: ('A' for Active; 'I' for Inactive)
ROOT
ATOM      1  C   UNL d   1       0.589  -1.226  -1.423  0.00  0.00    -0.002 A 
ATOM      2  C1  UNL d   1      -0.670  -1.798  -1.545  0.00  0.00     0.010 A 
ATOM      3  C2  UNL d   1      -1.370  -2.221  -0.414  0.00  0.00     0.041 A 
ATOM      4  C3  UNL d   1      -0.780  -2.057   0.855  0.00  0.00    -0.075 A 
ATOM      5  S   UNL d   1      -1.451  -2.500   2.379  0.00  0.00     0.015 SA
ATOM      6  C4  UNL d   1      -0.084  -1.940   3.229  0.00  0.00     0.022 A 
ATOM      7  C5  UNL d   1       0.871  -1.424   2.385  0.00  0.00     0.026 A 
ATOM      8  C6  UNL d   1       0.486  -1.483   1.003  0.00  0.00    -0.082 A 
ATOM      9  C7  UNL d   1       1.171  -1.065  -0.163  0.00  0.00     0.045 A 
ENDROOT
TORSDOF 0
ENDMDL
