MODEL 1
REMARK minimizedAffinity 1.72150087
REMARK minimizedRMSD -1
REMARK  0 active torsions:
REMARK  status: ('A' for Active; 'I' for Inactive)
ROOT
ATOM      1  C   UNL d   1       2.193  -0.533  -0.040  0.00  0.00    -0.002 A 
ATOM      2  C1  UNL d   1       1.481   0.646  -0.207  0.00  0.00     0.010 A 
ATOM      3  C2  UNL d   1       2.149   1.859  -0.387  0.00  0.00     0.041 A 
ATOM      4  C3  UNL d   1       3.557   1.867  -0.399  0.00  0.00    -0.075 A 
ATOM      5  S   UNL d   1       4.588   3.234  -0.605  0.00  0.00     0.015 SA
ATOM      6  C4  UNL d   1       5.997   2.284  -0.477  0.00  0.00     0.022 A 
ATOM      7  C5  UNL d   1       5.708   0.954  -0.281  0.00  0.00     0.026 A 
ATOM      8  C6  UNL d   1       4.297   0.692  -0.234  0.00  0.00    -0.082 A 
ATOM      9  C7  UNL d   1       3.591  -0.522  -0.052  0.00  0.00     0.045 A 
ENDROOT
TORSDOF 0
ENDMDL
