MODEL 1
REMARK minimizedAffinity 20.1945305
REMARK minimizedRMSD -1
REMARK  2 active torsions:
REMARK  status: ('A' for Active; 'I' for Inactive)
REMARK    1  A    between atoms: C2'_3  and  C1'_4 
REMARK    2  A    between atoms: C1'_4  and  C1_5 
ROOT
ATOM      1  C1  I4B d   1       0.454  -0.004   4.896  0.00  0.00    -0.075 A 
ATOM      2  C2  I4B d   1      -0.406  -0.864   4.260  0.00  0.00     0.003 A 
ATOM      3  C3  I4B d   1      -0.327  -2.257   4.499  0.00  0.00     0.002 A 
ATOM      4  C4  I4B d   1       0.653  -2.748   5.337  0.00  0.00    -0.004 A 
ATOM      5  C5  I4B d   1       1.509  -1.873   5.999  0.00  0.00     0.002 A 
ATOM      6  C6  I4B d   1       1.402  -0.491   5.787  0.00  0.00     0.003 A 
ENDROOT
BRANCH   1   7
ATOM      7  C1' I4B d   1       0.364   1.459   4.595  0.00  0.00     0.060 C 
BRANCH   7   8
ATOM      8  C2' I4B d   1       1.194   1.732   3.358  0.00  0.00    -0.013 C 
ATOM      9  C4' I4B d   1       0.386   1.527   2.103  0.00  0.00     0.013 C 
ATOM     10  C3' I4B d   1       1.708   3.138   3.447  0.00  0.00     0.013 C 
ENDBRANCH   7   8
ENDBRANCH   1   7
TORSDOF 2
ENDMDL
