MODEL 1
REMARK minimizedAffinity 17.4649467
REMARK minimizedRMSD -1
REMARK  2 active torsions:
REMARK  status: ('A' for Active; 'I' for Inactive)
REMARK    1  A    between atoms: C2'_3  and  C1'_4 
REMARK    2  A    between atoms: C1'_4  and  C1_5 
ROOT
ATOM      1  C1  I4B d   1      -3.743  -0.264  -1.186  0.00  0.00    -0.075 A 
ATOM      2  C2  I4B d   1      -4.774  -0.746  -1.954  0.00  0.00     0.003 A 
ATOM      3  C3  I4B d   1      -5.898  -1.349  -1.340  0.00  0.00     0.002 A 
ATOM      4  C4  I4B d   1      -5.927  -1.494   0.032  0.00  0.00    -0.004 A 
ATOM      5  C5  I4B d   1      -4.892  -0.984   0.810  0.00  0.00     0.002 A 
ATOM      6  C6  I4B d   1      -3.798  -0.354   0.198  0.00  0.00     0.003 A 
ENDROOT
BRANCH   1   7
ATOM      7  C1' I4B d   1      -2.556   0.337  -1.870  0.00  0.00     0.060 C 
BRANCH   7   8
ATOM      8  C2' I4B d   1      -1.349  -0.521  -1.549  0.00  0.00    -0.013 C 
ATOM      9  C4' I4B d   1      -1.161  -1.604  -2.578  0.00  0.00     0.013 C 
ATOM     10  C3' I4B d   1      -0.148   0.375  -1.482  0.00  0.00     0.013 C 
ENDBRANCH   7   8
ENDBRANCH   1   7
TORSDOF 2
ENDMDL
