MODEL 1
REMARK minimizedAffinity 19.8072853
REMARK minimizedRMSD -1
REMARK  2 active torsions:
REMARK  status: ('A' for Active; 'I' for Inactive)
REMARK    1  A    between atoms: C2'_3  and  C1'_4 
REMARK    2  A    between atoms: C1'_4  and  C1_5 
ROOT
ATOM      1  C1  I4B d   1      -4.841   2.199  -2.476  0.00  0.00    -0.075 A 
ATOM      2  C2  I4B d   1      -4.734   3.326  -1.700  0.00  0.00     0.003 A 
ATOM      3  C3  I4B d   1      -5.224   4.567  -2.174  0.00  0.00     0.002 A 
ATOM      4  C4  I4B d   1      -5.764   4.645  -3.442  0.00  0.00    -0.004 A 
ATOM      5  C5  I4B d   1      -5.892   3.497  -4.218  0.00  0.00     0.002 A 
ATOM      6  C6  I4B d   1      -5.440   2.263  -3.728  0.00  0.00     0.003 A 
ENDROOT
BRANCH   1   7
ATOM      7  C1' I4B d   1      -4.283   0.911  -1.958  0.00  0.00     0.060 C 
BRANCH   7   8
ATOM      8  C2' I4B d   1      -5.155   0.455  -0.805  0.00  0.00    -0.013 C 
ATOM      9  C4' I4B d   1      -5.996  -0.732  -1.194  0.00  0.00     0.013 C 
ATOM     10  C3' I4B d   1      -4.259   0.129   0.352  0.00  0.00     0.013 C 
ENDBRANCH   7   8
ENDBRANCH   1   7
TORSDOF 2
ENDMDL
