MODEL 1
REMARK minimizedAffinity -0.177954942
REMARK minimizedRMSD -1
REMARK  0 active torsions:
REMARK  status: ('A' for Active; 'I' for Inactive)
ROOT
ATOM      1  C   UNL d   1      -1.899   0.106  -2.333  0.00  0.00    -0.002 A 
ATOM      2  C1  UNL d   1      -2.105  -1.013  -1.538  0.00  0.00     0.010 A 
ATOM      3  C2  UNL d   1      -1.250  -1.291  -0.470  0.00  0.00     0.041 A 
ATOM      4  C3  UNL d   1      -0.176  -0.418  -0.210  0.00  0.00    -0.075 A 
ATOM      5  S   UNL d   1       0.998  -0.558   1.045  0.00  0.00     0.015 SA
ATOM      6  C4  UNL d   1       1.800   0.864   0.555  0.00  0.00     0.022 A 
ATOM      7  C5  UNL d   1       1.200   1.445  -0.537  0.00  0.00     0.026 A 
ATOM      8  C6  UNL d   1       0.051   0.716  -0.996  0.00  0.00    -0.082 A 
ATOM      9  C7  UNL d   1      -0.832   0.970  -2.073  0.00  0.00     0.045 A 
ENDROOT
TORSDOF 0
ENDMDL
