MODEL 1
REMARK minimizedAffinity 0.273941815
REMARK minimizedRMSD -1
REMARK  0 active torsions:
REMARK  status: ('A' for Active; 'I' for Inactive)
ROOT
ATOM      1  C   UNL d   1      -1.913   0.592  -1.745  0.00  0.00    -0.002 A 
ATOM      2  C1  UNL d   1      -1.884  -0.691  -1.217  0.00  0.00     0.010 A 
ATOM      3  C2  UNL d   1      -0.812  -1.108  -0.425  0.00  0.00     0.041 A 
ATOM      4  C3  UNL d   1       0.239  -0.205  -0.169  0.00  0.00    -0.075 A 
ATOM      5  S   UNL d   1       1.653  -0.496   0.774  0.00  0.00     0.015 SA
ATOM      6  C4  UNL d   1       2.250   1.076   0.498  0.00  0.00     0.022 A 
ATOM      7  C5  UNL d   1       1.405   1.818  -0.292  0.00  0.00     0.026 A 
ATOM      8  C6  UNL d   1       0.231   1.092  -0.689  0.00  0.00    -0.082 A 
ATOM      9  C7  UNL d   1      -0.869   1.485  -1.489  0.00  0.00     0.045 A 
ENDROOT
TORSDOF 0
ENDMDL
