MODEL 1
REMARK minimizedAffinity -2.03905439
REMARK minimizedRMSD -1
REMARK  0 active torsions:
REMARK  status: ('A' for Active; 'I' for Inactive)
ROOT
ATOM      1  C   UNL d   1      -3.072  -1.725   0.292  0.00  0.00    -0.002 A 
ATOM      2  C1  UNL d   1      -2.419  -2.677   1.063  0.00  0.00     0.010 A 
ATOM      3  C2  UNL d   1      -1.060  -2.545   1.352  0.00  0.00     0.041 A 
ATOM      4  C3  UNL d   1      -0.361  -1.429   0.851  0.00  0.00    -0.075 A 
ATOM      5  S   UNL d   1       1.307  -1.059   1.079  0.00  0.00     0.015 SA
ATOM      6  C4  UNL d   1       1.192   0.372   0.159  0.00  0.00     0.022 A 
ATOM      7  C5  UNL d   1      -0.081   0.577  -0.318  0.00  0.00     0.026 A 
ATOM      8  C6  UNL d   1      -0.997  -0.457   0.073  0.00  0.00    -0.082 A 
ATOM      9  C7  UNL d   1      -2.376  -0.620  -0.204  0.00  0.00     0.045 A 
ENDROOT
TORSDOF 0
ENDMDL
