MODEL 1
REMARK minimizedAffinity -2.18133569
REMARK minimizedRMSD -1
REMARK  0 active torsions:
REMARK  status: ('A' for Active; 'I' for Inactive)
ROOT
ATOM      1  C   UNL d   1      -2.578  -3.295   0.273  0.00  0.00    -0.002 A 
ATOM      2  C1  UNL d   1      -1.471  -3.368   1.108  0.00  0.00     0.010 A 
ATOM      3  C2  UNL d   1      -0.490  -2.375   1.074  0.00  0.00     0.041 A 
ATOM      4  C3  UNL d   1      -0.642  -1.297   0.180  0.00  0.00    -0.075 A 
ATOM      5  S   UNL d   1       0.432   0.035  -0.035  0.00  0.00     0.015 SA
ATOM      6  C4  UNL d   1      -0.553   0.731  -1.239  0.00  0.00     0.022 A 
ATOM      7  C5  UNL d   1      -1.678  -0.020  -1.483  0.00  0.00     0.026 A 
ATOM      8  C6  UNL d   1      -1.748  -1.202  -0.670  0.00  0.00    -0.082 A 
ATOM      9  C7  UNL d   1      -2.725  -2.224  -0.612  0.00  0.00     0.045 A 
ENDROOT
TORSDOF 0
ENDMDL
