MODEL 1
REMARK minimizedAffinity -1.91351986
REMARK minimizedRMSD -1
REMARK  0 active torsions:
REMARK  status: ('A' for Active; 'I' for Inactive)
ROOT
ATOM      1  C   UNL d   1      -2.260  -3.378   0.420  0.00  0.00    -0.002 A 
ATOM      2  C1  UNL d   1      -1.186  -3.141   1.266  0.00  0.00     0.010 A 
ATOM      3  C2  UNL d   1      -0.417  -1.984   1.132  0.00  0.00     0.041 A 
ATOM      4  C3  UNL d   1      -0.750  -1.058   0.124  0.00  0.00    -0.075 A 
ATOM      5  S   UNL d   1       0.048   0.430  -0.226  0.00  0.00     0.015 SA
ATOM      6  C4  UNL d   1      -1.018   0.787  -1.507  0.00  0.00     0.022 A 
ATOM      7  C5  UNL d   1      -1.966  -0.194  -1.678  0.00  0.00     0.026 A 
ATOM      8  C6  UNL d   1      -1.828  -1.273  -0.740  0.00  0.00    -0.082 A 
ATOM      9  C7  UNL d   1      -2.588  -2.457  -0.579  0.00  0.00     0.045 A 
ENDROOT
TORSDOF 0
ENDMDL
