MODEL 1
REMARK minimizedAffinity -1.14330602
REMARK minimizedRMSD -1
REMARK  0 active torsions:
REMARK  status: ('A' for Active; 'I' for Inactive)
ROOT
ATOM      1  C   UNL d   1      -0.718   0.235  -0.115  0.00  0.00    -0.002 A 
ATOM      2  C1  UNL d   1       0.309  -0.687   0.032  0.00  0.00     0.010 A 
ATOM      3  C2  UNL d   1       1.518  -0.314   0.624  0.00  0.00     0.041 A 
ATOM      4  C3  UNL d   1       1.678   1.012   1.071  0.00  0.00    -0.075 A 
ATOM      5  S   UNL d   1       3.070   1.693   1.826  0.00  0.00     0.015 SA
ATOM      6  C4  UNL d   1       2.334   3.224   1.971  0.00  0.00     0.022 A 
ATOM      7  C5  UNL d   1       1.057   3.232   1.461  0.00  0.00     0.026 A 
ATOM      8  C6  UNL d   1       0.658   1.958   0.934  0.00  0.00    -0.082 A 
ATOM      9  C7  UNL d   1      -0.556   1.550   0.330  0.00  0.00     0.045 A 
ENDROOT
TORSDOF 0
ENDMDL
