MODEL 1
REMARK minimizedAffinity -1.70635974
REMARK minimizedRMSD -1
REMARK  0 active torsions:
REMARK  status: ('A' for Active; 'I' for Inactive)
ROOT
ATOM      1  C   UNL d   1      -2.194  -0.168   1.312  0.00  0.00    -0.002 A 
ATOM      2  C1  UNL d   1      -1.612  -1.399   1.579  0.00  0.00     0.010 A 
ATOM      3  C2  UNL d   1      -0.244  -1.596   1.383  0.00  0.00     0.041 A 
ATOM      4  C3  UNL d   1       0.538  -0.523   0.912  0.00  0.00    -0.075 A 
ATOM      5  S   UNL d   1       2.234  -0.531   0.599  0.00  0.00     0.015 SA
ATOM      6  C4  UNL d   1       2.226   1.100   0.105  0.00  0.00     0.022 A 
ATOM      7  C5  UNL d   1       0.969   1.653   0.170  0.00  0.00     0.026 A 
ATOM      8  C6  UNL d   1      -0.024   0.727   0.637  0.00  0.00    -0.082 A 
ATOM      9  C7  UNL d   1      -1.415   0.894   0.845  0.00  0.00     0.045 A 
ENDROOT
TORSDOF 0
ENDMDL
