MODEL 1
REMARK minimizedAffinity -4.63445044
REMARK minimizedRMSD -1
REMARK  0 active torsions:
REMARK  status: ('A' for Active; 'I' for Inactive)
ROOT
ATOM      1  C   UNL d   1       1.900   3.396   1.695  0.00  0.00    -0.002 A 
ATOM      2  C1  UNL d   1       2.948   2.598   1.259  0.00  0.00     0.010 A 
ATOM      3  C2  UNL d   1       2.697   1.391   0.604  0.00  0.00     0.041 A 
ATOM      4  C3  UNL d   1       1.362   0.996   0.390  0.00  0.00    -0.075 A 
ATOM      5  S   UNL d   1       0.815  -0.440  -0.391  0.00  0.00     0.015 SA
ATOM      6  C4  UNL d   1      -0.823  -0.028  -0.166  0.00  0.00     0.022 A 
ATOM      7  C5  UNL d   1      -0.968   1.173   0.488  0.00  0.00     0.026 A 
ATOM      8  C6  UNL d   1       0.289   1.783   0.818  0.00  0.00    -0.082 A 
ATOM      9  C7  UNL d   1       0.576   3.001   1.481  0.00  0.00     0.045 A 
ENDROOT
TORSDOF 0
ENDMDL
