MODEL 1
REMARK minimizedAffinity -3.95664334
REMARK minimizedRMSD -1
REMARK  0 active torsions:
REMARK  status: ('A' for Active; 'I' for Inactive)
ROOT
ATOM      1  C   UNL d   1      -3.191  -0.553  -0.238  0.00  0.00    -0.002 A 
ATOM      2  C1  UNL d   1      -3.053   0.109   0.974  0.00  0.00     0.010 A 
ATOM      3  C2  UNL d   1      -1.802   0.565   1.395  0.00  0.00     0.041 A 
ATOM      4  C3  UNL d   1      -0.683   0.346   0.568  0.00  0.00    -0.075 A 
ATOM      5  S   UNL d   1       0.946   0.817   0.878  0.00  0.00     0.015 SA
ATOM      6  C4  UNL d   1       1.497   0.153  -0.592  0.00  0.00     0.022 A 
ATOM      7  C5  UNL d   1       0.476  -0.419  -1.314  0.00  0.00     0.026 A 
ATOM      8  C6  UNL d   1      -0.797  -0.317  -0.657  0.00  0.00    -0.082 A 
ATOM      9  C7  UNL d   1      -2.078  -0.768  -1.055  0.00  0.00     0.045 A 
ENDROOT
TORSDOF 0
ENDMDL
