MODEL 1
REMARK minimizedAffinity 0.0248836987
REMARK minimizedRMSD -1
REMARK  3 active torsions:
REMARK  status: ('A' for Active; 'I' for Inactive)
REMARK    1  A    between atoms: C3'_2  and  C2'_3 
REMARK    2  A    between atoms: C2'_3  and  C1'_4 
REMARK    3  A    between atoms: C1'_4  and  C1_5 
ROOT
ATOM      1  C1  N4B d   1       1.043   0.584   0.504  0.00  0.00    -0.075 A 
ATOM      2  C2  N4B d   1       1.088   1.791   1.236  0.00  0.00     0.002 A 
ATOM      3  C3  N4B d   1       2.161   2.637   1.100  0.00  0.00     0.002 A 
ATOM      4  C4  N4B d   1       3.205   2.291   0.256  0.00  0.00    -0.004 A 
ATOM      5  C5  N4B d   1       3.142   1.136  -0.468  0.00  0.00     0.002 A 
ATOM      6  C6  N4B d   1       2.068   0.278  -0.344  0.00  0.00     0.002 A 
ENDROOT
BRANCH   1   7
ATOM      7  C1' N4B d   1      -0.068  -0.413   0.684  0.00  0.00     0.057 C 
BRANCH   7   8
ATOM      8  C2' N4B d   1      -1.372   0.332   0.951  0.00  0.00     0.009 C 
BRANCH   8   9
ATOM      9  C3' N4B d   1      -1.966  -0.029   2.302  0.00  0.00     0.004 C 
ATOM     10  C4' N4B d   1      -0.996  -0.750   3.189  0.00  0.00     0.003 C 
ENDBRANCH   8   9
ENDBRANCH   7   8
ENDBRANCH   1   7
TORSDOF 3
ENDMDL
