MODEL 1
REMARK minimizedAffinity 3.65940237
REMARK minimizedRMSD -1
REMARK  3 active torsions:
REMARK  status: ('A' for Active; 'I' for Inactive)
REMARK    1  A    between atoms: C3'_2  and  C2'_3 
REMARK    2  A    between atoms: C2'_3  and  C1'_4 
REMARK    3  A    between atoms: C1'_4  and  C1_5 
ROOT
ATOM      1  C1  N4B d   1      -1.510  -0.003   1.250  0.00  0.00    -0.075 A 
ATOM      2  C2  N4B d   1      -2.311  -0.329   2.366  0.00  0.00     0.002 A 
ATOM      3  C3  N4B d   1      -1.727  -0.798   3.517  0.00  0.00     0.002 A 
ATOM      4  C4  N4B d   1      -0.352  -0.967   3.569  0.00  0.00    -0.004 A 
ATOM      5  C5  N4B d   1       0.418  -0.626   2.495  0.00  0.00     0.002 A 
ATOM      6  C6  N4B d   1      -0.155  -0.150   1.333  0.00  0.00     0.002 A 
ENDROOT
BRANCH   1   7
ATOM      7  C1' N4B d   1      -2.110   0.432  -0.059  0.00  0.00     0.057 C 
BRANCH   7   8
ATOM      8  C2' N4B d   1      -3.423  -0.314  -0.281  0.00  0.00     0.009 C 
BRANCH   8   9
ATOM      9  C3' N4B d   1      -3.200  -1.682  -0.903  0.00  0.00     0.004 C 
ATOM     10  C4' N4B d   1      -4.476  -2.448  -1.093  0.00  0.00     0.003 C 
ENDBRANCH   8   9
ENDBRANCH   7   8
ENDBRANCH   1   7
TORSDOF 3
ENDMDL
