MODEL 1
REMARK minimizedAffinity -1.2576834
REMARK minimizedRMSD -1
REMARK  3 active torsions:
REMARK  status: ('A' for Active; 'I' for Inactive)
REMARK    1  A    between atoms: C3'_2  and  C2'_3 
REMARK    2  A    between atoms: C2'_3  and  C1'_4 
REMARK    3  A    between atoms: C1'_4  and  C1_5 
ROOT
ATOM      1  C1  N4B d   1       3.539   1.564  -0.059  0.00  0.00    -0.075 A 
ATOM      2  C2  N4B d   1       3.768   0.266  -0.565  0.00  0.00     0.002 A 
ATOM      3  C3  N4B d   1       4.207   0.100  -1.856  0.00  0.00     0.002 A 
ATOM      4  C4  N4B d   1       4.404   1.212  -2.662  0.00  0.00    -0.004 A 
ATOM      5  C5  N4B d   1       4.204   2.464  -2.157  0.00  0.00     0.002 A 
ATOM      6  C6  N4B d   1       3.768   2.645  -0.860  0.00  0.00     0.002 A 
ENDROOT
BRANCH   1   7
ATOM      7  C1' N4B d   1       2.978   1.792   1.318  0.00  0.00     0.057 C 
BRANCH   7   8
ATOM      8  C2' N4B d   1       1.454   1.823   1.239  0.00  0.00     0.009 C 
BRANCH   8   9
ATOM      9  C3' N4B d   1       0.882   0.494   0.777  0.00  0.00     0.004 C 
ATOM     10  C4' N4B d   1      -0.544   0.299   1.197  0.00  0.00     0.003 C 
ENDBRANCH   8   9
ENDBRANCH   7   8
ENDBRANCH   1   7
TORSDOF 3
ENDMDL
