MODEL 1
REMARK minimizedAffinity 10.5039778
REMARK minimizedRMSD -1
REMARK  3 active torsions:
REMARK  status: ('A' for Active; 'I' for Inactive)
REMARK    1  A    between atoms: C3'_2  and  C2'_3 
REMARK    2  A    between atoms: C2'_3  and  C1'_4 
REMARK    3  A    between atoms: C1'_4  and  C1_5 
ROOT
ATOM      1  C1  N4B d   1      -0.122   1.978   1.327  0.00  0.00    -0.075 A 
ATOM      2  C2  N4B d   1       0.372   0.664   1.173  0.00  0.00     0.002 A 
ATOM      3  C3  N4B d   1      -0.482  -0.354   0.825  0.00  0.00     0.002 A 
ATOM      4  C4  N4B d   1      -1.831  -0.086   0.646  0.00  0.00    -0.004 A 
ATOM      5  C5  N4B d   1      -2.295   1.190   0.773  0.00  0.00     0.002 A 
ATOM      6  C6  N4B d   1      -1.448   2.224   1.118  0.00  0.00     0.002 A 
ENDROOT
BRANCH   1   7
ATOM      7  C1' N4B d   1       0.758   3.108   1.790  0.00  0.00     0.057 C 
BRANCH   7   8
ATOM      8  C2' N4B d   1       2.204   2.625   1.848  0.00  0.00     0.009 C 
BRANCH   8   9
ATOM      9  C3' N4B d   1       3.168   3.756   2.160  0.00  0.00     0.004 C 
ATOM     10  C4' N4B d   1       3.934   3.534   3.430  0.00  0.00     0.003 C 
ENDBRANCH   8   9
ENDBRANCH   7   8
ENDBRANCH   1   7
TORSDOF 3
ENDMDL
