MODEL 1
REMARK minimizedAffinity 6.62798452
REMARK minimizedRMSD -1
REMARK  0 active torsions:
REMARK  status: ('A' for Active; 'I' for Inactive)
ROOT
ATOM      1  C1  BNZ d   1       3.286  -1.590   1.168  0.00  0.00     0.000 A 
ATOM      2  C2  BNZ d   1       2.677  -2.714   0.676  0.00  0.00     0.000 A 
ATOM      3  C3  BNZ d   1       2.260  -2.772  -0.624  0.00  0.00     0.000 A 
ATOM      4  C4  BNZ d   1       2.417  -1.694  -1.419  0.00  0.00     0.000 A 
ATOM      5  C5  BNZ d   1       3.020  -0.550  -0.935  0.00  0.00     0.000 A 
ATOM      6  C6  BNZ d   1       3.473  -0.509   0.364  0.00  0.00     0.000 A 
ENDROOT
TORSDOF 0
ENDMDL
