MODEL 1
REMARK minimizedAffinity -0.17709291
REMARK minimizedRMSD -1
REMARK  0 active torsions:
REMARK  status: ('A' for Active; 'I' for Inactive)
ROOT
ATOM      1  C1  BNZ d   1       0.155  -2.435  -1.454  0.00  0.00     0.000 A 
ATOM      2  C2  BNZ d   1      -0.790  -1.447  -1.381  0.00  0.00     0.000 A 
ATOM      3  C3  BNZ d   1      -0.468  -0.204  -0.912  0.00  0.00     0.000 A 
ATOM      4  C4  BNZ d   1       0.787   0.037  -0.479  0.00  0.00     0.000 A 
ATOM      5  C5  BNZ d   1       1.748  -0.952  -0.538  0.00  0.00     0.000 A 
ATOM      6  C6  BNZ d   1       1.430  -2.191  -1.046  0.00  0.00     0.000 A 
ENDROOT
TORSDOF 0
ENDMDL
