MODEL 1
REMARK minimizedAffinity 0.776778996
REMARK minimizedRMSD -1
REMARK  0 active torsions:
REMARK  status: ('A' for Active; 'I' for Inactive)
ROOT
ATOM      1  C1  BNZ d   1       2.223  -2.246  -0.087  0.00  0.00     0.000 A 
ATOM      2  C2  BNZ d   1       2.034  -0.899  -0.245  0.00  0.00     0.000 A 
ATOM      3  C3  BNZ d   1       0.834  -0.406  -0.675  0.00  0.00     0.000 A 
ATOM      4  C4  BNZ d   1      -0.161  -1.261  -0.985  0.00  0.00     0.000 A 
ATOM      5  C5  BNZ d   1       0.016  -2.623  -0.840  0.00  0.00     0.000 A 
ATOM      6  C6  BNZ d   1       1.213  -3.113  -0.370  0.00  0.00     0.000 A 
ENDROOT
TORSDOF 0
ENDMDL
