MODEL 1
REMARK minimizedAffinity 2.27668357
REMARK minimizedRMSD -1
REMARK  0 active torsions:
REMARK  status: ('A' for Active; 'I' for Inactive)
ROOT
ATOM      1  C1  BNZ d   1      -1.123  -2.624  -1.406  0.00  0.00     0.000 A 
ATOM      2  C2  BNZ d   1       0.050  -2.252  -2.005  0.00  0.00     0.000 A 
ATOM      3  C3  BNZ d   1       0.981  -1.516  -1.326  0.00  0.00     0.000 A 
ATOM      4  C4  BNZ d   1       0.720  -1.120  -0.064  0.00  0.00     0.000 A 
ATOM      5  C5  BNZ d   1      -0.463  -1.479   0.551  0.00  0.00     0.000 A 
ATOM      6  C6  BNZ d   1      -1.380  -2.252  -0.122  0.00  0.00     0.000 A 
ENDROOT
TORSDOF 0
ENDMDL
