MODEL 1
REMARK minimizedAffinity -2.81375074
REMARK minimizedRMSD -1
REMARK  0 active torsions:
REMARK  status: ('A' for Active; 'I' for Inactive)
ROOT
ATOM      1  C1  BNZ d   1       2.941  -0.794  -0.421  0.00  0.00     0.000 A 
ATOM      2  C2  BNZ d   1       2.459   0.480  -0.277  0.00  0.00     0.000 A 
ATOM      3  C3  BNZ d   1       1.116   0.713  -0.183  0.00  0.00     0.000 A 
ATOM      4  C4  BNZ d   1       0.255  -0.322  -0.273  0.00  0.00     0.000 A 
ATOM      5  C5  BNZ d   1       0.725  -1.611  -0.427  0.00  0.00     0.000 A 
ATOM      6  C6  BNZ d   1       2.080  -1.846  -0.483  0.00  0.00     0.000 A 
ENDROOT
TORSDOF 0
ENDMDL
