MODEL 1
REMARK minimizedAffinity 2.005193
REMARK minimizedRMSD -1
REMARK  0 active torsions:
REMARK  status: ('A' for Active; 'I' for Inactive)
ROOT
ATOM      1  C1  BNZ d   1       4.560   3.200  -0.276  0.00  0.00     0.000 A 
ATOM      2  C2  BNZ d   1       3.494   2.344  -0.196  0.00  0.00     0.000 A 
ATOM      3  C3  BNZ d   1       3.472   1.184  -0.920  0.00  0.00     0.000 A 
ATOM      4  C4  BNZ d   1       4.496   0.902  -1.751  0.00  0.00     0.000 A 
ATOM      5  C5  BNZ d   1       5.573   1.760  -1.850  0.00  0.00     0.000 A 
ATOM      6  C6  BNZ d   1       5.610   2.907  -1.091  0.00  0.00     0.000 A 
ENDROOT
TORSDOF 0
ENDMDL
