MODEL 1
REMARK minimizedAffinity -4.68561792
REMARK minimizedRMSD -1
REMARK  0 active torsions:
REMARK  status: ('A' for Active; 'I' for Inactive)
ROOT
ATOM      1  C1  BNZ d   1       1.523   0.787   0.303  0.00  0.00     0.000 A 
ATOM      2  C2  BNZ d   1       1.239  -0.529   0.049  0.00  0.00     0.000 A 
ATOM      3  C3  BNZ d   1       2.239  -1.421  -0.220  0.00  0.00     0.000 A 
ATOM      4  C4  BNZ d   1       3.516  -0.990  -0.275  0.00  0.00     0.000 A 
ATOM      5  C5  BNZ d   1       3.817   0.335  -0.030  0.00  0.00     0.000 A 
ATOM      6  C6  BNZ d   1       2.812   1.223   0.279  0.00  0.00     0.000 A 
ENDROOT
TORSDOF 0
ENDMDL
