MODEL 1
REMARK minimizedAffinity 0.550681829
REMARK minimizedRMSD -1
REMARK  0 active torsions:
REMARK  status: ('A' for Active; 'I' for Inactive)
ROOT
ATOM      1  C1  BNZ d   1      -0.593  -0.696  -1.528  0.00  0.00     0.000 A 
ATOM      2  C2  BNZ d   1      -0.681   0.668  -1.461  0.00  0.00     0.000 A 
ATOM      3  C3  BNZ d   1       0.082   1.376  -0.575  0.00  0.00     0.000 A 
ATOM      4  C4  BNZ d   1       0.901   0.716   0.269  0.00  0.00     0.000 A 
ATOM      5  C5  BNZ d   1       0.994  -0.661   0.220  0.00  0.00     0.000 A 
ATOM      6  C6  BNZ d   1       0.253  -1.367  -0.700  0.00  0.00     0.000 A 
ENDROOT
TORSDOF 0
ENDMDL
