MODEL 1
REMARK minimizedAffinity -2.97526026
REMARK minimizedRMSD -1
REMARK  0 active torsions:
REMARK  status: ('A' for Active; 'I' for Inactive)
ROOT
ATOM      1  C1  BNZ d   1       1.940  -1.503  -0.272  0.00  0.00     0.000 A 
ATOM      2  C2  BNZ d   1       0.825  -2.149  -0.738  0.00  0.00     0.000 A 
ATOM      3  C3  BNZ d   1      -0.313  -1.454  -1.037  0.00  0.00     0.000 A 
ATOM      4  C4  BNZ d   1      -0.349  -0.121  -0.833  0.00  0.00     0.000 A 
ATOM      5  C5  BNZ d   1       0.763   0.543  -0.355  0.00  0.00     0.000 A 
ATOM      6  C6  BNZ d   1       1.920  -0.155  -0.092  0.00  0.00     0.000 A 
ENDROOT
TORSDOF 0
ENDMDL
