MODEL 1
REMARK minimizedAffinity -4.03086853
REMARK minimizedRMSD -1
REMARK  0 active torsions:
REMARK  status: ('A' for Active; 'I' for Inactive)
ROOT
ATOM      1  O1  BZF d   1      -1.473   0.218  -1.202  0.00  0.00    -0.204 OA
ATOM      2  C2  BZF d   1      -2.644  -0.506  -1.092  0.00  0.00     0.174 A 
ATOM      3  C3  BZF d   1      -2.474  -1.571  -0.282  0.00  0.00    -0.012 A 
ATOM      4  C3A BZF d   1      -1.136  -1.457   0.214  0.00  0.00    -0.107 A 
ATOM      5  C4  BZF d   1      -0.387  -2.207   1.075  0.00  0.00     0.055 A 
ATOM      6  C5  BZF d   1       0.910  -1.863   1.293  0.00  0.00    -0.016 A 
ATOM      7  C6  BZF d   1       1.490  -0.781   0.664  0.00  0.00     0.022 A 
ATOM      8  C7  BZF d   1       0.785  -0.004  -0.194  0.00  0.00     0.029 A 
ATOM      9  C7A BZF d   1      -0.535  -0.329  -0.391  0.00  0.00     0.058 A 
ENDROOT
TORSDOF 0
ENDMDL
