MODEL 1
REMARK minimizedAffinity -4.04726887
REMARK minimizedRMSD -1
REMARK  0 active torsions:
REMARK  status: ('A' for Active; 'I' for Inactive)
ROOT
ATOM      1  O1  BZF d   1       1.374   0.905  -0.632  0.00  0.00    -0.204 OA
ATOM      2  C2  BZF d   1       1.756   0.701   0.680  0.00  0.00     0.174 A 
ATOM      3  C3  BZF d   1       0.760   0.127   1.385  0.00  0.00    -0.012 A 
ATOM      4  C3A BZF d   1      -0.279  -0.122   0.433  0.00  0.00    -0.107 A 
ATOM      5  C4  BZF d   1      -1.518  -0.689   0.523  0.00  0.00     0.055 A 
ATOM      6  C5  BZF d   1      -2.314  -0.715  -0.578  0.00  0.00    -0.016 A 
ATOM      7  C6  BZF d   1      -1.906  -0.179  -1.782  0.00  0.00     0.022 A 
ATOM      8  C7  BZF d   1      -0.684   0.389  -1.921  0.00  0.00     0.029 A 
ATOM      9  C7A BZF d   1       0.136   0.387  -0.819  0.00  0.00     0.058 A 
ENDROOT
TORSDOF 0
ENDMDL
