MODEL 1
REMARK minimizedAffinity -3.48476529
REMARK minimizedRMSD -1
REMARK  0 active torsions:
REMARK  status: ('A' for Active; 'I' for Inactive)
ROOT
ATOM      1  O1  BZF d   1      -2.359  -0.360  -1.618  0.00  0.00    -0.204 OA
ATOM      2  C2  BZF d   1      -3.167  -0.855  -0.612  0.00  0.00     0.174 A 
ATOM      3  C3  BZF d   1      -2.466  -1.010   0.530  0.00  0.00    -0.012 A 
ATOM      4  C3A BZF d   1      -1.161  -0.499   0.244  0.00  0.00    -0.107 A 
ATOM      5  C4  BZF d   1      -0.022  -0.366   0.985  0.00  0.00     0.055 A 
ATOM      6  C5  BZF d   1       1.104   0.104   0.386  0.00  0.00    -0.016 A 
ATOM      7  C6  BZF d   1       1.128   0.444  -0.950  0.00  0.00     0.022 A 
ATOM      8  C7  BZF d   1       0.021   0.334  -1.725  0.00  0.00     0.029 A 
ATOM      9  C7A BZF d   1      -1.127  -0.109  -1.115  0.00  0.00     0.058 A 
ENDROOT
TORSDOF 0
ENDMDL
