MODEL 1
REMARK minimizedAffinity -3.59972119
REMARK minimizedRMSD -1
REMARK  0 active torsions:
REMARK  status: ('A' for Active; 'I' for Inactive)
ROOT
ATOM      1  O1  BZF d   1       0.462  -0.123  -1.317  0.00  0.00    -0.204 OA
ATOM      2  C2  BZF d   1       1.232   0.302  -0.252  0.00  0.00     0.174 A 
ATOM      3  C3  BZF d   1       0.490   0.383   0.872  0.00  0.00    -0.012 A 
ATOM      4  C3A BZF d   1      -0.803  -0.105   0.505  0.00  0.00    -0.107 A 
ATOM      5  C4  BZF d   1      -1.969  -0.286   1.193  0.00  0.00     0.055 A 
ATOM      6  C5  BZF d   1      -3.072  -0.712   0.524  0.00  0.00    -0.016 A 
ATOM      7  C6  BZF d   1      -3.047  -0.963  -0.832  0.00  0.00     0.022 A 
ATOM      8  C7  BZF d   1      -1.913  -0.804  -1.557  0.00  0.00     0.029 A 
ATOM      9  C7A BZF d   1      -0.788  -0.404  -0.877  0.00  0.00     0.058 A 
ENDROOT
TORSDOF 0
ENDMDL
