MODEL 1
REMARK minimizedAffinity -4.36734724
REMARK minimizedRMSD -1
REMARK  0 active torsions:
REMARK  status: ('A' for Active; 'I' for Inactive)
ROOT
ATOM      1  O1  BZF d   1      -2.803  -0.176  -1.515  0.00  0.00    -0.204 OA
ATOM      2  C2  BZF d   1      -3.620  -0.558  -0.468  0.00  0.00     0.174 A 
ATOM      3  C3  BZF d   1      -2.913  -0.670   0.675  0.00  0.00    -0.012 A 
ATOM      4  C3A BZF d   1      -1.588  -0.246   0.340  0.00  0.00    -0.107 A 
ATOM      5  C4  BZF d   1      -0.434  -0.119   1.059  0.00  0.00     0.055 A 
ATOM      6  C5  BZF d   1       0.706   0.250   0.417  0.00  0.00    -0.016 A 
ATOM      7  C6  BZF d   1       0.729   0.495  -0.940  0.00  0.00     0.022 A 
ATOM      8  C7  BZF d   1      -0.393   0.387  -1.694  0.00  0.00     0.029 A 
ATOM      9  C7A BZF d   1      -1.553   0.046  -1.043  0.00  0.00     0.058 A 
ENDROOT
TORSDOF 0
ENDMDL
