MODEL 1
REMARK minimizedAffinity -4.15593719
REMARK minimizedRMSD -1
REMARK  0 active torsions:
REMARK  status: ('A' for Active; 'I' for Inactive)
ROOT
ATOM      1  O1  BZF d   1      -0.422  -1.999   1.313  0.00  0.00    -0.204 OA
ATOM      2  C2  BZF d   1      -1.622  -2.667   1.171  0.00  0.00     0.174 A 
ATOM      3  C3  BZF d   1      -2.346  -2.142   0.161  0.00  0.00    -0.012 A 
ATOM      4  C3A BZF d   1      -1.508  -1.139  -0.420  0.00  0.00    -0.107 A 
ATOM      5  C4  BZF d   1      -1.662  -0.280  -1.471  0.00  0.00     0.055 A 
ATOM      6  C5  BZF d   1      -0.682   0.625  -1.733  0.00  0.00    -0.016 A 
ATOM      7  C6  BZF d   1       0.460   0.702  -0.964  0.00  0.00     0.022 A 
ATOM      8  C7  BZF d   1       0.660  -0.132   0.086  0.00  0.00     0.029 A 
ATOM      9  C7A BZF d   1      -0.313  -1.069   0.333  0.00  0.00     0.058 A 
ENDROOT
TORSDOF 0
ENDMDL
