MODEL 1
REMARK minimizedAffinity -4.30204964
REMARK minimizedRMSD -1
REMARK  0 active torsions:
REMARK  status: ('A' for Active; 'I' for Inactive)
ROOT
ATOM      1  O1  BZF d   1      -1.617   0.785  -0.537  0.00  0.00    -0.204 OA
ATOM      2  C2  BZF d   1      -2.827   0.204  -0.212  0.00  0.00     0.174 A 
ATOM      3  C3  BZF d   1      -2.648  -0.841   0.621  0.00  0.00    -0.012 A 
ATOM      4  C3A BZF d   1      -1.245  -0.862   0.902  0.00  0.00    -0.107 A 
ATOM      5  C4  BZF d   1      -0.455  -1.659   1.680  0.00  0.00     0.055 A 
ATOM      6  C5  BZF d   1       0.889  -1.459   1.680  0.00  0.00    -0.016 A 
ATOM      7  C6  BZF d   1       1.476  -0.475   0.911  0.00  0.00     0.022 A 
ATOM      8  C7  BZF d   1       0.733   0.344   0.128  0.00  0.00     0.029 A 
ATOM      9  C7A BZF d   1      -0.628   0.165   0.151  0.00  0.00     0.058 A 
ENDROOT
TORSDOF 0
ENDMDL
