MODEL 1
REMARK minimizedAffinity -4.87171698
REMARK minimizedRMSD -1
REMARK  0 active torsions:
REMARK  status: ('A' for Active; 'I' for Inactive)
ROOT
ATOM      1  O1  BZF d   1       0.589  -1.044   0.844  0.00  0.00    -0.204 OA
ATOM      2  C2  BZF d   1       1.039   0.006   0.067  0.00  0.00     0.174 A 
ATOM      3  C3  BZF d   1       0.041   0.499  -0.695  0.00  0.00    -0.012 A 
ATOM      4  C3A BZF d   1      -1.126  -0.232  -0.306  0.00  0.00    -0.107 A 
ATOM      5  C4  BZF d   1      -2.434  -0.188  -0.695  0.00  0.00     0.055 A 
ATOM      6  C5  BZF d   1      -3.309  -1.087  -0.173  0.00  0.00    -0.016 A 
ATOM      7  C6  BZF d   1      -2.909  -2.046   0.734  0.00  0.00     0.022 A 
ATOM      8  C7  BZF d   1      -1.623  -2.126   1.154  0.00  0.00     0.029 A 
ATOM      9  C7A BZF d   1      -0.743  -1.198   0.654  0.00  0.00     0.058 A 
ENDROOT
TORSDOF 0
ENDMDL
