MODEL 1
REMARK minimizedAffinity -1.54478323
REMARK minimizedRMSD -1
REMARK  0 active torsions:
REMARK  status: ('A' for Active; 'I' for Inactive)
ROOT
ATOM      1  O1  BZF d   1       3.182   4.235  -0.236  0.00  0.00    -0.204 OA
ATOM      2  C2  BZF d   1       3.462   3.805  -1.519  0.00  0.00     0.174 A 
ATOM      3  C3  BZF d   1       3.258   2.476  -1.632  0.00  0.00    -0.012 A 
ATOM      4  C3A BZF d   1       2.736   2.066  -0.365  0.00  0.00    -0.107 A 
ATOM      5  C4  BZF d   1       2.323   0.864   0.135  0.00  0.00     0.055 A 
ATOM      6  C5  BZF d   1       1.936   0.788   1.436  0.00  0.00    -0.016 A 
ATOM      7  C6  BZF d   1       1.954   1.891   2.264  0.00  0.00     0.022 A 
ATOM      8  C7  BZF d   1       2.351   3.106   1.812  0.00  0.00     0.029 A 
ATOM      9  C7A BZF d   1       2.711   3.192   0.489  0.00  0.00     0.058 A 
ENDROOT
TORSDOF 0
ENDMDL
