MODEL 1
REMARK minimizedAffinity -1.4932729
REMARK minimizedRMSD -1
REMARK  0 active torsions:
REMARK  status: ('A' for Active; 'I' for Inactive)
ROOT
ATOM      1  O1  BZF d   1       0.814  -0.595   0.839  0.00  0.00    -0.204 OA
ATOM      2  C2  BZF d   1       1.096   0.432  -0.041  0.00  0.00     0.174 A 
ATOM      3  C3  BZF d   1       0.110   0.567  -0.950  0.00  0.00    -0.012 A 
ATOM      4  C3A BZF d   1      -0.892  -0.377  -0.562  0.00  0.00    -0.107 A 
ATOM      5  C4  BZF d   1      -2.119  -0.706  -1.065  0.00  0.00     0.055 A 
ATOM      6  C5  BZF d   1      -2.815  -1.724  -0.496  0.00  0.00    -0.016 A 
ATOM      7  C6  BZF d   1      -2.314  -2.438   0.573  0.00  0.00     0.022 A 
ATOM      8  C7  BZF d   1      -1.105  -2.146   1.110  0.00  0.00     0.029 A 
ATOM      9  C7A BZF d   1      -0.413  -1.096   0.558  0.00  0.00     0.058 A 
ENDROOT
TORSDOF 0
ENDMDL
