MODEL 1
REMARK minimizedAffinity -4.12569427
REMARK minimizedRMSD -1
REMARK  0 active torsions:
REMARK  status: ('A' for Active; 'I' for Inactive)
ROOT
ATOM      1  O1  BZF d   1       0.455  -0.138   1.350  0.00  0.00    -0.204 OA
ATOM      2  C2  BZF d   1       1.294   0.482   0.445  0.00  0.00     0.174 A 
ATOM      3  C3  BZF d   1       0.713   0.562  -0.770  0.00  0.00    -0.012 A 
ATOM      4  C3A BZF d   1      -0.606   0.036  -0.591  0.00  0.00    -0.107 A 
ATOM      5  C4  BZF d   1      -1.670  -0.135  -1.430  0.00  0.00     0.055 A 
ATOM      6  C5  BZF d   1      -2.790  -0.745  -0.960  0.00  0.00    -0.016 A 
ATOM      7  C6  BZF d   1      -2.878  -1.200   0.340  0.00  0.00     0.022 A 
ATOM      8  C7  BZF d   1      -1.851  -1.048   1.210  0.00  0.00     0.029 A 
ATOM      9  C7A BZF d   1      -0.730  -0.402   0.748  0.00  0.00     0.058 A 
ENDROOT
TORSDOF 0
ENDMDL
