MODEL 1
REMARK minimizedAffinity -4.64263439
REMARK minimizedRMSD -1
REMARK  0 active torsions:
REMARK  status: ('A' for Active; 'I' for Inactive)
ROOT
ATOM      1  O1  BZF d   1       0.674  -0.752   0.889  0.00  0.00    -0.204 OA
ATOM      2  C2  BZF d   1       0.914   0.342   0.080  0.00  0.00     0.174 A 
ATOM      3  C3  BZF d   1      -0.086   0.507  -0.810  0.00  0.00    -0.012 A 
ATOM      4  C3A BZF d   1      -1.054  -0.494  -0.479  0.00  0.00    -0.107 A 
ATOM      5  C4  BZF d   1      -2.274  -0.826  -0.993  0.00  0.00     0.055 A 
ATOM      6  C5  BZF d   1      -2.932  -1.903  -0.489  0.00  0.00    -0.016 A 
ATOM      7  C6  BZF d   1      -2.398  -2.672   0.523  0.00  0.00     0.022 A 
ATOM      8  C7  BZF d   1      -1.192  -2.379   1.069  0.00  0.00     0.029 A 
ATOM      9  C7A BZF d   1      -0.540  -1.272   0.584  0.00  0.00     0.058 A 
ENDROOT
TORSDOF 0
ENDMDL
