MODEL 1
REMARK minimizedAffinity 0.849228561
REMARK minimizedRMSD -1
REMARK  0 active torsions:
REMARK  status: ('A' for Active; 'I' for Inactive)
ROOT
ATOM      1  O1  BZF d   1       1.433   0.139  -0.410  0.00  0.00    -0.204 OA
ATOM      2  C2  BZF d   1       0.645  -0.446   0.562  0.00  0.00     0.174 A 
ATOM      3  C3  BZF d   1       0.835   0.153   1.756  0.00  0.00    -0.012 A 
ATOM      4  C3A BZF d   1       1.734   1.235   1.495  0.00  0.00    -0.107 A 
ATOM      5  C4  BZF d   1       2.288   2.206   2.280  0.00  0.00     0.055 A 
ATOM      6  C5  BZF d   1       3.184   3.067   1.731  0.00  0.00    -0.016 A 
ATOM      7  C6  BZF d   1       3.553   2.984   0.404  0.00  0.00     0.022 A 
ATOM      8  C7  BZF d   1       3.026   2.041  -0.415  0.00  0.00     0.029 A 
ATOM      9  C7A BZF d   1       2.096   1.190   0.129  0.00  0.00     0.058 A 
ENDROOT
TORSDOF 0
ENDMDL
