MODEL 1
REMARK minimizedAffinity -4.71789694
REMARK minimizedRMSD -1
REMARK  0 active torsions:
REMARK  status: ('A' for Active; 'I' for Inactive)
ROOT
ATOM      1  O1  BZF d   1       0.641  -0.798   1.012  0.00  0.00    -0.204 OA
ATOM      2  C2  BZF d   1       1.631  -0.054   0.400  0.00  0.00     0.174 A 
ATOM      3  C3  BZF d   1       1.138   0.620  -0.659  0.00  0.00    -0.012 A 
ATOM      4  C3A BZF d   1      -0.267   0.349  -0.656  0.00  0.00    -0.107 A 
ATOM      5  C4  BZF d   1      -1.301   0.748  -1.454  0.00  0.00     0.055 A 
ATOM      6  C5  BZF d   1      -2.543   0.245  -1.226  0.00  0.00    -0.016 A 
ATOM      7  C6  BZF d   1      -2.785  -0.661  -0.214  0.00  0.00     0.022 A 
ATOM      8  C7  BZF d   1      -1.791  -1.083   0.606  0.00  0.00     0.029 A 
ATOM      9  C7A BZF d   1      -0.542  -0.551   0.399  0.00  0.00     0.058 A 
ENDROOT
TORSDOF 0
ENDMDL
