MODEL 1
REMARK minimizedAffinity -5.26638746
REMARK minimizedRMSD -1
REMARK  0 active torsions:
REMARK  status: ('A' for Active; 'I' for Inactive)
ROOT
ATOM      1  O1  BZF d   1       0.533  -0.496   0.496  0.00  0.00    -0.204 OA
ATOM      2  C2  BZF d   1       1.141  -0.222  -0.714  0.00  0.00     0.174 A 
ATOM      3  C3  BZF d   1       0.223  -0.097  -1.693  0.00  0.00    -0.012 A 
ATOM      4  C3A BZF d   1      -1.044  -0.213  -1.039  0.00  0.00    -0.107 A 
ATOM      5  C4  BZF d   1      -2.336  -0.157  -1.478  0.00  0.00     0.055 A 
ATOM      6  C5  BZF d   1      -3.344  -0.383  -0.594  0.00  0.00    -0.016 A 
ATOM      7  C6  BZF d   1      -3.096  -0.671   0.732  0.00  0.00     0.022 A 
ATOM      8  C7  BZF d   1      -1.831  -0.733   1.215  0.00  0.00     0.029 A 
ATOM      9  C7A BZF d   1      -0.812  -0.473   0.332  0.00  0.00     0.058 A 
ENDROOT
TORSDOF 0
ENDMDL
