MODEL 1
REMARK minimizedAffinity -1.67888343
REMARK minimizedRMSD -1
REMARK  0 active torsions:
REMARK  status: ('A' for Active; 'I' for Inactive)
ROOT
ATOM      1  O1  BZF d   1      -2.772  -0.043  -1.451  0.00  0.00    -0.204 OA
ATOM      2  C2  BZF d   1      -3.341  -0.794  -0.440  0.00  0.00     0.174 A 
ATOM      3  C3  BZF d   1      -2.419  -1.122   0.488  0.00  0.00    -0.012 A 
ATOM      4  C3A BZF d   1      -1.218  -0.462   0.076  0.00  0.00    -0.107 A 
ATOM      5  C4  BZF d   1       0.042  -0.392   0.598  0.00  0.00     0.055 A 
ATOM      6  C5  BZF d   1       1.005   0.277  -0.088  0.00  0.00    -0.016 A 
ATOM      7  C6  BZF d   1       0.746   0.882  -1.300  0.00  0.00     0.022 A 
ATOM      8  C7  BZF d   1      -0.490   0.844  -1.856  0.00  0.00     0.029 A 
ATOM      9  C7A BZF d   1      -1.474   0.197  -1.149  0.00  0.00     0.058 A 
ENDROOT
TORSDOF 0
ENDMDL
