MODEL 1
REMARK minimizedAffinity -1.05490029
REMARK minimizedRMSD -1
REMARK  3 active torsions:
REMARK  status: ('A' for Active; 'I' for Inactive)
REMARK    1  A    between atoms: C3'_2  and  C2'_3 
REMARK    2  A    between atoms: C2'_3  and  C1'_4 
REMARK    3  A    between atoms: C1'_4  and  C1_5 
ROOT
ATOM      1  C1  N4B d   1       4.750   5.964   1.024  0.00  0.00    -0.075 A 
ATOM      2  C2  N4B d   1       4.930   5.941  -0.376  0.00  0.00     0.002 A 
ATOM      3  C3  N4B d   1       3.839   5.944  -1.210  0.00  0.00     0.002 A 
ATOM      4  C4  N4B d   1       2.562   5.950  -0.668  0.00  0.00    -0.004 A 
ATOM      5  C5  N4B d   1       2.396   5.998   0.686  0.00  0.00     0.002 A 
ATOM      6  C6  N4B d   1       3.484   5.999   1.535  0.00  0.00     0.002 A 
ENDROOT
BRANCH   1   7
ATOM      7  C1' N4B d   1       5.911   5.875   1.976  0.00  0.00     0.057 C 
BRANCH   7   8
ATOM      8  C2' N4B d   1       5.566   4.899   3.098  0.00  0.00     0.009 C 
BRANCH   8   9
ATOM      9  C3' N4B d   1       5.447   5.597   4.442  0.00  0.00     0.004 C 
ATOM     10  C4' N4B d   1       5.613   4.659   5.600  0.00  0.00     0.003 C 
ENDBRANCH   8   9
ENDBRANCH   7   8
ENDBRANCH   1   7
TORSDOF 3
ENDMDL
