MODEL 1
REMARK minimizedAffinity -1.27644491
REMARK minimizedRMSD -1
REMARK  3 active torsions:
REMARK  status: ('A' for Active; 'I' for Inactive)
REMARK    1  A    between atoms: C3'_2  and  C2'_3 
REMARK    2  A    between atoms: C2'_3  and  C1'_4 
REMARK    3  A    between atoms: C1'_4  and  C1_5 
ROOT
ATOM      1  C1  N4B d   1       5.257   5.682   2.241  0.00  0.00    -0.075 A 
ATOM      2  C2  N4B d   1       3.899   5.999   2.015  0.00  0.00     0.002 A 
ATOM      3  C3  N4B d   1       3.336   5.767   0.784  0.00  0.00     0.002 A 
ATOM      4  C4  N4B d   1       4.112   5.239  -0.237  0.00  0.00    -0.004 A 
ATOM      5  C5  N4B d   1       5.416   4.911  -0.002  0.00  0.00     0.002 A 
ATOM      6  C6  N4B d   1       5.994   5.135   1.231  0.00  0.00     0.002 A 
ENDROOT
BRANCH   1   7
ATOM      7  C1' N4B d   1       5.939   5.997   3.544  0.00  0.00     0.057 C 
BRANCH   7   8
ATOM      8  C2' N4B d   1       4.936   5.848   4.684  0.00  0.00     0.009 C 
BRANCH   8   9
ATOM      9  C3' N4B d   1       5.607   5.432   5.981  0.00  0.00     0.004 C 
ATOM     10  C4' N4B d   1       5.992   3.982   5.997  0.00  0.00     0.003 C 
ENDBRANCH   8   9
ENDBRANCH   7   8
ENDBRANCH   1   7
TORSDOF 3
ENDMDL
