MODEL 1
REMARK minimizedAffinity 6.54736423
REMARK minimizedRMSD -1
REMARK  3 active torsions:
REMARK  status: ('A' for Active; 'I' for Inactive)
REMARK    1  A    between atoms: C3'_2  and  C2'_3 
REMARK    2  A    between atoms: C2'_3  and  C1'_4 
REMARK    3  A    between atoms: C1'_4  and  C1_5 
ROOT
ATOM      1  C1  N4B d   1       1.081  -1.439  -1.693  0.00  0.00    -0.075 A 
ATOM      2  C2  N4B d   1      -0.240  -1.335  -1.204  0.00  0.00     0.002 A 
ATOM      3  C3  N4B d   1      -0.943  -0.167  -1.367  0.00  0.00     0.002 A 
ATOM      4  C4  N4B d   1      -0.341   0.913  -1.996  0.00  0.00    -0.004 A 
ATOM      5  C5  N4B d   1       0.926   0.797  -2.487  0.00  0.00     0.002 A 
ATOM      6  C6  N4B d   1       1.643  -0.373  -2.334  0.00  0.00     0.002 A 
ENDROOT
BRANCH   1   7
ATOM      7  C1' N4B d   1       1.919  -2.666  -1.462  0.00  0.00     0.057 C 
BRANCH   7   8
ATOM      8  C2' N4B d   1       2.277  -2.758   0.018  0.00  0.00     0.009 C 
BRANCH   8   9
ATOM      9  C3' N4B d   1       2.233  -4.189   0.526  0.00  0.00     0.004 C 
ATOM     10  C4' N4B d   1       1.046  -4.458   1.402  0.00  0.00     0.003 C 
ENDBRANCH   8   9
ENDBRANCH   7   8
ENDBRANCH   1   7
TORSDOF 3
ENDMDL
