MODEL 1
REMARK minimizedAffinity 7.62132025
REMARK minimizedRMSD -1
REMARK  3 active torsions:
REMARK  status: ('A' for Active; 'I' for Inactive)
REMARK    1  A    between atoms: C3'_2  and  C2'_3 
REMARK    2  A    between atoms: C2'_3  and  C1'_4 
REMARK    3  A    between atoms: C1'_4  and  C1_5 
ROOT
ATOM      1  C1  N4B d   1      -2.808   1.887   3.377  0.00  0.00    -0.075 A 
ATOM      2  C2  N4B d   1      -1.941   2.462   4.331  0.00  0.00     0.002 A 
ATOM      3  C3  N4B d   1      -1.840   3.828   4.433  0.00  0.00     0.002 A 
ATOM      4  C4  N4B d   1      -2.580   4.635   3.582  0.00  0.00    -0.004 A 
ATOM      5  C5  N4B d   1      -3.435   4.073   2.680  0.00  0.00     0.002 A 
ATOM      6  C6  N4B d   1      -3.549   2.701   2.570  0.00  0.00     0.002 A 
ENDROOT
BRANCH   1   7
ATOM      7  C1' N4B d   1      -2.888   0.399   3.171  0.00  0.00     0.057 C 
BRANCH   7   8
ATOM      8  C2' N4B d   1      -1.787  -0.032   2.207  0.00  0.00     0.009 C 
BRANCH   8   9
ATOM      9  C3' N4B d   1      -2.338  -0.392   0.838  0.00  0.00     0.004 C 
ATOM     10  C4' N4B d   1      -1.882   0.548  -0.238  0.00  0.00     0.003 C 
ENDBRANCH   8   9
ENDBRANCH   7   8
ENDBRANCH   1   7
TORSDOF 3
ENDMDL
