MODEL 1
REMARK minimizedAffinity 17.9196815
REMARK minimizedRMSD -1
REMARK  3 active torsions:
REMARK  status: ('A' for Active; 'I' for Inactive)
REMARK    1  A    between atoms: C3'_2  and  C2'_3 
REMARK    2  A    between atoms: C2'_3  and  C1'_4 
REMARK    3  A    between atoms: C1'_4  and  C1_5 
ROOT
ATOM      1  C1  N4B d   1       2.485  -3.146  -0.932  0.00  0.00    -0.075 A 
ATOM      2  C2  N4B d   1       1.313  -2.923  -1.689  0.00  0.00     0.002 A 
ATOM      3  C3  N4B d   1       1.227  -1.827  -2.512  0.00  0.00     0.002 A 
ATOM      4  C4  N4B d   1       2.286  -0.935  -2.581  0.00  0.00    -0.004 A 
ATOM      5  C5  N4B d   1       3.424  -1.171  -1.866  0.00  0.00     0.002 A 
ATOM      6  C6  N4B d   1       3.526  -2.270  -1.037  0.00  0.00     0.002 A 
ENDROOT
BRANCH   1   7
ATOM      7  C1' N4B d   1       2.593  -4.283   0.048  0.00  0.00     0.057 C 
BRANCH   7   8
ATOM      8  C2' N4B d   1       1.585  -4.071   1.174  0.00  0.00     0.009 C 
BRANCH   8   9
ATOM      9  C3' N4B d   1       0.589  -5.213   1.267  0.00  0.00     0.004 C 
ATOM     10  C4' N4B d   1      -0.753  -4.774   1.771  0.00  0.00     0.003 C 
ENDBRANCH   8   9
ENDBRANCH   7   8
ENDBRANCH   1   7
TORSDOF 3
ENDMDL
