MODEL 1
REMARK minimizedAffinity 8.64726734
REMARK minimizedRMSD -1
REMARK  3 active torsions:
REMARK  status: ('A' for Active; 'I' for Inactive)
REMARK    1  A    between atoms: C3'_2  and  C2'_3 
REMARK    2  A    between atoms: C2'_3  and  C1'_4 
REMARK    3  A    between atoms: C1'_4  and  C1_5 
ROOT
ATOM      1  C1  N4B d   1       1.372  -4.134   0.427  0.00  0.00    -0.075 A 
ATOM      2  C2  N4B d   1       0.006  -4.128   0.787  0.00  0.00     0.002 A 
ATOM      3  C3  N4B d   1      -0.471  -5.052   1.684  0.00  0.00     0.002 A 
ATOM      4  C4  N4B d   1       0.390  -5.999   2.217  0.00  0.00    -0.004 A 
ATOM      5  C5  N4B d   1       1.713  -5.982   1.883  0.00  0.00     0.002 A 
ATOM      6  C6  N4B d   1       2.207  -5.057   0.986  0.00  0.00     0.002 A 
ENDROOT
BRANCH   1   7
ATOM      7  C1' N4B d   1       1.922  -3.198  -0.615  0.00  0.00     0.057 C 
BRANCH   7   8
ATOM      8  C2' N4B d   1       0.793  -2.320  -1.145  0.00  0.00     0.009 C 
BRANCH   8   9
ATOM      9  C3' N4B d   1       1.295  -1.294  -2.147  0.00  0.00     0.004 C 
ATOM     10  C4' N4B d   1       1.674   0.008  -1.505  0.00  0.00     0.003 C 
ENDBRANCH   8   9
ENDBRANCH   7   8
ENDBRANCH   1   7
TORSDOF 3
ENDMDL
