MODEL 1
REMARK minimizedAffinity 0.820339918
REMARK minimizedRMSD -1
REMARK  3 active torsions:
REMARK  status: ('A' for Active; 'I' for Inactive)
REMARK    1  A    between atoms: C3'_2  and  C2'_3 
REMARK    2  A    between atoms: C2'_3  and  C1'_4 
REMARK    3  A    between atoms: C1'_4  and  C1_5 
ROOT
ATOM      1  C1  N4B d   1       2.161  -1.244  -1.639  0.00  0.00    -0.075 A 
ATOM      2  C2  N4B d   1       1.127  -0.358  -2.013  0.00  0.00     0.002 A 
ATOM      3  C3  N4B d   1       1.378   0.989  -2.109  0.00  0.00     0.002 A 
ATOM      4  C4  N4B d   1       2.645   1.473  -1.819  0.00  0.00    -0.004 A 
ATOM      5  C5  N4B d   1       3.645   0.607  -1.484  0.00  0.00     0.002 A 
ATOM      6  C6  N4B d   1       3.408  -0.749  -1.387  0.00  0.00     0.002 A 
ENDROOT
BRANCH   1   7
ATOM      7  C1' N4B d   1       1.914  -2.714  -1.438  0.00  0.00     0.057 C 
BRANCH   7   8
ATOM      8  C2' N4B d   1       2.291  -3.094  -0.009  0.00  0.00     0.009 C 
BRANCH   8   9
ATOM      9  C3' N4B d   1       1.853  -4.507   0.338  0.00  0.00     0.004 C 
ATOM     10  C4' N4B d   1       0.723  -4.539   1.323  0.00  0.00     0.003 C 
ENDBRANCH   8   9
ENDBRANCH   7   8
ENDBRANCH   1   7
TORSDOF 3
ENDMDL
