MODEL 1
REMARK minimizedAffinity 11.0981627
REMARK minimizedRMSD -1
REMARK  3 active torsions:
REMARK  status: ('A' for Active; 'I' for Inactive)
REMARK    1  A    between atoms: C3'_2  and  C2'_3 
REMARK    2  A    between atoms: C2'_3  and  C1'_4 
REMARK    3  A    between atoms: C1'_4  and  C1_5 
ROOT
ATOM      1  C1  N4B d   1      -3.074   0.927   3.039  0.00  0.00    -0.075 A 
ATOM      2  C2  N4B d   1      -3.189  -0.246   3.816  0.00  0.00     0.002 A 
ATOM      3  C3  N4B d   1      -4.415  -0.840   3.986  0.00  0.00     0.002 A 
ATOM      4  C4  N4B d   1      -5.539  -0.271   3.407  0.00  0.00    -0.004 A 
ATOM      5  C5  N4B d   1      -5.416   0.848   2.636  0.00  0.00     0.002 A 
ATOM      6  C6  N4B d   1      -4.189   1.454   2.453  0.00  0.00     0.002 A 
ENDROOT
BRANCH   1   7
ATOM      7  C1' N4B d   1      -1.769   1.661   2.895  0.00  0.00     0.057 C 
BRANCH   7   8
ATOM      8  C2' N4B d   1      -1.450   2.378   4.204  0.00  0.00     0.009 C 
BRANCH   8   9
ATOM      9  C3' N4B d   1      -1.987   3.799   4.218  0.00  0.00     0.004 C 
ATOM     10  C4' N4B d   1      -1.671   4.526   5.491  0.00  0.00     0.003 C 
ENDBRANCH   8   9
ENDBRANCH   7   8
ENDBRANCH   1   7
TORSDOF 3
ENDMDL
