MODEL 1
REMARK minimizedAffinity 4.29154158
REMARK minimizedRMSD -1
REMARK  1 active torsions:
REMARK  status: ('A' for Active; 'I' for Inactive)
REMARK    1  A    between atoms: C1_2  and  C2_3 
ROOT
ATOM      1  C2  UNL d   1       2.752  -1.725   2.756  0.00  0.00    -0.081 A 
ATOM      2  C3  UNL d   1       3.592  -1.321   1.711  0.00  0.00     0.006 A 
ATOM      3  C4  UNL d   1       3.485  -0.037   1.173  0.00  0.00     0.002 A 
ATOM      4  C5  UNL d   1       2.544   0.868   1.675  0.00  0.00    -0.080 A 
ATOM      5  C6  UNL d   1       2.440   2.260   1.126  0.00  0.00     0.076 C 
ATOM      6  C7  UNL d   1       1.693   0.459   2.707  0.00  0.00     0.002 A 
ATOM      7  C8  UNL d   1       1.798  -0.825   3.246  0.00  0.00     0.006 A 
ENDROOT
BRANCH   1   8
ATOM      8  C1  UNL d   1       2.907  -3.087   3.382  0.00  0.00     0.054 C 
ATOM      9  C   UNL d   1       3.007  -4.175   2.323  0.00  0.00     0.018 C 
ENDBRANCH   1   8
TORSDOF 1
ENDMDL
