MODEL 1
REMARK minimizedAffinity 11.8105745
REMARK minimizedRMSD -1
REMARK  1 active torsions:
REMARK  status: ('A' for Active; 'I' for Inactive)
REMARK    1  A    between atoms: C1_2  and  C2_3 
ROOT
ATOM      1  C2  UNL d   1       1.625  -1.177   1.579  0.00  0.00    -0.081 A 
ATOM      2  C3  UNL d   1       0.422  -0.494   1.796  0.00  0.00     0.006 A 
ATOM      3  C4  UNL d   1      -0.630  -0.604   0.884  0.00  0.00     0.002 A 
ATOM      4  C5  UNL d   1      -0.500  -1.405  -0.256  0.00  0.00    -0.080 A 
ATOM      5  C6  UNL d   1      -1.633  -1.557  -1.227  0.00  0.00     0.076 C 
ATOM      6  C7  UNL d   1       0.708  -2.074  -0.482  0.00  0.00     0.002 A 
ATOM      7  C8  UNL d   1       1.760  -1.963   0.429  0.00  0.00     0.006 A 
ENDROOT
BRANCH   1   8
ATOM      8  C1  UNL d   1       2.738  -1.111   2.593  0.00  0.00     0.054 C 
ATOM      9  C   UNL d   1       2.328  -1.760   3.907  0.00  0.00     0.018 C 
ENDBRANCH   1   8
TORSDOF 1
ENDMDL
