MODEL 1
REMARK minimizedAffinity 9.83215714
REMARK minimizedRMSD -1
REMARK  1 active torsions:
REMARK  status: ('A' for Active; 'I' for Inactive)
REMARK    1  A    between atoms: C1_2  and  C2_3 
ROOT
ATOM      1  C2  UNL d   1       1.230  -2.769  -1.120  0.00  0.00    -0.081 A 
ATOM      2  C3  UNL d   1       1.504  -1.978   0.002  0.00  0.00     0.006 A 
ATOM      3  C4  UNL d   1       2.572  -1.078  -0.009  0.00  0.00     0.002 A 
ATOM      4  C5  UNL d   1       3.380  -0.950  -1.144  0.00  0.00    -0.080 A 
ATOM      5  C6  UNL d   1       4.512   0.034  -1.180  0.00  0.00     0.076 C 
ATOM      6  C7  UNL d   1       3.117  -1.753  -2.259  0.00  0.00     0.002 A 
ATOM      7  C8  UNL d   1       2.049  -2.652  -2.248  0.00  0.00     0.006 A 
ENDROOT
BRANCH   1   8
ATOM      8  C1  UNL d   1       0.039  -3.693  -1.134  0.00  0.00     0.054 C 
ATOM      9  C   UNL d   1      -1.105  -3.134  -0.301  0.00  0.00     0.018 C 
ENDBRANCH   1   8
TORSDOF 1
ENDMDL
