MODEL 1
REMARK minimizedAffinity 0.52420038
REMARK minimizedRMSD -1
REMARK  1 active torsions:
REMARK  status: ('A' for Active; 'I' for Inactive)
REMARK    1  A    between atoms: C1_2  and  C2_3 
ROOT
ATOM      1  C2  UNL d   1       1.105  -1.434  -1.086  0.00  0.00    -0.081 A 
ATOM      2  C3  UNL d   1       1.424  -0.112  -0.754  0.00  0.00     0.006 A 
ATOM      3  C4  UNL d   1       2.748   0.330  -0.802  0.00  0.00     0.002 A 
ATOM      4  C5  UNL d   1       3.773  -0.539  -1.190  0.00  0.00    -0.080 A 
ATOM      5  C6  UNL d   1       5.195  -0.068  -1.275  0.00  0.00     0.076 C 
ATOM      6  C7  UNL d   1       3.457  -1.865  -1.505  0.00  0.00     0.002 A 
ATOM      7  C8  UNL d   1       2.133  -2.308  -1.456  0.00  0.00     0.006 A 
ENDROOT
BRANCH   1   8
ATOM      8  C1  UNL d   1      -0.330  -1.897  -1.098  0.00  0.00     0.054 C 
ATOM      9  C   UNL d   1      -1.158  -1.107  -2.101  0.00  0.00     0.018 C 
ENDBRANCH   1   8
TORSDOF 1
ENDMDL
