MODEL 1
REMARK minimizedAffinity 4.08195925
REMARK minimizedRMSD -1
REMARK  1 active torsions:
REMARK  status: ('A' for Active; 'I' for Inactive)
REMARK    1  A    between atoms: C1_2  and  C2_3 
ROOT
ATOM      1  C2  UNL d   1       2.921  -0.426  -1.197  0.00  0.00    -0.081 A 
ATOM      2  C3  UNL d   1       2.397  -1.712  -1.376  0.00  0.00     0.006 A 
ATOM      3  C4  UNL d   1       1.065  -1.985  -1.056  0.00  0.00     0.002 A 
ATOM      4  C5  UNL d   1       0.233  -0.975  -0.560  0.00  0.00    -0.080 A 
ATOM      5  C6  UNL d   1      -1.207  -1.248  -0.241  0.00  0.00     0.076 C 
ATOM      6  C7  UNL d   1       0.761   0.305  -0.365  0.00  0.00     0.002 A 
ATOM      7  C8  UNL d   1       2.093   0.579  -0.683  0.00  0.00     0.006 A 
ENDROOT
BRANCH   1   8
ATOM      8  C1  UNL d   1       4.339  -0.112  -1.602  0.00  0.00     0.054 C 
ATOM      9  C   UNL d   1       4.713   1.319  -1.245  0.00  0.00     0.018 C 
ENDBRANCH   1   8
TORSDOF 1
ENDMDL
