MODEL 1
REMARK minimizedAffinity -0.492973
REMARK minimizedRMSD -1
REMARK  1 active torsions:
REMARK  status: ('A' for Active; 'I' for Inactive)
REMARK    1  A    between atoms: C1_2  and  C2_3 
ROOT
ATOM      1  C2  UNL d   1       0.894  -0.598  -0.653  0.00  0.00    -0.081 A 
ATOM      2  C3  UNL d   1       1.075   0.789  -0.719  0.00  0.00     0.006 A 
ATOM      3  C4  UNL d   1       2.316   1.326  -1.068  0.00  0.00     0.002 A 
ATOM      4  C5  UNL d   1       3.395   0.486  -1.364  0.00  0.00    -0.080 A 
ATOM      5  C6  UNL d   1       4.724   1.049  -1.770  0.00  0.00     0.076 C 
ATOM      6  C7  UNL d   1       3.219  -0.900  -1.282  0.00  0.00     0.002 A 
ATOM      7  C8  UNL d   1       1.979  -1.437  -0.932  0.00  0.00     0.006 A 
ENDROOT
BRANCH   1   8
ATOM      8  C1  UNL d   1      -0.460  -1.181  -0.341  0.00  0.00     0.054 C 
ATOM      9  C   UNL d   1      -1.251  -0.273   0.591  0.00  0.00     0.018 C 
ENDBRANCH   1   8
TORSDOF 1
ENDMDL
