MODEL 1
REMARK minimizedAffinity -1.79455817
REMARK minimizedRMSD -1
REMARK  1 active torsions:
REMARK  status: ('A' for Active; 'I' for Inactive)
REMARK    1  A    between atoms: C1_2  and  C2_3 
ROOT
ATOM      1  C2  UNL d   1      -2.174   0.934  -0.039  0.00  0.00    -0.081 A 
ATOM      2  C3  UNL d   1      -1.342   0.020  -0.699  0.00  0.00     0.006 A 
ATOM      3  C4  UNL d   1       0.046   0.103  -0.566  0.00  0.00     0.002 A 
ATOM      4  C5  UNL d   1       0.625   1.095   0.233  0.00  0.00    -0.080 A 
ATOM      5  C6  UNL d   1       2.113   1.176   0.407  0.00  0.00     0.076 C 
ATOM      6  C7  UNL d   1      -0.205   2.018   0.878  0.00  0.00     0.002 A 
ATOM      7  C8  UNL d   1      -1.593   1.936   0.745  0.00  0.00     0.006 A 
ENDROOT
BRANCH   1   8
ATOM      8  C1  UNL d   1      -3.673   0.808  -0.128  0.00  0.00     0.054 C 
ATOM      9  C   UNL d   1      -4.283   0.490   1.230  0.00  0.00     0.018 C 
ENDBRANCH   1   8
TORSDOF 1
ENDMDL
