MODEL 1
REMARK minimizedAffinity -2.34298325
REMARK minimizedRMSD -1
REMARK  0 active torsions:
REMARK  status: ('A' for Active; 'I' for Inactive)
ROOT
ATOM      1  C   UNL d   1       0.757   1.167   0.724  0.00  0.00     0.077 C 
ATOM      2  C1  UNL d   1      -0.521   0.793   1.413  0.00  0.00    -0.074 A 
ATOM      3  C2  UNL d   1      -1.017  -0.513   1.350  0.00  0.00    -0.005 A 
ATOM      4  C3  UNL d   1      -2.203  -0.848   2.004  0.00  0.00     0.006 A 
ATOM      5  C4  UNL d   1      -2.904   0.119   2.727  0.00  0.00    -0.005 A 
ATOM      6  C5  UNL d   1      -2.423   1.430   2.802  0.00  0.00    -0.074 A 
ATOM      7  C6  UNL d   1      -3.159   2.479   3.582  0.00  0.00     0.077 C 
ATOM      8  C7  UNL d   1      -1.227   1.757   2.148  0.00  0.00    -0.001 A 
ENDROOT
TORSDOF 0
ENDMDL
