MODEL 1
REMARK minimizedAffinity -2.62386489
REMARK minimizedRMSD -1
REMARK  0 active torsions:
REMARK  status: ('A' for Active; 'I' for Inactive)
ROOT
ATOM      1  C   UNL d   1       1.074   2.047   1.415  0.00  0.00     0.077 C 
ATOM      2  C1  UNL d   1      -0.051   1.154   1.847  0.00  0.00    -0.074 A 
ATOM      3  C2  UNL d   1      -0.034  -0.214   1.558  0.00  0.00    -0.005 A 
ATOM      4  C3  UNL d   1      -1.083  -1.034   1.974  0.00  0.00     0.006 A 
ATOM      5  C4  UNL d   1      -2.158  -0.495   2.682  0.00  0.00    -0.005 A 
ATOM      6  C5  UNL d   1      -2.192   0.871   2.980  0.00  0.00    -0.074 A 
ATOM      7  C6  UNL d   1      -3.335   1.464   3.749  0.00  0.00     0.077 C 
ATOM      8  C7  UNL d   1      -1.131   1.687   2.565  0.00  0.00    -0.001 A 
ENDROOT
TORSDOF 0
ENDMDL
