MODEL 1
REMARK minimizedAffinity 1.11165357
REMARK minimizedRMSD -1
REMARK  0 active torsions:
REMARK  status: ('A' for Active; 'I' for Inactive)
ROOT
ATOM      1  C   UNL d   1      -3.747   2.619   4.260  0.00  0.00     0.077 C 
ATOM      2  C1  UNL d   1      -2.796   1.774   3.466  0.00  0.00    -0.074 A 
ATOM      3  C2  UNL d   1      -3.009   0.400   3.315  0.00  0.00    -0.005 A 
ATOM      4  C3  UNL d   1      -2.121  -0.372   2.566  0.00  0.00     0.006 A 
ATOM      5  C4  UNL d   1      -1.012   0.222   1.960  0.00  0.00    -0.005 A 
ATOM      6  C5  UNL d   1      -0.784   1.595   2.099  0.00  0.00    -0.074 A 
ATOM      7  C6  UNL d   1       0.397   2.250   1.447  0.00  0.00     0.077 C 
ATOM      8  C7  UNL d   1      -1.684   2.364   2.848  0.00  0.00    -0.001 A 
ENDROOT
TORSDOF 0
ENDMDL
