MODEL 1
REMARK minimizedAffinity -4.23913383
REMARK minimizedRMSD -1
REMARK  0 active torsions:
REMARK  status: ('A' for Active; 'I' for Inactive)
ROOT
ATOM      1  C   UNL d   1      -3.378  -0.879   3.091  0.00  0.00     0.077 C 
ATOM      2  C1  UNL d   1      -2.392   0.149   2.620  0.00  0.00    -0.074 A 
ATOM      3  C2  UNL d   1      -2.519   1.490   2.995  0.00  0.00    -0.005 A 
ATOM      4  C3  UNL d   1      -1.589   2.434   2.557  0.00  0.00     0.006 A 
ATOM      5  C4  UNL d   1      -0.526   2.046   1.742  0.00  0.00    -0.005 A 
ATOM      6  C5  UNL d   1      -0.383   0.709   1.357  0.00  0.00    -0.074 A 
ATOM      7  C6  UNL d   1       0.760   0.274   0.489  0.00  0.00     0.077 C 
ATOM      8  C7  UNL d   1      -1.317  -0.234   1.807  0.00  0.00    -0.001 A 
ENDROOT
TORSDOF 0
ENDMDL
