MODEL 1
REMARK minimizedAffinity -4.6060214
REMARK minimizedRMSD -1
REMARK  0 active torsions:
REMARK  status: ('A' for Active; 'I' for Inactive)
ROOT
ATOM      1  C   UNL d   1      -4.137   1.031   3.090  0.00  0.00     0.077 C 
ATOM      2  C1  UNL d   1      -2.767   1.294   2.540  0.00  0.00    -0.074 A 
ATOM      3  C2  UNL d   1      -2.213   2.579   2.572  0.00  0.00    -0.005 A 
ATOM      4  C3  UNL d   1      -0.934   2.806   2.065  0.00  0.00     0.006 A 
ATOM      5  C4  UNL d   1      -0.196   1.754   1.522  0.00  0.00    -0.005 A 
ATOM      6  C5  UNL d   1      -0.732   0.463   1.481  0.00  0.00    -0.074 A 
ATOM      7  C6  UNL d   1       0.051  -0.681   0.909  0.00  0.00     0.077 C 
ATOM      8  C7  UNL d   1      -2.016   0.241   1.999  0.00  0.00    -0.001 A 
ENDROOT
TORSDOF 0
ENDMDL
