MODEL 1
REMARK minimizedAffinity -2.66895103
REMARK minimizedRMSD -1
REMARK  0 active torsions:
REMARK  status: ('A' for Active; 'I' for Inactive)
ROOT
ATOM      1  C   UNL d   1      -3.392   2.048   2.092  0.00  0.00     0.077 C 
ATOM      2  C1  UNL d   1      -1.972   1.625   1.862  0.00  0.00    -0.074 A 
ATOM      3  C2  UNL d   1      -0.928   2.555   1.911  0.00  0.00    -0.005 A 
ATOM      4  C3  UNL d   1       0.389   2.146   1.704  0.00  0.00     0.006 A 
ATOM      5  C4  UNL d   1       0.676   0.804   1.447  0.00  0.00    -0.005 A 
ATOM      6  C5  UNL d   1      -0.354  -0.140   1.396  0.00  0.00    -0.074 A 
ATOM      7  C6  UNL d   1      -0.062  -1.587   1.130  0.00  0.00     0.077 C 
ATOM      8  C7  UNL d   1      -1.675   0.278   1.611  0.00  0.00    -0.001 A 
ENDROOT
TORSDOF 0
ENDMDL
