MODEL 1
REMARK minimizedAffinity -3.45786166
REMARK minimizedRMSD -1
REMARK  0 active torsions:
REMARK  status: ('A' for Active; 'I' for Inactive)
ROOT
ATOM      1  C   UNL d   1       2.205   0.712  -0.103  0.00  0.00     0.077 C 
ATOM      2  C1  UNL d   1       0.901   0.804   0.633  0.00  0.00    -0.074 A 
ATOM      3  C2  UNL d   1       0.640   1.869   1.501  0.00  0.00    -0.005 A 
ATOM      4  C3  UNL d   1      -0.581   1.946   2.171  0.00  0.00     0.006 A 
ATOM      5  C4  UNL d   1      -1.551   0.961   1.981  0.00  0.00    -0.005 A 
ATOM      6  C5  UNL d   1      -1.307  -0.111   1.116  0.00  0.00    -0.074 A 
ATOM      7  C6  UNL d   1      -2.342  -1.173   0.893  0.00  0.00     0.077 C 
ATOM      8  C7  UNL d   1      -0.081  -0.178   0.441  0.00  0.00    -0.001 A 
ENDROOT
TORSDOF 0
ENDMDL
