MODEL 1
REMARK minimizedAffinity 2.88034868
REMARK minimizedRMSD -1
REMARK  0 active torsions:
REMARK  status: ('A' for Active; 'I' for Inactive)
ROOT
ATOM      1  C   UNL d   1      -0.720  -1.185   1.869  0.00  0.00     0.077 C 
ATOM      2  C1  UNL d   1      -1.154   0.231   2.103  0.00  0.00    -0.074 A 
ATOM      3  C2  UNL d   1      -0.457   1.300   1.529  0.00  0.00    -0.005 A 
ATOM      4  C3  UNL d   1      -0.877   2.612   1.747  0.00  0.00     0.006 A 
ATOM      5  C4  UNL d   1      -1.997   2.868   2.540  0.00  0.00    -0.005 A 
ATOM      6  C5  UNL d   1      -2.706   1.813   3.121  0.00  0.00    -0.074 A 
ATOM      7  C6  UNL d   1      -3.917   2.070   3.968  0.00  0.00     0.077 C 
ATOM      8  C7  UNL d   1      -2.282   0.497   2.892  0.00  0.00    -0.001 A 
ENDROOT
TORSDOF 0
ENDMDL
