MODEL 1
REMARK minimizedAffinity 4.45600796
REMARK minimizedRMSD -1
REMARK  0 active torsions:
REMARK  status: ('A' for Active; 'I' for Inactive)
ROOT
ATOM      1  C   UNL d   1      -0.102  -1.347   2.757  0.00  0.00     0.077 C 
ATOM      2  C1  UNL d   1      -0.805  -0.488   1.749  0.00  0.00    -0.074 A 
ATOM      3  C2  UNL d   1      -0.268   0.741   1.351  0.00  0.00    -0.005 A 
ATOM      4  C3  UNL d   1      -0.929   1.524   0.406  0.00  0.00     0.006 A 
ATOM      5  C4  UNL d   1      -2.132   1.089  -0.151  0.00  0.00    -0.005 A 
ATOM      6  C5  UNL d   1      -2.684  -0.137   0.234  0.00  0.00    -0.074 A 
ATOM      7  C6  UNL d   1      -3.971  -0.625  -0.362  0.00  0.00     0.077 C 
ATOM      8  C7  UNL d   1      -2.010  -0.922   1.180  0.00  0.00    -0.001 A 
ENDROOT
TORSDOF 0
ENDMDL
