MODEL 1
REMARK minimizedAffinity -3.312114
REMARK minimizedRMSD -1
REMARK  0 active torsions:
REMARK  status: ('A' for Active; 'I' for Inactive)
ROOT
ATOM      1  C   UNL d   1      -2.223   1.968   2.780  0.00  0.00     0.077 C 
ATOM      2  C1  UNL d   1      -0.888   1.585   2.214  0.00  0.00    -0.074 A 
ATOM      3  C2  UNL d   1      -0.554   1.889   0.891  0.00  0.00    -0.005 A 
ATOM      4  C3  UNL d   1       0.695   1.536   0.381  0.00  0.00     0.006 A 
ATOM      5  C4  UNL d   1       1.622   0.875   1.188  0.00  0.00    -0.005 A 
ATOM      6  C5  UNL d   1       1.307   0.563   2.514  0.00  0.00    -0.074 A 
ATOM      7  C6  UNL d   1       2.295  -0.138   3.398  0.00  0.00     0.077 C 
ATOM      8  C7  UNL d   1       0.052   0.928   3.021  0.00  0.00    -0.001 A 
ENDROOT
TORSDOF 0
ENDMDL
