MODEL 1
REMARK minimizedAffinity -3.36772752
REMARK minimizedRMSD -1
REMARK  0 active torsions:
REMARK  status: ('A' for Active; 'I' for Inactive)
ROOT
ATOM      1  C   UNL d   1      -3.646   1.519   3.435  0.00  0.00     0.077 C 
ATOM      2  C1  UNL d   1      -2.389   1.354   2.633  0.00  0.00    -0.074 A 
ATOM      3  C2  UNL d   1      -1.697   2.467   2.145  0.00  0.00    -0.005 A 
ATOM      4  C3  UNL d   1      -0.524   2.299   1.408  0.00  0.00     0.006 A 
ATOM      5  C4  UNL d   1      -0.033   1.018   1.154  0.00  0.00    -0.005 A 
ATOM      6  C5  UNL d   1      -0.710  -0.107   1.635  0.00  0.00    -0.074 A 
ATOM      7  C6  UNL d   1      -0.190  -1.490   1.379  0.00  0.00     0.077 C 
ATOM      8  C7  UNL d   1      -1.884   0.071   2.380  0.00  0.00    -0.001 A 
ENDROOT
TORSDOF 0
ENDMDL
