MODEL 1
REMARK minimizedAffinity -0.186531574
REMARK minimizedRMSD -1
REMARK  0 active torsions:
REMARK  status: ('A' for Active; 'I' for Inactive)
ROOT
ATOM      1  C   UNL d   1      -2.456   2.267   3.074  0.00  0.00     0.077 C 
ATOM      2  C1  UNL d   1      -1.459   1.510   2.248  0.00  0.00    -0.074 A 
ATOM      3  C2  UNL d   1      -0.432   2.177   1.573  0.00  0.00    -0.005 A 
ATOM      4  C3  UNL d   1       0.494   1.459   0.816  0.00  0.00     0.006 A 
ATOM      5  C4  UNL d   1       0.402   0.070   0.726  0.00  0.00    -0.005 A 
ATOM      6  C5  UNL d   1      -0.618  -0.614   1.395  0.00  0.00    -0.074 A 
ATOM      7  C6  UNL d   1      -0.725  -2.108   1.318  0.00  0.00     0.077 C 
ATOM      8  C7  UNL d   1      -1.540   0.114   2.160  0.00  0.00    -0.001 A 
ENDROOT
TORSDOF 0
ENDMDL
