MODEL 1
REMARK minimizedAffinity -1.90792561
REMARK minimizedRMSD -1
REMARK  0 active torsions:
REMARK  status: ('A' for Active; 'I' for Inactive)
ROOT
ATOM      1  C   UNL d   1       2.130   1.198   0.684  0.00  0.00     0.077 C 
ATOM      2  C1  UNL d   1       0.804   0.804   1.263  0.00  0.00    -0.074 A 
ATOM      3  C2  UNL d   1       0.324  -0.504   1.136  0.00  0.00    -0.005 A 
ATOM      4  C3  UNL d   1      -0.907  -0.858   1.689  0.00  0.00     0.006 A 
ATOM      5  C4  UNL d   1      -1.668   0.090   2.373  0.00  0.00    -0.005 A 
ATOM      6  C5  UNL d   1      -1.204   1.402   2.511  0.00  0.00    -0.074 A 
ATOM      7  C6  UNL d   1      -2.006   2.430   3.252  0.00  0.00     0.077 C 
ATOM      8  C7  UNL d   1       0.037   1.748   1.959  0.00  0.00    -0.001 A 
ENDROOT
TORSDOF 0
ENDMDL
