MODEL 1
REMARK minimizedAffinity 2.68060112
REMARK minimizedRMSD -1
REMARK  0 active torsions:
REMARK  status: ('A' for Active; 'I' for Inactive)
ROOT
ATOM      1  C   UNL d   1      -3.959   2.037   3.903  0.00  0.00     0.077 C 
ATOM      2  C1  UNL d   1      -2.960   2.231   2.801  0.00  0.00    -0.074 A 
ATOM      3  C2  UNL d   1      -3.193   3.150   1.773  0.00  0.00    -0.005 A 
ATOM      4  C3  UNL d   1      -2.250   3.326   0.760  0.00  0.00     0.006 A 
ATOM      5  C4  UNL d   1      -1.067   2.586   0.765  0.00  0.00    -0.005 A 
ATOM      6  C5  UNL d   1      -0.816   1.663   1.785  0.00  0.00    -0.074 A 
ATOM      7  C6  UNL d   1       0.455   0.867   1.811  0.00  0.00     0.077 C 
ATOM      8  C7  UNL d   1      -1.765   1.497   2.803  0.00  0.00    -0.001 A 
ENDROOT
TORSDOF 0
ENDMDL
