MODEL 1
REMARK minimizedAffinity -0.787954807
REMARK minimizedRMSD -1
REMARK  0 active torsions:
REMARK  status: ('A' for Active; 'I' for Inactive)
ROOT
ATOM      1  C   UNL d   1       2.179   0.651   0.246  0.00  0.00     0.077 C 
ATOM      2  C1  UNL d   1       0.858   0.385   0.904  0.00  0.00    -0.074 A 
ATOM      3  C2  UNL d   1       0.415  -0.923   1.125  0.00  0.00    -0.005 A 
ATOM      4  C3  UNL d   1      -0.811  -1.155   1.746  0.00  0.00     0.006 A 
ATOM      5  C4  UNL d   1      -1.607  -0.083   2.154  0.00  0.00    -0.005 A 
ATOM      6  C5  UNL d   1      -1.180   1.232   1.943  0.00  0.00    -0.074 A 
ATOM      7  C6  UNL d   1      -2.018   2.395   2.383  0.00  0.00     0.077 C 
ATOM      8  C7  UNL d   1       0.057   1.457   1.323  0.00  0.00    -0.001 A 
ENDROOT
TORSDOF 0
ENDMDL
