MODEL 1
REMARK minimizedAffinity 3.15678835
REMARK minimizedRMSD -1
REMARK  0 active torsions:
REMARK  status: ('A' for Active; 'I' for Inactive)
ROOT
ATOM      1  C   UNL d   1       2.922   1.683  -2.208  0.00  0.00     0.077 C 
ATOM      2  C1  UNL d   1       2.332   1.113  -0.953  0.00  0.00    -0.074 A 
ATOM      3  C2  UNL d   1       2.876  -0.029  -0.356  0.00  0.00    -0.005 A 
ATOM      4  C3  UNL d   1       2.322  -0.541   0.816  0.00  0.00     0.006 A 
ATOM      5  C4  UNL d   1       1.220   0.081   1.404  0.00  0.00    -0.005 A 
ATOM      6  C5  UNL d   1       0.663   1.224   0.822  0.00  0.00    -0.074 A 
ATOM      7  C6  UNL d   1      -0.516   1.911   1.446  0.00  0.00     0.077 C 
ATOM      8  C7  UNL d   1       1.229   1.738  -0.352  0.00  0.00    -0.001 A 
ENDROOT
TORSDOF 0
ENDMDL
