MODEL 1
REMARK minimizedAffinity -3.91172671
REMARK minimizedRMSD -1
REMARK  0 active torsions:
REMARK  status: ('A' for Active; 'I' for Inactive)
ROOT
ATOM      1  C   UNL d   1      -2.295  -0.592   1.693  0.00  0.00     0.077 C 
ATOM      2  C1  UNL d   1      -1.038   0.204   1.503  0.00  0.00    -0.074 A 
ATOM      3  C2  UNL d   1      -0.821   1.385   2.220  0.00  0.00    -0.005 A 
ATOM      4  C3  UNL d   1       0.357   2.110   2.040  0.00  0.00     0.006 A 
ATOM      5  C4  UNL d   1       1.327   1.663   1.143  0.00  0.00    -0.005 A 
ATOM      6  C5  UNL d   1       1.128   0.484   0.418  0.00  0.00    -0.074 A 
ATOM      7  C6  UNL d   1       2.164  -0.016  -0.544  0.00  0.00     0.077 C 
ATOM      8  C7  UNL d   1      -0.055  -0.243   0.609  0.00  0.00    -0.001 A 
ENDROOT
TORSDOF 0
ENDMDL
