MODEL 1
REMARK minimizedAffinity -1.91612601
REMARK minimizedRMSD -1
REMARK  0 active torsions:
REMARK  status: ('A' for Active; 'I' for Inactive)
ROOT
ATOM      1  C   UNL d   1       3.156   0.938  -2.405  0.00  0.00     0.077 C 
ATOM      2  C1  UNL d   1       2.588   0.527  -1.080  0.00  0.00    -0.074 A 
ATOM      3  C2  UNL d   1       3.163  -0.514  -0.343  0.00  0.00    -0.005 A 
ATOM      4  C3  UNL d   1       2.628  -0.879   0.893  0.00  0.00     0.006 A 
ATOM      5  C4  UNL d   1       1.516  -0.209   1.403  0.00  0.00    -0.005 A 
ATOM      6  C5  UNL d   1       0.928   0.835   0.681  0.00  0.00    -0.074 A 
ATOM      7  C6  UNL d   1      -0.262   1.572   1.219  0.00  0.00     0.077 C 
ATOM      8  C7  UNL d   1       1.475   1.201  -0.557  0.00  0.00    -0.001 A 
ENDROOT
TORSDOF 0
ENDMDL
