MODEL 1
REMARK minimizedAffinity 1.82511103
REMARK minimizedRMSD -1
REMARK  0 active torsions:
REMARK  status: ('A' for Active; 'I' for Inactive)
ROOT
ATOM      1  C1  BNZ d   1      -2.319   1.370  -1.569  0.00  0.00     0.000 A 
ATOM      2  C2  BNZ d   1      -1.710   1.408  -0.343  0.00  0.00     0.000 A 
ATOM      3  C3  BNZ d   1      -0.660   2.252  -0.109  0.00  0.00     0.000 A 
ATOM      4  C4  BNZ d   1      -0.196   3.026  -1.111  0.00  0.00     0.000 A 
ATOM      5  C5  BNZ d   1      -0.793   2.992  -2.355  0.00  0.00     0.000 A 
ATOM      6  C6  BNZ d   1      -1.874   2.170  -2.576  0.00  0.00     0.000 A 
ENDROOT
TORSDOF 0
ENDMDL
