MODEL 1
REMARK minimizedAffinity -1.3763684
REMARK minimizedRMSD -1
REMARK  0 active torsions:
REMARK  status: ('A' for Active; 'I' for Inactive)
ROOT
ATOM      1  C1  BNZ d   1       0.232   3.421  -2.285  0.00  0.00     0.000 A 
ATOM      2  C2  BNZ d   1       0.942   3.069  -1.168  0.00  0.00     0.000 A 
ATOM      3  C3  BNZ d   1       0.321   2.483  -0.100  0.00  0.00     0.000 A 
ATOM      4  C4  BNZ d   1      -1.013   2.287  -0.134  0.00  0.00     0.000 A 
ATOM      5  C5  BNZ d   1      -1.744   2.645  -1.249  0.00  0.00     0.000 A 
ATOM      6  C6  BNZ d   1      -1.109   3.199  -2.338  0.00  0.00     0.000 A 
ENDROOT
TORSDOF 0
ENDMDL
