MODEL 1
REMARK minimizedAffinity 13.1087399
REMARK minimizedRMSD -1
REMARK  0 active torsions:
REMARK  status: ('A' for Active; 'I' for Inactive)
ROOT
ATOM      1  C1  BNZ d   1       1.984   2.803   1.469  0.00  0.00     0.000 A 
ATOM      2  C2  BNZ d   1       0.817   2.532   0.806  0.00  0.00     0.000 A 
ATOM      3  C3  BNZ d   1      -0.351   2.347   1.492  0.00  0.00     0.000 A 
ATOM      4  C4  BNZ d   1      -0.342   2.394   2.840  0.00  0.00     0.000 A 
ATOM      5  C5  BNZ d   1       0.828   2.657   3.523  0.00  0.00     0.000 A 
ATOM      6  C6  BNZ d   1       1.994   2.881   2.828  0.00  0.00     0.000 A 
ENDROOT
TORSDOF 0
ENDMDL
