MODEL 1
REMARK minimizedAffinity 2.03782368
REMARK minimizedRMSD -1
REMARK  0 active torsions:
REMARK  status: ('A' for Active; 'I' for Inactive)
ROOT
ATOM      1  C1  BNZ d   1      -1.268  -1.116  -1.416  0.00  0.00     0.000 A 
ATOM      2  C2  BNZ d   1      -0.331  -0.170  -1.736  0.00  0.00     0.000 A 
ATOM      3  C3  BNZ d   1      -0.688   1.139  -1.905  0.00  0.00     0.000 A 
ATOM      4  C4  BNZ d   1      -1.984   1.492  -1.794  0.00  0.00     0.000 A 
ATOM      5  C5  BNZ d   1      -2.942   0.548  -1.481  0.00  0.00     0.000 A 
ATOM      6  C6  BNZ d   1      -2.574  -0.761  -1.273  0.00  0.00     0.000 A 
ENDROOT
TORSDOF 0
ENDMDL
