MODEL 1
REMARK minimizedAffinity -2.11248183
REMARK minimizedRMSD -1
REMARK  0 active torsions:
REMARK  status: ('A' for Active; 'I' for Inactive)
ROOT
ATOM      1  C1  BNZ d   1       2.182   3.904   1.425  0.00  0.00     0.000 A 
ATOM      2  C2  BNZ d   1       2.382   4.889   0.495  0.00  0.00     0.000 A 
ATOM      3  C3  BNZ d   1       1.505   5.063  -0.539  0.00  0.00     0.000 A 
ATOM      4  C4  BNZ d   1       0.453   4.228  -0.664  0.00  0.00     0.000 A 
ATOM      5  C5  BNZ d   1       0.243   3.225   0.260  0.00  0.00     0.000 A 
ATOM      6  C6  BNZ d   1       1.106   3.077   1.322  0.00  0.00     0.000 A 
ENDROOT
TORSDOF 0
ENDMDL
