MODEL 1
REMARK minimizedAffinity 2.91018653
REMARK minimizedRMSD -1
REMARK  1 active torsions:
REMARK  status: ('A' for Active; 'I' for Inactive)
REMARK    1  A    between atoms: C1_2  and  C2_3 
ROOT
ATOM      1  C2  UNL d   1       0.075   3.675  -5.919  0.00  0.00    -0.073 A 
ATOM      2  C3  UNL d   1       0.412   5.026  -5.777  0.00  0.00    -0.002 A 
ATOM      3  C4  UNL d   1      -0.586   5.998  -5.707  0.00  0.00     0.004 A 
ATOM      4  C5  UNL d   1      -1.930   5.630  -5.772  0.00  0.00    -0.004 A 
ATOM      5  C6  UNL d   1      -2.287   4.284  -5.901  0.00  0.00    -0.075 A 
ATOM      6  C7  UNL d   1      -3.728   3.872  -5.974  0.00  0.00     0.076 C 
ATOM      7  C8  UNL d   1      -1.279   3.314  -5.973  0.00  0.00     0.001 A 
ENDROOT
BRANCH   1   8
ATOM      8  C1  UNL d   1       1.150   2.621  -5.988  0.00  0.00     0.053 C 
ATOM      9  C   UNL d   1       2.544   3.228  -5.996  0.00  0.00     0.018 C 
ENDBRANCH   1   8
TORSDOF 1
ENDMDL
