MODEL 1
REMARK minimizedAffinity 0.186233237
REMARK minimizedRMSD -1
REMARK  1 active torsions:
REMARK  status: ('A' for Active; 'I' for Inactive)
REMARK    1  A    between atoms: C1_2  and  C2_3 
ROOT
ATOM      1  C2  UNL d   1      -0.143   3.249  -5.998  0.00  0.00    -0.073 A 
ATOM      2  C3  UNL d   1       0.191   4.609  -5.997  0.00  0.00    -0.002 A 
ATOM      3  C4  UNL d   1      -0.811   5.580  -5.996  0.00  0.00     0.004 A 
ATOM      4  C5  UNL d   1      -2.154   5.204  -5.990  0.00  0.00    -0.004 A 
ATOM      5  C6  UNL d   1      -2.508   3.851  -5.979  0.00  0.00    -0.075 A 
ATOM      6  C7  UNL d   1      -3.948   3.430  -5.974  0.00  0.00     0.076 C 
ATOM      7  C8  UNL d   1      -1.496   2.881  -5.982  0.00  0.00     0.001 A 
ENDROOT
BRANCH   1   8
ATOM      8  C1  UNL d   1       0.935   2.197  -5.992  0.00  0.00     0.053 C 
ATOM      9  C   UNL d   1       2.328   2.807  -5.999  0.00  0.00     0.018 C 
ENDBRANCH   1   8
TORSDOF 1
ENDMDL
