MODEL 1
REMARK minimizedAffinity 7.960742
REMARK minimizedRMSD -1
REMARK  1 active torsions:
REMARK  status: ('A' for Active; 'I' for Inactive)
REMARK    1  A    between atoms: C1_2  and  C2_3 
ROOT
ATOM      1  C2  UNL d   1      -1.071  -1.098   1.812  0.00  0.00    -0.073 A 
ATOM      2  C3  UNL d   1      -1.328   0.263   2.013  0.00  0.00    -0.002 A 
ATOM      3  C4  UNL d   1      -0.556   1.230   1.367  0.00  0.00     0.004 A 
ATOM      4  C5  UNL d   1       0.474   0.846   0.508  0.00  0.00    -0.004 A 
ATOM      5  C6  UNL d   1       0.739  -0.509   0.285  0.00  0.00    -0.075 A 
ATOM      6  C7  UNL d   1       1.845  -0.938  -0.634  0.00  0.00     0.076 C 
ATOM      7  C8  UNL d   1      -0.039  -1.473   0.939  0.00  0.00     0.001 A 
ENDROOT
BRANCH   1   8
ATOM      8  C1  UNL d   1      -1.906  -2.145   2.502  0.00  0.00     0.053 C 
ATOM      9  C   UNL d   1      -3.142  -1.548   3.156  0.00  0.00     0.018 C 
ENDBRANCH   1   8
TORSDOF 1
ENDMDL
