MODEL 1
REMARK minimizedAffinity 11.9786186
REMARK minimizedRMSD -1
REMARK  1 active torsions:
REMARK  status: ('A' for Active; 'I' for Inactive)
REMARK    1  A    between atoms: C1_2  and  C2_3 
ROOT
ATOM      1  C2  UNL d   1       0.409  -2.986  -2.775  0.00  0.00    -0.073 A 
ATOM      2  C3  UNL d   1       0.787  -3.339  -4.076  0.00  0.00    -0.002 A 
ATOM      3  C4  UNL d   1       2.109  -3.177  -4.494  0.00  0.00     0.004 A 
ATOM      4  C5  UNL d   1       3.066  -2.669  -3.616  0.00  0.00    -0.004 A 
ATOM      5  C6  UNL d   1       2.710  -2.321  -2.309  0.00  0.00    -0.075 A 
ATOM      6  C7  UNL d   1       3.727  -1.771  -1.353  0.00  0.00     0.076 C 
ATOM      7  C8  UNL d   1       1.380  -2.484  -1.897  0.00  0.00     0.001 A 
ENDROOT
BRANCH   1   8
ATOM      8  C1  UNL d   1      -1.015  -3.164  -2.317  0.00  0.00     0.053 C 
ATOM      9  C   UNL d   1      -1.520  -1.958  -1.542  0.00  0.00     0.018 C 
ENDBRANCH   1   8
TORSDOF 1
ENDMDL
