MODEL 1
REMARK minimizedAffinity -3.57654381
REMARK minimizedRMSD -1
REMARK  1 active torsions:
REMARK  status: ('A' for Active; 'I' for Inactive)
REMARK    1  A    between atoms: C1_2  and  C2_3 
ROOT
ATOM      1  C2  UNL d   1       2.147   4.204  -6.000  0.00  0.00    -0.073 A 
ATOM      2  C3  UNL d   1       1.835   5.569  -5.990  0.00  0.00    -0.002 A 
ATOM      3  C4  UNL d   1       0.504   5.988  -5.989  0.00  0.00     0.004 A 
ATOM      4  C5  UNL d   1      -0.527   5.049  -5.989  0.00  0.00    -0.004 A 
ATOM      5  C6  UNL d   1      -0.236   3.681  -5.987  0.00  0.00    -0.075 A 
ATOM      6  C7  UNL d   1      -1.334   2.659  -5.990  0.00  0.00     0.076 C 
ATOM      7  C8  UNL d   1       1.103   3.268  -5.991  0.00  0.00     0.001 A 
ENDROOT
BRANCH   1   8
ATOM      8  C1  UNL d   1       3.583   3.747  -5.995  0.00  0.00     0.053 C 
ATOM      9  C   UNL d   1       4.554   4.917  -6.000  0.00  0.00     0.018 C 
ENDBRANCH   1   8
TORSDOF 1
ENDMDL
