MODEL 1
REMARK minimizedAffinity -1.98336804
REMARK minimizedRMSD -1
REMARK  1 active torsions:
REMARK  status: ('A' for Active; 'I' for Inactive)
REMARK    1  A    between atoms: C1_2  and  C2_3 
ROOT
ATOM      1  C2  UNL d   1      -0.319   3.019  -5.967  0.00  0.00    -0.073 A 
ATOM      2  C3  UNL d   1       0.077   4.362  -5.981  0.00  0.00    -0.002 A 
ATOM      3  C4  UNL d   1      -0.879   5.378  -6.000  0.00  0.00     0.004 A 
ATOM      4  C5  UNL d   1      -2.238   5.065  -5.997  0.00  0.00    -0.004 A 
ATOM      5  C6  UNL d   1      -2.654   3.729  -5.971  0.00  0.00    -0.075 A 
ATOM      6  C7  UNL d   1      -4.112   3.375  -5.970  0.00  0.00     0.076 C 
ATOM      7  C8  UNL d   1      -1.688   2.714  -5.955  0.00  0.00     0.001 A 
ENDROOT
BRANCH   1   8
ATOM      8  C1  UNL d   1       0.709   1.918  -5.941  0.00  0.00     0.053 C 
ATOM      9  C   UNL d   1       2.128   2.462  -5.990  0.00  0.00     0.018 C 
ENDBRANCH   1   8
TORSDOF 1
ENDMDL
