MODEL 1
REMARK minimizedAffinity 8.74860001
REMARK minimizedRMSD -1
REMARK  1 active torsions:
REMARK  status: ('A' for Active; 'I' for Inactive)
REMARK    1  A    between atoms: C1_2  and  C2_3 
ROOT
ATOM      1  C2  UNL d   1       0.820  -3.790  -3.092  0.00  0.00    -0.073 A 
ATOM      2  C3  UNL d   1       1.612  -3.899  -4.241  0.00  0.00    -0.002 A 
ATOM      3  C4  UNL d   1       2.919  -3.410  -4.245  0.00  0.00     0.004 A 
ATOM      4  C5  UNL d   1       3.449  -2.814  -3.101  0.00  0.00    -0.004 A 
ATOM      5  C6  UNL d   1       2.678  -2.707  -1.940  0.00  0.00    -0.075 A 
ATOM      6  C7  UNL d   1       3.233  -2.066  -0.701  0.00  0.00     0.076 C 
ATOM      7  C8  UNL d   1       1.366  -3.198  -1.944  0.00  0.00     0.001 A 
ENDROOT
BRANCH   1   8
ATOM      8  C1  UNL d   1      -0.589  -4.323  -3.080  0.00  0.00     0.053 C 
ATOM      9  C   UNL d   1      -1.450  -3.635  -2.032  0.00  0.00     0.018 C 
ENDBRANCH   1   8
TORSDOF 1
ENDMDL
