MODEL 1
REMARK minimizedAffinity 0.880369425
REMARK minimizedRMSD -1
REMARK  1 active torsions:
REMARK  status: ('A' for Active; 'I' for Inactive)
REMARK    1  A    between atoms: C1_2  and  C2_3 
ROOT
ATOM      1  C2  UNL d   1      -2.777   1.382  -2.810  0.00  0.00    -0.081 A 
ATOM      2  C3  UNL d   1      -3.157   1.626  -1.485  0.00  0.00     0.006 A 
ATOM      3  C4  UNL d   1      -4.034   2.670  -1.180  0.00  0.00     0.002 A 
ATOM      4  C5  UNL d   1      -4.552   3.481  -2.196  0.00  0.00    -0.080 A 
ATOM      5  C6  UNL d   1      -5.517   4.586  -1.886  0.00  0.00     0.076 C 
ATOM      6  C7  UNL d   1      -4.159   3.248  -3.518  0.00  0.00     0.002 A 
ATOM      7  C8  UNL d   1      -3.281   2.205  -3.823  0.00  0.00     0.006 A 
ENDROOT
BRANCH   1   8
ATOM      8  C1  UNL d   1      -1.883   0.216  -3.149  0.00  0.00     0.054 C 
ATOM      9  C   UNL d   1      -2.671  -0.918  -3.789  0.00  0.00     0.018 C 
ENDBRANCH   1   8
TORSDOF 1
ENDMDL
