MODEL 1
REMARK minimizedAffinity -3.23754954
REMARK minimizedRMSD -1
REMARK  1 active torsions:
REMARK  status: ('A' for Active; 'I' for Inactive)
REMARK    1  A    between atoms: C1_2  and  C2_3 
ROOT
ATOM      1  C2  UNL d   1      -1.232   0.051  -0.921  0.00  0.00    -0.081 A 
ATOM      2  C3  UNL d   1       0.013  -0.066  -1.551  0.00  0.00     0.006 A 
ATOM      3  C4  UNL d   1       1.192  -0.035  -0.802  0.00  0.00     0.002 A 
ATOM      4  C5  UNL d   1       1.145   0.104   0.589  0.00  0.00    -0.080 A 
ATOM      5  C6  UNL d   1       2.401   0.108   1.409  0.00  0.00     0.076 C 
ATOM      6  C7  UNL d   1      -0.098   0.238   1.217  0.00  0.00     0.002 A 
ATOM      7  C8  UNL d   1      -1.277   0.209   0.468  0.00  0.00     0.006 A 
ENDROOT
BRANCH   1   8
ATOM      8  C1  UNL d   1      -2.507  -0.047  -1.719  0.00  0.00     0.054 C 
ATOM      9  C   UNL d   1      -2.234  -0.511  -3.143  0.00  0.00     0.018 C 
ENDBRANCH   1   8
TORSDOF 1
ENDMDL
