MODEL 1
REMARK minimizedAffinity -3.77730107
REMARK minimizedRMSD -1
REMARK  1 active torsions:
REMARK  status: ('A' for Active; 'I' for Inactive)
REMARK    1  A    between atoms: C1_2  and  C2_3 
ROOT
ATOM      1  C2  UNL d   1      -0.568   0.111  -0.022  0.00  0.00    -0.081 A 
ATOM      2  C3  UNL d   1       0.320   1.193  -0.023  0.00  0.00     0.006 A 
ATOM      3  C4  UNL d   1       1.670   1.001   0.279  0.00  0.00     0.002 A 
ATOM      4  C5  UNL d   1       2.156  -0.276   0.580  0.00  0.00    -0.080 A 
ATOM      5  C6  UNL d   1       3.609  -0.500   0.877  0.00  0.00     0.076 C 
ATOM      6  C7  UNL d   1       1.265  -1.354   0.598  0.00  0.00     0.002 A 
ATOM      7  C8  UNL d   1      -0.085  -1.163   0.297  0.00  0.00     0.006 A 
ENDROOT
BRANCH   1   8
ATOM      8  C1  UNL d   1      -2.012   0.304  -0.411  0.00  0.00     0.054 C 
ATOM      9  C   UNL d   1      -2.208   0.133  -1.910  0.00  0.00     0.018 C 
ENDBRANCH   1   8
TORSDOF 1
ENDMDL
