MODEL 1
REMARK minimizedAffinity -4.73451757
REMARK minimizedRMSD -1
REMARK  1 active torsions:
REMARK  status: ('A' for Active; 'I' for Inactive)
REMARK    1  A    between atoms: C1_2  and  C2_3 
ROOT
ATOM      1  C2  UNL d   1      -0.592   0.325   0.068  0.00  0.00    -0.081 A 
ATOM      2  C3  UNL d   1       0.535   1.142   0.222  0.00  0.00     0.006 A 
ATOM      3  C4  UNL d   1       1.701   0.637   0.802  0.00  0.00     0.002 A 
ATOM      4  C5  UNL d   1       1.763  -0.694   1.229  0.00  0.00    -0.080 A 
ATOM      5  C6  UNL d   1       3.019  -1.257   1.825  0.00  0.00     0.076 C 
ATOM      6  C7  UNL d   1       0.631  -1.505   1.091  0.00  0.00     0.002 A 
ATOM      7  C8  UNL d   1      -0.536  -1.000   0.512  0.00  0.00     0.006 A 
ENDROOT
BRANCH   1   8
ATOM      8  C1  UNL d   1      -1.830   0.848  -0.615  0.00  0.00     0.054 C 
ATOM      9  C   UNL d   1      -2.083   0.125  -1.930  0.00  0.00     0.018 C 
ENDBRANCH   1   8
TORSDOF 1
ENDMDL
