MODEL 1
REMARK minimizedAffinity -3.96631026
REMARK minimizedRMSD -1
REMARK  1 active torsions:
REMARK  status: ('A' for Active; 'I' for Inactive)
REMARK    1  A    between atoms: C1_2  and  C2_3 
ROOT
ATOM      1  C2  UNL d   1      -0.663  -0.237  -0.032  0.00  0.00    -0.081 A 
ATOM      2  C3  UNL d   1       0.060   0.959  -0.104  0.00  0.00     0.006 A 
ATOM      3  C4  UNL d   1       1.414   0.990   0.239  0.00  0.00     0.002 A 
ATOM      4  C5  UNL d   1       2.068  -0.175   0.652  0.00  0.00    -0.080 A 
ATOM      5  C6  UNL d   1       3.528  -0.162   0.995  0.00  0.00     0.076 C 
ATOM      6  C7  UNL d   1       1.341  -1.367   0.741  0.00  0.00     0.002 A 
ATOM      7  C8  UNL d   1      -0.013  -1.399   0.399  0.00  0.00     0.006 A 
ENDROOT
BRANCH   1   8
ATOM      8  C1  UNL d   1      -2.107  -0.287  -0.464  0.00  0.00     0.054 C 
ATOM      9  C   UNL d   1      -2.311   0.418  -1.797  0.00  0.00     0.018 C 
ENDBRANCH   1   8
TORSDOF 1
ENDMDL
