MODEL 1
REMARK minimizedAffinity -2.42758965
REMARK minimizedRMSD -1
REMARK  3 active torsions:
REMARK  status: ('A' for Active; 'I' for Inactive)
REMARK    1  A    between atoms: C3'_2  and  C2'_3 
REMARK    2  A    between atoms: C2'_3  and  C1'_4 
REMARK    3  A    between atoms: C1'_4  and  C1_5 
ROOT
ATOM      1  C1  N4B d   1      -0.941   0.883   0.339  0.00  0.00    -0.075 A 
ATOM      2  C2  N4B d   1      -0.464  -0.337   0.867  0.00  0.00     0.002 A 
ATOM      3  C3  N4B d   1       0.456  -1.076   0.164  0.00  0.00     0.002 A 
ATOM      4  C4  N4B d   1       0.896  -0.627  -1.072  0.00  0.00    -0.004 A 
ATOM      5  C5  N4B d   1       0.450   0.564  -1.563  0.00  0.00     0.002 A 
ATOM      6  C6  N4B d   1      -0.472   1.320  -0.866  0.00  0.00     0.002 A 
ENDROOT
BRANCH   1   7
ATOM      7  C1' N4B d   1      -2.011   1.683   1.030  0.00  0.00     0.057 C 
BRANCH   7   8
ATOM      8  C2' N4B d   1      -1.354   2.712   1.946  0.00  0.00     0.009 C 
BRANCH   8   9
ATOM      9  C3' N4B d   1      -0.495   2.056   3.014  0.00  0.00     0.004 C 
ATOM     10  C4' N4B d   1       0.299   3.048   3.810  0.00  0.00     0.003 C 
ENDBRANCH   8   9
ENDBRANCH   7   8
ENDBRANCH   1   7
TORSDOF 3
ENDMDL
