MODEL 1
REMARK minimizedAffinity -6.22590017
REMARK minimizedRMSD -1
REMARK  3 active torsions:
REMARK  status: ('A' for Active; 'I' for Inactive)
REMARK    1  A    between atoms: C3'_2  and  C2'_3 
REMARK    2  A    between atoms: C2'_3  and  C1'_4 
REMARK    3  A    between atoms: C1'_4  and  C1_5 
ROOT
ATOM      1  C1  N4B d   1      -0.826   0.894   0.218  0.00  0.00    -0.075 A 
ATOM      2  C2  N4B d   1      -1.645   1.397   1.253  0.00  0.00     0.002 A 
ATOM      3  C3  N4B d   1      -1.886   2.746   1.343  0.00  0.00     0.002 A 
ATOM      4  C4  N4B d   1      -1.306   3.609   0.425  0.00  0.00    -0.004 A 
ATOM      5  C5  N4B d   1      -0.537   3.112  -0.587  0.00  0.00     0.002 A 
ATOM      6  C6  N4B d   1      -0.290   1.758  -0.692  0.00  0.00     0.002 A 
ENDROOT
BRANCH   1   7
ATOM      7  C1' N4B d   1      -0.464  -0.564   0.130  0.00  0.00     0.057 C 
BRANCH   7   8
ATOM      8  C2' N4B d   1       0.686  -0.736  -0.858  0.00  0.00     0.009 C 
BRANCH   8   9
ATOM      9  C3' N4B d   1       0.872  -2.187  -1.266  0.00  0.00     0.004 C 
ATOM     10  C4' N4B d   1       0.850  -2.378  -2.754  0.00  0.00     0.003 C 
ENDBRANCH   8   9
ENDBRANCH   7   8
ENDBRANCH   1   7
TORSDOF 3
ENDMDL
