MODEL 1
REMARK minimizedAffinity -6.29861927
REMARK minimizedRMSD -1
REMARK  3 active torsions:
REMARK  status: ('A' for Active; 'I' for Inactive)
REMARK    1  A    between atoms: C3'_2  and  C2'_3 
REMARK    2  A    between atoms: C2'_3  and  C1'_4 
REMARK    3  A    between atoms: C1'_4  and  C1_5 
ROOT
ATOM      1  C1  N4B d   1      -0.363  -0.140   0.521  0.00  0.00    -0.075 A 
ATOM      2  C2  N4B d   1      -1.178   0.707  -0.263  0.00  0.00     0.002 A 
ATOM      3  C3  N4B d   1      -1.888   1.721   0.333  0.00  0.00     0.002 A 
ATOM      4  C4  N4B d   1      -1.814   1.893   1.708  0.00  0.00    -0.004 A 
ATOM      5  C5  N4B d   1      -1.005   1.087   2.454  0.00  0.00     0.002 A 
ATOM      6  C6  N4B d   1      -0.283   0.067   1.868  0.00  0.00     0.002 A 
ENDROOT
BRANCH   1   7
ATOM      7  C1' N4B d   1       0.364  -1.314  -0.074  0.00  0.00     0.057 C 
BRANCH   7   8
ATOM      8  C2' N4B d   1       0.737  -0.993  -1.518  0.00  0.00     0.009 C 
BRANCH   8   9
ATOM      9  C3' N4B d   1       0.045  -1.920  -2.503  0.00  0.00     0.004 C 
ATOM     10  C4' N4B d   1      -0.117  -3.314  -1.974  0.00  0.00     0.003 C 
ENDBRANCH   8   9
ENDBRANCH   7   8
ENDBRANCH   1   7
TORSDOF 3
ENDMDL
