MODEL 1
REMARK minimizedAffinity -2.5994513
REMARK minimizedRMSD -1
REMARK  3 active torsions:
REMARK  status: ('A' for Active; 'I' for Inactive)
REMARK    1  A    between atoms: C3'_2  and  C2'_3 
REMARK    2  A    between atoms: C2'_3  and  C1'_4 
REMARK    3  A    between atoms: C1'_4  and  C1_5 
ROOT
ATOM      1  C1  N4B d   1      -0.103   0.450   0.456  0.00  0.00    -0.075 A 
ATOM      2  C2  N4B d   1      -0.772   1.658   0.752  0.00  0.00     0.002 A 
ATOM      3  C3  N4B d   1      -1.232   1.894   2.024  0.00  0.00     0.002 A 
ATOM      4  C4  N4B d   1      -1.052   0.933   3.008  0.00  0.00    -0.004 A 
ATOM      5  C5  N4B d   1      -0.382  -0.220   2.720  0.00  0.00     0.002 A 
ATOM      6  C6  N4B d   1       0.089  -0.469   1.447  0.00  0.00     0.002 A 
ENDROOT
BRANCH   1   7
ATOM      7  C1' N4B d   1       0.343   0.111  -0.940  0.00  0.00     0.057 C 
BRANCH   7   8
ATOM      8  C2' N4B d   1       0.698  -1.372  -1.006  0.00  0.00     0.009 C 
BRANCH   8   9
ATOM      9  C3' N4B d   1      -0.114  -2.105  -2.060  0.00  0.00     0.004 C 
ATOM     10  C4' N4B d   1       0.210  -3.567  -2.130  0.00  0.00     0.003 C 
ENDBRANCH   8   9
ENDBRANCH   7   8
ENDBRANCH   1   7
TORSDOF 3
ENDMDL
