MODEL 1
REMARK minimizedAffinity -5.56780481
REMARK minimizedRMSD -1
REMARK  3 active torsions:
REMARK  status: ('A' for Active; 'I' for Inactive)
REMARK    1  A    between atoms: C3'_2  and  C2'_3 
REMARK    2  A    between atoms: C2'_3  and  C1'_4 
REMARK    3  A    between atoms: C1'_4  and  C1_5 
ROOT
ATOM      1  C1  N4B d   1      -0.275   0.063   0.698  0.00  0.00    -0.075 A 
ATOM      2  C2  N4B d   1      -0.968   0.944  -0.160  0.00  0.00     0.002 A 
ATOM      3  C3  N4B d   1      -1.963   1.748   0.340  0.00  0.00     0.002 A 
ATOM      4  C4  N4B d   1      -2.293   1.675   1.685  0.00  0.00    -0.004 A 
ATOM      5  C5  N4B d   1      -1.602   0.840   2.512  0.00  0.00     0.002 A 
ATOM      6  C6  N4B d   1      -0.597   0.029   2.024  0.00  0.00     0.002 A 
ENDROOT
BRANCH   1   7
ATOM      7  C1' N4B d   1       0.761  -0.897   0.182  0.00  0.00     0.057 C 
BRANCH   7   8
ATOM      8  C2' N4B d   1       1.047  -0.585  -1.284  0.00  0.00     0.009 C 
BRANCH   8   9
ATOM      9  C3' N4B d   1       0.865  -1.805  -2.171  0.00  0.00     0.004 C 
ATOM     10  C4' N4B d   1       1.419  -3.057  -1.557  0.00  0.00     0.003 C 
ENDBRANCH   8   9
ENDBRANCH   7   8
ENDBRANCH   1   7
TORSDOF 3
ENDMDL
