MODEL 1
REMARK minimizedAffinity -5.73435116
REMARK minimizedRMSD -1
REMARK  3 active torsions:
REMARK  status: ('A' for Active; 'I' for Inactive)
REMARK    1  A    between atoms: C3'_2  and  C2'_3 
REMARK    2  A    between atoms: C2'_3  and  C1'_4 
REMARK    3  A    between atoms: C1'_4  and  C1_5 
ROOT
ATOM      1  C1  N4B d   1      -0.444   0.050   0.485  0.00  0.00    -0.075 A 
ATOM      2  C2  N4B d   1      -0.765   1.103  -0.400  0.00  0.00     0.002 A 
ATOM      3  C3  N4B d   1      -1.308   2.267   0.087  0.00  0.00     0.002 A 
ATOM      4  C4  N4B d   1      -1.557   2.392   1.445  0.00  0.00    -0.004 A 
ATOM      5  C5  N4B d   1      -1.221   1.380   2.296  0.00  0.00     0.002 A 
ATOM      6  C6  N4B d   1      -0.670   0.207   1.822  0.00  0.00     0.002 A 
ENDROOT
BRANCH   1   7
ATOM      7  C1' N4B d   1       0.072  -1.274  -0.010  0.00  0.00     0.057 C 
BRANCH   7   8
ATOM      8  C2' N4B d   1       1.127  -1.029  -1.084  0.00  0.00     0.009 C 
BRANCH   8   9
ATOM      9  C3' N4B d   1       1.255  -2.208  -2.034  0.00  0.00     0.004 C 
ATOM     10  C4' N4B d   1      -0.057  -2.884  -2.300  0.00  0.00     0.003 C 
ENDBRANCH   8   9
ENDBRANCH   7   8
ENDBRANCH   1   7
TORSDOF 3
ENDMDL
