MODEL 1
REMARK minimizedAffinity -5.38697052
REMARK minimizedRMSD -1
REMARK  3 active torsions:
REMARK  status: ('A' for Active; 'I' for Inactive)
REMARK    1  A    between atoms: C3'_2  and  C2'_3 
REMARK    2  A    between atoms: C2'_3  and  C1'_4 
REMARK    3  A    between atoms: C1'_4  and  C1_5 
ROOT
ATOM      1  C1  N4B d   1       0.481  -0.414  -0.178  0.00  0.00    -0.075 A 
ATOM      2  C2  N4B d   1       0.053  -0.427   1.168  0.00  0.00     0.002 A 
ATOM      3  C3  N4B d   1      -0.743   0.585   1.645  0.00  0.00     0.002 A 
ATOM      4  C4  N4B d   1      -1.106   1.626   0.804  0.00  0.00    -0.004 A 
ATOM      5  C5  N4B d   1      -0.709   1.618  -0.501  0.00  0.00     0.002 A 
ATOM      6  C6  N4B d   1       0.088   0.605  -0.995  0.00  0.00     0.002 A 
ENDROOT
BRANCH   1   7
ATOM      7  C1' N4B d   1       1.422  -1.454  -0.721  0.00  0.00     0.057 C 
BRANCH   7   8
ATOM      8  C2' N4B d   1       0.874  -1.984  -2.043  0.00  0.00     0.009 C 
BRANCH   8   9
ATOM      9  C3' N4B d   1       1.203  -3.453  -2.247  0.00  0.00     0.004 C 
ATOM     10  C4' N4B d   1       0.065  -4.359  -1.881  0.00  0.00     0.003 C 
ENDBRANCH   8   9
ENDBRANCH   7   8
ENDBRANCH   1   7
TORSDOF 3
ENDMDL
