MODEL 1
REMARK minimizedAffinity -1.9830966
REMARK minimizedRMSD -1
REMARK  3 active torsions:
REMARK  status: ('A' for Active; 'I' for Inactive)
REMARK    1  A    between atoms: C3'_2  and  C2'_3 
REMARK    2  A    between atoms: C2'_3  and  C1'_4 
REMARK    3  A    between atoms: C1'_4  and  C1_5 
ROOT
ATOM      1  C1  N4B d   1       0.292  -0.352  -0.026  0.00  0.00    -0.075 A 
ATOM      2  C2  N4B d   1      -0.127   0.903  -0.522  0.00  0.00     0.002 A 
ATOM      3  C3  N4B d   1      -0.914   1.719   0.252  0.00  0.00     0.002 A 
ATOM      4  C4  N4B d   1      -1.309   1.297   1.513  0.00  0.00    -0.004 A 
ATOM      5  C5  N4B d   1      -0.879   0.095   1.995  0.00  0.00     0.002 A 
ATOM      6  C6  N4B d   1      -0.085  -0.734   1.229  0.00  0.00     0.002 A 
ENDROOT
BRANCH   1   7
ATOM      7  C1' N4B d   1       1.081  -1.316  -0.869  0.00  0.00     0.057 C 
BRANCH   7   8
ATOM      8  C2' N4B d   1       0.314  -1.600  -2.157  0.00  0.00     0.009 C 
BRANCH   8   9
ATOM      9  C3' N4B d   1       0.345  -3.074  -2.523  0.00  0.00     0.004 C 
ATOM     10  C4' N4B d   1       0.407  -3.970  -1.323  0.00  0.00     0.003 C 
ENDBRANCH   8   9
ENDBRANCH   7   8
ENDBRANCH   1   7
TORSDOF 3
ENDMDL
