MODEL 1
REMARK minimizedAffinity -6.3651371
REMARK minimizedRMSD -1
REMARK  3 active torsions:
REMARK  status: ('A' for Active; 'I' for Inactive)
REMARK    1  A    between atoms: C3'_2  and  C2'_3 
REMARK    2  A    between atoms: C2'_3  and  C1'_4 
REMARK    3  A    between atoms: C1'_4  and  C1_5 
ROOT
ATOM      1  C1  N4B d   1       0.539   0.297  -0.210  0.00  0.00    -0.075 A 
ATOM      2  C2  N4B d   1      -0.120   1.482  -0.603  0.00  0.00     0.002 A 
ATOM      3  C3  N4B d   1      -1.131   1.995   0.173  0.00  0.00     0.002 A 
ATOM      4  C4  N4B d   1      -1.510   1.332   1.331  0.00  0.00    -0.004 A 
ATOM      5  C5  N4B d   1      -0.851   0.202   1.717  0.00  0.00     0.002 A 
ATOM      6  C6  N4B d   1       0.169  -0.322   0.949  0.00  0.00     0.002 A 
ENDROOT
BRANCH   1   7
ATOM      7  C1' N4B d   1       1.592  -0.349  -1.070  0.00  0.00     0.057 C 
BRANCH   7   8
ATOM      8  C2' N4B d   1       1.300  -1.842  -1.182  0.00  0.00     0.009 C 
BRANCH   8   9
ATOM      9  C3' N4B d   1       0.788  -2.219  -2.562  0.00  0.00     0.004 C 
ATOM     10  C4' N4B d   1      -0.220  -3.329  -2.524  0.00  0.00     0.003 C 
ENDBRANCH   8   9
ENDBRANCH   7   8
ENDBRANCH   1   7
TORSDOF 3
ENDMDL
