MODEL 1
REMARK minimizedAffinity -6.85048008
REMARK minimizedRMSD -1
REMARK  3 active torsions:
REMARK  status: ('A' for Active; 'I' for Inactive)
REMARK    1  A    between atoms: C3'_2  and  C2'_3 
REMARK    2  A    between atoms: C2'_3  and  C1'_4 
REMARK    3  A    between atoms: C1'_4  and  C1_5 
ROOT
ATOM      1  C1  N4B d   1      -0.109   0.341   0.216  0.00  0.00    -0.075 A 
ATOM      2  C2  N4B d   1      -0.726   1.437  -0.426  0.00  0.00     0.002 A 
ATOM      3  C3  N4B d   1      -1.714   2.142   0.217  0.00  0.00     0.002 A 
ATOM      4  C4  N4B d   1      -2.113   1.759   1.489  0.00  0.00    -0.004 A 
ATOM      5  C5  N4B d   1      -1.494   0.714   2.112  0.00  0.00     0.002 A 
ATOM      6  C6  N4B d   1      -0.497  -0.000   1.479  0.00  0.00     0.002 A 
ENDROOT
BRANCH   1   7
ATOM      7  C1' N4B d   1       0.916  -0.512  -0.480  0.00  0.00     0.057 C 
BRANCH   7   8
ATOM      8  C2' N4B d   1       0.241  -1.284  -1.610  0.00  0.00     0.009 C 
BRANCH   8   9
ATOM      9  C3' N4B d   1       0.970  -2.579  -1.928  0.00  0.00     0.004 C 
ATOM     10  C4' N4B d   1       0.057  -3.768  -1.950  0.00  0.00     0.003 C 
ENDBRANCH   8   9
ENDBRANCH   7   8
ENDBRANCH   1   7
TORSDOF 3
ENDMDL
