MODEL 1
REMARK minimizedAffinity -3.06214523
REMARK minimizedRMSD -1
REMARK  3 active torsions:
REMARK  status: ('A' for Active; 'I' for Inactive)
REMARK    1  A    between atoms: C3'_2  and  C2'_3 
REMARK    2  A    between atoms: C2'_3  and  C1'_4 
REMARK    3  A    between atoms: C1'_4  and  C1_5 
ROOT
ATOM      1  C1  N4B d   1       0.152  -0.064  -0.128  0.00  0.00    -0.075 A 
ATOM      2  C2  N4B d   1       0.247   1.050  -0.991  0.00  0.00     0.002 A 
ATOM      3  C3  N4B d   1      -0.442   2.203  -0.702  0.00  0.00     0.002 A 
ATOM      4  C4  N4B d   1      -1.243   2.258   0.429  0.00  0.00    -0.004 A 
ATOM      5  C5  N4B d   1      -1.309   1.187   1.270  0.00  0.00     0.002 A 
ATOM      6  C6  N4B d   1      -0.619   0.023   0.995  0.00  0.00     0.002 A 
ENDROOT
BRANCH   1   7
ATOM      7  C1' N4B d   1       0.817  -1.375  -0.447  0.00  0.00     0.057 C 
BRANCH   7   8
ATOM      8  C2' N4B d   1       0.103  -2.025  -1.628  0.00  0.00     0.009 C 
BRANCH   8   9
ATOM      9  C3' N4B d   1       0.344  -3.524  -1.683  0.00  0.00     0.004 C 
ATOM     10  C4' N4B d   1      -0.118  -4.140  -2.970  0.00  0.00     0.003 C 
ENDBRANCH   8   9
ENDBRANCH   7   8
ENDBRANCH   1   7
TORSDOF 3
ENDMDL
