MODEL 1
REMARK minimizedAffinity -5.35744238
REMARK minimizedRMSD -1
REMARK  3 active torsions:
REMARK  status: ('A' for Active; 'I' for Inactive)
REMARK    1  A    between atoms: C3'_2  and  C2'_3 
REMARK    2  A    between atoms: C2'_3  and  C1'_4 
REMARK    3  A    between atoms: C1'_4  and  C1_5 
ROOT
ATOM      1  C1  N4B d   1      -0.460   0.303   0.356  0.00  0.00    -0.075 A 
ATOM      2  C2  N4B d   1      -0.983   1.181  -0.618  0.00  0.00     0.002 A 
ATOM      3  C3  N4B d   1      -1.747   2.256  -0.235  0.00  0.00     0.002 A 
ATOM      4  C4  N4B d   1      -2.015   2.461   1.110  0.00  0.00    -0.004 A 
ATOM      5  C5  N4B d   1      -1.486   1.623   2.047  0.00  0.00     0.002 A 
ATOM      6  C6  N4B d   1      -0.713   0.541   1.676  0.00  0.00     0.002 A 
ENDROOT
BRANCH   1   7
ATOM      7  C1' N4B d   1       0.309  -0.934  -0.020  0.00  0.00     0.057 C 
BRANCH   7   8
ATOM      8  C2' N4B d   1       0.849  -0.776  -1.439  0.00  0.00     0.009 C 
BRANCH   8   9
ATOM      9  C3' N4B d   1       0.274  -1.815  -2.385  0.00  0.00     0.004 C 
ATOM     10  C4' N4B d   1       0.816  -3.191  -2.135  0.00  0.00     0.003 C 
ENDBRANCH   8   9
ENDBRANCH   7   8
ENDBRANCH   1   7
TORSDOF 3
ENDMDL
