MODEL 1
REMARK minimizedAffinity 26.1206703
REMARK minimizedRMSD -1
REMARK  0 active torsions:
REMARK  status: ('A' for Active; 'I' for Inactive)
ROOT
ATOM      1  C   UNL d   1       0.165  -1.494   2.609  0.00  0.00    -0.002 A 
ATOM      2  C1  UNL d   1       0.590  -2.461   1.708  0.00  0.00     0.010 A 
ATOM      3  C2  UNL d   1       1.828  -2.344   1.073  0.00  0.00     0.041 A 
ATOM      4  C3  UNL d   1       2.640  -1.231   1.362  0.00  0.00    -0.075 A 
ATOM      5  S   UNL d   1       4.195  -0.880   0.705  0.00  0.00     0.015 SA
ATOM      6  C4  UNL d   1       4.333   0.561   1.605  0.00  0.00     0.022 A 
ATOM      7  C5  UNL d   1       3.229   0.784   2.393  0.00  0.00     0.026 A 
ATOM      8  C6  UNL d   1       2.235  -0.245   2.267  0.00  0.00    -0.082 A 
ATOM      9  C7  UNL d   1       0.975  -0.391   2.894  0.00  0.00     0.045 A 
ENDROOT
TORSDOF 0
ENDMDL
