MODEL 1
REMARK minimizedAffinity 22.0744667
REMARK minimizedRMSD -1
REMARK  0 active torsions:
REMARK  status: ('A' for Active; 'I' for Inactive)
ROOT
ATOM      1  C   UNL d   1       2.469  -5.538   1.449  0.00  0.00    -0.002 A 
ATOM      2  C1  UNL d   1       2.814  -5.294   0.127  0.00  0.00     0.010 A 
ATOM      3  C2  UNL d   1       1.947  -4.594  -0.715  0.00  0.00     0.041 A 
ATOM      4  C3  UNL d   1       0.717  -4.138  -0.200  0.00  0.00    -0.075 A 
ATOM      5  S   UNL d   1      -0.501  -3.259  -1.046  0.00  0.00     0.015 SA
ATOM      6  C4  UNL d   1      -1.507  -3.186   0.327  0.00  0.00     0.022 A 
ATOM      7  C5  UNL d   1      -0.943  -3.813   1.413  0.00  0.00     0.026 A 
ATOM      8  C6  UNL d   1       0.348  -4.371   1.127  0.00  0.00    -0.082 A 
ATOM      9  C7  UNL d   1       1.248  -5.085   1.955  0.00  0.00     0.045 A 
ENDROOT
TORSDOF 0
ENDMDL
