MODEL 1
REMARK minimizedAffinity 12.6991072
REMARK minimizedRMSD -1
REMARK  0 active torsions:
REMARK  status: ('A' for Active; 'I' for Inactive)
ROOT
ATOM      1  C   UNL d   1       1.037  -5.999  -5.453  0.00  0.00    -0.002 A 
ATOM      2  C1  UNL d   1       0.460  -5.130  -4.538  0.00  0.00     0.010 A 
ATOM      3  C2  UNL d   1       1.132  -3.975  -4.135  0.00  0.00     0.041 A 
ATOM      4  C3  UNL d   1       2.405  -3.704  -4.674  0.00  0.00    -0.075 A 
ATOM      5  S   UNL d   1       3.413  -2.349  -4.328  0.00  0.00     0.015 SA
ATOM      6  C4  UNL d   1       4.633  -2.891  -5.388  0.00  0.00     0.022 A 
ATOM      7  C5  UNL d   1       4.296  -4.076  -5.999  0.00  0.00     0.026 A 
ATOM      8  C6  UNL d   1       3.006  -4.563  -5.598  0.00  0.00    -0.082 A 
ATOM      9  C7  UNL d   1       2.299  -5.727  -5.986  0.00  0.00     0.045 A 
ENDROOT
TORSDOF 0
ENDMDL
