MODEL 1
REMARK minimizedAffinity 19.3702755
REMARK minimizedRMSD -1
REMARK  0 active torsions:
REMARK  status: ('A' for Active; 'I' for Inactive)
ROOT
ATOM      1  C   UNL d   1      -1.765   2.113  -2.613  0.00  0.00    -0.002 A 
ATOM      2  C1  UNL d   1      -0.610   2.622  -2.038  0.00  0.00     0.010 A 
ATOM      3  C2  UNL d   1      -0.060   3.823  -2.491  0.00  0.00     0.041 A 
ATOM      4  C3  UNL d   1      -0.699   4.511  -3.541  0.00  0.00    -0.075 A 
ATOM      5  S   UNL d   1      -0.207   6.000  -4.259  0.00  0.00     0.015 SA
ATOM      6  C4  UNL d   1      -1.521   5.996  -5.345  0.00  0.00     0.022 A 
ATOM      7  C5  UNL d   1      -2.324   4.893  -5.179  0.00  0.00     0.026 A 
ATOM      8  C6  UNL d   1      -1.864   4.020  -4.136  0.00  0.00    -0.082 A 
ATOM      9  C7  UNL d   1      -2.396   2.799  -3.654  0.00  0.00     0.045 A 
ENDROOT
TORSDOF 0
ENDMDL
