MODEL 1
REMARK minimizedAffinity 6.73405313
REMARK minimizedRMSD -1
REMARK  0 active torsions:
REMARK  status: ('A' for Active; 'I' for Inactive)
ROOT
ATOM      1  C   UNL d   1       3.569  -4.049  -5.401  0.00  0.00    -0.002 A 
ATOM      2  C1  UNL d   1       3.301  -5.272  -5.999  0.00  0.00     0.010 A 
ATOM      3  C2  UNL d   1       2.106  -5.944  -5.738  0.00  0.00     0.041 A 
ATOM      4  C3  UNL d   1       1.174  -5.360  -4.858  0.00  0.00    -0.075 A 
ATOM      5  S   UNL d   1      -0.357  -6.000  -4.390  0.00  0.00     0.015 SA
ATOM      6  C4  UNL d   1      -0.692  -4.664  -3.386  0.00  0.00     0.022 A 
ATOM      7  C5  UNL d   1       0.329  -3.743  -3.394  0.00  0.00     0.026 A 
ATOM      8  C6  UNL d   1       1.421  -4.129  -4.244  0.00  0.00    -0.082 A 
ATOM      9  C7  UNL d   1       2.643  -3.473  -4.528  0.00  0.00     0.045 A 
ENDROOT
TORSDOF 0
ENDMDL
