MODEL 1
REMARK minimizedAffinity 22.2579746
REMARK minimizedRMSD -1
REMARK  0 active torsions:
REMARK  status: ('A' for Active; 'I' for Inactive)
ROOT
ATOM      1  C   UNL d   1       2.018  -0.193   1.628  0.00  0.00    -0.002 A 
ATOM      2  C1  UNL d   1       3.168  -0.708   1.048  0.00  0.00     0.010 A 
ATOM      3  C2  UNL d   1       3.259  -2.067   0.737  0.00  0.00     0.041 A 
ATOM      4  C3  UNL d   1       2.163  -2.905   1.020  0.00  0.00    -0.075 A 
ATOM      5  S   UNL d   1       2.048  -4.600   0.726  0.00  0.00     0.015 SA
ATOM      6  C4  UNL d   1       0.469  -4.679   1.362  0.00  0.00     0.022 A 
ATOM      7  C5  UNL d   1       0.025  -3.452   1.793  0.00  0.00     0.026 A 
ATOM      8  C6  UNL d   1       0.994  -2.409   1.603  0.00  0.00    -0.082 A 
ATOM      9  C7  UNL d   1       0.933  -1.028   1.907  0.00  0.00     0.045 A 
ENDROOT
TORSDOF 0
ENDMDL
