MODEL 1
REMARK minimizedAffinity 13.4319277
REMARK minimizedRMSD -1
REMARK  0 active torsions:
REMARK  status: ('A' for Active; 'I' for Inactive)
ROOT
ATOM      1  C   UNL d   1      -4.148  -2.636   1.434  0.00  0.00    -0.002 A 
ATOM      2  C1  UNL d   1      -2.862  -2.814   1.924  0.00  0.00     0.010 A 
ATOM      3  C2  UNL d   1      -2.640  -2.992   3.291  0.00  0.00     0.041 A 
ATOM      4  C3  UNL d   1      -3.744  -2.992   4.166  0.00  0.00    -0.075 A 
ATOM      5  S   UNL d   1      -3.714  -3.194   5.878  0.00  0.00     0.015 SA
ATOM      6  C4  UNL d   1      -5.407  -3.051   6.000  0.00  0.00     0.022 A 
ATOM      7  C5  UNL d   1      -5.998  -2.854   4.774  0.00  0.00     0.026 A 
ATOM      8  C6  UNL d   1      -5.049  -2.817   3.697  0.00  0.00    -0.082 A 
ATOM      9  C7  UNL d   1      -5.241  -2.637   2.306  0.00  0.00     0.045 A 
ENDROOT
TORSDOF 0
ENDMDL
