MODEL 1
REMARK minimizedAffinity 20.0604229
REMARK minimizedRMSD -1
REMARK  0 active torsions:
REMARK  status: ('A' for Active; 'I' for Inactive)
ROOT
ATOM      1  C   UNL d   1      -0.013  -1.789   2.050  0.00  0.00    -0.002 A 
ATOM      2  C1  UNL d   1       0.643  -2.810   1.376  0.00  0.00     0.010 A 
ATOM      3  C2  UNL d   1       1.974  -2.661   0.984  0.00  0.00     0.041 A 
ATOM      4  C3  UNL d   1       2.643  -1.458   1.285  0.00  0.00    -0.075 A 
ATOM      5  S   UNL d   1       4.275  -1.053   0.904  0.00  0.00     0.015 SA
ATOM      6  C4  UNL d   1       4.141   0.484   1.628  0.00  0.00     0.022 A 
ATOM      7  C5  UNL d   1       2.889   0.699   2.152  0.00  0.00     0.026 A 
ATOM      8  C6  UNL d   1       2.005  -0.417   1.964  0.00  0.00    -0.082 A 
ATOM      9  C7  UNL d   1       0.654  -0.598   2.347  0.00  0.00     0.045 A 
ENDROOT
TORSDOF 0
ENDMDL
