MODEL 1
REMARK minimizedAffinity 26.8154297
REMARK minimizedRMSD -1
REMARK  0 active torsions:
REMARK  status: ('A' for Active; 'I' for Inactive)
ROOT
ATOM      1  C   UNL d   1       2.748  -0.702   1.749  0.00  0.00    -0.002 A 
ATOM      2  C1  UNL d   1       1.524  -1.217   1.346  0.00  0.00     0.010 A 
ATOM      3  C2  UNL d   1       0.664  -0.460   0.548  0.00  0.00     0.041 A 
ATOM      4  C3  UNL d   1       1.060   0.834   0.156  0.00  0.00    -0.075 A 
ATOM      5  S   UNL d   1       0.170   1.942  -0.820  0.00  0.00     0.015 SA
ATOM      6  C4  UNL d   1       1.395   3.124  -0.726  0.00  0.00     0.022 A 
ATOM      7  C5  UNL d   1       2.463   2.700   0.028  0.00  0.00     0.026 A 
ATOM      8  C6  UNL d   1       2.288   1.374   0.549  0.00  0.00    -0.082 A 
ATOM      9  C7  UNL d   1       3.137   0.582   1.359  0.00  0.00     0.045 A 
ENDROOT
TORSDOF 0
ENDMDL
