MODEL 1
REMARK minimizedAffinity 16.2308693
REMARK minimizedRMSD -1
REMARK  0 active torsions:
REMARK  status: ('A' for Active; 'I' for Inactive)
ROOT
ATOM      1  C   UNL d   1       1.456   2.326  -1.531  0.00  0.00    -0.002 A 
ATOM      2  C1  UNL d   1       0.861   2.111  -0.296  0.00  0.00     0.010 A 
ATOM      3  C2  UNL d   1      -0.523   2.224  -0.144  0.00  0.00     0.041 A 
ATOM      4  C3  UNL d   1      -1.306   2.559  -1.267  0.00  0.00    -0.075 A 
ATOM      5  S   UNL d   1      -3.018   2.751  -1.319  0.00  0.00     0.015 SA
ATOM      6  C4  UNL d   1      -3.001   3.123  -2.982  0.00  0.00     0.022 A 
ATOM      7  C5  UNL d   1      -1.728   3.105  -3.501  0.00  0.00     0.026 A 
ATOM      8  C6  UNL d   1      -0.730   2.779  -2.521  0.00  0.00    -0.082 A 
ATOM      9  C7  UNL d   1       0.675   2.658  -2.642  0.00  0.00     0.045 A 
ENDROOT
TORSDOF 0
ENDMDL
