MODEL 1
REMARK minimizedAffinity 14.1896544
REMARK minimizedRMSD -1
REMARK  0 active torsions:
REMARK  status: ('A' for Active; 'I' for Inactive)
ROOT
ATOM      1  C   UNL d   1       1.583   3.191   0.096  0.00  0.00    -0.002 A 
ATOM      2  C1  UNL d   1       0.637   2.215  -0.184  0.00  0.00     0.010 A 
ATOM      3  C2  UNL d   1       0.881   0.877   0.133  0.00  0.00     0.041 A 
ATOM      4  C3  UNL d   1       2.103   0.533   0.744  0.00  0.00    -0.075 A 
ATOM      5  S   UNL d   1       2.619  -1.040   1.222  0.00  0.00     0.015 SA
ATOM      6  C4  UNL d   1       4.108  -0.455   1.810  0.00  0.00     0.022 A 
ATOM      7  C5  UNL d   1       4.225   0.906   1.653  0.00  0.00     0.026 A 
ATOM      8  C6  UNL d   1       3.071   1.498   1.036  0.00  0.00    -0.082 A 
ATOM      9  C7  UNL d   1       2.795   2.846   0.702  0.00  0.00     0.045 A 
ENDROOT
TORSDOF 0
ENDMDL
