MODEL 1
REMARK minimizedAffinity 20.9347095
REMARK minimizedRMSD -1
REMARK  0 active torsions:
REMARK  status: ('A' for Active; 'I' for Inactive)
ROOT
ATOM      1  C   UNL d   1      -2.674   4.900  -5.999  0.00  0.00    -0.002 A 
ATOM      2  C1  UNL d   1      -2.069   5.999  -5.406  0.00  0.00     0.010 A 
ATOM      3  C2  UNL d   1      -1.404   5.871  -4.185  0.00  0.00     0.041 A 
ATOM      4  C3  UNL d   1      -1.356   4.607  -3.565  0.00  0.00    -0.075 A 
ATOM      5  S   UNL d   1      -0.597   4.213  -2.067  0.00  0.00     0.015 SA
ATOM      6  C4  UNL d   1      -1.057   2.576  -2.180  0.00  0.00     0.022 A 
ATOM      7  C5  UNL d   1      -1.772   2.319  -3.326  0.00  0.00     0.026 A 
ATOM      8  C6  UNL d   1      -1.956   3.485  -4.143  0.00  0.00    -0.082 A 
ATOM      9  C7  UNL d   1      -2.623   3.648  -5.381  0.00  0.00     0.045 A 
ENDROOT
TORSDOF 0
ENDMDL
