MODEL 1
REMARK minimizedAffinity 8.67405796
REMARK minimizedRMSD -1
REMARK  0 active torsions:
REMARK  status: ('A' for Active; 'I' for Inactive)
ROOT
ATOM      1  C   UNL d   1       0.198  -0.627   5.565  0.00  0.00    -0.002 A 
ATOM      2  C1  UNL d   1      -0.933  -0.579   4.763  0.00  0.00     0.010 A 
ATOM      3  C2  UNL d   1      -0.826  -0.692   3.375  0.00  0.00     0.041 A 
ATOM      4  C3  UNL d   1       0.450  -0.857   2.802  0.00  0.00    -0.075 A 
ATOM      5  S   UNL d   1       0.824  -1.018   1.126  0.00  0.00     0.015 SA
ATOM      6  C4  UNL d   1       2.494  -1.155   1.436  0.00  0.00     0.022 A 
ATOM      7  C5  UNL d   1       2.778  -1.082   2.779  0.00  0.00     0.026 A 
ATOM      8  C6  UNL d   1       1.604  -0.910   3.589  0.00  0.00    -0.082 A 
ATOM      9  C7  UNL d   1       1.462  -0.792   4.992  0.00  0.00     0.045 A 
ENDROOT
TORSDOF 0
ENDMDL
