MODEL 1
REMARK minimizedAffinity 13.8446112
REMARK minimizedRMSD -1
REMARK  0 active torsions:
REMARK  status: ('A' for Active; 'I' for Inactive)
ROOT
ATOM      1  C   UNL d   1      -3.053  -2.710   1.834  0.00  0.00    -0.002 A 
ATOM      2  C1  UNL d   1      -3.877  -3.138   2.865  0.00  0.00     0.010 A 
ATOM      3  C2  UNL d   1      -4.811  -4.154   2.653  0.00  0.00     0.041 A 
ATOM      4  C3  UNL d   1      -4.903  -4.739   1.374  0.00  0.00    -0.075 A 
ATOM      5  S   UNL d   1      -5.971  -5.999   0.882  0.00  0.00     0.015 SA
ATOM      6  C4  UNL d   1      -5.359  -6.000  -0.708  0.00  0.00     0.022 A 
ATOM      7  C5  UNL d   1      -4.363  -5.067  -0.877  0.00  0.00     0.026 A 
ATOM      8  C6  UNL d   1      -4.083  -4.326   0.320  0.00  0.00    -0.082 A 
ATOM      9  C7  UNL d   1      -3.147  -3.293   0.567  0.00  0.00     0.045 A 
ENDROOT
TORSDOF 0
ENDMDL
