MODEL 1
REMARK minimizedAffinity 24.6368999
REMARK minimizedRMSD -1
REMARK  0 active torsions:
REMARK  status: ('A' for Active; 'I' for Inactive)
ROOT
ATOM      1  C   UNL d   1      -2.483   3.912  -5.303  0.00  0.00    -0.002 A 
ATOM      2  C1  UNL d   1      -2.241   5.277  -5.252  0.00  0.00     0.010 A 
ATOM      3  C2  UNL d   1      -2.491   6.000  -4.084  0.00  0.00     0.041 A 
ATOM      4  C3  UNL d   1      -2.992   5.320  -2.956  0.00  0.00    -0.075 A 
ATOM      5  S   UNL d   1      -3.373   5.999  -1.418  0.00  0.00     0.015 SA
ATOM      6  C4  UNL d   1      -3.865   4.492  -0.792  0.00  0.00     0.022 A 
ATOM      7  C5  UNL d   1      -3.749   3.485  -1.720  0.00  0.00     0.026 A 
ATOM      8  C6  UNL d   1      -3.244   3.945  -2.983  0.00  0.00    -0.082 A 
ATOM      9  C7  UNL d   1      -2.980   3.241  -4.183  0.00  0.00     0.045 A 
ENDROOT
TORSDOF 0
ENDMDL
