MODEL 1
REMARK minimizedAffinity 1.34065926
REMARK minimizedRMSD -1
REMARK  0 active torsions:
REMARK  status: ('A' for Active; 'I' for Inactive)
ROOT
ATOM      1  C   UNL d   1      -5.257  -4.796   1.490  0.00  0.00    -0.002 A 
ATOM      2  C1  UNL d   1      -5.911  -5.877   2.063  0.00  0.00     0.010 A 
ATOM      3  C2  UNL d   1      -5.998  -6.000   3.451  0.00  0.00     0.041 A 
ATOM      4  C3  UNL d   1      -5.412  -5.007   4.261  0.00  0.00    -0.075 A 
ATOM      5  S   UNL d   1      -5.395  -4.948   5.984  0.00  0.00     0.015 SA
ATOM      6  C4  UNL d   1      -4.519  -3.486   6.000  0.00  0.00     0.022 A 
ATOM      7  C5  UNL d   1      -4.237  -3.040   4.730  0.00  0.00     0.026 A 
ATOM      8  C6  UNL d   1      -4.748  -3.909   3.707  0.00  0.00    -0.082 A 
ATOM      9  C7  UNL d   1      -4.676  -3.814   2.296  0.00  0.00     0.045 A 
ENDROOT
TORSDOF 0
ENDMDL
