MODEL 1
REMARK minimizedAffinity 18.2176991
REMARK minimizedRMSD -1
REMARK  2 active torsions:
REMARK  status: ('A' for Active; 'I' for Inactive)
REMARK    1  A    between atoms: C2'_3  and  C1'_4 
REMARK    2  A    between atoms: C1'_4  and  C1_5 
ROOT
ATOM      1  C1  I4B d   1       2.362  -3.468   1.576  0.00  0.00    -0.075 A 
ATOM      2  C2  I4B d   1       1.315  -4.090   0.943  0.00  0.00     0.003 A 
ATOM      3  C3  I4B d   1       0.859  -5.353   1.392  0.00  0.00     0.002 A 
ATOM      4  C4  I4B d   1       1.507  -5.977   2.438  0.00  0.00    -0.004 A 
ATOM      5  C5  I4B d   1       2.553  -5.335   3.094  0.00  0.00     0.002 A 
ATOM      6  C6  I4B d   1       2.976  -4.067   2.669  0.00  0.00     0.003 A 
ENDROOT
BRANCH   1   7
ATOM      7  C1' I4B d   1       2.839  -2.150   1.055  0.00  0.00     0.060 C 
BRANCH   7   8
ATOM      8  C2' I4B d   1       3.712  -2.414  -0.155  0.00  0.00    -0.013 C 
ATOM      9  C4' I4B d   1       3.826  -1.189  -1.023  0.00  0.00     0.013 C 
ATOM     10  C3' I4B d   1       5.058  -2.860   0.333  0.00  0.00     0.013 C 
ENDBRANCH   7   8
ENDBRANCH   1   7
TORSDOF 2
ENDMDL
