MODEL 1
REMARK minimizedAffinity 9.45371723
REMARK minimizedRMSD -1
REMARK  2 active torsions:
REMARK  status: ('A' for Active; 'I' for Inactive)
REMARK    1  A    between atoms: C2'_3  and  C1'_4 
REMARK    2  A    between atoms: C1'_4  and  C1_5 
ROOT
ATOM      1  C1  I4B d   1      -0.653  -2.861   1.043  0.00  0.00    -0.075 A 
ATOM      2  C2  I4B d   1      -1.972  -3.113   0.758  0.00  0.00     0.003 A 
ATOM      3  C3  I4B d   1      -2.335  -4.277   0.037  0.00  0.00     0.002 A 
ATOM      4  C4  I4B d   1      -1.350  -5.129  -0.420  0.00  0.00    -0.004 A 
ATOM      5  C5  I4B d   1      -0.016  -4.883  -0.110  0.00  0.00     0.002 A 
ATOM      6  C6  I4B d   1       0.335  -3.749   0.636  0.00  0.00     0.003 A 
ENDROOT
BRANCH   1   7
ATOM      7  C1' I4B d   1      -0.302  -1.606   1.777  0.00  0.00     0.060 C 
BRANCH   7   8
ATOM      8  C2' I4B d   1       1.137  -1.723   2.238  0.00  0.00    -0.013 C 
ATOM      9  C4' I4B d   1       2.009  -0.693   1.569  0.00  0.00     0.013 C 
ATOM     10  C3' I4B d   1       1.159  -1.564   3.729  0.00  0.00     0.013 C 
ENDBRANCH   7   8
ENDBRANCH   1   7
TORSDOF 2
ENDMDL
