MODEL 1
REMARK minimizedAffinity 18.587719
REMARK minimizedRMSD -1
REMARK  2 active torsions:
REMARK  status: ('A' for Active; 'I' for Inactive)
REMARK    1  A    between atoms: C2'_3  and  C1'_4 
REMARK    2  A    between atoms: C1'_4  and  C1_5 
ROOT
ATOM      1  C1  I4B d   1      -4.138   3.252  -4.277  0.00  0.00    -0.075 A 
ATOM      2  C2  I4B d   1      -5.091   3.452  -3.309  0.00  0.00     0.003 A 
ATOM      3  C3  I4B d   1      -5.998   4.535  -3.415  0.00  0.00     0.002 A 
ATOM      4  C4  I4B d   1      -5.884   5.416  -4.471  0.00  0.00    -0.004 A 
ATOM      5  C5  I4B d   1      -4.933   5.198  -5.463  0.00  0.00     0.002 A 
ATOM      6  C6  I4B d   1      -4.062   4.102  -5.372  0.00  0.00     0.003 A 
ENDROOT
BRANCH   1   7
ATOM      7  C1' I4B d   1      -3.176   2.118  -4.117  0.00  0.00     0.060 C 
BRANCH   7   8
ATOM      8  C2' I4B d   1      -3.638   1.275  -2.946  0.00  0.00    -0.013 C 
ATOM      9  C4' I4B d   1      -4.249  -0.019  -3.413  0.00  0.00     0.013 C 
ATOM     10  C3' I4B d   1      -2.455   1.026  -2.059  0.00  0.00     0.013 C 
ENDBRANCH   7   8
ENDBRANCH   1   7
TORSDOF 2
ENDMDL
