MODEL 1
REMARK minimizedAffinity 17.1849689
REMARK minimizedRMSD -1
REMARK  2 active torsions:
REMARK  status: ('A' for Active; 'I' for Inactive)
REMARK    1  A    between atoms: C2'_3  and  C1'_4 
REMARK    2  A    between atoms: C1'_4  and  C1_5 
ROOT
ATOM      1  C1  I4B d   1       0.821  -4.532  -0.869  0.00  0.00    -0.075 A 
ATOM      2  C2  I4B d   1       1.819  -4.601  -1.808  0.00  0.00     0.003 A 
ATOM      3  C3  I4B d   1       3.132  -4.180  -1.485  0.00  0.00     0.002 A 
ATOM      4  C4  I4B d   1       3.388  -3.653  -0.236  0.00  0.00    -0.004 A 
ATOM      5  C5  I4B d   1       2.380  -3.605   0.723  0.00  0.00     0.002 A 
ATOM      6  C6  I4B d   1       1.091  -4.059   0.408  0.00  0.00     0.003 A 
ENDROOT
BRANCH   1   7
ATOM      7  C1' I4B d   1      -0.562  -4.955  -1.255  0.00  0.00     0.060 C 
BRANCH   7   8
ATOM      8  C2' I4B d   1      -1.492  -4.610  -0.109  0.00  0.00    -0.013 C 
ATOM      9  C4' I4B d   1      -2.071  -3.229  -0.274  0.00  0.00     0.013 C 
ATOM     10  C3' I4B d   1      -2.572  -5.648  -0.062  0.00  0.00     0.013 C 
ENDBRANCH   7   8
ENDBRANCH   1   7
TORSDOF 2
ENDMDL
