MODEL 1
REMARK minimizedAffinity 15.8406105
REMARK minimizedRMSD -1
REMARK  2 active torsions:
REMARK  status: ('A' for Active; 'I' for Inactive)
REMARK    1  A    between atoms: C2'_3  and  C1'_4 
REMARK    2  A    between atoms: C1'_4  and  C1_5 
ROOT
ATOM      1  C1  I4B d   1       3.599  -3.953  -0.254  0.00  0.00    -0.075 A 
ATOM      2  C2  I4B d   1       4.800  -3.755   0.379  0.00  0.00     0.003 A 
ATOM      3  C3  I4B d   1       5.999  -4.237  -0.199  0.00  0.00     0.002 A 
ATOM      4  C4  I4B d   1       5.946  -4.951  -1.379  0.00  0.00    -0.004 A 
ATOM      5  C5  I4B d   1       4.730  -5.131  -2.032  0.00  0.00     0.002 A 
ATOM      6  C6  I4B d   1       3.550  -4.618  -1.473  0.00  0.00     0.003 A 
ENDROOT
BRANCH   1   7
ATOM      7  C1' I4B d   1       2.348  -3.459   0.401  0.00  0.00     0.060 C 
BRANCH   7   8
ATOM      8  C2' I4B d   1       2.640  -2.096   0.995  0.00  0.00    -0.013 C 
ATOM      9  C4' I4B d   1       2.973  -1.093  -0.078  0.00  0.00     0.013 C 
ATOM     10  C3' I4B d   1       1.437  -1.668   1.782  0.00  0.00     0.013 C 
ENDBRANCH   7   8
ENDBRANCH   1   7
TORSDOF 2
ENDMDL
