MODEL 1
REMARK minimizedAffinity 18.0030231
REMARK minimizedRMSD -1
REMARK  2 active torsions:
REMARK  status: ('A' for Active; 'I' for Inactive)
REMARK    1  A    between atoms: C2'_3  and  C1'_4 
REMARK    2  A    between atoms: C1'_4  and  C1_5 
ROOT
ATOM      1  C1  I4B d   1       2.067  -3.181  -0.438  0.00  0.00    -0.075 A 
ATOM      2  C2  I4B d   1       0.987  -3.947  -0.075  0.00  0.00     0.003 A 
ATOM      3  C3  I4B d   1       0.383  -4.819  -1.013  0.00  0.00     0.002 A 
ATOM      4  C4  I4B d   1       0.857  -4.856  -2.309  0.00  0.00    -0.004 A 
ATOM      5  C5  I4B d   1       1.966  -4.097  -2.669  0.00  0.00     0.002 A 
ATOM      6  C6  I4B d   1       2.583  -3.263  -1.725  0.00  0.00     0.003 A 
ENDROOT
BRANCH   1   7
ATOM      7  C1' I4B d   1       2.659  -2.247   0.568  0.00  0.00     0.060 C 
BRANCH   7   8
ATOM      8  C2' I4B d   1       1.595  -1.938   1.602  0.00  0.00    -0.013 C 
ATOM      9  C4' I4B d   1       1.937  -2.551   2.935  0.00  0.00     0.013 C 
ATOM     10  C3' I4B d   1       1.470  -0.448   1.707  0.00  0.00     0.013 C 
ENDBRANCH   7   8
ENDBRANCH   1   7
TORSDOF 2
ENDMDL
