MODEL 1
REMARK minimizedAffinity 13.2772827
REMARK minimizedRMSD -1
REMARK  2 active torsions:
REMARK  status: ('A' for Active; 'I' for Inactive)
REMARK    1  A    between atoms: C2'_3  and  C1'_4 
REMARK    2  A    between atoms: C1'_4  and  C1_5 
ROOT
ATOM      1  C1  I4B d   1       2.228  -3.225   1.128  0.00  0.00    -0.075 A 
ATOM      2  C2  I4B d   1       3.283  -4.034   1.471  0.00  0.00     0.003 A 
ATOM      3  C3  I4B d   1       3.055  -5.373   1.869  0.00  0.00     0.002 A 
ATOM      4  C4  I4B d   1       1.761  -5.845   1.958  0.00  0.00    -0.004 A 
ATOM      5  C5  I4B d   1       0.694  -5.031   1.588  0.00  0.00     0.002 A 
ATOM      6  C6  I4B d   1       0.929  -3.717   1.158  0.00  0.00     0.003 A 
ENDROOT
BRANCH   1   7
ATOM      7  C1' I4B d   1       2.502  -1.806   0.744  0.00  0.00     0.060 C 
BRANCH   7   8
ATOM      8  C2' I4B d   1       1.401  -0.944   1.327  0.00  0.00    -0.013 C 
ATOM      9  C4' I4B d   1       1.603  -0.724   2.803  0.00  0.00     0.013 C 
ATOM     10  C3' I4B d   1       1.389   0.358   0.582  0.00  0.00     0.013 C 
ENDBRANCH   7   8
ENDBRANCH   1   7
TORSDOF 2
ENDMDL
