MODEL 1
REMARK minimizedAffinity -3.45918512
REMARK minimizedRMSD -1
REMARK  0 active torsions:
REMARK  status: ('A' for Active; 'I' for Inactive)
ROOT
ATOM      1  C2' OXE d   1       0.773   2.759  -0.612  0.00  0.00     0.078 C 
ATOM      2  C1' OXE d   1       2.354   0.776   0.591  0.00  0.00     0.078 C 
ATOM      3  C1  OXE d   1       0.935   0.418   0.225  0.00  0.00    -0.078 A 
ATOM      4  C2  OXE d   1       0.154   1.408  -0.321  0.00  0.00    -0.078 A 
ATOM      5  C3  OXE d   1      -1.145   1.117  -0.727  0.00  0.00     0.003 A 
ATOM      6  C4  OXE d   1      -1.712  -0.131  -0.444  0.00  0.00    -0.002 A 
ATOM      7  C5  OXE d   1      -0.947  -1.142   0.147  0.00  0.00    -0.002 A 
ATOM      8  C6  OXE d   1       0.388  -0.897   0.448  0.00  0.00     0.003 A 
ENDROOT
TORSDOF 0
ENDMDL
