MODEL 1
REMARK minimizedAffinity 1.36430156
REMARK minimizedRMSD -1
REMARK  0 active torsions:
REMARK  status: ('A' for Active; 'I' for Inactive)
ROOT
ATOM      1  C2' OXE d   1      -1.341   0.706  -0.941  0.00  0.00     0.078 C 
ATOM      2  C1' OXE d   1       0.749   2.568  -0.736  0.00  0.00     0.078 C 
ATOM      3  C1  OXE d   1       0.930   1.230  -0.063  0.00  0.00    -0.078 A 
ATOM      4  C2  OXE d   1      -0.117   0.342  -0.129  0.00  0.00    -0.078 A 
ATOM      5  C3  OXE d   1       0.019  -0.926   0.427  0.00  0.00     0.003 A 
ATOM      6  C4  OXE d   1       1.150  -1.251   1.185  0.00  0.00    -0.002 A 
ATOM      7  C5  OXE d   1       2.212  -0.347   1.298  0.00  0.00    -0.002 A 
ATOM      8  C6  OXE d   1       2.136   0.879   0.646  0.00  0.00     0.003 A 
ENDROOT
TORSDOF 0
ENDMDL
