MODEL 1
REMARK minimizedAffinity -2.97577095
REMARK minimizedRMSD -1
REMARK  0 active torsions:
REMARK  status: ('A' for Active; 'I' for Inactive)
ROOT
ATOM      1  C2' OXE d   1      -1.266  -1.013   0.891  0.00  0.00     0.078 C 
ATOM      2  C1' OXE d   1       1.056  -1.958   2.154  0.00  0.00     0.078 C 
ATOM      3  C1  OXE d   1       1.149  -0.660   1.390  0.00  0.00    -0.078 A 
ATOM      4  C2  OXE d   1       0.020  -0.229   0.736  0.00  0.00    -0.078 A 
ATOM      5  C3  OXE d   1       0.036   0.989   0.063  0.00  0.00     0.003 A 
ATOM      6  C4  OXE d   1       1.232   1.702  -0.083  0.00  0.00    -0.002 A 
ATOM      7  C5  OXE d   1       2.403   1.261   0.542  0.00  0.00    -0.002 A 
ATOM      8  C6  OXE d   1       2.368   0.106   1.316  0.00  0.00     0.003 A 
ENDROOT
TORSDOF 0
ENDMDL
