MODEL 1
REMARK minimizedAffinity -4.88972378
REMARK minimizedRMSD -1
REMARK  0 active torsions:
REMARK  status: ('A' for Active; 'I' for Inactive)
ROOT
ATOM      1  C2' OXE d   1       2.516   2.360   3.158  0.00  0.00     0.078 C 
ATOM      2  C1' OXE d   1       0.858   2.137   0.903  0.00  0.00     0.078 C 
ATOM      3  C1  OXE d   1       1.618   0.910   1.342  0.00  0.00    -0.078 A 
ATOM      4  C2  OXE d   1       2.462   1.041   2.418  0.00  0.00    -0.078 A 
ATOM      5  C3  OXE d   1       3.145  -0.074   2.897  0.00  0.00     0.003 A 
ATOM      6  C4  OXE d   1       3.098  -1.287   2.201  0.00  0.00    -0.002 A 
ATOM      7  C5  OXE d   1       2.274  -1.431   1.079  0.00  0.00    -0.002 A 
ATOM      8  C6  OXE d   1       1.497  -0.356   0.663  0.00  0.00     0.003 A 
ENDROOT
TORSDOF 0
ENDMDL
