MODEL 1
REMARK minimizedAffinity -5.63033772
REMARK minimizedRMSD -1
REMARK  0 active torsions:
REMARK  status: ('A' for Active; 'I' for Inactive)
ROOT
ATOM      1  C2' OXE d   1      -0.782   0.114  -0.209  0.00  0.00     0.078 C 
ATOM      2  C1' OXE d   1      -0.592  -2.336   1.149  0.00  0.00     0.078 C 
ATOM      3  C1  OXE d   1       0.649  -1.484   1.058  0.00  0.00    -0.078 A 
ATOM      4  C2  OXE d   1       0.559  -0.309   0.351  0.00  0.00    -0.078 A 
ATOM      5  C3  OXE d   1       1.660   0.540   0.282  0.00  0.00     0.003 A 
ATOM      6  C4  OXE d   1       2.899   0.137   0.794  0.00  0.00    -0.002 A 
ATOM      7  C5  OXE d   1       3.023  -1.074   1.483  0.00  0.00    -0.002 A 
ATOM      8  C6  OXE d   1       1.900  -1.875   1.660  0.00  0.00     0.003 A 
ENDROOT
TORSDOF 0
ENDMDL
