MODEL 1
REMARK minimizedAffinity -6.02052736
REMARK minimizedRMSD -1
REMARK  0 active torsions:
REMARK  status: ('A' for Active; 'I' for Inactive)
ROOT
ATOM      1  C2' OXE d   1      -0.566   0.025   0.218  0.00  0.00     0.078 C 
ATOM      2  C1' OXE d   1       1.584   1.666  -0.534  0.00  0.00     0.078 C 
ATOM      3  C1  OXE d   1       1.892   0.428   0.271  0.00  0.00    -0.078 A 
ATOM      4  C2  OXE d   1       0.829  -0.344   0.674  0.00  0.00    -0.078 A 
ATOM      5  C3  OXE d   1       1.061  -1.526   1.372  0.00  0.00     0.003 A 
ATOM      6  C4  OXE d   1       2.353  -1.856   1.798  0.00  0.00    -0.002 A 
ATOM      7  C5  OXE d   1       3.446  -1.062   1.432  0.00  0.00    -0.002 A 
ATOM      8  C6  OXE d   1       3.237   0.058   0.634  0.00  0.00     0.003 A 
ENDROOT
TORSDOF 0
ENDMDL
