MODEL 1
REMARK minimizedAffinity -1.87646031
REMARK minimizedRMSD -1
REMARK  0 active torsions:
REMARK  status: ('A' for Active; 'I' for Inactive)
ROOT
ATOM      1  C2' OXE d   1      -1.512   0.005  -1.168  0.00  0.00     0.078 C 
ATOM      2  C1' OXE d   1      -0.894  -1.505   1.116  0.00  0.00     0.078 C 
ATOM      3  C1  OXE d   1       0.035  -0.375   0.747  0.00  0.00    -0.078 A 
ATOM      4  C2  OXE d   1      -0.250   0.328  -0.398  0.00  0.00    -0.078 A 
ATOM      5  C3  OXE d   1       0.543   1.415  -0.754  0.00  0.00     0.003 A 
ATOM      6  C4  OXE d   1       1.714   1.702  -0.042  0.00  0.00    -0.002 A 
ATOM      7  C5  OXE d   1       2.044   0.972   1.105  0.00  0.00    -0.002 A 
ATOM      8  C6  OXE d   1       1.194  -0.040   1.537  0.00  0.00     0.003 A 
ENDROOT
TORSDOF 0
ENDMDL
