MODEL 1
REMARK minimizedAffinity 2.04022622
REMARK minimizedRMSD -1
REMARK  0 active torsions:
REMARK  status: ('A' for Active; 'I' for Inactive)
ROOT
ATOM      1  C2' OXE d   1       1.015   2.754  -0.079  0.00  0.00     0.078 C 
ATOM      2  C1' OXE d   1       2.470   0.855   1.389  0.00  0.00     0.078 C 
ATOM      3  C1  OXE d   1       1.114   0.452   0.867  0.00  0.00    -0.078 A 
ATOM      4  C2  OXE d   1       0.389   1.402   0.189  0.00  0.00    -0.078 A 
ATOM      5  C3  OXE d   1      -0.844   1.066  -0.361  0.00  0.00     0.003 A 
ATOM      6  C4  OXE d   1      -1.420  -0.183  -0.100  0.00  0.00    -0.002 A 
ATOM      7  C5  OXE d   1      -0.716  -1.153   0.622  0.00  0.00    -0.002 A 
ATOM      8  C6  OXE d   1       0.567  -0.867   1.075  0.00  0.00     0.003 A 
ENDROOT
TORSDOF 0
ENDMDL
