MODEL 1
REMARK minimizedAffinity -5.89806175
REMARK minimizedRMSD -1
REMARK  0 active torsions:
REMARK  status: ('A' for Active; 'I' for Inactive)
ROOT
ATOM      1  C2' OXE d   1       0.660   2.076   0.413  0.00  0.00     0.078 C 
ATOM      2  C1' OXE d   1      -1.023   0.003  -0.453  0.00  0.00     0.078 C 
ATOM      3  C1  OXE d   1       0.253  -0.376   0.255  0.00  0.00    -0.078 A 
ATOM      4  C2  OXE d   1       1.094   0.643   0.634  0.00  0.00    -0.078 A 
ATOM      5  C3  OXE d   1       2.258   0.350   1.338  0.00  0.00     0.003 A 
ATOM      6  C4  OXE d   1       2.656  -0.978   1.529  0.00  0.00    -0.002 A 
ATOM      7  C5  OXE d   1       1.834  -2.032   1.116  0.00  0.00    -0.002 A 
ATOM      8  C6  OXE d   1       0.612  -1.748   0.517  0.00  0.00     0.003 A 
ENDROOT
TORSDOF 0
ENDMDL
