MODEL 1
REMARK minimizedAffinity -2.26258755
REMARK minimizedRMSD -1
REMARK  0 active torsions:
REMARK  status: ('A' for Active; 'I' for Inactive)
ROOT
ATOM      1  C2' OXE d   1      -1.506  -1.899   1.132  0.00  0.00     0.078 C 
ATOM      2  C1' OXE d   1      -2.079  -0.509  -1.239  0.00  0.00     0.078 C 
ATOM      3  C1  OXE d   1      -0.860  -0.091  -0.456  0.00  0.00    -0.078 A 
ATOM      4  C2  OXE d   1      -0.613  -0.746   0.727  0.00  0.00    -0.078 A 
ATOM      5  C3  OXE d   1       0.529  -0.436   1.460  0.00  0.00     0.003 A 
ATOM      6  C4  OXE d   1       1.344   0.638   1.083  0.00  0.00    -0.002 A 
ATOM      7  C5  OXE d   1       1.088   1.343  -0.097  0.00  0.00    -0.002 A 
ATOM      8  C6  OXE d   1       0.017   0.965  -0.899  0.00  0.00     0.003 A 
ENDROOT
TORSDOF 0
ENDMDL
