MODEL 1
REMARK minimizedAffinity -0.619252503
REMARK minimizedRMSD -1
REMARK  2 active torsions:
REMARK  status: ('A' for Active; 'I' for Inactive)
REMARK    1  A    between atoms: C2'_3  and  C1'_4 
REMARK    2  A    between atoms: C1'_4  and  C1_5 
ROOT
ATOM      1  C1  I4B d   1       0.000   1.814   0.213  0.00  0.00    -0.075 A 
ATOM      2  C2  I4B d   1      -0.616   1.048   1.171  0.00  0.00     0.003 A 
ATOM      3  C3  I4B d   1      -0.706  -0.356   1.011  0.00  0.00     0.002 A 
ATOM      4  C4  I4B d   1      -0.214  -0.942  -0.137  0.00  0.00    -0.004 A 
ATOM      5  C5  I4B d   1       0.430  -0.166  -1.097  0.00  0.00     0.002 A 
ATOM      6  C6  I4B d   1       0.549   1.219  -0.915  0.00  0.00     0.003 A 
ENDROOT
BRANCH   1   7
ATOM      7  C1' I4B d   1       0.049   3.298   0.399  0.00  0.00     0.060 C 
BRANCH   7   8
ATOM      8  C2' I4B d   1       1.151   3.609   1.390  0.00  0.00    -0.013 C 
ATOM      9  C4' I4B d   1       2.402   4.068   0.687  0.00  0.00     0.013 C 
ATOM     10  C3' I4B d   1       0.644   4.659   2.333  0.00  0.00     0.013 C 
ENDBRANCH   7   8
ENDBRANCH   1   7
TORSDOF 2
ENDMDL
