MODEL 1
REMARK minimizedAffinity -3.11172462
REMARK minimizedRMSD -1
REMARK  2 active torsions:
REMARK  status: ('A' for Active; 'I' for Inactive)
REMARK    1  A    between atoms: C2'_3  and  C1'_4 
REMARK    2  A    between atoms: C1'_4  and  C1_5 
ROOT
ATOM      1  C1  I4B d   1       1.203   2.038   0.024  0.00  0.00    -0.075 A 
ATOM      2  C2  I4B d   1       0.624   3.269  -0.165  0.00  0.00     0.003 A 
ATOM      3  C3  I4B d   1       1.218   4.428   0.391  0.00  0.00     0.002 A 
ATOM      4  C4  I4B d   1       2.354   4.306   1.164  0.00  0.00    -0.004 A 
ATOM      5  C5  I4B d   1       2.952   3.061   1.335  0.00  0.00     0.002 A 
ATOM      6  C6  I4B d   1       2.380   1.921   0.751  0.00  0.00     0.003 A 
ENDROOT
BRANCH   1   7
ATOM      7  C1' I4B d   1       0.532   0.831  -0.549  0.00  0.00     0.060 C 
BRANCH   7   8
ATOM      8  C2' I4B d   1       0.142  -0.076   0.600  0.00  0.00    -0.013 C 
ATOM      9  C4' I4B d   1      -1.201   0.306   1.165  0.00  0.00     0.013 C 
ATOM     10  C3' I4B d   1       0.135  -1.488   0.095  0.00  0.00     0.013 C 
ENDBRANCH   7   8
ENDBRANCH   1   7
TORSDOF 2
ENDMDL
