MODEL 1
REMARK minimizedAffinity -3.5820334
REMARK minimizedRMSD -1
REMARK  2 active torsions:
REMARK  status: ('A' for Active; 'I' for Inactive)
REMARK    1  A    between atoms: C2'_3  and  C1'_4 
REMARK    2  A    between atoms: C1'_4  and  C1_5 
ROOT
ATOM      1  C1  I4B d   1       0.104   0.336  -0.153  0.00  0.00    -0.075 A 
ATOM      2  C2  I4B d   1      -0.980   0.056   0.641  0.00  0.00     0.003 A 
ATOM      3  C3  I4B d   1      -1.229  -1.271   1.067  0.00  0.00     0.002 A 
ATOM      4  C4  I4B d   1      -0.402  -2.289   0.637  0.00  0.00    -0.004 A 
ATOM      5  C5  I4B d   1       0.710  -2.001  -0.149  0.00  0.00     0.002 A 
ATOM      6  C6  I4B d   1       0.972  -0.678  -0.537  0.00  0.00     0.003 A 
ENDROOT
BRANCH   1   7
ATOM      7  C1' I4B d   1       0.318   1.743  -0.612  0.00  0.00     0.060 C 
BRANCH   7   8
ATOM      8  C2' I4B d   1       0.869   2.536   0.556  0.00  0.00    -0.013 C 
ATOM      9  C4' I4B d   1       2.232   3.094   0.241  0.00  0.00     0.013 C 
ATOM     10  C3' I4B d   1      -0.105   3.631   0.872  0.00  0.00     0.013 C 
ENDBRANCH   7   8
ENDBRANCH   1   7
TORSDOF 2
ENDMDL
