MODEL 1
REMARK minimizedAffinity -3.27635813
REMARK minimizedRMSD -1
REMARK  2 active torsions:
REMARK  status: ('A' for Active; 'I' for Inactive)
REMARK    1  A    between atoms: C2'_3  and  C1'_4 
REMARK    2  A    between atoms: C1'_4  and  C1_5 
ROOT
ATOM      1  C1  I4B d   1      -0.160   0.318  -0.001  0.00  0.00    -0.075 A 
ATOM      2  C2  I4B d   1      -1.051   0.002   0.994  0.00  0.00     0.003 A 
ATOM      3  C3  I4B d   1      -1.178  -1.336   1.439  0.00  0.00     0.002 A 
ATOM      4  C4  I4B d   1      -0.436  -2.328   0.830  0.00  0.00    -0.004 A 
ATOM      5  C5  I4B d   1       0.483  -2.003  -0.163  0.00  0.00     0.002 A 
ATOM      6  C6  I4B d   1       0.632  -0.670  -0.573  0.00  0.00     0.003 A 
ENDROOT
BRANCH   1   7
ATOM      7  C1' I4B d   1      -0.075   1.736  -0.470  0.00  0.00     0.060 C 
BRANCH   7   8
ATOM      8  C2' I4B d   1       0.874   2.476   0.451  0.00  0.00    -0.013 C 
ATOM      9  C4' I4B d   1       2.225   2.658  -0.190  0.00  0.00     0.013 C 
ATOM     10  C3' I4B d   1       0.253   3.798   0.791  0.00  0.00     0.013 C 
ENDBRANCH   7   8
ENDBRANCH   1   7
TORSDOF 2
ENDMDL
