MODEL 1
REMARK minimizedAffinity -5.5059514
REMARK minimizedRMSD -1
REMARK  2 active torsions:
REMARK  status: ('A' for Active; 'I' for Inactive)
REMARK    1  A    between atoms: C2'_3  and  C1'_4 
REMARK    2  A    between atoms: C1'_4  and  C1_5 
ROOT
ATOM      1  C1  I4B d   1       0.240  -0.278  -0.303  0.00  0.00    -0.075 A 
ATOM      2  C2  I4B d   1      -0.013  -0.978   0.851  0.00  0.00     0.003 A 
ATOM      3  C3  I4B d   1       0.009  -2.393   0.845  0.00  0.00     0.002 A 
ATOM      4  C4  I4B d   1       0.238  -3.065  -0.338  0.00  0.00    -0.004 A 
ATOM      5  C5  I4B d   1       0.517  -2.355  -1.502  0.00  0.00     0.002 A 
ATOM      6  C6  I4B d   1       0.530  -0.952  -1.482  0.00  0.00     0.003 A 
ENDROOT
BRANCH   1   7
ATOM      7  C1' I4B d   1       0.175   1.216  -0.269  0.00  0.00     0.060 C 
BRANCH   7   8
ATOM      8  C2' I4B d   1       1.341   1.715   0.560  0.00  0.00    -0.013 C 
ATOM      9  C4' I4B d   1       2.589   1.841  -0.275  0.00  0.00     0.013 C 
ATOM     10  C3' I4B d   1       0.954   3.034   1.157  0.00  0.00     0.013 C 
ENDBRANCH   7   8
ENDBRANCH   1   7
TORSDOF 2
ENDMDL
