MODEL 1
REMARK minimizedAffinity -5.04533911
REMARK minimizedRMSD -1
REMARK  2 active torsions:
REMARK  status: ('A' for Active; 'I' for Inactive)
REMARK    1  A    between atoms: C2'_3  and  C1'_4 
REMARK    2  A    between atoms: C1'_4  and  C1_5 
ROOT
ATOM      1  C1  I4B d   1      -0.273   0.269   0.069  0.00  0.00    -0.075 A 
ATOM      2  C2  I4B d   1      -1.325  -0.072   0.882  0.00  0.00     0.003 A 
ATOM      3  C3  I4B d   1      -1.523  -1.422   1.262  0.00  0.00     0.002 A 
ATOM      4  C4  I4B d   1      -0.682  -2.397   0.768  0.00  0.00    -0.004 A 
ATOM      5  C5  I4B d   1       0.397  -2.047  -0.038  0.00  0.00     0.002 A 
ATOM      6  C6  I4B d   1       0.611  -0.703  -0.380  0.00  0.00     0.003 A 
ENDROOT
BRANCH   1   7
ATOM      7  C1' I4B d   1      -0.113   1.699  -0.340  0.00  0.00     0.060 C 
BRANCH   7   8
ATOM      8  C2' I4B d   1       0.771   2.381   0.685  0.00  0.00    -0.013 C 
ATOM      9  C4' I4B d   1       2.032   2.909   0.052  0.00  0.00     0.013 C 
ATOM     10  C3' I4B d   1      -0.021   3.486   1.318  0.00  0.00     0.013 C 
ENDBRANCH   7   8
ENDBRANCH   1   7
TORSDOF 2
ENDMDL
