MODEL 1
REMARK minimizedAffinity -3.46090603
REMARK minimizedRMSD -1
REMARK  2 active torsions:
REMARK  status: ('A' for Active; 'I' for Inactive)
REMARK    1  A    between atoms: C2'_3  and  C1'_4 
REMARK    2  A    between atoms: C1'_4  and  C1_5 
ROOT
ATOM      1  C1  I4B d   1      -0.055  -0.294  -0.326  0.00  0.00    -0.075 A 
ATOM      2  C2  I4B d   1      -0.452  -0.626   0.945  0.00  0.00     0.003 A 
ATOM      3  C3  I4B d   1      -0.616  -1.985   1.309  0.00  0.00     0.002 A 
ATOM      4  C4  I4B d   1      -0.424  -2.970   0.362  0.00  0.00    -0.004 A 
ATOM      5  C5  I4B d   1       0.000  -2.632  -0.920  0.00  0.00     0.002 A 
ATOM      6  C6  I4B d   1       0.198  -1.287  -1.264  0.00  0.00     0.003 A 
ENDROOT
BRANCH   1   7
ATOM      7  C1' I4B d   1       0.076   1.152  -0.686  0.00  0.00     0.060 C 
BRANCH   7   8
ATOM      8  C2' I4B d   1       1.202   1.738   0.143  0.00  0.00    -0.013 C 
ATOM      9  C4' I4B d   1       2.434   1.962  -0.693  0.00  0.00     0.013 C 
ATOM     10  C3' I4B d   1       0.714   3.023   0.743  0.00  0.00     0.013 C 
ENDBRANCH   7   8
ENDBRANCH   1   7
TORSDOF 2
ENDMDL
