MODEL 1
REMARK minimizedAffinity -5.06853867
REMARK minimizedRMSD -1
REMARK  2 active torsions:
REMARK  status: ('A' for Active; 'I' for Inactive)
REMARK    1  A    between atoms: C2'_3  and  C1'_4 
REMARK    2  A    between atoms: C1'_4  and  C1_5 
ROOT
ATOM      1  C1  I4B d   1       0.425   2.633   0.398  0.00  0.00    -0.075 A 
ATOM      2  C2  I4B d   1      -0.190   3.485   1.280  0.00  0.00     0.003 A 
ATOM      3  C3  I4B d   1       0.565   4.465   1.969  0.00  0.00     0.002 A 
ATOM      4  C4  I4B d   1       1.931   4.524   1.784  0.00  0.00    -0.004 A 
ATOM      5  C5  I4B d   1       2.550   3.674   0.872  0.00  0.00     0.002 A 
ATOM      6  C6  I4B d   1       1.791   2.730   0.165  0.00  0.00     0.003 A 
ENDROOT
BRANCH   1   7
ATOM      7  C1' I4B d   1      -0.397   1.588  -0.288  0.00  0.00     0.060 C 
BRANCH   7   8
ATOM      8  C2' I4B d   1       0.318   0.260  -0.141  0.00  0.00    -0.013 C 
ATOM      9  C4' I4B d   1      -0.487  -0.704   0.689  0.00  0.00     0.013 C 
ATOM     10  C3' I4B d   1       0.568  -0.286  -1.515  0.00  0.00     0.013 C 
ENDBRANCH   7   8
ENDBRANCH   1   7
TORSDOF 2
ENDMDL
