MODEL 1
REMARK minimizedAffinity -2.33484554
REMARK minimizedRMSD -1
REMARK  2 active torsions:
REMARK  status: ('A' for Active; 'I' for Inactive)
REMARK    1  A    between atoms: C2'_3  and  C1'_4 
REMARK    2  A    between atoms: C1'_4  and  C1_5 
ROOT
ATOM      1  C1  I4B d   1       0.130   0.686   0.418  0.00  0.00    -0.075 A 
ATOM      2  C2  I4B d   1      -1.084   0.046   0.435  0.00  0.00     0.003 A 
ATOM      3  C3  I4B d   1      -1.166  -1.316   0.813  0.00  0.00     0.002 A 
ATOM      4  C4  I4B d   1      -0.011  -2.009   1.115  0.00  0.00    -0.004 A 
ATOM      5  C5  I4B d   1       1.216  -1.353   1.119  0.00  0.00     0.002 A 
ATOM      6  C6  I4B d   1       1.286   0.007   0.781  0.00  0.00     0.003 A 
ENDROOT
BRANCH   1   7
ATOM      7  C1' I4B d   1       0.185   2.116  -0.017  0.00  0.00     0.060 C 
BRANCH   7   8
ATOM      8  C2' I4B d   1       0.772   2.928   1.120  0.00  0.00    -0.013 C 
ATOM      9  C4' I4B d   1       2.134   3.462   0.762  0.00  0.00     0.013 C 
ATOM     10  C3' I4B d   1      -0.181   4.042   1.433  0.00  0.00     0.013 C 
ENDBRANCH   7   8
ENDBRANCH   1   7
TORSDOF 2
ENDMDL
