MODEL 1
REMARK minimizedAffinity -4.61067247
REMARK minimizedRMSD -1
REMARK  2 active torsions:
REMARK  status: ('A' for Active; 'I' for Inactive)
REMARK    1  A    between atoms: C2'_3  and  C1'_4 
REMARK    2  A    between atoms: C1'_4  and  C1_5 
ROOT
ATOM      1  C1  I4B d   1       0.574   2.079  -0.241  0.00  0.00    -0.075 A 
ATOM      2  C2  I4B d   1      -0.421   2.925   0.181  0.00  0.00     0.003 A 
ATOM      3  C3  I4B d   1      -0.094   4.163   0.785  0.00  0.00     0.002 A 
ATOM      4  C4  I4B d   1       1.230   4.490   0.992  0.00  0.00    -0.004 A 
ATOM      5  C5  I4B d   1       2.237   3.641   0.543  0.00  0.00     0.002 A 
ATOM      6  C6  I4B d   1       1.908   2.433  -0.089  0.00  0.00     0.003 A 
ENDROOT
BRANCH   1   7
ATOM      7  C1' I4B d   1       0.193   0.764  -0.846  0.00  0.00     0.060 C 
BRANCH   7   8
ATOM      8  C2' I4B d   1       0.303  -0.295   0.233  0.00  0.00    -0.013 C 
ATOM      9  C4' I4B d   1      -1.056  -0.692   0.747  0.00  0.00     0.013 C 
ATOM     10  C3' I4B d   1       1.028  -1.472  -0.347  0.00  0.00     0.013 C 
ENDBRANCH   7   8
ENDBRANCH   1   7
TORSDOF 2
ENDMDL
