MODEL 1
REMARK minimizedAffinity -3.35390687
REMARK minimizedRMSD -1
REMARK  2 active torsions:
REMARK  status: ('A' for Active; 'I' for Inactive)
REMARK    1  A    between atoms: C2'_3  and  C1'_4 
REMARK    2  A    between atoms: C1'_4  and  C1_5 
ROOT
ATOM      1  C1  I4B d   1       0.784   3.197   0.779  0.00  0.00    -0.075 A 
ATOM      2  C2  I4B d   1      -0.553   3.311   1.068  0.00  0.00     0.003 A 
ATOM      3  C3  I4B d   1      -1.079   4.540   1.536  0.00  0.00     0.002 A 
ATOM      4  C4  I4B d   1      -0.229   5.607   1.746  0.00  0.00    -0.004 A 
ATOM      5  C5  I4B d   1       1.122   5.496   1.431  0.00  0.00     0.002 A 
ATOM      6  C6  I4B d   1       1.630   4.288   0.932  0.00  0.00     0.003 A 
ENDROOT
BRANCH   1   7
ATOM      7  C1' I4B d   1       1.312   1.876   0.318  0.00  0.00     0.060 C 
BRANCH   7   8
ATOM      8  C2' I4B d   1       0.144   1.061  -0.198  0.00  0.00    -0.013 C 
ATOM      9  C4' I4B d   1       0.262   0.815  -1.679  0.00  0.00     0.013 C 
ATOM     10  C3' I4B d   1       0.107  -0.230   0.564  0.00  0.00     0.013 C 
ENDBRANCH   7   8
ENDBRANCH   1   7
TORSDOF 2
ENDMDL
