MODEL 1
REMARK minimizedAffinity -1.99705446
REMARK minimizedRMSD -1
REMARK  0 active torsions:
REMARK  status: ('A' for Active; 'I' for Inactive)
ROOT
ATOM      1  C1  BNZ d   1       1.224   2.141   1.891  0.00  0.00     0.000 A 
ATOM      2  C2  BNZ d   1       0.854   0.872   1.534  0.00  0.00     0.000 A 
ATOM      3  C3  BNZ d   1      -0.227   0.269   2.114  0.00  0.00     0.000 A 
ATOM      4  C4  BNZ d   1      -0.912   0.919   3.077  0.00  0.00     0.000 A 
ATOM      5  C5  BNZ d   1      -0.545   2.196   3.454  0.00  0.00     0.000 A 
ATOM      6  C6  BNZ d   1       0.520   2.815   2.841  0.00  0.00     0.000 A 
ENDROOT
TORSDOF 0
ENDMDL
