MODEL 1
REMARK minimizedAffinity 2.79132557
REMARK minimizedRMSD -1
REMARK  0 active torsions:
REMARK  status: ('A' for Active; 'I' for Inactive)
ROOT
ATOM      1  C1  BNZ d   1      -2.198   0.733   1.259  0.00  0.00     0.000 A 
ATOM      2  C2  BNZ d   1      -1.318  -0.108   1.887  0.00  0.00     0.000 A 
ATOM      3  C3  BNZ d   1      -0.466  -0.895   1.163  0.00  0.00     0.000 A 
ATOM      4  C4  BNZ d   1      -0.522  -0.870  -0.184  0.00  0.00     0.000 A 
ATOM      5  C5  BNZ d   1      -1.410  -0.034  -0.831  0.00  0.00     0.000 A 
ATOM      6  C6  BNZ d   1      -2.240   0.785  -0.100  0.00  0.00     0.000 A 
ENDROOT
TORSDOF 0
ENDMDL
