MODEL 1
REMARK minimizedAffinity 2.64013624
REMARK minimizedRMSD -1
REMARK  0 active torsions:
REMARK  status: ('A' for Active; 'I' for Inactive)
ROOT
ATOM      1  C1  BNZ d   1       2.071  -0.874   0.452  0.00  0.00     0.000 A 
ATOM      2  C2  BNZ d   1       0.789  -1.351   0.392  0.00  0.00     0.000 A 
ATOM      3  C3  BNZ d   1      -0.167  -0.700  -0.336  0.00  0.00     0.000 A 
ATOM      4  C4  BNZ d   1       0.149   0.448  -0.970  0.00  0.00     0.000 A 
ATOM      5  C5  BNZ d   1       1.435   0.947  -0.911  0.00  0.00     0.000 A 
ATOM      6  C6  BNZ d   1       2.404   0.268  -0.209  0.00  0.00     0.000 A 
ENDROOT
TORSDOF 0
ENDMDL
