MODEL 1
REMARK minimizedAffinity -4.30682421
REMARK minimizedRMSD -1
REMARK  0 active torsions:
REMARK  status: ('A' for Active; 'I' for Inactive)
ROOT
ATOM      1  C1  BNZ d   1      -0.428   0.127   1.913  0.00  0.00     0.000 A 
ATOM      2  C2  BNZ d   1      -1.560  -0.020   1.157  0.00  0.00     0.000 A 
ATOM      3  C3  BNZ d   1      -1.513  -0.636  -0.062  0.00  0.00     0.000 A 
ATOM      4  C4  BNZ d   1      -0.329  -1.068  -0.541  0.00  0.00     0.000 A 
ATOM      5  C5  BNZ d   1       0.823  -0.919   0.205  0.00  0.00     0.000 A 
ATOM      6  C6  BNZ d   1       0.766  -0.334   1.449  0.00  0.00     0.000 A 
ENDROOT
TORSDOF 0
ENDMDL
