MODEL 1
REMARK minimizedAffinity -2.97247338
REMARK minimizedRMSD -1
REMARK  0 active torsions:
REMARK  status: ('A' for Active; 'I' for Inactive)
ROOT
ATOM      1  C1  BNZ d   1      -1.504   0.126  -0.061  0.00  0.00     0.000 A 
ATOM      2  C2  BNZ d   1      -0.704  -0.455  -1.008  0.00  0.00     0.000 A 
ATOM      3  C3  BNZ d   1       0.630  -0.642  -0.779  0.00  0.00     0.000 A 
ATOM      4  C4  BNZ d   1       1.170  -0.212   0.380  0.00  0.00     0.000 A 
ATOM      5  C5  BNZ d   1       0.379   0.385   1.341  0.00  0.00     0.000 A 
ATOM      6  C6  BNZ d   1      -0.971   0.536   1.123  0.00  0.00     0.000 A 
ENDROOT
TORSDOF 0
ENDMDL
