MODEL 1
REMARK minimizedAffinity 0.160940751
REMARK minimizedRMSD -1
REMARK  0 active torsions:
REMARK  status: ('A' for Active; 'I' for Inactive)
ROOT
ATOM      1  C1  BNZ d   1      -2.290   0.806   0.825  0.00  0.00     0.000 A 
ATOM      2  C2  BNZ d   1      -0.939   0.592   0.746  0.00  0.00     0.000 A 
ATOM      3  C3  BNZ d   1      -0.444  -0.576   0.237  0.00  0.00     0.000 A 
ATOM      4  C4  BNZ d   1      -1.298  -1.543  -0.154  0.00  0.00     0.000 A 
ATOM      5  C5  BNZ d   1      -2.662  -1.347  -0.072  0.00  0.00     0.000 A 
ATOM      6  C6  BNZ d   1      -3.157  -0.155   0.404  0.00  0.00     0.000 A 
ENDROOT
TORSDOF 0
ENDMDL
