MODEL 1
REMARK minimizedAffinity 3.10600328
REMARK minimizedRMSD -1
REMARK  0 active torsions:
REMARK  status: ('A' for Active; 'I' for Inactive)
ROOT
ATOM      1  C1  BNZ d   1       2.212   2.063  -3.473  0.00  0.00     0.000 A 
ATOM      2  C2  BNZ d   1       2.601   2.146  -2.162  0.00  0.00     0.000 A 
ATOM      3  C3  BNZ d   1       1.788   1.693  -1.161  0.00  0.00     0.000 A 
ATOM      4  C4  BNZ d   1       0.572   1.196  -1.467  0.00  0.00     0.000 A 
ATOM      5  C5  BNZ d   1       0.161   1.115  -2.783  0.00  0.00     0.000 A 
ATOM      6  C6  BNZ d   1       0.998   1.536  -3.791  0.00  0.00     0.000 A 
ENDROOT
TORSDOF 0
ENDMDL
