MODEL 1
REMARK minimizedAffinity -4.39420938
REMARK minimizedRMSD -1
REMARK  0 active torsions:
REMARK  status: ('A' for Active; 'I' for Inactive)
ROOT
ATOM      1  C1  BNZ d   1       0.713  -0.011   1.769  0.00  0.00     0.000 A 
ATOM      2  C2  BNZ d   1      -0.546   0.362   1.381  0.00  0.00     0.000 A 
ATOM      3  C3  BNZ d   1      -1.117  -0.165   0.256  0.00  0.00     0.000 A 
ATOM      4  C4  BNZ d   1      -0.414  -1.032  -0.500  0.00  0.00     0.000 A 
ATOM      5  C5  BNZ d   1       0.861  -1.411  -0.127  0.00  0.00     0.000 A 
ATOM      6  C6  BNZ d   1       1.417  -0.908   1.027  0.00  0.00     0.000 A 
ENDROOT
TORSDOF 0
ENDMDL
