MODEL 1
REMARK minimizedAffinity -5.06406307
REMARK minimizedRMSD -1
REMARK  0 active torsions:
REMARK  status: ('A' for Active; 'I' for Inactive)
ROOT
ATOM      1  C1  BNZ d   1      -0.433   0.981   3.054  0.00  0.00     0.000 A 
ATOM      2  C2  BNZ d   1      -1.236   0.926   1.947  0.00  0.00     0.000 A 
ATOM      3  C3  BNZ d   1      -0.772   0.409   0.770  0.00  0.00     0.000 A 
ATOM      4  C4  BNZ d   1       0.506  -0.015   0.690  0.00  0.00     0.000 A 
ATOM      5  C5  BNZ d   1       1.331   0.042   1.795  0.00  0.00     0.000 A 
ATOM      6  C6  BNZ d   1       0.849   0.528   2.989  0.00  0.00     0.000 A 
ENDROOT
TORSDOF 0
ENDMDL
