MODEL 1
REMARK minimizedAffinity -4.86653376
REMARK minimizedRMSD -1
REMARK  0 active torsions:
REMARK  status: ('A' for Active; 'I' for Inactive)
ROOT
ATOM      1  C1  BNZ d   1       0.787   0.517   3.852  0.00  0.00     0.000 A 
ATOM      2  C2  BNZ d   1      -0.336   1.257   3.595  0.00  0.00     0.000 A 
ATOM      3  C3  BNZ d   1      -0.902   1.261   2.351  0.00  0.00     0.000 A 
ATOM      4  C4  BNZ d   1      -0.323   0.558   1.357  0.00  0.00     0.000 A 
ATOM      5  C5  BNZ d   1       0.815  -0.186   1.597  0.00  0.00     0.000 A 
ATOM      6  C6  BNZ d   1       1.360  -0.219   2.861  0.00  0.00     0.000 A 
ENDROOT
TORSDOF 0
ENDMDL
