MODEL 1
REMARK minimizedAffinity -3.76113844
REMARK minimizedRMSD -1
REMARK  0 active torsions:
REMARK  status: ('A' for Active; 'I' for Inactive)
ROOT
ATOM      1  C1  BNZ d   1      -1.539   0.114   2.415  0.00  0.00     0.000 A 
ATOM      2  C2  BNZ d   1      -0.486   0.543   3.179  0.00  0.00     0.000 A 
ATOM      3  C3  BNZ d   1       0.723   0.825   2.608  0.00  0.00     0.000 A 
ATOM      4  C4  BNZ d   1       0.891   0.639   1.283  0.00  0.00     0.000 A 
ATOM      5  C5  BNZ d   1      -0.158   0.198   0.501  0.00  0.00     0.000 A 
ATOM      6  C6  BNZ d   1      -1.386  -0.047   1.072  0.00  0.00     0.000 A 
ENDROOT
TORSDOF 0
ENDMDL
