MODEL 1
REMARK minimizedAffinity -4.32341099
REMARK minimizedRMSD -1
REMARK  0 active torsions:
REMARK  status: ('A' for Active; 'I' for Inactive)
ROOT
ATOM      1  C   UNL d   1      -0.025   1.091  -0.622  0.00  0.00     0.078 C 
ATOM      2  C1  UNL d   1      -0.096  -0.273  -0.002  0.00  0.00    -0.077 A 
ATOM      3  C2  UNL d   1      -0.874  -0.507   1.138  0.00  0.00    -0.001 A 
ATOM      4  C3  UNL d   1      -0.922  -1.780   1.711  0.00  0.00     0.003 A 
ATOM      5  C4  UNL d   1      -0.194  -2.827   1.150  0.00  0.00    -0.005 A 
ATOM      6  C5  UNL d   1       0.585  -2.603   0.017  0.00  0.00     0.003 A 
ATOM      7  C6  UNL d   1       0.635  -1.331  -0.557  0.00  0.00    -0.001 A 
ENDROOT
TORSDOF 0
ENDMDL
