MODEL 1
REMARK minimizedAffinity -2.49195433
REMARK minimizedRMSD -1
REMARK  0 active torsions:
REMARK  status: ('A' for Active; 'I' for Inactive)
ROOT
ATOM      1  C   UNL d   1      -0.748  -2.524   0.581  0.00  0.00     0.078 C 
ATOM      2  C1  UNL d   1      -0.451  -1.058   0.485  0.00  0.00    -0.077 A 
ATOM      3  C2  UNL d   1      -0.952  -0.157   1.432  0.00  0.00    -0.001 A 
ATOM      4  C3  UNL d   1      -0.675   1.207   1.325  0.00  0.00     0.003 A 
ATOM      5  C4  UNL d   1       0.103   1.682   0.271  0.00  0.00    -0.005 A 
ATOM      6  C5  UNL d   1       0.604   0.794  -0.678  0.00  0.00     0.003 A 
ATOM      7  C6  UNL d   1       0.328  -0.570  -0.573  0.00  0.00    -0.001 A 
ENDROOT
TORSDOF 0
ENDMDL
