MODEL 1
REMARK minimizedAffinity -5.18057728
REMARK minimizedRMSD -1
REMARK  0 active torsions:
REMARK  status: ('A' for Active; 'I' for Inactive)
ROOT
ATOM      1  C   UNL d   1      -2.144   0.149   1.565  0.00  0.00     0.078 C 
ATOM      2  C1  UNL d   1      -1.085  -0.815   1.120  0.00  0.00    -0.077 A 
ATOM      3  C2  UNL d   1      -1.284  -2.198   1.214  0.00  0.00    -0.001 A 
ATOM      4  C3  UNL d   1      -0.286  -3.083   0.804  0.00  0.00     0.003 A 
ATOM      5  C4  UNL d   1       0.918  -2.596   0.300  0.00  0.00    -0.005 A 
ATOM      6  C5  UNL d   1       1.126  -1.222   0.205  0.00  0.00     0.003 A 
ATOM      7  C6  UNL d   1       0.129  -0.334   0.614  0.00  0.00    -0.001 A 
ENDROOT
TORSDOF 0
ENDMDL
