MODEL 1
REMARK minimizedAffinity -4.08826447
REMARK minimizedRMSD -1
REMARK  0 active torsions:
REMARK  status: ('A' for Active; 'I' for Inactive)
ROOT
ATOM      1  C   UNL d   1      -0.024  -1.480   0.498  0.00  0.00     0.078 C 
ATOM      2  C1  UNL d   1       0.371  -0.037   0.395  0.00  0.00    -0.077 A 
ATOM      3  C2  UNL d   1      -0.346   0.852  -0.415  0.00  0.00    -0.001 A 
ATOM      4  C3  UNL d   1       0.040   2.190  -0.508  0.00  0.00     0.003 A 
ATOM      5  C4  UNL d   1       1.144   2.651   0.205  0.00  0.00    -0.005 A 
ATOM      6  C5  UNL d   1       1.866   1.774   1.011  0.00  0.00     0.003 A 
ATOM      7  C6  UNL d   1       1.482   0.435   1.106  0.00  0.00    -0.001 A 
ENDROOT
TORSDOF 0
ENDMDL
