MODEL 1
REMARK minimizedAffinity -2.77844858
REMARK minimizedRMSD -1
REMARK  0 active torsions:
REMARK  status: ('A' for Active; 'I' for Inactive)
ROOT
ATOM      1  C   UNL d   1       0.620   2.364   0.010  0.00  0.00     0.078 C 
ATOM      2  C1  UNL d   1       0.165   0.943   0.165  0.00  0.00    -0.077 A 
ATOM      3  C2  UNL d   1      -0.841   0.603   1.078  0.00  0.00    -0.001 A 
ATOM      4  C3  UNL d   1      -1.247  -0.724   1.218  0.00  0.00     0.003 A 
ATOM      5  C4  UNL d   1      -0.653  -1.723   0.449  0.00  0.00    -0.005 A 
ATOM      6  C5  UNL d   1       0.350  -1.395  -0.460  0.00  0.00     0.003 A 
ATOM      7  C6  UNL d   1       0.758  -0.068  -0.602  0.00  0.00    -0.001 A 
ENDROOT
TORSDOF 0
ENDMDL
