MODEL 1
REMARK minimizedAffinity -4.11041689
REMARK minimizedRMSD -1
REMARK  0 active torsions:
REMARK  status: ('A' for Active; 'I' for Inactive)
ROOT
ATOM      1  C   UNL d   1       0.718   1.643   0.012  0.00  0.00     0.078 C 
ATOM      2  C1  UNL d   1       0.253   0.257   0.347  0.00  0.00    -0.077 A 
ATOM      3  C2  UNL d   1       0.304  -0.770  -0.603  0.00  0.00    -0.001 A 
ATOM      4  C3  UNL d   1      -0.142  -2.053  -0.280  0.00  0.00     0.003 A 
ATOM      5  C4  UNL d   1      -0.642  -2.320   0.993  0.00  0.00    -0.005 A 
ATOM      6  C5  UNL d   1      -0.699  -1.303   1.944  0.00  0.00     0.003 A 
ATOM      7  C6  UNL d   1      -0.254  -0.020   1.623  0.00  0.00    -0.001 A 
ENDROOT
TORSDOF 0
ENDMDL
