MODEL 1
REMARK minimizedAffinity -2.65120554
REMARK minimizedRMSD -1
REMARK  0 active torsions:
REMARK  status: ('A' for Active; 'I' for Inactive)
ROOT
ATOM      1  C   UNL d   1       0.180  -0.197   2.330  0.00  0.00     0.078 C 
ATOM      2  C1  UNL d   1       0.197  -0.162   0.831  0.00  0.00    -0.077 A 
ATOM      3  C2  UNL d   1      -0.248   0.965   0.130  0.00  0.00    -0.001 A 
ATOM      4  C3  UNL d   1      -0.236   0.980  -1.265  0.00  0.00     0.003 A 
ATOM      5  C4  UNL d   1       0.219  -0.132  -1.972  0.00  0.00    -0.005 A 
ATOM      6  C5  UNL d   1       0.661  -1.259  -1.284  0.00  0.00     0.003 A 
ATOM      7  C6  UNL d   1       0.650  -1.275   0.112  0.00  0.00    -0.001 A 
ENDROOT
TORSDOF 0
ENDMDL
