MODEL 1
REMARK minimizedAffinity -3.2335279
REMARK minimizedRMSD -1
REMARK  0 active torsions:
REMARK  status: ('A' for Active; 'I' for Inactive)
ROOT
ATOM      1  C   UNL d   1       1.193   3.543   0.231  0.00  0.00     0.078 C 
ATOM      2  C1  UNL d   1       0.612   2.161   0.216  0.00  0.00    -0.077 A 
ATOM      3  C2  UNL d   1      -0.011   1.653  -0.930  0.00  0.00    -0.001 A 
ATOM      4  C3  UNL d   1      -0.556   0.368  -0.927  0.00  0.00     0.003 A 
ATOM      5  C4  UNL d   1      -0.484  -0.420   0.221  0.00  0.00    -0.005 A 
ATOM      6  C5  UNL d   1       0.132   0.078   1.367  0.00  0.00     0.003 A 
ATOM      7  C6  UNL d   1       0.677   1.363   1.365  0.00  0.00    -0.001 A 
ENDROOT
TORSDOF 0
ENDMDL
