MODEL 1
REMARK minimizedAffinity -5.0054388
REMARK minimizedRMSD -1
REMARK  0 active torsions:
REMARK  status: ('A' for Active; 'I' for Inactive)
ROOT
ATOM      1  C   UNL d   1      -0.354  -3.932  -0.006  0.00  0.00     0.078 C 
ATOM      2  C1  UNL d   1      -0.409  -2.439   0.123  0.00  0.00    -0.077 A 
ATOM      3  C2  UNL d   1       0.335  -1.614  -0.730  0.00  0.00    -0.001 A 
ATOM      4  C3  UNL d   1       0.281  -0.226  -0.593  0.00  0.00     0.003 A 
ATOM      5  C4  UNL d   1      -0.513   0.349   0.397  0.00  0.00    -0.005 A 
ATOM      6  C5  UNL d   1      -1.255  -0.464   1.251  0.00  0.00     0.003 A 
ATOM      7  C6  UNL d   1      -1.203  -1.852   1.116  0.00  0.00    -0.001 A 
ENDROOT
TORSDOF 0
ENDMDL
