MODEL 1
REMARK minimizedAffinity -1.84506166
REMARK minimizedRMSD -1
REMARK  0 active torsions:
REMARK  status: ('A' for Active; 'I' for Inactive)
ROOT
ATOM      1  C   UNL d   1       0.158   1.690  -0.080  0.00  0.00     0.078 C 
ATOM      2  C1  UNL d   1      -0.133   0.284   0.353  0.00  0.00    -0.077 A 
ATOM      3  C2  UNL d   1      -0.467  -0.704  -0.582  0.00  0.00    -0.001 A 
ATOM      4  C3  UNL d   1      -0.744  -2.006  -0.163  0.00  0.00     0.003 A 
ATOM      5  C4  UNL d   1      -0.692  -2.333   1.190  0.00  0.00    -0.005 A 
ATOM      6  C5  UNL d   1      -0.363  -1.356   2.128  0.00  0.00     0.003 A 
ATOM      7  C6  UNL d   1      -0.085  -0.053   1.711  0.00  0.00    -0.001 A 
ENDROOT
TORSDOF 0
ENDMDL
