MODEL 1
REMARK minimizedAffinity -3.31740403
REMARK minimizedRMSD -1
REMARK  0 active torsions:
REMARK  status: ('A' for Active; 'I' for Inactive)
ROOT
ATOM      1  C   UNL d   1       0.977  -1.659  -2.891  0.00  0.00     0.078 C 
ATOM      2  C1  UNL d   1       0.557  -1.058  -1.583  0.00  0.00    -0.077 A 
ATOM      3  C2  UNL d   1       0.409  -1.852  -0.439  0.00  0.00    -0.001 A 
ATOM      4  C3  UNL d   1       0.008  -1.280   0.769  0.00  0.00     0.003 A 
ATOM      5  C4  UNL d   1      -0.250   0.087   0.845  0.00  0.00    -0.005 A 
ATOM      6  C5  UNL d   1      -0.108   0.885  -0.289  0.00  0.00     0.003 A 
ATOM      7  C6  UNL d   1       0.293   0.315  -1.498  0.00  0.00    -0.001 A 
ENDROOT
TORSDOF 0
ENDMDL
