MODEL 1
REMARK minimizedAffinity -4.45340633
REMARK minimizedRMSD -1
REMARK  0 active torsions:
REMARK  status: ('A' for Active; 'I' for Inactive)
ROOT
ATOM      1  C   UNL d   1       0.224   1.308   0.054  0.00  0.00     0.078 C 
ATOM      2  C1  UNL d   1      -0.114  -0.143   0.224  0.00  0.00    -0.077 A 
ATOM      3  C2  UNL d   1      -0.011  -1.038  -0.849  0.00  0.00    -0.001 A 
ATOM      4  C3  UNL d   1      -0.338  -2.384  -0.679  0.00  0.00     0.003 A 
ATOM      5  C4  UNL d   1      -0.771  -2.848   0.561  0.00  0.00    -0.005 A 
ATOM      6  C5  UNL d   1      -0.879  -1.965   1.634  0.00  0.00     0.003 A 
ATOM      7  C6  UNL d   1      -0.553  -0.618   1.466  0.00  0.00    -0.001 A 
ENDROOT
TORSDOF 0
ENDMDL
