MODEL 1
REMARK minimizedAffinity -5.09402132
REMARK minimizedRMSD -1
REMARK  0 active torsions:
REMARK  status: ('A' for Active; 'I' for Inactive)
ROOT
ATOM      1  C   UNL d   1       0.400  -3.198  -0.431  0.00  0.00     0.078 C 
ATOM      2  C1  UNL d   1       0.165  -1.796   0.047  0.00  0.00    -0.077 A 
ATOM      3  C2  UNL d   1      -0.943  -1.481   0.844  0.00  0.00    -0.001 A 
ATOM      4  C3  UNL d   1      -1.154  -0.170   1.273  0.00  0.00     0.003 A 
ATOM      5  C4  UNL d   1      -0.262   0.837   0.910  0.00  0.00    -0.005 A 
ATOM      6  C5  UNL d   1       0.842   0.534   0.115  0.00  0.00     0.003 A 
ATOM      7  C6  UNL d   1       1.055  -0.776  -0.315  0.00  0.00    -0.001 A 
ENDROOT
TORSDOF 0
ENDMDL
