MODEL 1
REMARK minimizedAffinity 0.00754761184
REMARK minimizedRMSD -1
REMARK  0 active torsions:
REMARK  status: ('A' for Active; 'I' for Inactive)
ROOT
ATOM      1  C   UNL d   1      -0.572  -3.334  -2.120  0.00  0.00     0.078 C 
ATOM      2  C1  UNL d   1      -0.560  -2.460  -0.902  0.00  0.00    -0.077 A 
ATOM      3  C2  UNL d   1      -0.753  -3.000   0.376  0.00  0.00    -0.001 A 
ATOM      4  C3  UNL d   1      -0.749  -2.173   1.500  0.00  0.00     0.003 A 
ATOM      5  C4  UNL d   1      -0.554  -0.800   1.358  0.00  0.00    -0.005 A 
ATOM      6  C5  UNL d   1      -0.363  -0.253   0.091  0.00  0.00     0.003 A 
ATOM      7  C6  UNL d   1      -0.367  -1.079  -1.034  0.00  0.00    -0.001 A 
ENDROOT
TORSDOF 0
ENDMDL
