MODEL 1
REMARK minimizedAffinity -4.01025057
REMARK minimizedRMSD -1
REMARK  0 active torsions:
REMARK  status: ('A' for Active; 'I' for Inactive)
ROOT
ATOM      1  C   UNL d   1       1.555   0.516   0.362  0.00  0.00     0.078 C 
ATOM      2  C1  UNL d   1       0.574  -0.613   0.473  0.00  0.00    -0.077 A 
ATOM      3  C2  UNL d   1      -0.747  -0.383   0.874  0.00  0.00    -0.001 A 
ATOM      4  C3  UNL d   1      -1.647  -1.445   0.982  0.00  0.00     0.003 A 
ATOM      5  C4  UNL d   1      -1.234  -2.744   0.692  0.00  0.00    -0.005 A 
ATOM      6  C5  UNL d   1       0.080  -2.983   0.295  0.00  0.00     0.003 A 
ATOM      7  C6  UNL d   1       0.981  -1.922   0.186  0.00  0.00    -0.001 A 
ENDROOT
TORSDOF 0
ENDMDL
