MODEL 1
REMARK minimizedAffinity 4.59702492
REMARK minimizedRMSD -1
REMARK  3 active torsions:
REMARK  status: ('A' for Active; 'I' for Inactive)
REMARK    1  A    between atoms: C3'_2  and  C2'_3 
REMARK    2  A    between atoms: C2'_3  and  C1'_4 
REMARK    3  A    between atoms: C1'_4  and  C1_5 
ROOT
ATOM      1  C1  N4B d   1       4.793  -2.432   3.829  0.00  0.00    -0.075 A 
ATOM      2  C2  N4B d   1       3.725  -2.951   3.064  0.00  0.00     0.002 A 
ATOM      3  C3  N4B d   1       3.794  -2.937   1.692  0.00  0.00     0.002 A 
ATOM      4  C4  N4B d   1       4.906  -2.396   1.066  0.00  0.00    -0.004 A 
ATOM      5  C5  N4B d   1       5.944  -1.920   1.813  0.00  0.00     0.002 A 
ATOM      6  C6  N4B d   1       5.891  -1.930   3.192  0.00  0.00     0.002 A 
ENDROOT
BRANCH   1   7
ATOM      7  C1' N4B d   1       4.726  -2.346   5.329  0.00  0.00     0.057 C 
BRANCH   7   8
ATOM      8  C2' N4B d   1       5.531  -3.494   5.932  0.00  0.00     0.009 C 
BRANCH   8   9
ATOM      9  C3' N4B d   1       4.749  -4.796   5.936  0.00  0.00     0.004 C 
ATOM     10  C4' N4B d   1       5.622  -5.999   5.739  0.00  0.00     0.003 C 
ENDBRANCH   8   9
ENDBRANCH   7   8
ENDBRANCH   1   7
TORSDOF 3
ENDMDL
