MODEL 1
REMARK minimizedAffinity 8.57953835
REMARK minimizedRMSD -1
REMARK  3 active torsions:
REMARK  status: ('A' for Active; 'I' for Inactive)
REMARK    1  A    between atoms: C3'_2  and  C2'_3 
REMARK    2  A    between atoms: C2'_3  and  C1'_4 
REMARK    3  A    between atoms: C1'_4  and  C1_5 
ROOT
ATOM      1  C1  N4B d   1      -4.334  -0.510  -2.857  0.00  0.00    -0.075 A 
ATOM      2  C2  N4B d   1      -5.167   0.367  -3.584  0.00  0.00     0.002 A 
ATOM      3  C3  N4B d   1      -5.999  -0.126  -4.560  0.00  0.00     0.002 A 
ATOM      4  C4  N4B d   1      -6.000  -1.485  -4.837  0.00  0.00    -0.004 A 
ATOM      5  C5  N4B d   1      -5.211  -2.329  -4.112  0.00  0.00     0.002 A 
ATOM      6  C6  N4B d   1      -4.373  -1.848  -3.126  0.00  0.00     0.002 A 
ENDROOT
BRANCH   1   7
ATOM      7  C1' N4B d   1      -3.346  -0.007  -1.840  0.00  0.00     0.057 C 
BRANCH   7   8
ATOM      8  C2' N4B d   1      -3.190   1.503  -1.998  0.00  0.00     0.009 C 
BRANCH   8   9
ATOM      9  C3' N4B d   1      -2.573   1.873  -3.337  0.00  0.00     0.004 C 
ATOM     10  C4' N4B d   1      -3.345   2.938  -4.057  0.00  0.00     0.003 C 
ENDBRANCH   8   9
ENDBRANCH   7   8
ENDBRANCH   1   7
TORSDOF 3
ENDMDL
