MODEL 1
REMARK minimizedAffinity 13.8911104
REMARK minimizedRMSD -1
REMARK  3 active torsions:
REMARK  status: ('A' for Active; 'I' for Inactive)
REMARK    1  A    between atoms: C3'_2  and  C2'_3 
REMARK    2  A    between atoms: C2'_3  and  C1'_4 
REMARK    3  A    between atoms: C1'_4  and  C1_5 
ROOT
ATOM      1  C1  N4B d   1      -4.372   0.179  -2.491  0.00  0.00    -0.075 A 
ATOM      2  C2  N4B d   1      -5.181   0.715  -3.516  0.00  0.00     0.002 A 
ATOM      3  C3  N4B d   1      -5.994  -0.112  -4.253  0.00  0.00     0.002 A 
ATOM      4  C4  N4B d   1      -5.999  -1.475  -3.996  0.00  0.00    -0.004 A 
ATOM      5  C5  N4B d   1      -5.234  -1.981  -2.987  0.00  0.00     0.002 A 
ATOM      6  C6  N4B d   1      -4.416  -1.162  -2.236  0.00  0.00     0.002 A 
ENDROOT
BRANCH   1   7
ATOM      7  C1' N4B d   1      -3.404   1.030  -1.716  0.00  0.00     0.057 C 
BRANCH   7   8
ATOM      8  C2' N4B d   1      -2.764   2.045  -2.659  0.00  0.00     0.009 C 
BRANCH   8   9
ATOM      9  C3' N4B d   1      -1.252   1.909  -2.698  0.00  0.00     0.004 C 
ATOM     10  C4' N4B d   1      -0.633   2.632  -3.857  0.00  0.00     0.003 C 
ENDBRANCH   8   9
ENDBRANCH   7   8
ENDBRANCH   1   7
TORSDOF 3
ENDMDL
