MODEL 1
REMARK minimizedAffinity 1.48606741
REMARK minimizedRMSD -1
REMARK  0 active torsions:
REMARK  status: ('A' for Active; 'I' for Inactive)
ROOT
ATOM      1  C1  DEN d   1      -1.014  -2.224  -0.966  0.00  0.00     0.130 A 
ATOM      2  C2  DEN d   1      -1.086  -3.109  -2.125  0.00  0.00    -0.031 A 
ATOM      3  C3  DEN d   1      -0.832  -2.299  -3.334  0.00  0.00     0.027 A 
ATOM      4  C4  DEN d   1      -0.332   0.224  -3.520  0.00  0.00     0.027 A 
ATOM      5  C5  DEN d   1      -0.180   1.394  -2.809  0.00  0.00    -0.003 A 
ATOM      6  C6  DEN d   1      -0.328   1.446  -1.448  0.00  0.00     0.001 A 
ATOM      7  C7  DEN d   1      -0.593   0.297  -0.750  0.00  0.00     0.017 A 
ATOM      8  C8  DEN d   1      -0.754  -0.885  -1.461  0.00  0.00    -0.094 A 
ATOM      9  C9  DEN d   1      -0.589  -0.919  -2.835  0.00  0.00    -0.072 A 
ENDROOT
TORSDOF 0
ENDMDL
