MODEL 1
REMARK minimizedAffinity 3.82509279
REMARK minimizedRMSD -1
REMARK  0 active torsions:
REMARK  status: ('A' for Active; 'I' for Inactive)
ROOT
ATOM      1  C1  DEN d   1      -0.461  -4.299  -1.059  0.00  0.00     0.130 A 
ATOM      2  C2  DEN d   1       0.753  -3.704  -0.508  0.00  0.00    -0.031 A 
ATOM      3  C3  DEN d   1       1.252  -2.705  -1.475  0.00  0.00     0.027 A 
ATOM      4  C4  DEN d   1       0.265  -2.023  -3.758  0.00  0.00     0.027 A 
ATOM      5  C5  DEN d   1      -0.751  -2.259  -4.657  0.00  0.00    -0.003 A 
ATOM      6  C6  DEN d   1      -1.714  -3.208  -4.438  0.00  0.00     0.001 A 
ATOM      7  C7  DEN d   1      -1.707  -3.925  -3.271  0.00  0.00     0.017 A 
ATOM      8  C8  DEN d   1      -0.682  -3.697  -2.362  0.00  0.00    -0.094 A 
ATOM      9  C9  DEN d   1       0.275  -2.725  -2.596  0.00  0.00    -0.072 A 
ENDROOT
TORSDOF 0
ENDMDL
