MODEL 1
REMARK minimizedAffinity 6.54289484
REMARK minimizedRMSD -1
REMARK  0 active torsions:
REMARK  status: ('A' for Active; 'I' for Inactive)
ROOT
ATOM      1  C1  DEN d   1       3.002  -2.513  -0.396  0.00  0.00     0.130 A 
ATOM      2  C2  DEN d   1       3.014  -1.114  -0.816  0.00  0.00    -0.031 A 
ATOM      3  C3  DEN d   1       1.704  -0.810  -1.426  0.00  0.00     0.027 A 
ATOM      4  C4  DEN d   1      -0.332  -2.358  -1.756  0.00  0.00     0.027 A 
ATOM      5  C5  DEN d   1      -0.812  -3.636  -1.571  0.00  0.00    -0.003 A 
ATOM      6  C6  DEN d   1      -0.050  -4.629  -1.017  0.00  0.00     0.001 A 
ATOM      7  C7  DEN d   1       1.221  -4.350  -0.586  0.00  0.00     0.017 A 
ATOM      8  C8  DEN d   1       1.715  -3.066  -0.777  0.00  0.00    -0.094 A 
ATOM      9  C9  DEN d   1       0.924  -2.072  -1.328  0.00  0.00    -0.072 A 
ENDROOT
TORSDOF 0
ENDMDL
