MODEL 1
REMARK minimizedAffinity 4.33824539
REMARK minimizedRMSD -1
REMARK  0 active torsions:
REMARK  status: ('A' for Active; 'I' for Inactive)
ROOT
ATOM      1  C1  DEN d   1       0.566  -1.106  -2.033  0.00  0.00     0.130 A 
ATOM      2  C2  DEN d   1       1.722  -0.737  -1.221  0.00  0.00    -0.031 A 
ATOM      3  C3  DEN d   1       2.224  -1.959  -0.560  0.00  0.00     0.027 A 
ATOM      4  C4  DEN d   1       1.331  -4.373  -0.719  0.00  0.00     0.027 A 
ATOM      5  C5  DEN d   1       0.361  -5.177  -1.276  0.00  0.00    -0.003 A 
ATOM      6  C6  DEN d   1      -0.621  -4.679  -2.090  0.00  0.00     0.001 A 
ATOM      7  C7  DEN d   1      -0.628  -3.346  -2.408  0.00  0.00     0.017 A 
ATOM      8  C8  DEN d   1       0.342  -2.528  -1.844  0.00  0.00    -0.094 A 
ATOM      9  C9  DEN d   1       1.334  -3.053  -1.032  0.00  0.00    -0.072 A 
ENDROOT
TORSDOF 0
ENDMDL
