MODEL 1
REMARK minimizedAffinity 8.08893871
REMARK minimizedRMSD -1
REMARK  0 active torsions:
REMARK  status: ('A' for Active; 'I' for Inactive)
ROOT
ATOM      1  C1  DEN d   1      -0.738   2.123   0.996  0.00  0.00     0.130 A 
ATOM      2  C2  DEN d   1      -1.734   2.316  -0.054  0.00  0.00    -0.031 A 
ATOM      3  C3  DEN d   1      -1.229   3.351  -0.978  0.00  0.00     0.027 A 
ATOM      4  C4  DEN d   1       0.990   4.663  -0.887  0.00  0.00     0.027 A 
ATOM      5  C5  DEN d   1       2.153   4.854  -0.175  0.00  0.00    -0.003 A 
ATOM      6  C6  DEN d   1       2.417   4.177   0.986  0.00  0.00     0.001 A 
ATOM      7  C7  DEN d   1       1.525   3.245   1.446  0.00  0.00     0.017 A 
ATOM      8  C8  DEN d   1       0.347   3.053   0.737  0.00  0.00    -0.094 A 
ATOM      9  C9  DEN d   1       0.104   3.737  -0.441  0.00  0.00    -0.072 A 
ENDROOT
TORSDOF 0
ENDMDL
