MODEL 1
REMARK minimizedAffinity 15.6164074
REMARK minimizedRMSD -1
REMARK  0 active torsions:
REMARK  status: ('A' for Active; 'I' for Inactive)
ROOT
ATOM      1  C1  DEN d   1       1.920   4.355  -0.004  0.00  0.00     0.130 A 
ATOM      2  C2  DEN d   1       0.893   4.928  -0.869  0.00  0.00    -0.031 A 
ATOM      3  C3  DEN d   1      -0.424   4.485  -0.369  0.00  0.00     0.027 A 
ATOM      4  C4  DEN d   1      -0.970   2.979   1.652  0.00  0.00     0.027 A 
ATOM      5  C5  DEN d   1      -0.428   2.243   2.683  0.00  0.00    -0.003 A 
ATOM      6  C6  DEN d   1       0.925   2.133   2.868  0.00  0.00     0.001 A 
ATOM      7  C7  DEN d   1       1.781   2.805   2.037  0.00  0.00     0.017 A 
ATOM      8  C8  DEN d   1       1.242   3.543   0.991  0.00  0.00    -0.094 A 
ATOM      9  C9  DEN d   1      -0.128   3.652   0.828  0.00  0.00    -0.072 A 
ENDROOT
TORSDOF 0
ENDMDL
