MODEL 1
REMARK minimizedAffinity -1.28826737
REMARK minimizedRMSD -1
REMARK  1 active torsions:
REMARK  status: ('A' for Active; 'I' for Inactive)
REMARK    1  A    between atoms: C3_4  and  O_7 
ROOT
ATOM      1  C   UNL d   1      -5.999   5.923   4.526  0.00  0.00    -0.033 A 
ATOM      2  C1  UNL d   1      -5.993   5.389   5.816  0.00  0.00     0.039 A 
ATOM      3  C2  UNL d   1      -5.991   4.004   6.000  0.00  0.00    -0.080 A 
ATOM      4  C3  UNL d   1      -5.994   3.167   4.887  0.00  0.00     0.150 A 
ATOM      5  C4  UNL d   1      -5.996   3.693   3.599  0.00  0.00    -0.007 A 
ATOM      6  C5  UNL d   1      -5.999   5.076   3.418  0.00  0.00     0.039 A 
ENDROOT
BRANCH   4   7
ATOM      7  O   UNL d   1      -5.997   1.810   5.017  0.00  0.00    -0.526 OA
ATOM      8  H5  UNL d   1      -6.025   1.591   5.963  0.00  0.00     0.418 HD
ENDBRANCH   4   7
TORSDOF 1
ENDMDL
