MODEL 1
REMARK minimizedAffinity 1.48025239
REMARK minimizedRMSD -1
REMARK  1 active torsions:
REMARK  status: ('A' for Active; 'I' for Inactive)
REMARK    1  A    between atoms: C3_4  and  O_7 
ROOT
ATOM      1  C   UNL d   1      -4.801   5.392   1.340  0.00  0.00    -0.033 A 
ATOM      2  C1  UNL d   1      -3.981   5.766   2.406  0.00  0.00     0.039 A 
ATOM      3  C2  UNL d   1      -2.607   5.523   2.351  0.00  0.00    -0.080 A 
ATOM      4  C3  UNL d   1      -2.067   4.907   1.225  0.00  0.00     0.150 A 
ATOM      5  C4  UNL d   1      -2.878   4.535   0.158  0.00  0.00    -0.007 A 
ATOM      6  C5  UNL d   1      -4.250   4.778   0.215  0.00  0.00     0.039 A 
ENDROOT
BRANCH   4   7
ATOM      7  O   UNL d   1      -0.733   4.645   1.127  0.00  0.00    -0.526 OA
ATOM      8  H5  UNL d   1      -0.302   4.930   1.950  0.00  0.00     0.418 HD
ENDBRANCH   4   7
TORSDOF 1
ENDMDL
