MODEL 1
REMARK minimizedAffinity -5.17519188
REMARK minimizedRMSD -1
REMARK  1 active torsions:
REMARK  status: ('A' for Active; 'I' for Inactive)
REMARK    1  A    between atoms: C3_4  and  O_7 
ROOT
ATOM      1  C   UNL d   1       4.435  -0.622   0.983  0.00  0.00    -0.033 A 
ATOM      2  C1  UNL d   1       3.209  -0.033   0.669  0.00  0.00     0.039 A 
ATOM      3  C2  UNL d   1       3.169   1.246   0.110  0.00  0.00    -0.080 A 
ATOM      4  C3  UNL d   1       4.361   1.924  -0.130  0.00  0.00     0.150 A 
ATOM      5  C4  UNL d   1       5.587   1.341   0.177  0.00  0.00    -0.007 A 
ATOM      6  C5  UNL d   1       5.624   0.064   0.735  0.00  0.00     0.039 A 
ENDROOT
BRANCH   4   7
ATOM      7  O   UNL d   1       4.373   3.176  -0.669  0.00  0.00    -0.526 OA
ATOM      8  H5  UNL d   1       3.454   3.462  -0.802  0.00  0.00     0.418 HD
ENDBRANCH   4   7
TORSDOF 1
ENDMDL
