MODEL 1
REMARK minimizedAffinity 0.450062126
REMARK minimizedRMSD -1
REMARK  1 active torsions:
REMARK  status: ('A' for Active; 'I' for Inactive)
REMARK    1  A    between atoms: C3_4  and  O_7 
ROOT
ATOM      1  C   UNL d   1       2.584   1.139  -0.510  0.00  0.00    -0.033 A 
ATOM      2  C1  UNL d   1       2.313   1.510   0.809  0.00  0.00     0.039 A 
ATOM      3  C2  UNL d   1       3.250   2.249   1.535  0.00  0.00    -0.080 A 
ATOM      4  C3  UNL d   1       4.451   2.611   0.931  0.00  0.00     0.150 A 
ATOM      5  C4  UNL d   1       4.726   2.248  -0.383  0.00  0.00    -0.007 A 
ATOM      6  C5  UNL d   1       3.790   1.510  -1.106  0.00  0.00     0.039 A 
ENDROOT
BRANCH   4   7
ATOM      7  O   UNL d   1       5.397   3.328   1.601  0.00  0.00    -0.526 OA
ATOM      8  H5  UNL d   1       5.082   3.482   2.507  0.00  0.00     0.418 HD
ENDBRANCH   4   7
TORSDOF 1
ENDMDL
