MODEL 1
REMARK minimizedAffinity -2.5824604
REMARK minimizedRMSD -1
REMARK  1 active torsions:
REMARK  status: ('A' for Active; 'I' for Inactive)
REMARK    1  A    between atoms: C3_4  and  O_7 
ROOT
ATOM      1  C   UNL d   1      -0.007  -4.176   5.999  0.00  0.00    -0.033 A 
ATOM      2  C1  UNL d   1      -0.501  -5.482   6.000  0.00  0.00     0.039 A 
ATOM      3  C2  UNL d   1      -1.147  -5.987   4.870  0.00  0.00    -0.080 A 
ATOM      4  C3  UNL d   1      -1.292  -5.176   3.747  0.00  0.00     0.150 A 
ATOM      5  C4  UNL d   1      -0.799  -3.876   3.738  0.00  0.00    -0.007 A 
ATOM      6  C5  UNL d   1      -0.155  -3.373   4.868  0.00  0.00     0.039 A 
ENDROOT
BRANCH   4   7
ATOM      7  O   UNL d   1      -1.919  -5.623   2.622  0.00  0.00    -0.526 OA
ATOM      8  H5  UNL d   1      -2.233  -6.529   2.784  0.00  0.00     0.418 HD
ENDBRANCH   4   7
TORSDOF 1
ENDMDL
