MODEL 1
REMARK minimizedAffinity 6.31206417
REMARK minimizedRMSD -1
REMARK  2 active torsions:
REMARK  status: ('A' for Active; 'I' for Inactive)
REMARK    1  A    between atoms: C1_2  and  C2_3 
REMARK    2  A    between atoms: C2_3  and  C3_4 
ROOT
ATOM      1  C3  UNL d   1      -1.272   5.720  -3.912  0.00  0.00    -0.075 A 
ATOM      2  C4  UNL d   1      -1.128   5.183  -5.199  0.00  0.00     0.002 A 
ATOM      3  C5  UNL d   1      -2.247   4.953  -6.000  0.00  0.00     0.002 A 
ATOM      4  C6  UNL d   1      -3.522   5.246  -5.521  0.00  0.00    -0.004 A 
ATOM      5  C7  UNL d   1      -3.678   5.765  -4.238  0.00  0.00     0.002 A 
ATOM      6  C8  UNL d   1      -2.560   6.000  -3.436  0.00  0.00     0.002 A 
ENDROOT
BRANCH   1   7
ATOM      7  C2  UNL d   1      -0.063   5.998  -3.051  0.00  0.00     0.056 C 
BRANCH   7   8
ATOM      8  C1  UNL d   1       0.382   4.808  -2.195  0.00  0.00     0.007 C 
ATOM      9  C   UNL d   1       1.304   3.848  -2.935  0.00  0.00     0.009 C 
ENDBRANCH   7   8
ENDBRANCH   1   7
TORSDOF 2
ENDMDL
