MODEL 1
REMARK minimizedAffinity 4.24293089
REMARK minimizedRMSD -1
REMARK  2 active torsions:
REMARK  status: ('A' for Active; 'I' for Inactive)
REMARK    1  A    between atoms: C1_2  and  C2_3 
REMARK    2  A    between atoms: C2_3  and  C3_4 
ROOT
ATOM      1  C3  UNL d   1       4.324   4.535  -2.471  0.00  0.00    -0.075 A 
ATOM      2  C4  UNL d   1       3.092   4.781  -1.849  0.00  0.00     0.002 A 
ATOM      3  C5  UNL d   1       1.996   3.953  -2.094  0.00  0.00     0.002 A 
ATOM      4  C6  UNL d   1       2.115   2.876  -2.970  0.00  0.00    -0.004 A 
ATOM      5  C7  UNL d   1       3.330   2.632  -3.607  0.00  0.00     0.002 A 
ATOM      6  C8  UNL d   1       4.429   3.456  -3.360  0.00  0.00     0.002 A 
ENDROOT
BRANCH   1   7
ATOM      7  C2  UNL d   1       5.522   5.410  -2.187  0.00  0.00     0.056 C 
BRANCH   7   8
ATOM      8  C1  UNL d   1       5.976   5.389  -0.724  0.00  0.00     0.007 C 
ATOM      9  C   UNL d   1       5.991   3.992  -0.119  0.00  0.00     0.009 C 
ENDBRANCH   7   8
ENDBRANCH   1   7
TORSDOF 2
ENDMDL
