MODEL 1
REMARK minimizedAffinity 2.40327048
REMARK minimizedRMSD -1
REMARK  2 active torsions:
REMARK  status: ('A' for Active; 'I' for Inactive)
REMARK    1  A    between atoms: C1_2  and  C2_3 
REMARK    2  A    between atoms: C2_3  and  C3_4 
ROOT
ATOM      1  C3  UNL d   1      -4.988   4.974  -3.203  0.00  0.00    -0.075 A 
ATOM      2  C4  UNL d   1      -5.261   5.999  -2.285  0.00  0.00     0.002 A 
ATOM      3  C5  UNL d   1      -5.758   5.699  -1.017  0.00  0.00     0.002 A 
ATOM      4  C6  UNL d   1      -5.999   4.376  -0.654  0.00  0.00    -0.004 A 
ATOM      5  C7  UNL d   1      -5.748   3.351  -1.564  0.00  0.00     0.002 A 
ATOM      6  C8  UNL d   1      -5.246   3.648  -2.832  0.00  0.00     0.002 A 
ENDROOT
BRANCH   1   7
ATOM      7  C2  UNL d   1      -4.422   5.289  -4.567  0.00  0.00     0.056 C 
BRANCH   7   8
ATOM      8  C1  UNL d   1      -2.994   5.844  -4.537  0.00  0.00     0.007 C 
ATOM      9  C   UNL d   1      -2.098   5.256  -5.619  0.00  0.00     0.009 C 
ENDBRANCH   7   8
ENDBRANCH   1   7
TORSDOF 2
ENDMDL
