MODEL 1
REMARK minimizedAffinity 7.07367802
REMARK minimizedRMSD -1
REMARK  2 active torsions:
REMARK  status: ('A' for Active; 'I' for Inactive)
REMARK    1  A    between atoms: C1_2  and  C2_3 
REMARK    2  A    between atoms: C2_3  and  C3_4 
ROOT
ATOM      1  C3  UNL d   1      -3.288   0.398   3.639  0.00  0.00    -0.075 A 
ATOM      2  C4  UNL d   1      -4.676   0.212   3.721  0.00  0.00     0.002 A 
ATOM      3  C5  UNL d   1      -5.320  -0.695   2.880  0.00  0.00     0.002 A 
ATOM      4  C6  UNL d   1      -4.589  -1.418   1.940  0.00  0.00    -0.004 A 
ATOM      5  C7  UNL d   1      -3.213  -1.229   1.837  0.00  0.00     0.002 A 
ATOM      6  C8  UNL d   1      -2.565  -0.325   2.681  0.00  0.00     0.002 A 
ENDROOT
BRANCH   1   7
ATOM      7  C2  UNL d   1      -2.581   1.357   4.567  0.00  0.00     0.056 C 
BRANCH   7   8
ATOM      8  C1  UNL d   1      -2.279   0.775   5.952  0.00  0.00     0.007 C 
ATOM      9  C   UNL d   1      -0.997  -0.045   5.993  0.00  0.00     0.009 C 
ENDBRANCH   7   8
ENDBRANCH   1   7
TORSDOF 2
ENDMDL
