MODEL 1
REMARK minimizedAffinity 12.9005938
REMARK minimizedRMSD -1
REMARK  2 active torsions:
REMARK  status: ('A' for Active; 'I' for Inactive)
REMARK    1  A    between atoms: C1_2  and  C2_3 
REMARK    2  A    between atoms: C2_3  and  C3_4 
ROOT
ATOM      1  C3  UNL d   1      -5.137  -0.074  -0.224  0.00  0.00    -0.075 A 
ATOM      2  C4  UNL d   1      -5.140   1.117   0.517  0.00  0.00     0.002 A 
ATOM      3  C5  UNL d   1      -5.570   2.311  -0.063  0.00  0.00     0.002 A 
ATOM      4  C6  UNL d   1      -5.990   2.332  -1.391  0.00  0.00    -0.004 A 
ATOM      5  C7  UNL d   1      -5.975   1.158  -2.142  0.00  0.00     0.002 A 
ATOM      6  C8  UNL d   1      -5.550  -0.039  -1.562  0.00  0.00     0.002 A 
ENDROOT
BRANCH   1   7
ATOM      7  C2  UNL d   1      -4.701  -1.375   0.407  0.00  0.00     0.056 C 
BRANCH   7   8
ATOM      8  C1  UNL d   1      -3.328  -1.867  -0.062  0.00  0.00     0.007 C 
ATOM      9  C   UNL d   1      -2.929  -3.204   0.547  0.00  0.00     0.009 C 
ENDBRANCH   7   8
ENDBRANCH   1   7
TORSDOF 2
ENDMDL
