MODEL 1
REMARK minimizedAffinity 18.881279
REMARK minimizedRMSD -1
REMARK  2 active torsions:
REMARK  status: ('A' for Active; 'I' for Inactive)
REMARK    1  A    between atoms: C1_2  and  C2_3 
REMARK    2  A    between atoms: C2_3  and  C3_4 
ROOT
ATOM      1  C3  UNL d   1       1.096   3.885  -4.616  0.00  0.00    -0.075 A 
ATOM      2  C4  UNL d   1       1.721   3.243  -3.538  0.00  0.00     0.002 A 
ATOM      3  C5  UNL d   1       2.994   2.691  -3.683  0.00  0.00     0.002 A 
ATOM      4  C6  UNL d   1       3.653   2.764  -4.908  0.00  0.00    -0.004 A 
ATOM      5  C7  UNL d   1       3.034   3.385  -5.991  0.00  0.00     0.002 A 
ATOM      6  C8  UNL d   1       1.762   3.942  -5.848  0.00  0.00     0.002 A 
ENDROOT
BRANCH   1   7
ATOM      7  C2  UNL d   1      -0.269   4.510  -4.457  0.00  0.00     0.056 C 
BRANCH   7   8
ATOM      8  C1  UNL d   1      -0.754   5.273  -5.695  0.00  0.00     0.007 C 
ATOM      9  C   UNL d   1      -2.253   5.145  -5.930  0.00  0.00     0.009 C 
ENDBRANCH   7   8
ENDBRANCH   1   7
TORSDOF 2
ENDMDL
