MODEL 1
REMARK minimizedAffinity 20.212822
REMARK minimizedRMSD -1
REMARK  2 active torsions:
REMARK  status: ('A' for Active; 'I' for Inactive)
REMARK    1  A    between atoms: C1_2  and  C2_3 
REMARK    2  A    between atoms: C2_3  and  C3_4 
ROOT
ATOM      1  C3  UNL d   1      -1.655  -4.454  -3.188  0.00  0.00    -0.075 A 
ATOM      2  C4  UNL d   1      -0.390  -4.464  -3.794  0.00  0.00     0.002 A 
ATOM      3  C5  UNL d   1      -0.160  -5.223  -4.942  0.00  0.00     0.002 A 
ATOM      4  C6  UNL d   1      -1.186  -5.987  -5.493  0.00  0.00    -0.004 A 
ATOM      5  C7  UNL d   1      -2.442  -5.998  -4.890  0.00  0.00     0.002 A 
ATOM      6  C8  UNL d   1      -2.677  -5.237  -3.744  0.00  0.00     0.002 A 
ENDROOT
BRANCH   1   7
ATOM      7  C2  UNL d   1      -1.919  -3.613  -1.963  0.00  0.00     0.056 C 
BRANCH   7   8
ATOM      8  C1  UNL d   1      -2.067  -2.116  -2.254  0.00  0.00     0.007 C 
ATOM      9  C   UNL d   1      -2.598  -1.323  -1.068  0.00  0.00     0.009 C 
ENDBRANCH   7   8
ENDBRANCH   1   7
TORSDOF 2
ENDMDL
