MODEL 1
REMARK minimizedAffinity 15.1700268
REMARK minimizedRMSD -1
REMARK  2 active torsions:
REMARK  status: ('A' for Active; 'I' for Inactive)
REMARK    1  A    between atoms: C1_2  and  C2_3 
REMARK    2  A    between atoms: C2_3  and  C3_4 
ROOT
ATOM      1  C3  UNL d   1      -2.224  -1.843   1.154  0.00  0.00    -0.075 A 
ATOM      2  C4  UNL d   1      -1.009  -1.522   1.777  0.00  0.00     0.002 A 
ATOM      3  C5  UNL d   1      -0.728  -0.206   2.147  0.00  0.00     0.002 A 
ATOM      4  C6  UNL d   1      -1.651   0.805   1.890  0.00  0.00    -0.004 A 
ATOM      5  C7  UNL d   1      -2.854   0.501   1.256  0.00  0.00     0.002 A 
ATOM      6  C8  UNL d   1      -3.140  -0.816   0.889  0.00  0.00     0.002 A 
ENDROOT
BRANCH   1   7
ATOM      7  C2  UNL d   1      -2.547  -3.269   0.778  0.00  0.00     0.056 C 
BRANCH   7   8
ATOM      8  C1  UNL d   1      -3.984  -3.690   1.103  0.00  0.00     0.007 C 
ATOM      9  C   UNL d   1      -4.072  -5.046   1.790  0.00  0.00     0.009 C 
ENDBRANCH   7   8
ENDBRANCH   1   7
TORSDOF 2
ENDMDL
