MODEL 1
REMARK minimizedAffinity 14.6774597
REMARK minimizedRMSD -1
REMARK  2 active torsions:
REMARK  status: ('A' for Active; 'I' for Inactive)
REMARK    1  A    between atoms: C1_2  and  C2_3 
REMARK    2  A    between atoms: C2_3  and  C3_4 
ROOT
ATOM      1  C3  UNL d   1      -3.871  -0.403  -0.239  0.00  0.00    -0.075 A 
ATOM      2  C4  UNL d   1      -2.659  -1.106  -0.203  0.00  0.00     0.002 A 
ATOM      3  C5  UNL d   1      -2.374  -2.077  -1.164  0.00  0.00     0.002 A 
ATOM      4  C6  UNL d   1      -3.299  -2.362  -2.165  0.00  0.00    -0.004 A 
ATOM      5  C7  UNL d   1      -4.514  -1.681  -2.201  0.00  0.00     0.002 A 
ATOM      6  C8  UNL d   1      -4.800  -0.707  -1.244  0.00  0.00     0.002 A 
ENDROOT
BRANCH   1   7
ATOM      7  C2  UNL d   1      -4.173   0.669   0.781  0.00  0.00     0.056 C 
BRANCH   7   8
ATOM      8  C1  UNL d   1      -5.284   1.637   0.359  0.00  0.00     0.007 C 
ATOM      9  C   UNL d   1      -5.994   2.288   1.538  0.00  0.00     0.009 C 
ENDBRANCH   7   8
ENDBRANCH   1   7
TORSDOF 2
ENDMDL
