MODEL 1
REMARK minimizedAffinity 13.5184278
REMARK minimizedRMSD -1
REMARK  2 active torsions:
REMARK  status: ('A' for Active; 'I' for Inactive)
REMARK    1  A    between atoms: C1_2  and  C2_3 
REMARK    2  A    between atoms: C2_3  and  C3_4 
ROOT
ATOM      1  C3  UNL d   1       2.189  -0.088   1.656  0.00  0.00    -0.075 A 
ATOM      2  C4  UNL d   1       0.835  -0.362   1.416  0.00  0.00     0.002 A 
ATOM      3  C5  UNL d   1       0.198  -1.415   2.075  0.00  0.00     0.002 A 
ATOM      4  C6  UNL d   1       0.908  -2.211   2.971  0.00  0.00    -0.004 A 
ATOM      5  C7  UNL d   1       2.258  -1.958   3.204  0.00  0.00     0.002 A 
ATOM      6  C8  UNL d   1       2.897  -0.903   2.550  0.00  0.00     0.002 A 
ENDROOT
BRANCH   1   7
ATOM      7  C2  UNL d   1       2.877   1.068   0.968  0.00  0.00     0.056 C 
BRANCH   7   8
ATOM      8  C1  UNL d   1       3.481   0.713  -0.394  0.00  0.00     0.007 C 
ATOM      9  C   UNL d   1       2.566   1.051  -1.563  0.00  0.00     0.009 C 
ENDBRANCH   7   8
ENDBRANCH   1   7
TORSDOF 2
ENDMDL
