MODEL 1
REMARK minimizedAffinity 9.72116566
REMARK minimizedRMSD -1
REMARK  2 active torsions:
REMARK  status: ('A' for Active; 'I' for Inactive)
REMARK    1  A    between atoms: C1_2  and  C2_3 
REMARK    2  A    between atoms: C2_3  and  C3_4 
ROOT
ATOM      1  C3  UNL d   1      -1.493  -0.355   2.556  0.00  0.00    -0.075 A 
ATOM      2  C4  UNL d   1      -0.228  -0.833   2.928  0.00  0.00     0.002 A 
ATOM      3  C5  UNL d   1       0.199  -2.097   2.522  0.00  0.00     0.002 A 
ATOM      4  C6  UNL d   1      -0.635  -2.902   1.749  0.00  0.00    -0.004 A 
ATOM      5  C7  UNL d   1      -1.900  -2.445   1.387  0.00  0.00     0.002 A 
ATOM      6  C8  UNL d   1      -2.328  -1.178   1.789  0.00  0.00     0.002 A 
ENDROOT
BRANCH   1   7
ATOM      7  C2  UNL d   1      -1.950   1.024   2.968  0.00  0.00     0.056 C 
BRANCH   7   8
ATOM      8  C1  UNL d   1      -2.268   1.156   4.461  0.00  0.00     0.007 C 
ATOM      9  C   UNL d   1      -1.337   0.341   5.347  0.00  0.00     0.009 C 
ENDBRANCH   7   8
ENDBRANCH   1   7
TORSDOF 2
ENDMDL
