MODEL 1
REMARK minimizedAffinity 17.8400898
REMARK minimizedRMSD -1
REMARK  2 active torsions:
REMARK  status: ('A' for Active; 'I' for Inactive)
REMARK    1  A    between atoms: C1_2  and  C2_3 
REMARK    2  A    between atoms: C2_3  and  C3_4 
ROOT
ATOM      1  C3  UNL d   1      -4.531  -0.410   0.299  0.00  0.00    -0.075 A 
ATOM      2  C4  UNL d   1      -4.555  -0.793  -1.050  0.00  0.00     0.002 A 
ATOM      3  C5  UNL d   1      -5.281  -0.053  -1.984  0.00  0.00     0.002 A 
ATOM      4  C6  UNL d   1      -6.000   1.070  -1.580  0.00  0.00    -0.004 A 
ATOM      5  C7  UNL d   1      -5.997   1.450  -0.240  0.00  0.00     0.002 A 
ATOM      6  C8  UNL d   1      -5.268   0.714   0.696  0.00  0.00     0.002 A 
ENDROOT
BRANCH   1   7
ATOM      7  C2  UNL d   1      -3.723  -1.190   1.309  0.00  0.00     0.056 C 
BRANCH   7   8
ATOM      8  C1  UNL d   1      -2.212  -1.157   1.057  0.00  0.00     0.007 C 
ATOM      9  C   UNL d   1      -1.435  -0.452   2.161  0.00  0.00     0.009 C 
ENDBRANCH   7   8
ENDBRANCH   1   7
TORSDOF 2
ENDMDL
