MODEL 1
REMARK minimizedAffinity 12.7240715
REMARK minimizedRMSD -1
REMARK  2 active torsions:
REMARK  status: ('A' for Active; 'I' for Inactive)
REMARK    1  A    between atoms: C1_2  and  C2_3 
REMARK    2  A    between atoms: C2_3  and  C3_4 
ROOT
ATOM      1  C3  UNL d   1      -1.738   0.113   3.653  0.00  0.00    -0.075 A 
ATOM      2  C4  UNL d   1      -1.922  -0.161   2.290  0.00  0.00     0.002 A 
ATOM      3  C5  UNL d   1      -1.066  -1.036   1.622  0.00  0.00     0.002 A 
ATOM      4  C6  UNL d   1      -0.012  -1.640   2.303  0.00  0.00    -0.004 A 
ATOM      5  C7  UNL d   1       0.191  -1.363   3.653  0.00  0.00     0.002 A 
ATOM      6  C8  UNL d   1      -0.666  -0.490   4.326  0.00  0.00     0.002 A 
ENDROOT
BRANCH   1   7
ATOM      7  C2  UNL d   1      -2.678   1.037   4.390  0.00  0.00     0.056 C 
BRANCH   7   8
ATOM      8  C1  UNL d   1      -3.525   0.341   5.460  0.00  0.00     0.007 C 
ATOM      9  C   UNL d   1      -4.682   1.196   5.960  0.00  0.00     0.009 C 
ENDBRANCH   7   8
ENDBRANCH   1   7
TORSDOF 2
ENDMDL
