MODEL 1
REMARK minimizedAffinity 8.7853756
REMARK minimizedRMSD -1
REMARK  2 active torsions:
REMARK  status: ('A' for Active; 'I' for Inactive)
REMARK    1  A    between atoms: C1_2  and  C2_3 
REMARK    2  A    between atoms: C2_3  and  C3_4 
ROOT
ATOM      1  C3  UNL d   1      -2.451  -0.199   1.748  0.00  0.00    -0.075 A 
ATOM      2  C4  UNL d   1      -2.729  -1.448   1.174  0.00  0.00     0.002 A 
ATOM      3  C5  UNL d   1      -1.704  -2.368   0.951  0.00  0.00     0.002 A 
ATOM      4  C6  UNL d   1      -0.391  -2.048   1.287  0.00  0.00    -0.004 A 
ATOM      5  C7  UNL d   1      -0.101  -0.804   1.842  0.00  0.00     0.002 A 
ATOM      6  C8  UNL d   1      -1.124   0.117   2.071  0.00  0.00     0.002 A 
ENDROOT
BRANCH   1   7
ATOM      7  C2  UNL d   1      -3.559   0.790   2.020  0.00  0.00     0.056 C 
BRANCH   7   8
ATOM      8  C1  UNL d   1      -4.626   0.849   0.921  0.00  0.00     0.007 C 
ATOM      9  C   UNL d   1      -6.000   1.253   1.440  0.00  0.00     0.009 C 
ENDBRANCH   7   8
ENDBRANCH   1   7
TORSDOF 2
ENDMDL
