MODEL 1
REMARK minimizedAffinity 11.5287523
REMARK minimizedRMSD -1
REMARK  2 active torsions:
REMARK  status: ('A' for Active; 'I' for Inactive)
REMARK    1  A    between atoms: C1_2  and  C2_3 
REMARK    2  A    between atoms: C2_3  and  C3_4 
ROOT
ATOM      1  C3  UNL d   1       3.303   3.729  -3.432  0.00  0.00    -0.075 A 
ATOM      2  C4  UNL d   1       3.989   3.232  -4.550  0.00  0.00     0.002 A 
ATOM      3  C5  UNL d   1       5.330   3.554  -4.759  0.00  0.00     0.002 A 
ATOM      4  C6  UNL d   1       5.998   4.384  -3.862  0.00  0.00    -0.004 A 
ATOM      5  C7  UNL d   1       5.322   4.898  -2.757  0.00  0.00     0.002 A 
ATOM      6  C8  UNL d   1       3.981   4.573  -2.543  0.00  0.00     0.002 A 
ENDROOT
BRANCH   1   7
ATOM      7  C2  UNL d   1       1.860   3.359  -3.184  0.00  0.00     0.056 C 
BRANCH   7   8
ATOM      8  C1  UNL d   1       1.652   1.897  -2.776  0.00  0.00     0.007 C 
ATOM      9  C   UNL d   1       1.938   1.638  -1.303  0.00  0.00     0.009 C 
ENDBRANCH   7   8
ENDBRANCH   1   7
TORSDOF 2
ENDMDL
