MODEL 1
REMARK minimizedAffinity 14.1123371
REMARK minimizedRMSD -1
REMARK  2 active torsions:
REMARK  status: ('A' for Active; 'I' for Inactive)
REMARK    1  A    between atoms: C1_2  and  C2_3 
REMARK    2  A    between atoms: C2_3  and  C3_4 
ROOT
ATOM      1  C3  UNL d   1       5.540   5.043  -2.439  0.00  0.00    -0.075 A 
ATOM      2  C4  UNL d   1       5.902   5.991  -3.406  0.00  0.00     0.002 A 
ATOM      3  C5  UNL d   1       5.549   5.809  -4.743  0.00  0.00     0.002 A 
ATOM      4  C6  UNL d   1       4.839   4.675  -5.132  0.00  0.00    -0.004 A 
ATOM      5  C7  UNL d   1       4.488   3.718  -4.182  0.00  0.00     0.002 A 
ATOM      6  C8  UNL d   1       4.837   3.899  -2.842  0.00  0.00     0.002 A 
ENDROOT
BRANCH   1   7
ATOM      7  C2  UNL d   1       5.894   5.248  -0.985  0.00  0.00     0.056 C 
BRANCH   7   8
ATOM      8  C1  UNL d   1       5.996   3.949  -0.179  0.00  0.00     0.007 C 
ATOM      9  C   UNL d   1       5.976   4.174   1.327  0.00  0.00     0.009 C 
ENDBRANCH   7   8
ENDBRANCH   1   7
TORSDOF 2
ENDMDL
