MODEL 1
REMARK minimizedAffinity -4.24919653
REMARK minimizedRMSD -1
REMARK  0 active torsions:
REMARK  status: ('A' for Active; 'I' for Inactive)
ROOT
ATOM      1  C4' PXY d   1      -2.235   0.186  -1.360  0.00  0.00     0.077 C 
ATOM      2  C1' PXY d   1       2.954  -0.701   1.029  0.00  0.00     0.077 C 
ATOM      3  C1  PXY d   1       1.589  -0.480   0.407  0.00  0.00    -0.082 A 
ATOM      4  C2  PXY d   1       1.464   0.343  -0.621  0.00  0.00     0.003 A 
ATOM      5  C3  PXY d   1       0.232   0.579  -1.175  0.00  0.00     0.003 A 
ATOM      6  C4  PXY d   1      -0.875  -0.075  -0.706  0.00  0.00    -0.082 A 
ATOM      7  C5  PXY d   1      -0.754  -0.924   0.336  0.00  0.00     0.003 A 
ATOM      8  C6  PXY d   1       0.498  -1.119   0.911  0.00  0.00     0.003 A 
ENDROOT
TORSDOF 0
ENDMDL
