MODEL 1
REMARK minimizedAffinity -4.24456596
REMARK minimizedRMSD -1
REMARK  0 active torsions:
REMARK  status: ('A' for Active; 'I' for Inactive)
ROOT
ATOM      1  C4' PXY d   1       1.130  -2.266   1.892  0.00  0.00     0.077 C 
ATOM      2  C1' PXY d   1       1.685   2.789  -0.857  0.00  0.00     0.077 C 
ATOM      3  C1  PXY d   1       1.527   1.465  -0.136  0.00  0.00    -0.082 A 
ATOM      4  C2  PXY d   1       2.533   0.982   0.573  0.00  0.00     0.003 A 
ATOM      5  C3  PXY d   1       2.418  -0.229   1.206  0.00  0.00     0.003 A 
ATOM      6  C4  PXY d   1       1.242  -0.928   1.155  0.00  0.00    -0.082 A 
ATOM      7  C5  PXY d   1       0.206  -0.437   0.441  0.00  0.00     0.003 A 
ATOM      8  C6  PXY d   1       0.358   0.774  -0.227  0.00  0.00     0.003 A 
ENDROOT
TORSDOF 0
ENDMDL
