MODEL 1
REMARK minimizedAffinity -4.80255127
REMARK minimizedRMSD -1
REMARK  0 active torsions:
REMARK  status: ('A' for Active; 'I' for Inactive)
ROOT
ATOM      1  C4' PXY d   1       0.967   2.726  -0.161  0.00  0.00     0.077 C 
ATOM      2  C1' PXY d   1       1.575  -2.728   1.654  0.00  0.00     0.077 C 
ATOM      3  C1  PXY d   1       1.407  -1.302   1.170  0.00  0.00    -0.082 A 
ATOM      4  C2  PXY d   1       2.397  -0.438   1.323  0.00  0.00     0.003 A 
ATOM      5  C3  PXY d   1       2.249   0.864   0.919  0.00  0.00     0.003 A 
ATOM      6  C4  PXY d   1       1.096   1.273   0.305  0.00  0.00    -0.082 A 
ATOM      7  C5  PXY d   1       0.085   0.394   0.135  0.00  0.00     0.003 A 
ATOM      8  C6  PXY d   1       0.240  -0.912   0.589  0.00  0.00     0.003 A 
ENDROOT
TORSDOF 0
ENDMDL
