MODEL 1
REMARK minimizedAffinity -3.66798282
REMARK minimizedRMSD -1
REMARK  0 active torsions:
REMARK  status: ('A' for Active; 'I' for Inactive)
ROOT
ATOM      1  C4' PXY d   1      -1.791   0.141  -1.528  0.00  0.00     0.077 C 
ATOM      2  C1' PXY d   1       2.829   0.198   1.946  0.00  0.00     0.077 C 
ATOM      3  C1  PXY d   1       1.620   0.195   1.030  0.00  0.00    -0.082 A 
ATOM      4  C2  PXY d   1       0.591  -0.589   1.308  0.00  0.00     0.003 A 
ATOM      5  C3  PXY d   1      -0.496  -0.628   0.474  0.00  0.00     0.003 A 
ATOM      6  C4  PXY d   1      -0.554   0.184  -0.627  0.00  0.00    -0.082 A 
ATOM      7  C5  PXY d   1       0.487   0.995  -0.912  0.00  0.00     0.003 A 
ATOM      8  C6  PXY d   1       1.599   0.989  -0.075  0.00  0.00     0.003 A 
ENDROOT
TORSDOF 0
ENDMDL
