MODEL 1
REMARK minimizedAffinity -3.11164379
REMARK minimizedRMSD -1
REMARK  0 active torsions:
REMARK  status: ('A' for Active; 'I' for Inactive)
ROOT
ATOM      1  C4' PXY d   1      -2.557  -0.304  -1.953  0.00  0.00     0.077 C 
ATOM      2  C1' PXY d   1       2.181   1.090   1.051  0.00  0.00     0.077 C 
ATOM      3  C1  PXY d   1       0.936   0.715   0.272  0.00  0.00    -0.082 A 
ATOM      4  C2  PXY d   1       0.858   1.007  -1.016  0.00  0.00     0.003 A 
ATOM      5  C3  PXY d   1      -0.274   0.704  -1.729  0.00  0.00     0.003 A 
ATOM      6  C4  PXY d   1      -1.315   0.048  -1.129  0.00  0.00    -0.082 A 
ATOM      7  C5  PXY d   1      -1.239  -0.263   0.183  0.00  0.00     0.003 A 
ATOM      8  C6  PXY d   1      -0.098   0.090   0.898  0.00  0.00     0.003 A 
ENDROOT
TORSDOF 0
ENDMDL
