MODEL 1
REMARK minimizedAffinity -1.54107988
REMARK minimizedRMSD -1
REMARK  0 active torsions:
REMARK  status: ('A' for Active; 'I' for Inactive)
ROOT
ATOM      1  C4' PXY d   1      -2.538   0.349  -2.557  0.00  0.00     0.077 C 
ATOM      2  C1' PXY d   1       2.024   1.072   0.919  0.00  0.00     0.077 C 
ATOM      3  C1  PXY d   1       0.833   0.890  -0.002  0.00  0.00    -0.082 A 
ATOM      4  C2  PXY d   1      -0.350   0.594   0.510  0.00  0.00     0.003 A 
ATOM      5  C3  PXY d   1      -1.431   0.394  -0.310  0.00  0.00     0.003 A 
ATOM      6  C4  PXY d   1      -1.311   0.551  -1.665  0.00  0.00    -0.082 A 
ATOM      7  C5  PXY d   1      -0.109   0.864  -2.194  0.00  0.00     0.003 A 
ATOM      8  C6  PXY d   1       0.985   1.022  -1.348  0.00  0.00     0.003 A 
ENDROOT
TORSDOF 0
ENDMDL
