MODEL 1
REMARK minimizedAffinity -3.60677028
REMARK minimizedRMSD -1
REMARK  0 active torsions:
REMARK  status: ('A' for Active; 'I' for Inactive)
ROOT
ATOM      1  C4' PXY d   1      -1.354   0.133  -1.123  0.00  0.00     0.077 C 
ATOM      2  C1' PXY d   1       3.048  -0.675   2.536  0.00  0.00     0.077 C 
ATOM      3  C1  PXY d   1       1.891  -0.476   1.577  0.00  0.00    -0.082 A 
ATOM      4  C2  PXY d   1       1.904   0.548   0.739  0.00  0.00     0.003 A 
ATOM      5  C3  PXY d   1       0.851   0.762  -0.112  0.00  0.00     0.003 A 
ATOM      6  C4  PXY d   1      -0.203  -0.113  -0.144  0.00  0.00    -0.082 A 
ATOM      7  C5  PXY d   1      -0.219  -1.166   0.700  0.00  0.00     0.003 A 
ATOM      8  C6  PXY d   1       0.841  -1.342   1.585  0.00  0.00     0.003 A 
ENDROOT
TORSDOF 0
ENDMDL
