MODEL 1
REMARK minimizedAffinity -4.09748983
REMARK minimizedRMSD -1
REMARK  0 active torsions:
REMARK  status: ('A' for Active; 'I' for Inactive)
ROOT
ATOM      1  C4' PXY d   1      -2.387   0.001  -1.931  0.00  0.00     0.077 C 
ATOM      2  C1' PXY d   1       2.250   0.375   1.500  0.00  0.00     0.077 C 
ATOM      3  C1  PXY d   1       1.030   0.267   0.608  0.00  0.00    -0.082 A 
ATOM      4  C2  PXY d   1       1.092   0.702  -0.640  0.00  0.00     0.003 A 
ATOM      5  C3  PXY d   1      -0.012   0.641  -1.451  0.00  0.00     0.003 A 
ATOM      6  C4  PXY d   1      -1.176   0.081  -0.997  0.00  0.00    -0.082 A 
ATOM      7  C5  PXY d   1      -1.244  -0.375   0.272  0.00  0.00     0.003 A 
ATOM      8  C6  PXY d   1      -0.125  -0.266   1.092  0.00  0.00     0.003 A 
ENDROOT
TORSDOF 0
ENDMDL
