MODEL 1
REMARK minimizedAffinity -5.01581717
REMARK minimizedRMSD -1
REMARK  0 active torsions:
REMARK  status: ('A' for Active; 'I' for Inactive)
ROOT
ATOM      1  C4' PXY d   1       3.347   0.048   1.013  0.00  0.00     0.077 C 
ATOM      2  C1' PXY d   1      -1.867   0.355  -1.464  0.00  0.00     0.077 C 
ATOM      3  C1  PXY d   1      -0.499   0.261  -0.816  0.00  0.00    -0.082 A 
ATOM      4  C2  PXY d   1      -0.118   1.193   0.043  0.00  0.00     0.003 A 
ATOM      5  C3  PXY d   1       1.128   1.141   0.613  0.00  0.00     0.003 A 
ATOM      6  C4  PXY d   1       1.972   0.097   0.342  0.00  0.00    -0.082 A 
ATOM      7  C5  PXY d   1       1.585  -0.863  -0.525  0.00  0.00     0.003 A 
ATOM      8  C6  PXY d   1       0.333  -0.770  -1.125  0.00  0.00     0.003 A 
ENDROOT
TORSDOF 0
ENDMDL
