MODEL 1
REMARK minimizedAffinity -5.59741879
REMARK minimizedRMSD -1
REMARK  0 active torsions:
REMARK  status: ('A' for Active; 'I' for Inactive)
ROOT
ATOM      1  C4' PXY d   1       3.439  -0.684   1.614  0.00  0.00     0.077 C 
ATOM      2  C1' PXY d   1      -1.431  -0.615  -1.500  0.00  0.00     0.077 C 
ATOM      3  C1  PXY d   1      -0.160  -0.636  -0.673  0.00  0.00    -0.082 A 
ATOM      4  C2  PXY d   1       0.902   0.034  -1.089  0.00  0.00     0.003 A 
ATOM      5  C3  PXY d   1       2.069  -0.000  -0.369  0.00  0.00     0.003 A 
ATOM      6  C4  PXY d   1       2.133  -0.683   0.816  0.00  0.00    -0.082 A 
ATOM      7  C5  PXY d   1       1.049  -1.360   1.252  0.00  0.00     0.003 A 
ATOM      8  C6  PXY d   1      -0.113  -1.347   0.487  0.00  0.00     0.003 A 
ENDROOT
TORSDOF 0
ENDMDL
