MODEL 1
REMARK minimizedAffinity -5.10246468
REMARK minimizedRMSD -1
REMARK  0 active torsions:
REMARK  status: ('A' for Active; 'I' for Inactive)
ROOT
ATOM      1  C4' PXY d   1      -2.171   0.679  -1.274  0.00  0.00     0.077 C 
ATOM      2  C1' PXY d   1       3.049  -0.099   1.085  0.00  0.00     0.077 C 
ATOM      3  C1  PXY d   1       1.677   0.093   0.469  0.00  0.00    -0.082 A 
ATOM      4  C2  PXY d   1       1.483   1.066  -0.406  0.00  0.00     0.003 A 
ATOM      5  C3  PXY d   1       0.241   1.274  -0.949  0.00  0.00     0.003 A 
ATOM      6  C4  PXY d   1      -0.800   0.443  -0.634  0.00  0.00    -0.082 A 
ATOM      7  C5  PXY d   1      -0.608  -0.559   0.250  0.00  0.00     0.003 A 
ATOM      8  C6  PXY d   1       0.650  -0.727   0.821  0.00  0.00     0.003 A 
ENDROOT
TORSDOF 0
ENDMDL
