MODEL 1
REMARK minimizedAffinity -4.77990389
REMARK minimizedRMSD -1
REMARK  0 active torsions:
REMARK  status: ('A' for Active; 'I' for Inactive)
ROOT
ATOM      1  C4' PXY d   1      -2.435   0.741  -1.490  0.00  0.00     0.077 C 
ATOM      2  C1' PXY d   1       2.564  -0.432   1.164  0.00  0.00     0.077 C 
ATOM      3  C1  PXY d   1       1.249  -0.137   0.471  0.00  0.00    -0.082 A 
ATOM      4  C2  PXY d   1       1.199   0.795  -0.467  0.00  0.00     0.003 A 
ATOM      5  C3  PXY d   1       0.011   1.098  -1.082  0.00  0.00     0.003 A 
ATOM      6  C4  PXY d   1      -1.127   0.403  -0.770  0.00  0.00    -0.082 A 
ATOM      7  C5  PXY d   1      -1.082  -0.557   0.178  0.00  0.00     0.003 A 
ATOM      8  C6  PXY d   1       0.125  -0.820   0.819  0.00  0.00     0.003 A 
ENDROOT
TORSDOF 0
ENDMDL
