MODEL 1
REMARK minimizedAffinity -4.41108751
REMARK minimizedRMSD -1
REMARK  0 active torsions:
REMARK  status: ('A' for Active; 'I' for Inactive)
ROOT
ATOM      1  C4' PXY d   1      -1.895   0.132  -0.112  0.00  0.00     0.077 C 
ATOM      2  C1' PXY d   1       3.586  -0.429   1.636  0.00  0.00     0.077 C 
ATOM      3  C1  PXY d   1       2.149  -0.294   1.174  0.00  0.00    -0.082 A 
ATOM      4  C2  PXY d   1       1.675   0.898   0.849  0.00  0.00     0.003 A 
ATOM      5  C3  PXY d   1       0.368   1.042   0.460  0.00  0.00     0.003 A 
ATOM      6  C4  PXY d   1      -0.447  -0.052   0.351  0.00  0.00    -0.082 A 
ATOM      7  C5  PXY d   1       0.032  -1.273   0.670  0.00  0.00     0.003 A 
ATOM      8  C6  PXY d   1       1.349  -1.393   1.103  0.00  0.00     0.003 A 
ENDROOT
TORSDOF 0
ENDMDL
