MODEL 1
REMARK minimizedAffinity 8.50530338
REMARK minimizedRMSD -1
REMARK  3 active torsions:
REMARK  status: ('A' for Active; 'I' for Inactive)
REMARK    1  A    between atoms: C3'_2  and  C2'_3 
REMARK    2  A    between atoms: C2'_3  and  C1'_4 
REMARK    3  A    between atoms: C1'_4  and  C1_5 
ROOT
ATOM      1  C1  N4B d   1       1.922  -0.403   0.182  0.00  0.00    -0.075 A 
ATOM      2  C2  N4B d   1       2.390   0.765   0.823  0.00  0.00     0.002 A 
ATOM      3  C3  N4B d   1       2.308   1.978   0.185  0.00  0.00     0.002 A 
ATOM      4  C4  N4B d   1       1.781   2.045  -1.096  0.00  0.00    -0.004 A 
ATOM      5  C5  N4B d   1       1.308   0.916  -1.699  0.00  0.00     0.002 A 
ATOM      6  C6  N4B d   1       1.381  -0.310  -1.067  0.00  0.00     0.002 A 
ENDROOT
BRANCH   1   7
ATOM      7  C1' N4B d   1       2.070  -1.764   0.805  0.00  0.00     0.057 C 
BRANCH   7   8
ATOM      8  C2' N4B d   1       2.195  -1.612   2.318  0.00  0.00     0.009 C 
BRANCH   8   9
ATOM      9  C3' N4B d   1       0.859  -1.787   3.019  0.00  0.00     0.004 C 
ATOM     10  C4' N4B d   1       0.440  -0.567   3.784  0.00  0.00     0.003 C 
ENDBRANCH   8   9
ENDBRANCH   7   8
ENDBRANCH   1   7
TORSDOF 3
ENDMDL
