MODEL 1
REMARK minimizedAffinity -4.70186281
REMARK minimizedRMSD -1
REMARK  0 active torsions:
REMARK  status: ('A' for Active; 'I' for Inactive)
ROOT
ATOM      1  C   UNL d   1      -0.759  -2.890  -2.657  0.00  0.00     0.077 C 
ATOM      2  C1  UNL d   1      -0.784  -2.158  -1.348  0.00  0.00    -0.074 A 
ATOM      3  C2  UNL d   1      -1.334  -2.748  -0.205  0.00  0.00    -0.005 A 
ATOM      4  C3  UNL d   1      -1.342  -2.059   1.007  0.00  0.00     0.006 A 
ATOM      5  C4  UNL d   1      -0.800  -0.776   1.090  0.00  0.00    -0.005 A 
ATOM      6  C5  UNL d   1      -0.245  -0.171  -0.042  0.00  0.00    -0.074 A 
ATOM      7  C6  UNL d   1       0.351   1.204   0.032  0.00  0.00     0.077 C 
ATOM      8  C7  UNL d   1      -0.234  -0.872  -1.255  0.00  0.00    -0.001 A 
ENDROOT
TORSDOF 0
ENDMDL
