MODEL 1
REMARK minimizedAffinity -5.69684887
REMARK minimizedRMSD -1
REMARK  0 active torsions:
REMARK  status: ('A' for Active; 'I' for Inactive)
ROOT
ATOM      1  C   UNL d   1       0.201   1.508  -0.077  0.00  0.00     0.077 C 
ATOM      2  C1  UNL d   1      -0.147   0.049  -0.069  0.00  0.00    -0.074 A 
ATOM      3  C2  UNL d   1      -0.588  -0.579   1.100  0.00  0.00    -0.005 A 
ATOM      4  C3  UNL d   1      -0.916  -1.934   1.090  0.00  0.00     0.006 A 
ATOM      5  C4  UNL d   1      -0.808  -2.675  -0.088  0.00  0.00    -0.005 A 
ATOM      6  C5  UNL d   1      -0.370  -2.064  -1.267  0.00  0.00    -0.074 A 
ATOM      7  C6  UNL d   1      -0.257  -2.843  -2.544  0.00  0.00     0.077 C 
ATOM      8  C7  UNL d   1      -0.048  -0.700  -1.250  0.00  0.00    -0.001 A 
ENDROOT
TORSDOF 0
ENDMDL
