MODEL 1
REMARK minimizedAffinity -2.21223736
REMARK minimizedRMSD -1
REMARK  0 active torsions:
REMARK  status: ('A' for Active; 'I' for Inactive)
ROOT
ATOM      1  C   UNL d   1       0.372  -1.930  -2.666  0.00  0.00     0.077 C 
ATOM      2  C1  UNL d   1      -0.048  -1.472  -1.300  0.00  0.00    -0.074 A 
ATOM      3  C2  UNL d   1      -0.539  -2.381  -0.357  0.00  0.00    -0.005 A 
ATOM      4  C3  UNL d   1      -0.917  -1.942   0.912  0.00  0.00     0.006 A 
ATOM      5  C4  UNL d   1      -0.808  -0.592   1.250  0.00  0.00    -0.005 A 
ATOM      6  C5  UNL d   1      -0.319   0.331   0.320  0.00  0.00    -0.074 A 
ATOM      7  C6  UNL d   1      -0.186   1.783   0.670  0.00  0.00     0.077 C 
ATOM      8  C7  UNL d   1       0.065  -0.119  -0.951  0.00  0.00    -0.001 A 
ENDROOT
TORSDOF 0
ENDMDL
