MODEL 1
REMARK minimizedAffinity -3.66514564
REMARK minimizedRMSD -1
REMARK  0 active torsions:
REMARK  status: ('A' for Active; 'I' for Inactive)
ROOT
ATOM      1  C   UNL d   1      -0.152  -1.133   0.919  0.00  0.00     0.077 C 
ATOM      2  C1  UNL d   1       0.229   0.143   0.230  0.00  0.00    -0.074 A 
ATOM      3  C2  UNL d   1      -0.007   0.320  -1.137  0.00  0.00    -0.005 A 
ATOM      4  C3  UNL d   1       0.344   1.516  -1.763  0.00  0.00     0.006 A 
ATOM      5  C4  UNL d   1       0.934   2.546  -1.029  0.00  0.00    -0.005 A 
ATOM      6  C5  UNL d   1       1.176   2.387   0.339  0.00  0.00    -0.074 A 
ATOM      7  C6  UNL d   1       1.800   3.488   1.145  0.00  0.00     0.077 C 
ATOM      8  C7  UNL d   1       0.814   1.185   0.962  0.00  0.00    -0.001 A 
ENDROOT
TORSDOF 0
ENDMDL
