MODEL 1
REMARK minimizedAffinity -3.70390916
REMARK minimizedRMSD -1
REMARK  0 active torsions:
REMARK  status: ('A' for Active; 'I' for Inactive)
ROOT
ATOM      1  C   UNL d   1      -3.177  -1.539   0.053  0.00  0.00     0.077 C 
ATOM      2  C1  UNL d   1      -1.921  -1.015   0.685  0.00  0.00    -0.074 A 
ATOM      3  C2  UNL d   1      -1.209  -1.782   1.613  0.00  0.00    -0.005 A 
ATOM      4  C3  UNL d   1      -0.038  -1.284   2.185  0.00  0.00     0.006 A 
ATOM      5  C4  UNL d   1       0.432  -0.017   1.836  0.00  0.00    -0.005 A 
ATOM      6  C5  UNL d   1      -0.267   0.763   0.909  0.00  0.00    -0.074 A 
ATOM      7  C6  UNL d   1       0.229   2.123   0.516  0.00  0.00     0.077 C 
ATOM      8  C7  UNL d   1      -1.439   0.254   0.334  0.00  0.00    -0.001 A 
ENDROOT
TORSDOF 0
ENDMDL
