MODEL 1
REMARK minimizedAffinity -3.93178916
REMARK minimizedRMSD -1
REMARK  0 active torsions:
REMARK  status: ('A' for Active; 'I' for Inactive)
ROOT
ATOM      1  C   UNL d   1       0.235   1.511  -0.283  0.00  0.00     0.077 C 
ATOM      2  C1  UNL d   1      -0.177   0.069  -0.238  0.00  0.00    -0.074 A 
ATOM      3  C2  UNL d   1      -0.674  -0.500   0.939  0.00  0.00    -0.005 A 
ATOM      4  C3  UNL d   1      -1.062  -1.839   0.963  0.00  0.00     0.006 A 
ATOM      5  C4  UNL d   1      -0.958  -2.622  -0.188  0.00  0.00    -0.005 A 
ATOM      6  C5  UNL d   1      -0.464  -2.070  -1.374  0.00  0.00    -0.074 A 
ATOM      7  C6  UNL d   1      -0.354  -2.894  -2.622  0.00  0.00     0.077 C 
ATOM      8  C7  UNL d   1      -0.082  -0.721  -1.392  0.00  0.00    -0.001 A 
ENDROOT
TORSDOF 0
ENDMDL
