MODEL 1
REMARK minimizedAffinity -1.21539116
REMARK minimizedRMSD -1
REMARK  0 active torsions:
REMARK  status: ('A' for Active; 'I' for Inactive)
ROOT
ATOM      1  C   UNL d   1       0.025   1.512   1.143  0.00  0.00     0.077 C 
ATOM      2  C1  UNL d   1      -0.087   0.085   0.694  0.00  0.00    -0.074 A 
ATOM      3  C2  UNL d   1      -0.638  -0.891   1.531  0.00  0.00    -0.005 A 
ATOM      4  C3  UNL d   1      -0.744  -2.212   1.095  0.00  0.00     0.006 A 
ATOM      5  C4  UNL d   1      -0.302  -2.569  -0.179  0.00  0.00    -0.005 A 
ATOM      6  C5  UNL d   1       0.250  -1.607  -1.030  0.00  0.00    -0.074 A 
ATOM      7  C6  UNL d   1       0.722  -1.972  -2.406  0.00  0.00     0.077 C 
ATOM      8  C7  UNL d   1       0.348  -0.280  -0.588  0.00  0.00    -0.001 A 
ENDROOT
TORSDOF 0
ENDMDL
