MODEL 1
REMARK minimizedAffinity -4.4416008
REMARK minimizedRMSD -1
REMARK  0 active torsions:
REMARK  status: ('A' for Active; 'I' for Inactive)
ROOT
ATOM      1  C   UNL d   1       0.097   1.630   0.120  0.00  0.00     0.077 C 
ATOM      2  C1  UNL d   1      -0.194   0.160   0.042  0.00  0.00    -0.074 A 
ATOM      3  C2  UNL d   1      -0.737  -0.524   1.134  0.00  0.00    -0.005 A 
ATOM      4  C3  UNL d   1      -1.012  -1.888   1.043  0.00  0.00     0.006 A 
ATOM      5  C4  UNL d   1      -0.746  -2.581  -0.138  0.00  0.00    -0.005 A 
ATOM      6  C5  UNL d   1      -0.203  -1.914  -1.241  0.00  0.00    -0.074 A 
ATOM      7  C6  UNL d   1       0.080  -2.642  -2.521  0.00  0.00     0.077 C 
ATOM      8  C7  UNL d   1       0.063  -0.541  -1.144  0.00  0.00    -0.001 A 
ENDROOT
TORSDOF 0
ENDMDL
