MODEL 1
REMARK minimizedAffinity -4.45357037
REMARK minimizedRMSD -1
REMARK  0 active torsions:
REMARK  status: ('A' for Active; 'I' for Inactive)
ROOT
ATOM      1  C   UNL d   1      -0.032  -2.783  -1.980  0.00  0.00     0.077 C 
ATOM      2  C1  UNL d   1      -0.364  -1.876  -0.833  0.00  0.00    -0.074 A 
ATOM      3  C2  UNL d   1      -1.116  -2.335   0.253  0.00  0.00    -0.005 A 
ATOM      4  C3  UNL d   1      -1.409  -1.483   1.317  0.00  0.00     0.006 A 
ATOM      5  C4  UNL d   1      -0.953  -0.164   1.306  0.00  0.00    -0.005 A 
ATOM      6  C5  UNL d   1      -0.198   0.313   0.229  0.00  0.00    -0.074 A 
ATOM      7  C6  UNL d   1       0.308   1.725   0.207  0.00  0.00     0.077 C 
ATOM      8  C7  UNL d   1       0.097  -0.552  -0.833  0.00  0.00    -0.001 A 
ENDROOT
TORSDOF 0
ENDMDL
