MODEL 1
REMARK minimizedAffinity -4.54811335
REMARK minimizedRMSD -1
REMARK  0 active torsions:
REMARK  status: ('A' for Active; 'I' for Inactive)
ROOT
ATOM      1  C   UNL d   1      -0.056  -2.616  -2.909  0.00  0.00     0.077 C 
ATOM      2  C1  UNL d   1      -0.323  -1.998  -1.569  0.00  0.00    -0.074 A 
ATOM      3  C2  UNL d   1      -0.912  -2.739  -0.539  0.00  0.00    -0.005 A 
ATOM      4  C3  UNL d   1      -1.145  -2.153   0.705  0.00  0.00     0.006 A 
ATOM      5  C4  UNL d   1      -0.794  -0.822   0.932  0.00  0.00    -0.005 A 
ATOM      6  C5  UNL d   1      -0.203  -0.065  -0.086  0.00  0.00    -0.074 A 
ATOM      7  C6  UNL d   1       0.190   1.364   0.145  0.00  0.00     0.077 C 
ATOM      8  C7  UNL d   1       0.035  -0.663  -1.331  0.00  0.00    -0.001 A 
ENDROOT
TORSDOF 0
ENDMDL
