MODEL 1
REMARK minimizedAffinity -2.85505509
REMARK minimizedRMSD -1
REMARK  0 active torsions:
REMARK  status: ('A' for Active; 'I' for Inactive)
ROOT
ATOM      1  C   UNL d   1       0.465   1.289  -0.330  0.00  0.00     0.077 C 
ATOM      2  C1  UNL d   1      -0.081  -0.091  -0.109  0.00  0.00    -0.074 A 
ATOM      3  C2  UNL d   1      -0.547  -0.486   1.149  0.00  0.00    -0.005 A 
ATOM      4  C3  UNL d   1      -1.061  -1.769   1.337  0.00  0.00     0.006 A 
ATOM      5  C4  UNL d   1      -1.113  -2.668   0.271  0.00  0.00    -0.005 A 
ATOM      6  C5  UNL d   1      -0.652  -2.290  -0.994  0.00  0.00    -0.074 A 
ATOM      7  C6  UNL d   1      -0.710  -3.241  -2.152  0.00  0.00     0.077 C 
ATOM      8  C7  UNL d   1      -0.144  -0.997  -1.177  0.00  0.00    -0.001 A 
ENDROOT
TORSDOF 0
ENDMDL
