MODEL 1
REMARK minimizedAffinity -1.91542566
REMARK minimizedRMSD -1
REMARK  0 active torsions:
REMARK  status: ('A' for Active; 'I' for Inactive)
ROOT
ATOM      1  C   UNL d   1       0.469   1.430  -0.016  0.00  0.00     0.077 C 
ATOM      2  C1  UNL d   1       0.121   0.001  -0.310  0.00  0.00    -0.074 A 
ATOM      3  C2  UNL d   1      -0.538  -0.788   0.638  0.00  0.00    -0.005 A 
ATOM      4  C3  UNL d   1      -0.864  -2.112   0.347  0.00  0.00     0.006 A 
ATOM      5  C4  UNL d   1      -0.535  -2.660  -0.894  0.00  0.00    -0.005 A 
ATOM      6  C5  UNL d   1       0.122  -1.886  -1.855  0.00  0.00    -0.074 A 
ATOM      7  C6  UNL d   1       0.474  -2.457  -3.197  0.00  0.00     0.077 C 
ATOM      8  C7  UNL d   1       0.440  -0.554  -1.557  0.00  0.00    -0.001 A 
ENDROOT
TORSDOF 0
ENDMDL
