MODEL 1
REMARK minimizedAffinity -1.59286726
REMARK minimizedRMSD -1
REMARK  0 active torsions:
REMARK  status: ('A' for Active; 'I' for Inactive)
ROOT
ATOM      1  C   UNL d   1      -1.280  -1.713   1.920  0.00  0.00     0.077 C 
ATOM      2  C1  UNL d   1      -0.851  -1.306   0.542  0.00  0.00    -0.074 A 
ATOM      3  C2  UNL d   1      -0.415  -0.003   0.280  0.00  0.00    -0.005 A 
ATOM      4  C3  UNL d   1      -0.010   0.358  -1.005  0.00  0.00     0.006 A 
ATOM      5  C4  UNL d   1      -0.036  -0.578  -2.039  0.00  0.00    -0.005 A 
ATOM      6  C5  UNL d   1      -0.468  -1.886  -1.796  0.00  0.00    -0.074 A 
ATOM      7  C6  UNL d   1      -0.493  -2.908  -2.894  0.00  0.00     0.077 C 
ATOM      8  C7  UNL d   1      -0.866  -2.243  -0.501  0.00  0.00    -0.001 A 
ENDROOT
TORSDOF 0
ENDMDL
