MODEL 1
REMARK minimizedAffinity -4.45973063
REMARK minimizedRMSD -1
REMARK  0 active torsions:
REMARK  status: ('A' for Active; 'I' for Inactive)
ROOT
ATOM      1  C   UNL d   1      -0.867  -2.687  -2.370  0.00  0.00     0.077 C 
ATOM      2  C1  UNL d   1      -0.789  -1.884  -1.106  0.00  0.00    -0.074 A 
ATOM      3  C2  UNL d   1      -1.157  -2.441   0.123  0.00  0.00    -0.005 A 
ATOM      4  C3  UNL d   1      -1.070  -1.685   1.292  0.00  0.00     0.006 A 
ATOM      5  C4  UNL d   1      -0.615  -0.367   1.244  0.00  0.00    -0.005 A 
ATOM      6  C5  UNL d   1      -0.241   0.207   0.025  0.00  0.00    -0.074 A 
ATOM      7  C6  UNL d   1       0.260   1.619  -0.043  0.00  0.00     0.077 C 
ATOM      8  C7  UNL d   1      -0.325  -0.562  -1.144  0.00  0.00    -0.001 A 
ENDROOT
TORSDOF 0
ENDMDL
