MODEL 1
REMARK minimizedAffinity 4.3292923
REMARK minimizedRMSD -1
REMARK  3 active torsions:
REMARK  status: ('A' for Active; 'I' for Inactive)
REMARK    1  A    between atoms: C3'_2  and  C2'_3 
REMARK    2  A    between atoms: C2'_3  and  C1'_4 
REMARK    3  A    between atoms: C1'_4  and  C1_5 
ROOT
ATOM      1  C1  N4B d   1      -0.322  -1.542  -5.005  0.00  0.00    -0.075 A 
ATOM      2  C2  N4B d   1      -1.648  -1.058  -4.966  0.00  0.00     0.002 A 
ATOM      3  C3  N4B d   1      -1.934   0.199  -5.440  0.00  0.00     0.002 A 
ATOM      4  C4  N4B d   1      -0.912   0.993  -5.938  0.00  0.00    -0.004 A 
ATOM      5  C5  N4B d   1       0.362   0.509  -5.995  0.00  0.00     0.002 A 
ATOM      6  C6  N4B d   1       0.663  -0.754  -5.526  0.00  0.00     0.002 A 
ENDROOT
BRANCH   1   7
ATOM      7  C1' N4B d   1       0.055  -2.876  -4.420  0.00  0.00     0.057 C 
BRANCH   7   8
ATOM      8  C2' N4B d   1       0.688  -2.661  -3.049  0.00  0.00     0.009 C 
BRANCH   8   9
ATOM      9  C3' N4B d   1       2.164  -3.019  -3.042  0.00  0.00     0.004 C 
ATOM     10  C4' N4B d   1       2.766  -2.975  -1.670  0.00  0.00     0.003 C 
ENDBRANCH   8   9
ENDBRANCH   7   8
ENDBRANCH   1   7
TORSDOF 3
ENDMDL
