MODEL 1
REMARK minimizedAffinity -2.90003347
REMARK minimizedRMSD -1
REMARK  3 active torsions:
REMARK  status: ('A' for Active; 'I' for Inactive)
REMARK    1  A    between atoms: C3'_2  and  C2'_3 
REMARK    2  A    between atoms: C2'_3  and  C1'_4 
REMARK    3  A    between atoms: C1'_4  and  C1_5 
ROOT
ATOM      1  C1  N4B d   1       0.177  -0.072  -3.456  0.00  0.00    -0.075 A 
ATOM      2  C2  N4B d   1       1.032  -0.244  -4.567  0.00  0.00     0.002 A 
ATOM      3  C3  N4B d   1       0.604   0.107  -5.823  0.00  0.00     0.002 A 
ATOM      4  C4  N4B d   1      -0.677   0.612  -5.996  0.00  0.00    -0.004 A 
ATOM      5  C5  N4B d   1      -1.487   0.798  -4.914  0.00  0.00     0.002 A 
ATOM      6  C6  N4B d   1      -1.068   0.453  -3.645  0.00  0.00     0.002 A 
ENDROOT
BRANCH   1   7
ATOM      7  C1' N4B d   1       0.569  -0.521  -2.075  0.00  0.00     0.057 C 
BRANCH   7   8
ATOM      8  C2' N4B d   1      -0.514  -0.102  -1.085  0.00  0.00     0.009 C 
BRANCH   8   9
ATOM      9  C3' N4B d   1      -0.368  -0.811   0.250  0.00  0.00     0.004 C 
ATOM     10  C4' N4B d   1      -1.640  -0.820   1.045  0.00  0.00     0.003 C 
ENDBRANCH   8   9
ENDBRANCH   7   8
ENDBRANCH   1   7
TORSDOF 3
ENDMDL
