MODEL 1
REMARK minimizedAffinity -4.81976652
REMARK minimizedRMSD -1
REMARK  2 active torsions:
REMARK  status: ('A' for Active; 'I' for Inactive)
REMARK    1  A    between atoms: C1_2  and  C2_3 
REMARK    2  A    between atoms: C2_3  and  C3_4 
ROOT
ATOM      1  C3  UNL d   1      -0.341  -0.208   1.086  0.00  0.00    -0.075 A 
ATOM      2  C4  UNL d   1      -0.111  -0.325   2.465  0.00  0.00     0.002 A 
ATOM      3  C5  UNL d   1      -1.159  -0.170   3.373  0.00  0.00     0.002 A 
ATOM      4  C6  UNL d   1      -2.444   0.114   2.917  0.00  0.00    -0.004 A 
ATOM      5  C7  UNL d   1      -2.680   0.249   1.550  0.00  0.00     0.002 A 
ATOM      6  C8  UNL d   1      -1.635   0.090   0.639  0.00  0.00     0.002 A 
ENDROOT
BRANCH   1   7
ATOM      7  C2  UNL d   1       0.783  -0.404   0.097  0.00  0.00     0.056 C 
BRANCH   7   8
ATOM      8  C1  UNL d   1       0.677   0.481  -1.150  0.00  0.00     0.007 C 
ATOM      9  C   UNL d   1       1.003  -0.259  -2.441  0.00  0.00     0.009 C 
ENDBRANCH   7   8
ENDBRANCH   1   7
TORSDOF 2
ENDMDL
