MODEL 1
REMARK minimizedAffinity -3.21775842
REMARK minimizedRMSD -1
REMARK  2 active torsions:
REMARK  status: ('A' for Active; 'I' for Inactive)
REMARK    1  A    between atoms: C1_2  and  C2_3 
REMARK    2  A    between atoms: C2_3  and  C3_4 
ROOT
ATOM      1  C3  UNL d   1       0.683   0.272  -1.097  0.00  0.00    -0.075 A 
ATOM      2  C4  UNL d   1       0.673   1.322  -0.168  0.00  0.00     0.002 A 
ATOM      3  C5  UNL d   1       0.757   1.059   1.199  0.00  0.00     0.002 A 
ATOM      4  C6  UNL d   1       0.843  -0.255   1.655  0.00  0.00    -0.004 A 
ATOM      5  C7  UNL d   1       0.837  -1.307   0.741  0.00  0.00     0.002 A 
ATOM      6  C8  UNL d   1       0.757  -1.046  -0.628  0.00  0.00     0.002 A 
ENDROOT
BRANCH   1   7
ATOM      7  C2  UNL d   1       0.622   0.552  -2.580  0.00  0.00     0.056 C 
BRANCH   7   8
ATOM      8  C1  UNL d   1       1.449  -0.416  -3.432  0.00  0.00     0.007 C 
ATOM      9  C   UNL d   1       0.597  -1.314  -4.320  0.00  0.00     0.009 C 
ENDBRANCH   7   8
ENDBRANCH   1   7
TORSDOF 2
ENDMDL
