MODEL 1
REMARK minimizedAffinity -0.962317228
REMARK minimizedRMSD -1
REMARK  2 active torsions:
REMARK  status: ('A' for Active; 'I' for Inactive)
REMARK    1  A    between atoms: C1_2  and  C2_3 
REMARK    2  A    between atoms: C2_3  and  C3_4 
ROOT
ATOM      1  C3  UNL d   1       0.420  -0.919  -1.322  0.00  0.00    -0.075 A 
ATOM      2  C4  UNL d   1      -0.029   0.403  -1.185  0.00  0.00     0.002 A 
ATOM      3  C5  UNL d   1       0.158   1.094   0.012  0.00  0.00     0.002 A 
ATOM      4  C6  UNL d   1       0.786   0.472   1.089  0.00  0.00    -0.004 A 
ATOM      5  C7  UNL d   1       1.221  -0.846   0.970  0.00  0.00     0.002 A 
ATOM      6  C8  UNL d   1       1.040  -1.539  -0.229  0.00  0.00     0.002 A 
ENDROOT
BRANCH   1   7
ATOM      7  C2  UNL d   1       0.247  -1.662  -2.625  0.00  0.00     0.056 C 
BRANCH   7   8
ATOM      8  C1  UNL d   1       1.367  -1.411  -3.639  0.00  0.00     0.007 C 
ATOM      9  C   UNL d   1       2.412  -2.519  -3.667  0.00  0.00     0.009 C 
ENDBRANCH   7   8
ENDBRANCH   1   7
TORSDOF 2
ENDMDL
