MODEL 1
REMARK minimizedAffinity 8.68627548
REMARK minimizedRMSD -1
REMARK  2 active torsions:
REMARK  status: ('A' for Active; 'I' for Inactive)
REMARK    1  A    between atoms: C1_2  and  C2_3 
REMARK    2  A    between atoms: C2_3  and  C3_4 
ROOT
ATOM      1  C3  UNL d   1       0.204   0.071   0.612  0.00  0.00    -0.075 A 
ATOM      2  C4  UNL d   1       0.787   1.210   0.039  0.00  0.00     0.002 A 
ATOM      3  C5  UNL d   1       2.036   1.659   0.470  0.00  0.00     0.002 A 
ATOM      4  C6  UNL d   1       2.712   0.982   1.482  0.00  0.00    -0.004 A 
ATOM      5  C7  UNL d   1       2.134  -0.142   2.070  0.00  0.00     0.002 A 
ATOM      6  C8  UNL d   1       0.887  -0.595   1.639  0.00  0.00     0.002 A 
ENDROOT
BRANCH   1   7
ATOM      7  C2  UNL d   1      -1.135  -0.437   0.131  0.00  0.00     0.056 C 
BRANCH   7   8
ATOM      8  C1  UNL d   1      -2.311   0.483   0.474  0.00  0.00     0.007 C 
ATOM      9  C   UNL d   1      -3.623   0.043  -0.161  0.00  0.00     0.009 C 
ENDBRANCH   7   8
ENDBRANCH   1   7
TORSDOF 2
ENDMDL
