MODEL 1
REMARK minimizedAffinity -1.82622313
REMARK minimizedRMSD -1
REMARK  2 active torsions:
REMARK  status: ('A' for Active; 'I' for Inactive)
REMARK    1  A    between atoms: C1_2  and  C2_3 
REMARK    2  A    between atoms: C2_3  and  C3_4 
ROOT
ATOM      1  C3  UNL d   1       0.287   0.226  -0.662  0.00  0.00    -0.075 A 
ATOM      2  C4  UNL d   1      -1.026   0.576  -0.315  0.00  0.00     0.002 A 
ATOM      3  C5  UNL d   1      -1.403   0.671   1.025  0.00  0.00     0.002 A 
ATOM      4  C6  UNL d   1      -0.477   0.409   2.032  0.00  0.00    -0.004 A 
ATOM      5  C7  UNL d   1       0.825   0.044   1.699  0.00  0.00     0.002 A 
ATOM      6  C8  UNL d   1       1.207  -0.047   0.359  0.00  0.00     0.002 A 
ENDROOT
BRANCH   1   7
ATOM      7  C2  UNL d   1       0.709   0.150  -2.110  0.00  0.00     0.056 C 
BRANCH   7   8
ATOM      8  C1  UNL d   1       0.619  -1.256  -2.713  0.00  0.00     0.007 C 
ATOM      9  C   UNL d   1       1.688  -1.529  -3.763  0.00  0.00     0.009 C 
ENDBRANCH   7   8
ENDBRANCH   1   7
TORSDOF 2
ENDMDL
