MODEL 1
REMARK minimizedAffinity -2.55544972
REMARK minimizedRMSD -1
REMARK  2 active torsions:
REMARK  status: ('A' for Active; 'I' for Inactive)
REMARK    1  A    between atoms: C1_2  and  C2_3 
REMARK    2  A    between atoms: C2_3  and  C3_4 
ROOT
ATOM      1  C3  UNL d   1       0.514  -0.865  -1.583  0.00  0.00    -0.075 A 
ATOM      2  C4  UNL d   1      -0.132  -1.974  -2.148  0.00  0.00     0.002 A 
ATOM      3  C5  UNL d   1       0.511  -2.754  -3.110  0.00  0.00     0.002 A 
ATOM      4  C6  UNL d   1       1.800  -2.430  -3.526  0.00  0.00    -0.004 A 
ATOM      5  C7  UNL d   1       2.445  -1.320  -2.983  0.00  0.00     0.002 A 
ATOM      6  C8  UNL d   1       1.806  -0.541  -2.018  0.00  0.00     0.002 A 
ENDROOT
BRANCH   1   7
ATOM      7  C2  UNL d   1      -0.165  -0.034  -0.520  0.00  0.00     0.056 C 
BRANCH   7   8
ATOM      8  C1  UNL d   1       0.804   0.739   0.381  0.00  0.00     0.007 C 
ATOM      9  C   UNL d   1       1.322  -0.085   1.552  0.00  0.00     0.009 C 
ENDBRANCH   7   8
ENDBRANCH   1   7
TORSDOF 2
ENDMDL
