MODEL 1
REMARK minimizedAffinity -2.81476307
REMARK minimizedRMSD -1
REMARK  2 active torsions:
REMARK  status: ('A' for Active; 'I' for Inactive)
REMARK    1  A    between atoms: C1_2  and  C2_3 
REMARK    2  A    between atoms: C2_3  and  C3_4 
ROOT
ATOM      1  C3  UNL d   1       0.408   0.461  -0.050  0.00  0.00    -0.075 A 
ATOM      2  C4  UNL d   1       1.086   0.221   1.154  0.00  0.00     0.002 A 
ATOM      3  C5  UNL d   1       0.411   0.290   2.373  0.00  0.00     0.002 A 
ATOM      4  C6  UNL d   1      -0.945   0.609   2.405  0.00  0.00    -0.004 A 
ATOM      5  C7  UNL d   1      -1.625   0.865   1.217  0.00  0.00     0.002 A 
ATOM      6  C8  UNL d   1      -0.953   0.793  -0.005  0.00  0.00     0.002 A 
ENDROOT
BRANCH   1   7
ATOM      7  C2  UNL d   1       1.125   0.360  -1.374  0.00  0.00     0.056 C 
BRANCH   7   8
ATOM      8  C1  UNL d   1       0.449  -0.577  -2.380  0.00  0.00     0.007 C 
ATOM      9  C   UNL d   1       1.398  -1.093  -3.454  0.00  0.00     0.009 C 
ENDBRANCH   7   8
ENDBRANCH   1   7
TORSDOF 2
ENDMDL
