MODEL 1
REMARK minimizedAffinity -4.5972538
REMARK minimizedRMSD -1
REMARK  2 active torsions:
REMARK  status: ('A' for Active; 'I' for Inactive)
REMARK    1  A    between atoms: C1_2  and  C2_3 
REMARK    2  A    between atoms: C2_3  and  C3_4 
ROOT
ATOM      1  C3  UNL d   1      -0.230   0.519  -0.253  0.00  0.00    -0.075 A 
ATOM      2  C4  UNL d   1      -1.625   0.656  -0.306  0.00  0.00     0.002 A 
ATOM      3  C5  UNL d   1      -2.387   0.599   0.861  0.00  0.00     0.002 A 
ATOM      4  C6  UNL d   1      -1.768   0.395   2.092  0.00  0.00    -0.004 A 
ATOM      5  C7  UNL d   1      -0.384   0.241   2.154  0.00  0.00     0.002 A 
ATOM      6  C8  UNL d   1       0.381   0.302   0.988  0.00  0.00     0.002 A 
ENDROOT
BRANCH   1   7
ATOM      7  C2  UNL d   1       0.603   0.610  -1.510  0.00  0.00     0.056 C 
BRANCH   7   8
ATOM      8  C1  UNL d   1       1.050  -0.749  -2.061  0.00  0.00     0.007 C 
ATOM      9  C   UNL d   1       1.849  -0.639  -3.352  0.00  0.00     0.009 C 
ENDBRANCH   7   8
ENDBRANCH   1   7
TORSDOF 2
ENDMDL
