MODEL 1
REMARK minimizedAffinity -0.81869024
REMARK minimizedRMSD -1
REMARK  2 active torsions:
REMARK  status: ('A' for Active; 'I' for Inactive)
REMARK    1  A    between atoms: C1_2  and  C2_3 
REMARK    2  A    between atoms: C2_3  and  C3_4 
ROOT
ATOM      1  C3  UNL d   1       0.184  -0.797   1.064  0.00  0.00    -0.075 A 
ATOM      2  C4  UNL d   1       0.588   0.232   1.927  0.00  0.00     0.002 A 
ATOM      3  C5  UNL d   1      -0.298   0.757   2.869  0.00  0.00     0.002 A 
ATOM      4  C6  UNL d   1      -1.600   0.267   2.952  0.00  0.00    -0.004 A 
ATOM      5  C7  UNL d   1      -2.017  -0.743   2.089  0.00  0.00     0.002 A 
ATOM      6  C8  UNL d   1      -1.131  -1.273   1.149  0.00  0.00     0.002 A 
ENDROOT
BRANCH   1   7
ATOM      7  C2  UNL d   1       1.147  -1.389   0.064  0.00  0.00     0.056 C 
BRANCH   7   8
ATOM      8  C1  UNL d   1       0.516  -1.710  -1.295  0.00  0.00     0.007 C 
ATOM      9  C   UNL d   1       1.507  -1.640  -2.449  0.00  0.00     0.009 C 
ENDBRANCH   7   8
ENDBRANCH   1   7
TORSDOF 2
ENDMDL
