MODEL 1
REMARK minimizedAffinity -3.55092049
REMARK minimizedRMSD -1
REMARK  2 active torsions:
REMARK  status: ('A' for Active; 'I' for Inactive)
REMARK    1  A    between atoms: C1_2  and  C2_3 
REMARK    2  A    between atoms: C2_3  and  C3_4 
ROOT
ATOM      1  C3  UNL d   1      -0.237  -0.302   0.316  0.00  0.00    -0.075 A 
ATOM      2  C4  UNL d   1       0.561   0.159   1.374  0.00  0.00     0.002 A 
ATOM      3  C5  UNL d   1       0.053   0.216   2.672  0.00  0.00     0.002 A 
ATOM      4  C6  UNL d   1      -1.259  -0.176   2.927  0.00  0.00    -0.004 A 
ATOM      5  C7  UNL d   1      -2.066  -0.620   1.882  0.00  0.00     0.002 A 
ATOM      6  C8  UNL d   1      -1.559  -0.683   0.583  0.00  0.00     0.002 A 
ENDROOT
BRANCH   1   7
ATOM      7  C2  UNL d   1       0.316  -0.394  -1.086  0.00  0.00     0.056 C 
BRANCH   7   8
ATOM      8  C1  UNL d   1      -0.056  -1.687  -1.819  0.00  0.00     0.007 C 
ATOM      9  C   UNL d   1       1.016  -2.154  -2.794  0.00  0.00     0.009 C 
ENDBRANCH   7   8
ENDBRANCH   1   7
TORSDOF 2
ENDMDL
