MODEL 1
REMARK minimizedAffinity 20.8581619
REMARK minimizedRMSD -1
REMARK  1 active torsions:
REMARK  status: ('A' for Active; 'I' for Inactive)
REMARK    1  A    between atoms: C1_2  and  C2_3 
ROOT
ATOM      1  C2  UNL d   1       1.531  -3.476  -5.640  0.00  0.00    -0.076 A 
ATOM      2  C3  UNL d   1       0.212  -3.149  -5.999  0.00  0.00     0.004 A 
ATOM      3  C4  UNL d   1      -0.328  -1.903  -5.689  0.00  0.00    -0.003 A 
ATOM      4  C5  UNL d   1       0.442  -0.962  -5.013  0.00  0.00     0.000 A 
ATOM      5  C6  UNL d   1       1.758  -1.263  -4.665  0.00  0.00     0.000 A 
ATOM      6  C7  UNL d   1       2.324  -2.509  -4.985  0.00  0.00    -0.073 A 
ATOM      7  C8  UNL d   1       3.746  -2.782  -4.579  0.00  0.00     0.078 C 
ENDROOT
BRANCH   1   8
ATOM      8  C1  UNL d   1       2.055  -4.853  -5.979  0.00  0.00     0.053 C 
ATOM      9  C   UNL d   1       1.050  -5.951  -5.668  0.00  0.00     0.018 C 
ENDBRANCH   1   8
TORSDOF 1
ENDMDL
