MODEL 1
REMARK minimizedAffinity 1.97395349
REMARK minimizedRMSD -1
REMARK  1 active torsions:
REMARK  status: ('A' for Active; 'I' for Inactive)
REMARK    1  A    between atoms: C1_2  and  C2_3 
ROOT
ATOM      1  C2  UNL d   1       1.706  -1.126   4.611  0.00  0.00    -0.076 A 
ATOM      2  C3  UNL d   1       0.719  -1.548   3.703  0.00  0.00     0.004 A 
ATOM      3  C4  UNL d   1       0.378  -0.767   2.599  0.00  0.00    -0.003 A 
ATOM      4  C5  UNL d   1       1.020   0.448   2.385  0.00  0.00     0.000 A 
ATOM      5  C6  UNL d   1       2.013   0.874   3.266  0.00  0.00     0.000 A 
ATOM      6  C7  UNL d   1       2.380   0.091   4.374  0.00  0.00    -0.073 A 
ATOM      7  C8  UNL d   1       3.454   0.602   5.295  0.00  0.00     0.078 C 
ENDROOT
BRANCH   1   8
ATOM      8  C1  UNL d   1       2.014  -2.001   5.804  0.00  0.00     0.053 C 
ATOM      9  C   UNL d   1       3.507  -2.215   6.000  0.00  0.00     0.018 C 
ENDBRANCH   1   8
TORSDOF 1
ENDMDL
