MODEL 1
REMARK minimizedAffinity 4.87249422
REMARK minimizedRMSD -1
REMARK  0 active torsions:
REMARK  status: ('A' for Active; 'I' for Inactive)
ROOT
ATOM      1  C1  BNZ d   1       2.180  -1.780  -0.285  0.00  0.00     0.000 A 
ATOM      2  C2  BNZ d   1       1.306  -0.864   0.237  0.00  0.00     0.000 A 
ATOM      3  C3  BNZ d   1       0.783  -1.031   1.490  0.00  0.00     0.000 A 
ATOM      4  C4  BNZ d   1       1.104  -2.131   2.201  0.00  0.00     0.000 A 
ATOM      5  C5  BNZ d   1       1.977  -3.068   1.684  0.00  0.00     0.000 A 
ATOM      6  C6  BNZ d   1       2.531  -2.877   0.439  0.00  0.00     0.000 A 
ENDROOT
TORSDOF 0
ENDMDL
