MODEL 1
REMARK minimizedAffinity 0.894582748
REMARK minimizedRMSD -1
REMARK  0 active torsions:
REMARK  status: ('A' for Active; 'I' for Inactive)
ROOT
ATOM      1  C1  BNZ d   1      -0.796  -2.987   3.432  0.00  0.00     0.000 A 
ATOM      2  C2  BNZ d   1      -0.025  -3.931   2.809  0.00  0.00     0.000 A 
ATOM      3  C3  BNZ d   1       0.874  -3.574   1.843  0.00  0.00     0.000 A 
ATOM      4  C4  BNZ d   1       0.971  -2.280   1.473  0.00  0.00     0.000 A 
ATOM      5  C5  BNZ d   1       0.193  -1.318   2.085  0.00  0.00     0.000 A 
ATOM      6  C6  BNZ d   1      -0.682  -1.676   3.085  0.00  0.00     0.000 A 
ENDROOT
TORSDOF 0
ENDMDL
