MODEL 1
REMARK minimizedAffinity -0.302888334
REMARK minimizedRMSD -1
REMARK  0 active torsions:
REMARK  status: ('A' for Active; 'I' for Inactive)
ROOT
ATOM      1  C1  BNZ d   1       2.433   5.960   3.068  0.00  0.00     0.000 A 
ATOM      2  C2  BNZ d   1       1.123   5.960   3.466  0.00  0.00     0.000 A 
ATOM      3  C3  BNZ d   1       0.794   6.000   4.792  0.00  0.00     0.000 A 
ATOM      4  C4  BNZ d   1       1.774   6.000   5.718  0.00  0.00     0.000 A 
ATOM      5  C5  BNZ d   1       3.100   5.991   5.334  0.00  0.00     0.000 A 
ATOM      6  C6  BNZ d   1       3.427   5.990   3.997  0.00  0.00     0.000 A 
ENDROOT
TORSDOF 0
ENDMDL
