MODEL 1
REMARK minimizedAffinity -1.78639865
REMARK minimizedRMSD -1
REMARK  0 active torsions:
REMARK  status: ('A' for Active; 'I' for Inactive)
ROOT
ATOM      1  C1  BNZ d   1      -0.233  -0.585   0.474  0.00  0.00     0.000 A 
ATOM      2  C2  BNZ d   1      -0.817  -0.425   1.702  0.00  0.00     0.000 A 
ATOM      3  C3  BNZ d   1      -0.384  -1.143   2.782  0.00  0.00     0.000 A 
ATOM      4  C4  BNZ d   1       0.604  -2.047   2.624  0.00  0.00     0.000 A 
ATOM      5  C5  BNZ d   1       1.196  -2.227   1.390  0.00  0.00     0.000 A 
ATOM      6  C6  BNZ d   1       0.784  -1.475   0.314  0.00  0.00     0.000 A 
ENDROOT
TORSDOF 0
ENDMDL
