MODEL 1
REMARK minimizedAffinity -3.89907384
REMARK minimizedRMSD -1
REMARK  0 active torsions:
REMARK  status: ('A' for Active; 'I' for Inactive)
ROOT
ATOM      1  C1  BNZ d   1      -1.370  -3.097   3.312  0.00  0.00     0.000 A 
ATOM      2  C2  BNZ d   1      -0.364  -3.974   3.005  0.00  0.00     0.000 A 
ATOM      3  C3  BNZ d   1       0.845  -3.523   2.556  0.00  0.00     0.000 A 
ATOM      4  C4  BNZ d   1       1.034  -2.200   2.377  0.00  0.00     0.000 A 
ATOM      5  C5  BNZ d   1       0.027  -1.303   2.674  0.00  0.00     0.000 A 
ATOM      6  C6  BNZ d   1      -1.176  -1.759   3.162  0.00  0.00     0.000 A 
ENDROOT
TORSDOF 0
ENDMDL
