MODEL 1
REMARK minimizedAffinity -5.54934168
REMARK minimizedRMSD -1
REMARK  1 active torsions:
REMARK  status: ('A' for Active; 'I' for Inactive)
REMARK    1  A    between atoms: C1_2  and  C2_3 
ROOT
ATOM      1  C2  UNL d   1      -0.530  -1.689  -0.189  0.00  0.00    -0.077 A 
ATOM      2  C3  UNL d   1       0.450  -0.998  -0.916  0.00  0.00     0.002 A 
ATOM      3  C4  UNL d   1       1.094  -1.611  -1.993  0.00  0.00     0.002 A 
ATOM      4  C5  UNL d   1       0.762  -2.915  -2.354  0.00  0.00    -0.004 A 
ATOM      5  C6  UNL d   1      -0.209  -3.611  -1.636  0.00  0.00     0.002 A 
ATOM      6  C7  UNL d   1      -0.853  -3.001  -0.559  0.00  0.00     0.002 A 
ENDROOT
BRANCH   1   7
ATOM      7  C1  UNL d   1      -1.260  -1.013   0.942  0.00  0.00     0.055 C 
ATOM      8  C   UNL d   1      -0.628   0.328   1.286  0.00  0.00     0.019 C 
ENDBRANCH   1   7
TORSDOF 1
ENDMDL
