MODEL 1
REMARK minimizedAffinity -3.4947083
REMARK minimizedRMSD -1
REMARK  1 active torsions:
REMARK  status: ('A' for Active; 'I' for Inactive)
REMARK    1  A    between atoms: C1_2  and  C2_3 
ROOT
ATOM      1  C2  UNL d   1      -0.495  -1.619   0.181  0.00  0.00    -0.077 A 
ATOM      2  C3  UNL d   1      -0.579  -2.964  -0.203  0.00  0.00     0.002 A 
ATOM      3  C4  UNL d   1       0.357  -3.506  -1.086  0.00  0.00     0.002 A 
ATOM      4  C5  UNL d   1       1.385  -2.711  -1.588  0.00  0.00    -0.004 A 
ATOM      5  C6  UNL d   1       1.476  -1.371  -1.213  0.00  0.00     0.002 A 
ATOM      6  C7  UNL d   1       0.540  -0.828  -0.332  0.00  0.00     0.002 A 
ENDROOT
BRANCH   1   7
ATOM      7  C1  UNL d   1      -1.475  -1.046   1.172  0.00  0.00     0.055 C 
ATOM      8  C   UNL d   1      -0.865   0.113   1.947  0.00  0.00     0.019 C 
ENDBRANCH   1   7
TORSDOF 1
ENDMDL
