MODEL 1
REMARK minimizedAffinity -3.9535861
REMARK minimizedRMSD -1
REMARK  1 active torsions:
REMARK  status: ('A' for Active; 'I' for Inactive)
REMARK    1  A    between atoms: C1_2  and  C2_3 
ROOT
ATOM      1  C2  UNL d   1       0.014  -0.314   0.058  0.00  0.00    -0.077 A 
ATOM      2  C3  UNL d   1      -0.106   1.032   0.434  0.00  0.00     0.002 A 
ATOM      3  C4  UNL d   1      -1.016   1.411   1.422  0.00  0.00     0.002 A 
ATOM      4  C5  UNL d   1      -1.810   0.451   2.046  0.00  0.00    -0.004 A 
ATOM      5  C6  UNL d   1      -1.700  -0.890   1.678  0.00  0.00     0.002 A 
ATOM      6  C7  UNL d   1      -0.792  -1.270   0.689  0.00  0.00     0.002 A 
ENDROOT
BRANCH   1   7
ATOM      7  C1  UNL d   1       1.030  -0.731  -0.973  0.00  0.00     0.055 C 
ATOM      8  C   UNL d   1       0.685  -2.086  -1.573  0.00  0.00     0.019 C 
ENDBRANCH   1   7
TORSDOF 1
ENDMDL
