MODEL 1
REMARK minimizedAffinity -2.81162882
REMARK minimizedRMSD -1
REMARK  1 active torsions:
REMARK  status: ('A' for Active; 'I' for Inactive)
REMARK    1  A    between atoms: C1_2  and  C2_3 
ROOT
ATOM      1  C2  UNL d   1       0.419  -0.752   0.114  0.00  0.00    -0.077 A 
ATOM      2  C3  UNL d   1       0.859  -0.209   1.330  0.00  0.00     0.002 A 
ATOM      3  C4  UNL d   1      -0.057   0.331   2.235  0.00  0.00     0.002 A 
ATOM      4  C5  UNL d   1      -1.418   0.330   1.936  0.00  0.00    -0.004 A 
ATOM      5  C6  UNL d   1      -1.865  -0.206   0.729  0.00  0.00     0.002 A 
ATOM      6  C7  UNL d   1      -0.951  -0.745  -0.177  0.00  0.00     0.002 A 
ENDROOT
BRANCH   1   7
ATOM      7  C1  UNL d   1       1.400  -1.379  -0.841  0.00  0.00     0.055 C 
ATOM      8  C   UNL d   1       0.787  -2.573  -1.559  0.00  0.00     0.019 C 
ENDBRANCH   1   7
TORSDOF 1
ENDMDL
