MODEL 1
REMARK minimizedAffinity -2.60344625
REMARK minimizedRMSD -1
REMARK  1 active torsions:
REMARK  status: ('A' for Active; 'I' for Inactive)
REMARK    1  A    between atoms: C1_2  and  C2_3 
ROOT
ATOM      1  C2  UNL d   1      -0.079   1.685   0.578  0.00  0.00    -0.077 A 
ATOM      2  C3  UNL d   1      -0.794   1.109   1.637  0.00  0.00     0.002 A 
ATOM      3  C4  UNL d   1      -0.599  -0.232   1.975  0.00  0.00     0.002 A 
ATOM      4  C5  UNL d   1       0.314  -1.006   1.262  0.00  0.00    -0.004 A 
ATOM      5  C6  UNL d   1       1.029  -0.443   0.206  0.00  0.00     0.002 A 
ATOM      6  C7  UNL d   1       0.834   0.897  -0.134  0.00  0.00     0.002 A 
ENDROOT
BRANCH   1   7
ATOM      7  C1  UNL d   1      -0.252   3.143   0.244  0.00  0.00     0.055 C 
ATOM      8  C   UNL d   1       0.498   3.512  -1.028  0.00  0.00     0.019 C 
ENDBRANCH   1   7
TORSDOF 1
ENDMDL
