MODEL 1
REMARK minimizedAffinity -1.85866666
REMARK minimizedRMSD -1
REMARK  1 active torsions:
REMARK  status: ('A' for Active; 'I' for Inactive)
REMARK    1  A    between atoms: C1_2  and  C2_3 
ROOT
ATOM      1  C2  UNL d   1      -0.701   2.195   0.575  0.00  0.00    -0.077 A 
ATOM      2  C3  UNL d   1      -0.048   1.215  -0.186  0.00  0.00     0.002 A 
ATOM      3  C4  UNL d   1      -0.271  -0.140   0.066  0.00  0.00     0.002 A 
ATOM      4  C5  UNL d   1      -1.148  -0.527   1.077  0.00  0.00    -0.004 A 
ATOM      5  C6  UNL d   1      -1.800   0.440   1.841  0.00  0.00     0.002 A 
ATOM      6  C7  UNL d   1      -1.578   1.794   1.591  0.00  0.00     0.002 A 
ENDROOT
BRANCH   1   7
ATOM      7  C1  UNL d   1      -0.500   3.657   0.272  0.00  0.00     0.055 C 
ATOM      8  C   UNL d   1       0.269   3.852  -1.026  0.00  0.00     0.019 C 
ENDBRANCH   1   7
TORSDOF 1
ENDMDL
