MODEL 1
REMARK minimizedAffinity -4.89212132
REMARK minimizedRMSD -1
REMARK  1 active torsions:
REMARK  status: ('A' for Active; 'I' for Inactive)
REMARK    1  A    between atoms: C1_2  and  C2_3 
ROOT
ATOM      1  C2  UNL d   1      -0.225   0.621   0.716  0.00  0.00    -0.077 A 
ATOM      2  C3  UNL d   1       0.367   1.299  -0.358  0.00  0.00     0.002 A 
ATOM      3  C4  UNL d   1       0.222   2.682  -0.487  0.00  0.00     0.002 A 
ATOM      4  C5  UNL d   1      -0.510   3.398   0.458  0.00  0.00    -0.004 A 
ATOM      5  C6  UNL d   1      -1.105   2.732   1.529  0.00  0.00     0.002 A 
ATOM      6  C7  UNL d   1      -0.962   1.350   1.658  0.00  0.00     0.002 A 
ENDROOT
BRANCH   1   7
ATOM      7  C1  UNL d   1      -0.029  -0.863   0.883  0.00  0.00     0.055 C 
ATOM      8  C   UNL d   1       0.436  -1.205   2.292  0.00  0.00     0.019 C 
ENDBRANCH   1   7
TORSDOF 1
ENDMDL
