MODEL 1
REMARK minimizedAffinity -3.96242023
REMARK minimizedRMSD -1
REMARK  1 active torsions:
REMARK  status: ('A' for Active; 'I' for Inactive)
REMARK    1  A    between atoms: C1_2  and  C2_3 
ROOT
ATOM      1  C2  UNL d   1      -0.088   2.147   0.178  0.00  0.00    -0.077 A 
ATOM      2  C3  UNL d   1      -0.878   2.284   1.328  0.00  0.00     0.002 A 
ATOM      3  C4  UNL d   1      -1.204   1.166   2.098  0.00  0.00     0.002 A 
ATOM      4  C5  UNL d   1      -0.742  -0.095   1.729  0.00  0.00    -0.004 A 
ATOM      5  C6  UNL d   1       0.042  -0.242   0.585  0.00  0.00     0.002 A 
ATOM      6  C7  UNL d   1       0.369   0.874  -0.186  0.00  0.00     0.002 A 
ENDROOT
BRANCH   1   7
ATOM      7  C1  UNL d   1       0.307   3.358  -0.626  0.00  0.00     0.055 C 
ATOM      8  C   UNL d   1       0.629   4.541   0.276  0.00  0.00     0.019 C 
ENDBRANCH   1   7
TORSDOF 1
ENDMDL
