MODEL 1
REMARK minimizedAffinity -0.174386039
REMARK minimizedRMSD -1
REMARK  1 active torsions:
REMARK  status: ('A' for Active; 'I' for Inactive)
REMARK    1  A    between atoms: C3_4  and  O_7 
ROOT
ATOM      1  C   UNL d   1      -1.503   0.068   1.001  0.00  0.00    -0.033 A 
ATOM      2  C1  UNL d   1      -0.349  -0.426   0.389  0.00  0.00     0.039 A 
ATOM      3  C2  UNL d   1       0.733  -0.842   1.167  0.00  0.00    -0.080 A 
ATOM      4  C3  UNL d   1       0.649  -0.760   2.554  0.00  0.00     0.150 A 
ATOM      5  C4  UNL d   1      -0.499  -0.273   3.171  0.00  0.00    -0.007 A 
ATOM      6  C5  UNL d   1      -1.578   0.143   2.392  0.00  0.00     0.039 A 
ENDROOT
BRANCH   4   7
ATOM      7  O   UNL d   1       1.681  -1.149   3.355  0.00  0.00    -0.526 OA
ATOM      8  H5  UNL d   1       2.417  -1.436   2.790  0.00  0.00     0.418 HD
ENDBRANCH   4   7
TORSDOF 1
ENDMDL
