MODEL 1
REMARK minimizedAffinity -2.82720947
REMARK minimizedRMSD -1
REMARK  1 active torsions:
REMARK  status: ('A' for Active; 'I' for Inactive)
REMARK    1  A    between atoms: C3_4  and  O_7 
ROOT
ATOM      1  C   UNL d   1      -0.959   0.362   1.152  0.00  0.00    -0.033 A 
ATOM      2  C1  UNL d   1       0.265  -0.124   0.689  0.00  0.00     0.039 A 
ATOM      3  C2  UNL d   1       1.174  -0.696   1.582  0.00  0.00    -0.080 A 
ATOM      4  C3  UNL d   1       0.846  -0.777   2.932  0.00  0.00     0.150 A 
ATOM      5  C4  UNL d   1      -0.373  -0.299   3.400  0.00  0.00    -0.007 A 
ATOM      6  C5  UNL d   1      -1.279   0.273   2.507  0.00  0.00     0.039 A 
ENDROOT
BRANCH   4   7
ATOM      7  O   UNL d   1       1.703  -1.323   3.842  0.00  0.00    -0.526 OA
ATOM      8  H5  UNL d   1       2.517  -1.584   3.380  0.00  0.00     0.418 HD
ENDBRANCH   4   7
TORSDOF 1
ENDMDL
