MODEL 1
REMARK minimizedAffinity -2.09789753
REMARK minimizedRMSD -1
REMARK  1 active torsions:
REMARK  status: ('A' for Active; 'I' for Inactive)
REMARK    1  A    between atoms: C3_4  and  O_7 
ROOT
ATOM      1  C   UNL d   1      -0.797  -0.650  -0.953  0.00  0.00    -0.033 A 
ATOM      2  C1  UNL d   1      -0.018  -0.606   0.204  0.00  0.00     0.039 A 
ATOM      3  C2  UNL d   1      -0.580  -0.186   1.411  0.00  0.00    -0.080 A 
ATOM      4  C3  UNL d   1      -1.921   0.185   1.447  0.00  0.00     0.150 A 
ATOM      5  C4  UNL d   1      -2.705   0.139   0.299  0.00  0.00    -0.007 A 
ATOM      6  C5  UNL d   1      -2.141  -0.279  -0.906  0.00  0.00     0.039 A 
ENDROOT
BRANCH   4   7
ATOM      7  O   UNL d   1      -2.514   0.606   2.601  0.00  0.00    -0.526 OA
ATOM      8  H5  UNL d   1      -1.844   0.614   3.305  0.00  0.00     0.418 HD
ENDBRANCH   4   7
TORSDOF 1
ENDMDL
