MODEL 1
REMARK minimizedAffinity -1.65978038
REMARK minimizedRMSD -1
REMARK  1 active torsions:
REMARK  status: ('A' for Active; 'I' for Inactive)
REMARK    1  A    between atoms: C3_4  and  O_7 
ROOT
ATOM      1  C   UNL d   1      -1.733  -0.345   2.069  0.00  0.00    -0.033 A 
ATOM      2  C1  UNL d   1      -0.620  -0.296   1.228  0.00  0.00     0.039 A 
ATOM      3  C2  UNL d   1       0.626  -0.725   1.689  0.00  0.00    -0.080 A 
ATOM      4  C3  UNL d   1       0.745  -1.201   2.992  0.00  0.00     0.150 A 
ATOM      5  C4  UNL d   1      -0.360  -1.256   3.835  0.00  0.00    -0.007 A 
ATOM      6  C5  UNL d   1      -1.603  -0.826   3.372  0.00  0.00     0.039 A 
ENDROOT
BRANCH   4   7
ATOM      7  O   UNL d   1       1.941  -1.626   3.489  0.00  0.00    -0.526 OA
ATOM      8  H5  UNL d   1       2.620  -1.503   2.805  0.00  0.00     0.418 HD
ENDBRANCH   4   7
TORSDOF 1
ENDMDL
