MODEL 1
REMARK minimizedAffinity -2.22207046
REMARK minimizedRMSD -1
REMARK  1 active torsions:
REMARK  status: ('A' for Active; 'I' for Inactive)
REMARK    1  A    between atoms: C3_4  and  O_7 
ROOT
ATOM      1  C   UNL d   1      -3.068  -0.127   0.068  0.00  0.00    -0.033 A 
ATOM      2  C1  UNL d   1      -2.478   0.224   1.284  0.00  0.00     0.039 A 
ATOM      3  C2  UNL d   1      -1.111   0.025   1.481  0.00  0.00    -0.080 A 
ATOM      4  C3  UNL d   1      -0.345  -0.524   0.456  0.00  0.00     0.150 A 
ATOM      5  C4  UNL d   1      -0.925  -0.872  -0.759  0.00  0.00    -0.007 A 
ATOM      6  C5  UNL d   1      -2.291  -0.673  -0.954  0.00  0.00     0.039 A 
ENDROOT
BRANCH   4   7
ATOM      7  O   UNL d   1       0.993  -0.741   0.604  0.00  0.00    -0.526 OA
ATOM      8  H5  UNL d   1       1.249  -0.480   1.504  0.00  0.00     0.418 HD
ENDBRANCH   4   7
TORSDOF 1
ENDMDL
