MODEL 1
REMARK minimizedAffinity 4.1097908
REMARK minimizedRMSD -1
REMARK  1 active torsions:
REMARK  status: ('A' for Active; 'I' for Inactive)
REMARK    1  A    between atoms: C3_4  and  O_7 
ROOT
ATOM      1  C   UNL d   1      -2.341   0.102   1.659  0.00  0.00    -0.033 A 
ATOM      2  C1  UNL d   1      -1.970  -0.164   0.340  0.00  0.00     0.039 A 
ATOM      3  C2  UNL d   1      -0.675  -0.598   0.051  0.00  0.00    -0.080 A 
ATOM      4  C3  UNL d   1       0.238  -0.762   1.089  0.00  0.00     0.150 A 
ATOM      5  C4  UNL d   1      -0.126  -0.502   2.406  0.00  0.00    -0.007 A 
ATOM      6  C5  UNL d   1      -1.420  -0.068   2.692  0.00  0.00     0.039 A 
ENDROOT
BRANCH   4   7
ATOM      7  O   UNL d   1       1.515  -1.178   0.856  0.00  0.00    -0.526 OA
ATOM      8  H5  UNL d   1       1.632  -1.291  -0.102  0.00  0.00     0.418 HD
ENDBRANCH   4   7
TORSDOF 1
ENDMDL
