MODEL 1
REMARK minimizedAffinity 4.44924068
REMARK minimizedRMSD -1
REMARK  1 active torsions:
REMARK  status: ('A' for Active; 'I' for Inactive)
REMARK    1  A    between atoms: C3_4  and  O_7 
ROOT
ATOM      1  C   UNL d   1      -2.124   0.037   0.076  0.00  0.00    -0.033 A 
ATOM      2  C1  UNL d   1      -2.688  -1.199  -0.248  0.00  0.00     0.039 A 
ATOM      3  C2  UNL d   1      -3.264  -1.988   0.749  0.00  0.00    -0.080 A 
ATOM      4  C3  UNL d   1      -3.272  -1.531   2.064  0.00  0.00     0.150 A 
ATOM      5  C4  UNL d   1      -2.715  -0.299   2.393  0.00  0.00    -0.007 A 
ATOM      6  C5  UNL d   1      -2.139   0.487   1.397  0.00  0.00     0.039 A 
ENDROOT
BRANCH   4   7
ATOM      7  O   UNL d   1      -3.819  -2.268   3.072  0.00  0.00    -0.526 OA
ATOM      8  H5  UNL d   1      -4.138  -3.107   2.701  0.00  0.00     0.418 HD
ENDBRANCH   4   7
TORSDOF 1
ENDMDL
