MODEL 1
REMARK minimizedAffinity -0.275548071
REMARK minimizedRMSD -1
REMARK  1 active torsions:
REMARK  status: ('A' for Active; 'I' for Inactive)
REMARK    1  A    between atoms: C3_4  and  O_7 
ROOT
ATOM      1  C   UNL d   1      -0.879  -2.292   4.827  0.00  0.00    -0.033 A 
ATOM      2  C1  UNL d   1      -2.228  -2.366   4.473  0.00  0.00     0.039 A 
ATOM      3  C2  UNL d   1      -2.774  -1.428   3.595  0.00  0.00    -0.080 A 
ATOM      4  C3  UNL d   1      -1.961  -0.422   3.078  0.00  0.00     0.150 A 
ATOM      5  C4  UNL d   1      -0.616  -0.345   3.423  0.00  0.00    -0.007 A 
ATOM      6  C5  UNL d   1      -0.073  -1.282   4.301  0.00  0.00     0.039 A 
ENDROOT
BRANCH   4   7
ATOM      7  O   UNL d   1      -2.450   0.519   2.221  0.00  0.00    -0.526 OA
ATOM      8  H5  UNL d   1      -3.400   0.357   2.096  0.00  0.00     0.418 HD
ENDBRANCH   4   7
TORSDOF 1
ENDMDL
