MODEL 1
REMARK minimizedAffinity 15.4700623
REMARK minimizedRMSD -1
REMARK  0 active torsions:
REMARK  status: ('A' for Active; 'I' for Inactive)
ROOT
ATOM      1  C   UNL d   1       3.169  -5.559  -1.494  0.00  0.00     0.124 A 
ATOM      2  C1  UNL d   1       3.228  -5.297  -2.856  0.00  0.00     0.062 A 
ATOM      3  C2  UNL d   1       2.057  -5.222  -3.604  0.00  0.00     0.162 A 
ATOM      4  C3  UNL d   1       0.817  -5.408  -2.993  0.00  0.00    -0.034 A 
ATOM      5  C4  UNL d   1       0.767  -5.672  -1.623  0.00  0.00     0.162 A 
ATOM      6  C5  UNL d   1       1.940  -5.746  -0.879  0.00  0.00     0.062 A 
ATOM      7  F   UNL d   1       1.881  -6.000   0.437  0.00  0.00    -0.097 F 
ATOM      8  F1  UNL d   1      -0.409  -5.856  -1.003  0.00  0.00    -0.096 F 
ATOM      9  I   UNL d   1      -0.936  -5.296  -4.109  0.00  0.00    -0.060 I 
ATOM     10  F2  UNL d   1       2.143  -4.967  -4.919  0.00  0.00    -0.096 F 
ATOM     11  F3  UNL d   1       4.415  -5.116  -3.452  0.00  0.00    -0.097 F 
ATOM     12  F4  UNL d   1       4.298  -5.632  -0.776  0.00  0.00    -0.092 F 
ENDROOT
TORSDOF 0
ENDMDL
