MODEL 1
REMARK minimizedAffinity 12.0662804
REMARK minimizedRMSD -1
REMARK  0 active torsions:
REMARK  status: ('A' for Active; 'I' for Inactive)
ROOT
ATOM      1  C   UNL d   1       3.353  -5.091  -2.044  0.00  0.00     0.124 A 
ATOM      2  C1  UNL d   1       3.157  -4.847  -3.396  0.00  0.00     0.062 A 
ATOM      3  C2  UNL d   1       1.891  -4.991  -3.957  0.00  0.00     0.162 A 
ATOM      4  C3  UNL d   1       0.810  -5.380  -3.166  0.00  0.00    -0.034 A 
ATOM      5  C4  UNL d   1       1.015  -5.624  -1.806  0.00  0.00     0.162 A 
ATOM      6  C5  UNL d   1       2.282  -5.479  -1.251  0.00  0.00     0.062 A 
ATOM      7  F   UNL d   1       2.470  -5.715   0.056  0.00  0.00    -0.097 F 
ATOM      8  F1  UNL d   1      -0.002  -6.000  -1.017  0.00  0.00    -0.096 F 
ATOM      9  I   UNL d   1      -1.084  -5.596  -4.001  0.00  0.00    -0.060 I 
ATOM     10  F2  UNL d   1       1.731  -4.748  -5.267  0.00  0.00    -0.096 F 
ATOM     11  F3  UNL d   1       4.189  -4.473  -4.165  0.00  0.00    -0.097 F 
ATOM     12  F4  UNL d   1       4.572  -4.953  -1.507  0.00  0.00    -0.092 F 
ENDROOT
TORSDOF 0
ENDMDL
