MODEL 1
REMARK minimizedAffinity 23.49576
REMARK minimizedRMSD -1
REMARK  0 active torsions:
REMARK  status: ('A' for Active; 'I' for Inactive)
ROOT
ATOM      1  C   UNL d   1       0.848   1.869   3.506  0.00  0.00     0.124 A 
ATOM      2  C1  UNL d   1      -0.315   2.234   2.842  0.00  0.00     0.062 A 
ATOM      3  C2  UNL d   1      -0.255   3.071   1.732  0.00  0.00     0.162 A 
ATOM      4  C3  UNL d   1       0.974   3.549   1.277  0.00  0.00    -0.034 A 
ATOM      5  C4  UNL d   1       2.140   3.178   1.951  0.00  0.00     0.162 A 
ATOM      6  C5  UNL d   1       2.074   2.341   3.060  0.00  0.00     0.062 A 
ATOM      7  F   UNL d   1       3.199   1.990   3.700  0.00  0.00    -0.097 F 
ATOM      8  F1  UNL d   1       3.338   3.620   1.540  0.00  0.00    -0.096 F 
ATOM      9  I   UNL d   1       1.070   4.801  -0.382  0.00  0.00    -0.060 I 
ATOM     10  F2  UNL d   1      -1.395   3.407   1.110  0.00  0.00    -0.096 F 
ATOM     11  F3  UNL d   1      -1.502   1.779   3.272  0.00  0.00    -0.097 F 
ATOM     12  F4  UNL d   1       0.786   1.064   4.575  0.00  0.00    -0.092 F 
ENDROOT
TORSDOF 0
ENDMDL
