MODEL 1
REMARK minimizedAffinity 25.7926044
REMARK minimizedRMSD -1
REMARK  0 active torsions:
REMARK  status: ('A' for Active; 'I' for Inactive)
ROOT
ATOM      1  C   UNL d   1       0.039   2.560   0.518  0.00  0.00     0.124 A 
ATOM      2  C1  UNL d   1      -1.157   2.288  -0.131  0.00  0.00     0.062 A 
ATOM      3  C2  UNL d   1      -1.773   3.269  -0.903  0.00  0.00     0.162 A 
ATOM      4  C3  UNL d   1      -1.193   4.531  -1.031  0.00  0.00    -0.034 A 
ATOM      5  C4  UNL d   1       0.010   4.797  -0.374  0.00  0.00     0.162 A 
ATOM      6  C5  UNL d   1       0.621   3.813   0.396  0.00  0.00     0.062 A 
ATOM      7  F   UNL d   1       1.777   4.078   1.023  0.00  0.00    -0.097 F 
ATOM      8  F1  UNL d   1       0.595   6.000  -0.476  0.00  0.00    -0.096 F 
ATOM      9  I   UNL d   1      -2.111   6.000  -2.184  0.00  0.00    -0.060 I 
ATOM     10  F2  UNL d   1      -2.928   2.978  -1.519  0.00  0.00    -0.096 F 
ATOM     11  F3  UNL d   1      -1.722   1.077  -0.014  0.00  0.00    -0.097 F 
ATOM     12  F4  UNL d   1       0.629   1.614   1.261  0.00  0.00    -0.092 F 
ENDROOT
TORSDOF 0
ENDMDL
