MODEL 1
REMARK minimizedAffinity 24.0035706
REMARK minimizedRMSD -1
REMARK  0 active torsions:
REMARK  status: ('A' for Active; 'I' for Inactive)
ROOT
ATOM      1  C   UNL d   1       0.851   2.037   3.296  0.00  0.00     0.124 A 
ATOM      2  C1  UNL d   1      -0.312   1.918   2.548  0.00  0.00     0.062 A 
ATOM      3  C2  UNL d   1      -0.546   2.775   1.476  0.00  0.00     0.162 A 
ATOM      4  C3  UNL d   1       0.387   3.757   1.144  0.00  0.00    -0.034 A 
ATOM      5  C4  UNL d   1       1.554   3.871   1.901  0.00  0.00     0.162 A 
ATOM      6  C5  UNL d   1       1.783   3.013   2.972  0.00  0.00     0.062 A 
ATOM      7  F   UNL d   1       2.907   3.130   3.693  0.00  0.00    -0.097 F 
ATOM      8  F1  UNL d   1       2.472   4.805   1.610  0.00  0.00    -0.096 F 
ATOM      9  I   UNL d   1       0.041   5.040  -0.458  0.00  0.00    -0.060 I 
ATOM     10  F2  UNL d   1      -1.679   2.637   0.771  0.00  0.00    -0.096 F 
ATOM     11  F3  UNL d   1      -1.215   0.977   2.860  0.00  0.00    -0.097 F 
ATOM     12  F4  UNL d   1       1.073   1.213   4.328  0.00  0.00    -0.092 F 
ENDROOT
TORSDOF 0
ENDMDL
