MODEL 1
REMARK minimizedAffinity 15.5932207
REMARK minimizedRMSD -1
REMARK  0 active torsions:
REMARK  status: ('A' for Active; 'I' for Inactive)
ROOT
ATOM      1  C   UNL d   1       4.943  -2.140  -1.738  0.00  0.00     0.124 A 
ATOM      2  C1  UNL d   1       4.150  -1.930  -0.618  0.00  0.00     0.062 A 
ATOM      3  C2  UNL d   1       3.052  -2.749  -0.374  0.00  0.00     0.162 A 
ATOM      4  C3  UNL d   1       2.739  -3.786  -1.253  0.00  0.00    -0.034 A 
ATOM      5  C4  UNL d   1       3.540  -3.990  -2.378  0.00  0.00     0.162 A 
ATOM      6  C5  UNL d   1       4.637  -3.169  -2.616  0.00  0.00     0.062 A 
ATOM      7  F   UNL d   1       5.401  -3.373  -3.699  0.00  0.00    -0.097 F 
ATOM      8  F1  UNL d   1       3.267  -4.979  -3.243  0.00  0.00    -0.096 F 
ATOM      9  I   UNL d   1       1.096  -5.013  -0.893  0.00  0.00    -0.060 I 
ATOM     10  F2  UNL d   1       2.303  -2.523   0.716  0.00  0.00    -0.096 F 
ATOM     11  F3  UNL d   1       4.444  -0.936   0.233  0.00  0.00    -0.097 F 
ATOM     12  F4  UNL d   1       5.999  -1.350  -1.970  0.00  0.00    -0.092 F 
ENDROOT
TORSDOF 0
ENDMDL
