MODEL 1
REMARK minimizedAffinity 12.7007923
REMARK minimizedRMSD -1
REMARK  0 active torsions:
REMARK  status: ('A' for Active; 'I' for Inactive)
ROOT
ATOM      1  C   UNL d   1      -0.112   2.329   0.389  0.00  0.00     0.124 A 
ATOM      2  C1  UNL d   1       0.688   1.300  -0.089  0.00  0.00     0.062 A 
ATOM      3  C2  UNL d   1       1.498   0.580   0.784  0.00  0.00     0.162 A 
ATOM      4  C3  UNL d   1       1.513   0.887   2.145  0.00  0.00    -0.034 A 
ATOM      5  C4  UNL d   1       0.707   1.924   2.618  0.00  0.00     0.162 A 
ATOM      6  C5  UNL d   1      -0.101   2.641   1.741  0.00  0.00     0.062 A 
ATOM      7  F   UNL d   1      -0.873   3.635   2.204  0.00  0.00    -0.097 F 
ATOM      8  F1  UNL d   1       0.697   2.245   3.920  0.00  0.00    -0.096 F 
ATOM      9  I   UNL d   1       2.723  -0.187   3.454  0.00  0.00    -0.060 I 
ATOM     10  F2  UNL d   1       2.260  -0.409   0.295  0.00  0.00    -0.096 F 
ATOM     11  F3  UNL d   1       0.680   0.998  -1.395  0.00  0.00    -0.097 F 
ATOM     12  F4  UNL d   1      -0.890   3.021  -0.454  0.00  0.00    -0.092 F 
ENDROOT
TORSDOF 0
ENDMDL
