MODEL 1
REMARK minimizedAffinity -0.130442843
REMARK minimizedRMSD -1
REMARK  1 active torsions:
REMARK  status: ('A' for Active; 'I' for Inactive)
REMARK    1  A    between atoms: C1_2  and  C2_3 
ROOT
ATOM      1  C2  UNL d   1      -0.161   0.230   1.028  0.00  0.00    -0.076 A 
ATOM      2  C3  UNL d   1       0.997   0.492   0.276  0.00  0.00     0.004 A 
ATOM      3  C4  UNL d   1       0.912   0.994  -1.022  0.00  0.00    -0.003 A 
ATOM      4  C5  UNL d   1      -0.334   1.243  -1.588  0.00  0.00     0.000 A 
ATOM      5  C6  UNL d   1      -1.493   1.005  -0.850  0.00  0.00     0.000 A 
ATOM      6  C7  UNL d   1      -1.424   0.515   0.465  0.00  0.00    -0.073 A 
ATOM      7  C8  UNL d   1      -2.706   0.271   1.213  0.00  0.00     0.078 C 
ENDROOT
BRANCH   1   8
ATOM      8  C1  UNL d   1      -0.007  -0.340   2.420  0.00  0.00     0.053 C 
ATOM      9  C   UNL d   1      -0.003  -1.861   2.430  0.00  0.00     0.018 C 
ENDBRANCH   1   8
TORSDOF 1
ENDMDL
