MODEL 1
REMARK minimizedAffinity -1.49553823
REMARK minimizedRMSD -1
REMARK  1 active torsions:
REMARK  status: ('A' for Active; 'I' for Inactive)
REMARK    1  A    between atoms: C1_2  and  C2_3 
ROOT
ATOM      1  C2  UNL d   1      -0.556   0.111  -0.545  0.00  0.00    -0.076 A 
ATOM      2  C3  UNL d   1      -1.382   0.544   0.507  0.00  0.00     0.004 A 
ATOM      3  C4  UNL d   1      -1.103   0.196   1.828  0.00  0.00    -0.003 A 
ATOM      4  C5  UNL d   1       0.007  -0.590   2.118  0.00  0.00     0.000 A 
ATOM      5  C6  UNL d   1       0.847  -1.013   1.088  0.00  0.00     0.000 A 
ATOM      6  C7  UNL d   1       0.589  -0.658  -0.247  0.00  0.00    -0.073 A 
ATOM      7  C8  UNL d   1       1.525  -1.147  -1.318  0.00  0.00     0.078 C 
ENDROOT
BRANCH   1   8
ATOM      8  C1  UNL d   1      -0.924   0.497  -1.960  0.00  0.00     0.053 C 
ATOM      9  C   UNL d   1      -0.721   1.980  -2.231  0.00  0.00     0.018 C 
ENDBRANCH   1   8
TORSDOF 1
ENDMDL
