MODEL 1
REMARK minimizedAffinity -3.46153641
REMARK minimizedRMSD -1
REMARK  1 active torsions:
REMARK  status: ('A' for Active; 'I' for Inactive)
REMARK    1  A    between atoms: C1_2  and  C2_3 
ROOT
ATOM      1  C2  UNL d   1       0.581  -0.322   1.091  0.00  0.00    -0.076 A 
ATOM      2  C3  UNL d   1      -0.733   0.178   1.086  0.00  0.00     0.004 A 
ATOM      3  C4  UNL d   1      -1.318   0.647  -0.089  0.00  0.00    -0.003 A 
ATOM      4  C5  UNL d   1      -0.600   0.622  -1.279  0.00  0.00     0.000 A 
ATOM      5  C6  UNL d   1       0.698   0.112  -1.297  0.00  0.00     0.000 A 
ATOM      6  C7  UNL d   1       1.298  -0.379  -0.124  0.00  0.00    -0.073 A 
ATOM      7  C8  UNL d   1       2.702  -0.912  -0.200  0.00  0.00     0.078 C 
ENDROOT
BRANCH   1   8
ATOM      8  C1  UNL d   1       1.173  -0.791   2.400  0.00  0.00     0.053 C 
ATOM      9  C   UNL d   1       0.506  -2.054   2.922  0.00  0.00     0.018 C 
ENDBRANCH   1   8
TORSDOF 1
ENDMDL
