MODEL 1
REMARK minimizedAffinity -4.10117769
REMARK minimizedRMSD -1
REMARK  1 active torsions:
REMARK  status: ('A' for Active; 'I' for Inactive)
REMARK    1  A    between atoms: C1_2  and  C2_3 
ROOT
ATOM      1  C2  UNL d   1       0.281   0.347   0.263  0.00  0.00    -0.076 A 
ATOM      2  C3  UNL d   1       1.624  -0.068   0.247  0.00  0.00     0.004 A 
ATOM      3  C4  UNL d   1       2.264  -0.472   1.418  0.00  0.00    -0.003 A 
ATOM      4  C5  UNL d   1       1.571  -0.469   2.623  0.00  0.00     0.000 A 
ATOM      5  C6  UNL d   1       0.233  -0.077   2.655  0.00  0.00     0.000 A 
ATOM      6  C7  UNL d   1      -0.432   0.318   1.481  0.00  0.00    -0.073 A 
ATOM      7  C8  UNL d   1      -1.873   0.736   1.574  0.00  0.00     0.078 C 
ENDROOT
BRANCH   1   8
ATOM      8  C1  UNL d   1      -0.352   0.800  -1.032  0.00  0.00     0.053 C 
ATOM      9  C   UNL d   1       0.076   2.204  -1.430  0.00  0.00     0.018 C 
ENDBRANCH   1   8
TORSDOF 1
ENDMDL
