MODEL 1
REMARK minimizedAffinity -2.84044456
REMARK minimizedRMSD -1
REMARK  1 active torsions:
REMARK  status: ('A' for Active; 'I' for Inactive)
REMARK    1  A    between atoms: C1_2  and  C2_3 
ROOT
ATOM      1  C2  UNL d   1      -0.205   0.145  -0.310  0.00  0.00    -0.076 A 
ATOM      2  C3  UNL d   1       1.198   0.059  -0.335  0.00  0.00     0.004 A 
ATOM      3  C4  UNL d   1       1.917  -0.269   0.814  0.00  0.00    -0.003 A 
ATOM      4  C5  UNL d   1       1.245  -0.516   2.006  0.00  0.00     0.000 A 
ATOM      5  C6  UNL d   1      -0.148  -0.451   2.044  0.00  0.00     0.000 A 
ATOM      6  C7  UNL d   1      -0.889  -0.139   0.892  0.00  0.00    -0.073 A 
ATOM      7  C8  UNL d   1      -2.388  -0.077   0.992  0.00  0.00     0.078 C 
ENDROOT
BRANCH   1   8
ATOM      8  C1  UNL d   1      -0.929   0.531  -1.580  0.00  0.00     0.053 C 
ATOM      9  C   UNL d   1      -0.360   1.790  -2.216  0.00  0.00     0.018 C 
ENDBRANCH   1   8
TORSDOF 1
ENDMDL
