MODEL 1
REMARK minimizedAffinity -2.72838998
REMARK minimizedRMSD -1
REMARK  1 active torsions:
REMARK  status: ('A' for Active; 'I' for Inactive)
REMARK    1  A    between atoms: C1_2  and  C2_3 
ROOT
ATOM      1  C2  UNL d   1       0.408  -0.322   1.285  0.00  0.00    -0.076 A 
ATOM      2  C3  UNL d   1      -0.891   0.211   1.356  0.00  0.00     0.004 A 
ATOM      3  C4  UNL d   1      -1.556   0.637   0.207  0.00  0.00    -0.003 A 
ATOM      4  C5  UNL d   1      -0.933   0.535  -1.032  0.00  0.00     0.000 A 
ATOM      5  C6  UNL d   1       0.349  -0.008  -1.123  0.00  0.00     0.000 A 
ATOM      6  C7  UNL d   1       1.026  -0.456   0.024  0.00  0.00    -0.073 A 
ATOM      7  C8  UNL d   1       2.409  -1.028  -0.132  0.00  0.00     0.078 C 
ENDROOT
BRANCH   1   8
ATOM      8  C1  UNL d   1       1.089  -0.742   2.568  0.00  0.00     0.053 C 
ATOM      9  C   UNL d   1       0.441  -1.964   3.199  0.00  0.00     0.018 C 
ENDBRANCH   1   8
TORSDOF 1
ENDMDL
