MODEL 1
REMARK minimizedAffinity -5.34668159
REMARK minimizedRMSD -1
REMARK  0 active torsions:
REMARK  status: ('A' for Active; 'I' for Inactive)
ROOT
ATOM      1  C1  DEN d   1       1.131  -0.659  -1.063  0.00  0.00     0.130 A 
ATOM      2  C2  DEN d   1      -0.192  -0.322  -1.582  0.00  0.00    -0.031 A 
ATOM      3  C3  DEN d   1      -1.105  -0.158  -0.434  0.00  0.00     0.027 A 
ATOM      4  C4  DEN d   1      -0.602  -0.386   2.086  0.00  0.00     0.027 A 
ATOM      5  C5  DEN d   1       0.375  -0.671   3.014  0.00  0.00    -0.003 A 
ATOM      6  C6  DEN d   1       1.654  -1.003   2.650  0.00  0.00     0.001 A 
ATOM      7  C7  DEN d   1       2.001  -1.013   1.325  0.00  0.00     0.017 A 
ATOM      8  C8  DEN d   1       1.020  -0.734   0.383  0.00  0.00    -0.094 A 
ATOM      9  C9  DEN d   1      -0.264  -0.390   0.771  0.00  0.00    -0.072 A 
ENDROOT
TORSDOF 0
ENDMDL
