MODEL 1
REMARK minimizedAffinity -2.34258986
REMARK minimizedRMSD -1
REMARK  0 active torsions:
REMARK  status: ('A' for Active; 'I' for Inactive)
ROOT
ATOM      1  C1  DEN d   1      -1.249  -0.472   0.777  0.00  0.00     0.130 A 
ATOM      2  C2  DEN d   1      -0.870   0.119  -0.503  0.00  0.00    -0.031 A 
ATOM      3  C3  DEN d   1       0.586   0.368  -0.478  0.00  0.00     0.027 A 
ATOM      4  C4  DEN d   1       2.280  -0.105   1.408  0.00  0.00     0.027 A 
ATOM      5  C5  DEN d   1       2.428  -0.590   2.689  0.00  0.00    -0.003 A 
ATOM      6  C6  DEN d   1       1.365  -1.034   3.428  0.00  0.00     0.001 A 
ATOM      7  C7  DEN d   1       0.111  -1.045   2.876  0.00  0.00     0.017 A 
ATOM      8  C8  DEN d   1      -0.047  -0.551   1.588  0.00  0.00    -0.094 A 
ATOM      9  C9  DEN d   1       1.042  -0.117   0.852  0.00  0.00    -0.072 A 
ENDROOT
TORSDOF 0
ENDMDL
