MODEL 1
REMARK minimizedAffinity -0.649500191
REMARK minimizedRMSD -1
REMARK  0 active torsions:
REMARK  status: ('A' for Active; 'I' for Inactive)
ROOT
ATOM      1  C1  DEN d   1       0.196  -0.785  -0.728  0.00  0.00     0.130 A 
ATOM      2  C2  DEN d   1       1.567  -0.984  -1.191  0.00  0.00    -0.031 A 
ATOM      3  C3  DEN d   1       2.444  -1.050  -0.004  0.00  0.00     0.027 A 
ATOM      4  C4  DEN d   1       1.815  -0.868   2.491  0.00  0.00     0.027 A 
ATOM      5  C5  DEN d   1       0.775  -0.683   3.375  0.00  0.00    -0.003 A 
ATOM      6  C6  DEN d   1      -0.514  -0.488   2.957  0.00  0.00     0.001 A 
ATOM      7  C7  DEN d   1      -0.805  -0.517   1.619  0.00  0.00     0.017 A 
ATOM      8  C8  DEN d   1       0.239  -0.695   0.720  0.00  0.00    -0.094 A 
ATOM      9  C9  DEN d   1       1.534  -0.903   1.163  0.00  0.00    -0.072 A 
ENDROOT
TORSDOF 0
ENDMDL
