MODEL 1
REMARK minimizedAffinity 2.60503459
REMARK minimizedRMSD -1
REMARK  0 active torsions:
REMARK  status: ('A' for Active; 'I' for Inactive)
ROOT
ATOM      1  C1  DEN d   1      -0.873  -0.094   1.222  0.00  0.00     0.130 A 
ATOM      2  C2  DEN d   1      -0.377  -0.467   2.544  0.00  0.00    -0.031 A 
ATOM      3  C3  DEN d   1       0.999  -0.981   2.388  0.00  0.00     0.027 A 
ATOM      4  C4  DEN d   1       2.404  -1.228   0.239  0.00  0.00     0.027 A 
ATOM      5  C5  DEN d   1       2.405  -1.054  -1.128  0.00  0.00    -0.003 A 
ATOM      6  C6  DEN d   1       1.312  -0.583  -1.805  0.00  0.00     0.001 A 
ATOM      7  C7  DEN d   1       0.185  -0.228  -1.112  0.00  0.00     0.017 A 
ATOM      8  C8  DEN d   1       0.173  -0.408   0.265  0.00  0.00    -0.094 A 
ATOM      9  C9  DEN d   1       1.293  -0.873   0.933  0.00  0.00    -0.072 A 
ENDROOT
TORSDOF 0
ENDMDL
