MODEL 1
REMARK minimizedAffinity -3.46587729
REMARK minimizedRMSD -1
REMARK  0 active torsions:
REMARK  status: ('A' for Active; 'I' for Inactive)
ROOT
ATOM      1  C1  DEN d   1       1.142   0.476  -0.370  0.00  0.00     0.130 A 
ATOM      2  C2  DEN d   1      -0.162   0.856  -0.907  0.00  0.00    -0.031 A 
ATOM      3  C3  DEN d   1      -1.195   0.432   0.060  0.00  0.00     0.027 A 
ATOM      4  C4  DEN d   1      -0.902  -0.767   2.325  0.00  0.00     0.027 A 
ATOM      5  C5  DEN d   1       0.015  -1.306   3.200  0.00  0.00    -0.003 A 
ATOM      6  C6  DEN d   1       1.358  -1.319   2.932  0.00  0.00     0.001 A 
ATOM      7  C7  DEN d   1       1.827  -0.742   1.782  0.00  0.00     0.017 A 
ATOM      8  C8  DEN d   1       0.907  -0.203   0.891  0.00  0.00    -0.094 A 
ATOM      9  C9  DEN d   1      -0.445  -0.189   1.185  0.00  0.00    -0.072 A 
ENDROOT
TORSDOF 0
ENDMDL
