MODEL 1
REMARK minimizedAffinity -0.231257573
REMARK minimizedRMSD -1
REMARK  0 active torsions:
REMARK  status: ('A' for Active; 'I' for Inactive)
ROOT
ATOM      1  C1  DEN d   1      -2.540  -0.647   0.733  0.00  0.00     0.130 A 
ATOM      2  C2  DEN d   1      -3.197  -0.752  -0.567  0.00  0.00    -0.031 A 
ATOM      3  C3  DEN d   1      -2.148  -0.831  -1.603  0.00  0.00     0.027 A 
ATOM      4  C4  DEN d   1       0.416  -0.807  -1.322  0.00  0.00     0.027 A 
ATOM      5  C5  DEN d   1       1.445  -0.722  -0.409  0.00  0.00    -0.003 A 
ATOM      6  C6  DEN d   1       1.219  -0.572   0.933  0.00  0.00     0.001 A 
ATOM      7  C7  DEN d   1      -0.066  -0.549   1.407  0.00  0.00     0.017 A 
ATOM      8  C8  DEN d   1      -1.108  -0.628   0.493  0.00  0.00    -0.094 A 
ATOM      9  C9  DEN d   1      -0.860  -0.791  -0.860  0.00  0.00    -0.072 A 
ENDROOT
TORSDOF 0
ENDMDL
