MODEL 1
REMARK minimizedAffinity -1.54180872
REMARK minimizedRMSD -1
REMARK  0 active torsions:
REMARK  status: ('A' for Active; 'I' for Inactive)
ROOT
ATOM      1  C1  DEN d   1       0.604   0.352   1.608  0.00  0.00     0.130 A 
ATOM      2  C2  DEN d   1       2.001  -0.064   1.693  0.00  0.00    -0.031 A 
ATOM      3  C3  DEN d   1       2.353  -0.744   0.430  0.00  0.00     0.027 A 
ATOM      4  C4  DEN d   1       0.878  -1.186  -1.640  0.00  0.00     0.027 A 
ATOM      5  C5  DEN d   1      -0.382  -1.029  -2.175  0.00  0.00    -0.003 A 
ATOM      6  C6  DEN d   1      -1.402  -0.436  -1.479  0.00  0.00     0.001 A 
ATOM      7  C7  DEN d   1      -1.168   0.062  -0.225  0.00  0.00     0.017 A 
ATOM      8  C8  DEN d   1       0.097  -0.099   0.324  0.00  0.00    -0.094 A 
ATOM      9  C9  DEN d   1       1.119  -0.690  -0.400  0.00  0.00    -0.072 A 
ENDROOT
TORSDOF 0
ENDMDL
