MODEL 1
REMARK minimizedAffinity 9.09376431
REMARK minimizedRMSD -1
REMARK  0 active torsions:
REMARK  status: ('A' for Active; 'I' for Inactive)
ROOT
ATOM      1  C4' PXY d   1       5.997  -0.763   1.519  0.00  0.00     0.077 C 
ATOM      2  C1' PXY d   1       1.350  -0.907  -1.916  0.00  0.00     0.077 C 
ATOM      3  C1  PXY d   1       2.571  -0.857  -1.019  0.00  0.00    -0.082 A 
ATOM      4  C2  PXY d   1       3.195  -1.979  -0.700  0.00  0.00     0.003 A 
ATOM      5  C3  PXY d   1       4.281  -1.956   0.136  0.00  0.00     0.003 A 
ATOM      6  C4  PXY d   1       4.766  -0.765   0.608  0.00  0.00    -0.082 A 
ATOM      7  C5  PXY d   1       4.142   0.385   0.278  0.00  0.00     0.003 A 
ATOM      8  C6  PXY d   1       3.016   0.336  -0.538  0.00  0.00     0.003 A 
ENDROOT
TORSDOF 0
ENDMDL
