MODEL 1
REMARK minimizedAffinity 3.0453434
REMARK minimizedRMSD -1
REMARK  0 active torsions:
REMARK  status: ('A' for Active; 'I' for Inactive)
ROOT
ATOM      1  C4' PXY d   1       0.341  -1.448   3.095  0.00  0.00     0.077 C 
ATOM      2  C1' PXY d   1       1.996  -0.914  -2.418  0.00  0.00     0.077 C 
ATOM      3  C1  PXY d   1       1.550  -1.050  -0.975  0.00  0.00    -0.082 A 
ATOM      4  C2  PXY d   1       2.453  -1.038  -0.008  0.00  0.00     0.003 A 
ATOM      5  C3  PXY d   1       2.070  -1.192   1.300  0.00  0.00     0.003 A 
ATOM      6  C4  PXY d   1       0.745  -1.305   1.625  0.00  0.00    -0.082 A 
ATOM      7  C5  PXY d   1      -0.183  -1.306   0.645  0.00  0.00     0.003 A 
ATOM      8  C6  PXY d   1       0.230  -1.191  -0.680  0.00  0.00     0.003 A 
ENDROOT
TORSDOF 0
ENDMDL
