MODEL 1
REMARK minimizedAffinity 4.39708757
REMARK minimizedRMSD -1
REMARK  0 active torsions:
REMARK  status: ('A' for Active; 'I' for Inactive)
ROOT
ATOM      1  C4' PXY d   1       0.764   3.027  -3.319  0.00  0.00     0.077 C 
ATOM      2  C1' PXY d   1      -4.786   4.614  -3.616  0.00  0.00     0.077 C 
ATOM      3  C1  PXY d   1      -3.328   4.206  -3.547  0.00  0.00    -0.082 A 
ATOM      4  C2  PXY d   1      -3.005   3.001  -3.107  0.00  0.00     0.003 A 
ATOM      5  C3  PXY d   1      -1.690   2.628  -3.009  0.00  0.00     0.003 A 
ATOM      6  C4  PXY d   1      -0.696   3.478  -3.415  0.00  0.00    -0.082 A 
ATOM      7  C5  PXY d   1      -1.017   4.705  -3.875  0.00  0.00     0.003 A 
ATOM      8  C6  PXY d   1      -2.357   5.080  -3.928  0.00  0.00     0.003 A 
ENDROOT
TORSDOF 0
ENDMDL
