MODEL 1
REMARK minimizedAffinity 5.28875399
REMARK minimizedRMSD -1
REMARK  0 active torsions:
REMARK  status: ('A' for Active; 'I' for Inactive)
ROOT
ATOM      1  C4' PXY d   1       1.121  -1.771   1.389  0.00  0.00     0.077 C 
ATOM      2  C1' PXY d   1       3.631  -0.723  -3.711  0.00  0.00     0.077 C 
ATOM      3  C1  PXY d   1       2.962  -0.990  -2.377  0.00  0.00    -0.082 A 
ATOM      4  C2  PXY d   1       3.703  -1.293  -1.323  0.00  0.00     0.003 A 
ATOM      5  C3  PXY d   1       3.112  -1.569  -0.117  0.00  0.00     0.003 A 
ATOM      6  C4  PXY d   1       1.753  -1.483   0.025  0.00  0.00    -0.082 A 
ATOM      7  C5  PXY d   1       0.992  -1.165  -1.043  0.00  0.00     0.003 A 
ATOM      8  C6  PXY d   1       1.607  -0.929  -2.269  0.00  0.00     0.003 A 
ENDROOT
TORSDOF 0
ENDMDL
