MODEL 1
REMARK minimizedAffinity -3.79722691
REMARK minimizedRMSD -1
REMARK  0 active torsions:
REMARK  status: ('A' for Active; 'I' for Inactive)
ROOT
ATOM      1  C4' PXY d   1       3.513   2.440  -2.666  0.00  0.00     0.077 C 
ATOM      2  C1' PXY d   1       1.541  -2.011   0.451  0.00  0.00     0.077 C 
ATOM      3  C1  PXY d   1       2.050  -0.836  -0.360  0.00  0.00    -0.082 A 
ATOM      4  C2  PXY d   1       2.571  -1.044  -1.558  0.00  0.00     0.003 A 
ATOM      5  C3  PXY d   1       3.065   0.003  -2.292  0.00  0.00     0.003 A 
ATOM      6  C4  PXY d   1       2.978   1.284  -1.816  0.00  0.00    -0.082 A 
ATOM      7  C5  PXY d   1       2.438   1.506  -0.599  0.00  0.00     0.003 A 
ATOM      8  C6  PXY d   1       1.979   0.425   0.147  0.00  0.00     0.003 A 
ENDROOT
TORSDOF 0
ENDMDL
