MODEL 1
REMARK minimizedAffinity -3.9151144
REMARK minimizedRMSD -1
REMARK  0 active torsions:
REMARK  status: ('A' for Active; 'I' for Inactive)
ROOT
ATOM      1  C4' PXY d   1      -3.282   0.263   1.377  0.00  0.00     0.077 C 
ATOM      2  C1' PXY d   1       2.044  -0.192  -0.823  0.00  0.00     0.077 C 
ATOM      3  C1  PXY d   1       0.649  -0.084  -0.239  0.00  0.00    -0.082 A 
ATOM      4  C2  PXY d   1      -0.273   0.621  -0.875  0.00  0.00     0.003 A 
ATOM      5  C3  PXY d   1      -1.531   0.756  -0.345  0.00  0.00     0.003 A 
ATOM      6  C4  PXY d   1      -1.863   0.119   0.821  0.00  0.00    -0.082 A 
ATOM      7  C5  PXY d   1      -0.931  -0.611   1.469  0.00  0.00     0.003 A 
ATOM      8  C6  PXY d   1       0.351  -0.702   0.936  0.00  0.00     0.003 A 
ENDROOT
TORSDOF 0
ENDMDL
