MODEL 1
REMARK minimizedAffinity 2.58370376
REMARK minimizedRMSD -1
REMARK  0 active torsions:
REMARK  status: ('A' for Active; 'I' for Inactive)
ROOT
ATOM      1  C   UNL d   1      -0.186  -2.061  -1.751  0.00  0.00     0.023 A 
ATOM      2  C1  UNL d   1       0.199  -1.143  -0.774  0.00  0.00     0.003 A 
ATOM      3  C2  UNL d   1      -0.302  -1.252   0.524  0.00  0.00     0.048 A 
ATOM      4  C3  UNL d   1      -1.187  -2.282   0.840  0.00  0.00     0.023 A 
ATOM      5  C4  UNL d   1      -1.575  -3.204  -0.134  0.00  0.00     0.048 A 
ATOM      6  C5  UNL d   1      -1.072  -3.090  -1.432  0.00  0.00     0.003 A 
ATOM      7  I   UNL d   1      -1.934  -2.447   2.772  0.00  0.00    -0.146 I 
ENDROOT
TORSDOF 0
ENDMDL
