MODEL 1
REMARK minimizedAffinity 4.22340584
REMARK minimizedRMSD -1
REMARK  0 active torsions:
REMARK  status: ('A' for Active; 'I' for Inactive)
ROOT
ATOM      1  C   UNL d   1       3.791  -5.990  -5.755  0.00  0.00     0.023 A 
ATOM      2  C1  UNL d   1       3.066  -5.186  -4.876  0.00  0.00     0.003 A 
ATOM      3  C2  UNL d   1       3.687  -4.110  -4.238  0.00  0.00     0.048 A 
ATOM      4  C3  UNL d   1       5.033  -3.844  -4.485  0.00  0.00     0.023 A 
ATOM      5  C4  UNL d   1       5.762  -4.646  -5.365  0.00  0.00     0.048 A 
ATOM      6  C5  UNL d   1       5.137  -5.721  -6.000  0.00  0.00     0.003 A 
ATOM      7  I   UNL d   1       5.960  -2.244  -3.537  0.00  0.00    -0.146 I 
ENDROOT
TORSDOF 0
ENDMDL
