MODEL 1
REMARK minimizedAffinity 6.79658508
REMARK minimizedRMSD -1
REMARK  0 active torsions:
REMARK  status: ('A' for Active; 'I' for Inactive)
ROOT
ATOM      1  C   UNL d   1       4.402   0.610  -5.992  0.00  0.00     0.023 A 
ATOM      2  C1  UNL d   1       5.716   1.075  -5.947  0.00  0.00     0.003 A 
ATOM      3  C2  UNL d   1       5.971   2.447  -5.886  0.00  0.00     0.048 A 
ATOM      4  C3  UNL d   1       4.907   3.348  -5.871  0.00  0.00     0.023 A 
ATOM      5  C4  UNL d   1       3.590   2.886  -5.915  0.00  0.00     0.048 A 
ATOM      6  C5  UNL d   1       3.340   1.514  -5.976  0.00  0.00     0.003 A 
ATOM      7  I   UNL d   1       5.283   5.390  -5.781  0.00  0.00    -0.146 I 
ENDROOT
TORSDOF 0
ENDMDL
