MODEL 1
REMARK minimizedAffinity 8.89486599
REMARK minimizedRMSD -1
REMARK  0 active torsions:
REMARK  status: ('A' for Active; 'I' for Inactive)
ROOT
ATOM      1  C   UNL d   1      -1.257  -3.201  -1.159  0.00  0.00     0.023 A 
ATOM      2  C1  UNL d   1      -0.430  -2.379  -1.924  0.00  0.00     0.003 A 
ATOM      3  C2  UNL d   1       0.322  -1.376  -1.307  0.00  0.00     0.048 A 
ATOM      4  C3  UNL d   1       0.242  -1.202   0.074  0.00  0.00     0.023 A 
ATOM      5  C4  UNL d   1      -0.584  -2.023   0.843  0.00  0.00     0.048 A 
ATOM      6  C5  UNL d   1      -1.334  -3.024   0.222  0.00  0.00     0.003 A 
ATOM      7  I   UNL d   1       1.360   0.290   0.993  0.00  0.00    -0.146 I 
ENDROOT
TORSDOF 0
ENDMDL
