MODEL 1
REMARK minimizedAffinity 13.9655571
REMARK minimizedRMSD -1
REMARK  0 active torsions:
REMARK  status: ('A' for Active; 'I' for Inactive)
ROOT
ATOM      1  C   UNL d   1      -1.415  -3.386  -2.121  0.00  0.00     0.023 A 
ATOM      2  C1  UNL d   1      -2.243  -4.503  -2.243  0.00  0.00     0.003 A 
ATOM      3  C2  UNL d   1      -2.576  -5.253  -1.114  0.00  0.00     0.048 A 
ATOM      4  C3  UNL d   1      -2.080  -4.880   0.135  0.00  0.00     0.023 A 
ATOM      5  C4  UNL d   1      -1.252  -3.764   0.262  0.00  0.00     0.048 A 
ATOM      6  C5  UNL d   1      -0.920  -3.017  -0.870  0.00  0.00     0.003 A 
ATOM      7  I   UNL d   1      -2.575  -5.995   1.818  0.00  0.00    -0.146 I 
ENDROOT
TORSDOF 0
ENDMDL
