MODEL 1
REMARK minimizedAffinity 6.00051165
REMARK minimizedRMSD -1
REMARK  0 active torsions:
REMARK  status: ('A' for Active; 'I' for Inactive)
ROOT
ATOM      1  C   UNL d   1      -0.918  -3.942   3.441  0.00  0.00     0.023 A 
ATOM      2  C1  UNL d   1      -1.031  -5.090   2.657  0.00  0.00     0.003 A 
ATOM      3  C2  UNL d   1      -1.213  -4.979   1.277  0.00  0.00     0.048 A 
ATOM      4  C3  UNL d   1      -1.281  -3.716   0.688  0.00  0.00     0.023 A 
ATOM      5  C4  UNL d   1      -1.168  -2.565   1.469  0.00  0.00     0.048 A 
ATOM      6  C5  UNL d   1      -0.987  -2.681   2.848  0.00  0.00     0.003 A 
ATOM      7  I   UNL d   1      -1.552  -3.548  -1.366  0.00  0.00    -0.146 I 
ENDROOT
TORSDOF 0
ENDMDL
