MODEL 1
REMARK minimizedAffinity 9.10746193
REMARK minimizedRMSD -1
REMARK  0 active torsions:
REMARK  status: ('A' for Active; 'I' for Inactive)
ROOT
ATOM      1  C   UNL d   1       0.096   2.703   1.314  0.00  0.00     0.023 A 
ATOM      2  C1  UNL d   1       0.735   1.767   0.500  0.00  0.00     0.003 A 
ATOM      3  C2  UNL d   1       0.392   0.416   0.585  0.00  0.00     0.048 A 
ATOM      4  C3  UNL d   1      -0.591   0.008   1.486  0.00  0.00     0.023 A 
ATOM      5  C4  UNL d   1      -1.233   0.940   2.302  0.00  0.00     0.048 A 
ATOM      6  C5  UNL d   1      -0.887   2.290   2.214  0.00  0.00     0.003 A 
ATOM      7  I   UNL d   1      -1.102  -2.003   1.615  0.00  0.00    -0.146 I 
ENDROOT
TORSDOF 0
ENDMDL
