MODEL 1
REMARK minimizedAffinity 9.74174881
REMARK minimizedRMSD -1
REMARK  0 active torsions:
REMARK  status: ('A' for Active; 'I' for Inactive)
ROOT
ATOM      1  C   UNL d   1      -0.986   2.574   4.437  0.00  0.00     0.023 A 
ATOM      2  C1  UNL d   1      -1.821   3.623   4.051  0.00  0.00     0.003 A 
ATOM      3  C2  UNL d   1      -1.680   4.201   2.788  0.00  0.00     0.048 A 
ATOM      4  C3  UNL d   1      -0.703   3.724   1.915  0.00  0.00     0.023 A 
ATOM      5  C4  UNL d   1       0.134   2.674   2.296  0.00  0.00     0.048 A 
ATOM      6  C5  UNL d   1      -0.010   2.100   3.560  0.00  0.00     0.003 A 
ATOM      7  I   UNL d   1      -0.492   4.582   0.033  0.00  0.00    -0.146 I 
ENDROOT
TORSDOF 0
ENDMDL
