MODEL 1
REMARK minimizedAffinity -0.419518411
REMARK minimizedRMSD -1
REMARK  0 active torsions:
REMARK  status: ('A' for Active; 'I' for Inactive)
ROOT
ATOM      1  C   UNL d   1      -3.532   2.664   0.009  0.00  0.00     0.023 A 
ATOM      2  C1  UNL d   1      -3.470   1.430   0.657  0.00  0.00     0.003 A 
ATOM      3  C2  UNL d   1      -2.261   0.980   1.191  0.00  0.00     0.048 A 
ATOM      4  C3  UNL d   1      -1.117   1.770   1.075  0.00  0.00     0.023 A 
ATOM      5  C4  UNL d   1      -1.175   3.005   0.428  0.00  0.00     0.048 A 
ATOM      6  C5  UNL d   1      -2.386   3.450  -0.105  0.00  0.00     0.003 A 
ATOM      7  I   UNL d   1       0.683   1.102   1.869  0.00  0.00    -0.146 I 
ENDROOT
TORSDOF 0
ENDMDL
