MODEL 1
REMARK minimizedAffinity 10.7258472
REMARK minimizedRMSD -1
REMARK  0 active torsions:
REMARK  status: ('A' for Active; 'I' for Inactive)
ROOT
ATOM      1  C   UNL d   1      -0.915  -3.747  -1.132  0.00  0.00     0.023 A 
ATOM      2  C1  UNL d   1       0.236  -3.151  -1.647  0.00  0.00     0.003 A 
ATOM      3  C2  UNL d   1       0.959  -3.785  -2.659  0.00  0.00     0.048 A 
ATOM      4  C3  UNL d   1       0.525  -5.015  -3.153  0.00  0.00     0.023 A 
ATOM      5  C4  UNL d   1      -0.627  -5.615  -2.641  0.00  0.00     0.048 A 
ATOM      6  C5  UNL d   1      -1.346  -4.977  -1.628  0.00  0.00     0.003 A 
ATOM      7  I   UNL d   1       1.599  -5.961  -4.660  0.00  0.00    -0.146 I 
ENDROOT
TORSDOF 0
ENDMDL
