MODEL 1
REMARK minimizedAffinity 8.37194538
REMARK minimizedRMSD -1
REMARK  0 active torsions:
REMARK  status: ('A' for Active; 'I' for Inactive)
ROOT
ATOM      1  C   UNL d   1      -2.077  -2.021   0.905  0.00  0.00     0.023 A 
ATOM      2  C1  UNL d   1      -0.988  -1.753   0.075  0.00  0.00     0.003 A 
ATOM      3  C2  UNL d   1      -0.270  -0.565   0.224  0.00  0.00     0.048 A 
ATOM      4  C3  UNL d   1      -0.646   0.352   1.206  0.00  0.00     0.023 A 
ATOM      5  C4  UNL d   1      -1.735   0.088   2.039  0.00  0.00     0.048 A 
ATOM      6  C5  UNL d   1      -2.450  -1.102   1.886  0.00  0.00     0.003 A 
ATOM      7  I   UNL d   1       0.420   2.121   1.430  0.00  0.00    -0.146 I 
ENDROOT
TORSDOF 0
ENDMDL
