MODEL 1
REMARK minimizedAffinity 3.64401412
REMARK minimizedRMSD -1
REMARK  0 active torsions:
REMARK  status: ('A' for Active; 'I' for Inactive)
ROOT
ATOM      1  C   UNL d   1       3.927   4.552  -5.623  0.00  0.00     0.023 A 
ATOM      2  C1  UNL d   1       3.140   3.431  -5.891  0.00  0.00     0.003 A 
ATOM      3  C2  UNL d   1       3.733   2.171  -6.000  0.00  0.00     0.048 A 
ATOM      4  C3  UNL d   1       5.111   2.039  -5.838  0.00  0.00     0.023 A 
ATOM      5  C4  UNL d   1       5.902   3.158  -5.569  0.00  0.00     0.048 A 
ATOM      6  C5  UNL d   1       5.305   4.415  -5.462  0.00  0.00     0.003 A 
ATOM      7  I   UNL d   1       5.995   0.165  -5.999  0.00  0.00    -0.146 I 
ENDROOT
TORSDOF 0
ENDMDL
