MODEL 1
REMARK minimizedAffinity -2.0175035
REMARK minimizedRMSD -1
REMARK  0 active torsions:
REMARK  status: ('A' for Active; 'I' for Inactive)
ROOT
ATOM      1  C   UNL d   1       4.801   2.565   3.921  0.00  0.00     0.023 A 
ATOM      2  C1  UNL d   1       4.979   3.655   3.068  0.00  0.00     0.003 A 
ATOM      3  C2  UNL d   1       4.236   3.749   1.889  0.00  0.00     0.048 A 
ATOM      4  C3  UNL d   1       3.315   2.752   1.571  0.00  0.00     0.023 A 
ATOM      5  C4  UNL d   1       3.132   1.660   2.422  0.00  0.00     0.048 A 
ATOM      6  C5  UNL d   1       3.879   1.569   3.598  0.00  0.00     0.003 A 
ATOM      7  I   UNL d   1       2.207   2.891  -0.182  0.00  0.00    -0.146 I 
ENDROOT
TORSDOF 0
ENDMDL
