MODEL 1
REMARK minimizedAffinity -5.49268579
REMARK minimizedRMSD -1
REMARK  0 active torsions:
REMARK  status: ('A' for Active; 'I' for Inactive)
ROOT
ATOM      1  C2' OXE d   1      -1.254   0.363   0.703  0.00  0.00     0.078 C 
ATOM      2  C1' OXE d   1       0.977  -0.818  -0.527  0.00  0.00     0.078 C 
ATOM      3  C1  OXE d   1       1.074   0.637  -0.140  0.00  0.00    -0.078 A 
ATOM      4  C2  OXE d   1      -0.038   1.219   0.419  0.00  0.00    -0.078 A 
ATOM      5  C3  OXE d   1       0.016   2.543   0.844  0.00  0.00     0.003 A 
ATOM      6  C4  OXE d   1       1.141   3.330   0.569  0.00  0.00    -0.002 A 
ATOM      7  C5  OXE d   1       2.271   2.767  -0.035  0.00  0.00    -0.002 A 
ATOM      8  C6  OXE d   1       2.269   1.415  -0.356  0.00  0.00     0.003 A 
ENDROOT
TORSDOF 0
ENDMDL
