MODEL 1
REMARK minimizedAffinity -5.34671545
REMARK minimizedRMSD -1
REMARK  0 active torsions:
REMARK  status: ('A' for Active; 'I' for Inactive)
ROOT
ATOM      1  C2' OXE d   1      -1.594   0.662  -0.044  0.00  0.00     0.078 C 
ATOM      2  C1' OXE d   1       0.688  -0.965  -0.203  0.00  0.00     0.078 C 
ATOM      3  C1  OXE d   1       0.893   0.516  -0.004  0.00  0.00    -0.078 A 
ATOM      4  C2  OXE d   1      -0.228   1.311   0.026  0.00  0.00    -0.078 A 
ATOM      5  C3  OXE d   1      -0.098   2.677   0.262  0.00  0.00     0.003 A 
ATOM      6  C4  OXE d   1       1.169   3.270   0.315  0.00  0.00    -0.002 A 
ATOM      7  C5  OXE d   1       2.324   2.484   0.246  0.00  0.00    -0.002 A 
ATOM      8  C6  OXE d   1       2.203   1.104   0.130  0.00  0.00     0.003 A 
ENDROOT
TORSDOF 0
ENDMDL
