MODEL 1
REMARK minimizedAffinity -4.94193506
REMARK minimizedRMSD -1
REMARK  0 active torsions:
REMARK  status: ('A' for Active; 'I' for Inactive)
ROOT
ATOM      1  C2' OXE d   1       2.887   1.238   0.378  0.00  0.00     0.078 C 
ATOM      2  C1' OXE d   1       0.664   2.952   0.334  0.00  0.00     0.078 C 
ATOM      3  C1  OXE d   1       0.409   1.466   0.274  0.00  0.00    -0.078 A 
ATOM      4  C2  OXE d   1       1.505   0.637   0.249  0.00  0.00    -0.078 A 
ATOM      5  C3  OXE d   1       1.324  -0.743   0.249  0.00  0.00     0.003 A 
ATOM      6  C4  OXE d   1       0.042  -1.291   0.119  0.00  0.00    -0.002 A 
ATOM      7  C5  OXE d   1      -1.085  -0.463   0.102  0.00  0.00    -0.002 A 
ATOM      8  C6  OXE d   1      -0.922   0.913   0.222  0.00  0.00     0.003 A 
ENDROOT
TORSDOF 0
ENDMDL
