MODEL 1
REMARK minimizedAffinity -4.47263575
REMARK minimizedRMSD -1
REMARK  0 active torsions:
REMARK  status: ('A' for Active; 'I' for Inactive)
ROOT
ATOM      1  C2' OXE d   1      -2.034   1.239   0.143  0.00  0.00     0.078 C 
ATOM      2  C1' OXE d   1       0.100  -0.582   0.244  0.00  0.00     0.078 C 
ATOM      3  C1  OXE d   1       0.424   0.888   0.338  0.00  0.00    -0.078 A 
ATOM      4  C2  OXE d   1      -0.622   1.774   0.241  0.00  0.00    -0.078 A 
ATOM      5  C3  OXE d   1      -0.384   3.139   0.376  0.00  0.00     0.003 A 
ATOM      6  C4  OXE d   1       0.926   3.626   0.456  0.00  0.00    -0.002 A 
ATOM      7  C5  OXE d   1       2.010   2.742   0.517  0.00  0.00    -0.002 A 
ATOM      8  C6  OXE d   1       1.773   1.372   0.502  0.00  0.00     0.003 A 
ENDROOT
TORSDOF 0
ENDMDL
