MODEL 1
REMARK minimizedAffinity -5.24405527
REMARK minimizedRMSD -1
REMARK  0 active torsions:
REMARK  status: ('A' for Active; 'I' for Inactive)
ROOT
ATOM      1  C2' OXE d   1       0.074  -0.632   0.084  0.00  0.00     0.078 C 
ATOM      2  C1' OXE d   1      -2.200   1.003  -0.099  0.00  0.00     0.078 C 
ATOM      3  C1  OXE d   1      -0.859   1.677   0.058  0.00  0.00    -0.078 A 
ATOM      4  C2  OXE d   1       0.243   0.868   0.193  0.00  0.00    -0.078 A 
ATOM      5  C3  OXE d   1       1.509   1.438   0.286  0.00  0.00     0.003 A 
ATOM      6  C4  OXE d   1       1.656   2.826   0.396  0.00  0.00    -0.002 A 
ATOM      7  C5  OXE d   1       0.542   3.667   0.300  0.00  0.00    -0.002 A 
ATOM      8  C6  OXE d   1      -0.715   3.111   0.089  0.00  0.00     0.003 A 
ENDROOT
TORSDOF 0
ENDMDL
