MODEL 1
REMARK minimizedAffinity -3.79913282
REMARK minimizedRMSD -1
REMARK  0 active torsions:
REMARK  status: ('A' for Active; 'I' for Inactive)
ROOT
ATOM      1  C2' OXE d   1      -1.742   0.500   1.576  0.00  0.00     0.078 C 
ATOM      2  C1' OXE d   1       0.171  -0.906   0.079  0.00  0.00     0.078 C 
ATOM      3  C1  OXE d   1       0.192   0.600   0.009  0.00  0.00    -0.078 A 
ATOM      4  C2  OXE d   1      -0.777   1.279   0.708  0.00  0.00    -0.078 A 
ATOM      5  C3  OXE d   1      -0.770   2.671   0.722  0.00  0.00     0.003 A 
ATOM      6  C4  OXE d   1       0.120   3.383  -0.092  0.00  0.00    -0.002 A 
ATOM      7  C5  OXE d   1       1.090   2.710  -0.842  0.00  0.00    -0.002 A 
ATOM      8  C6  OXE d   1       1.167   1.323  -0.770  0.00  0.00     0.003 A 
ENDROOT
TORSDOF 0
ENDMDL
