MODEL 1
REMARK minimizedAffinity -3.76162648
REMARK minimizedRMSD -1
REMARK  0 active torsions:
REMARK  status: ('A' for Active; 'I' for Inactive)
ROOT
ATOM      1  C2' OXE d   1       0.566  -1.368   0.137  0.00  0.00     0.078 C 
ATOM      2  C1' OXE d   1       2.198   0.908  -0.053  0.00  0.00     0.078 C 
ATOM      3  C1  OXE d   1       0.737   1.114   0.260  0.00  0.00    -0.078 A 
ATOM      4  C2  OXE d   1      -0.063  -0.002   0.305  0.00  0.00    -0.078 A 
ATOM      5  C3  OXE d   1      -1.407   0.127   0.644  0.00  0.00     0.003 A 
ATOM      6  C4  OXE d   1      -1.983   1.394   0.788  0.00  0.00    -0.002 A 
ATOM      7  C5  OXE d   1      -1.194   2.546   0.707  0.00  0.00    -0.002 A 
ATOM      8  C6  OXE d   1       0.173   2.422   0.486  0.00  0.00     0.003 A 
ENDROOT
TORSDOF 0
ENDMDL
