MODEL 1
REMARK minimizedAffinity -3.69296193
REMARK minimizedRMSD -1
REMARK  0 active torsions:
REMARK  status: ('A' for Active; 'I' for Inactive)
ROOT
ATOM      1  C2' OXE d   1       0.004  -0.896  -0.472  0.00  0.00     0.078 C 
ATOM      2  C1' OXE d   1      -1.982   0.450   0.985  0.00  0.00     0.078 C 
ATOM      3  C1  OXE d   1      -0.746   1.224   0.600  0.00  0.00    -0.078 A 
ATOM      4  C2  OXE d   1       0.241   0.545  -0.072  0.00  0.00    -0.078 A 
ATOM      5  C3  OXE d   1       1.378   1.225  -0.498  0.00  0.00     0.003 A 
ATOM      6  C4  OXE d   1       1.594   2.554  -0.115  0.00  0.00    -0.002 A 
ATOM      7  C5  OXE d   1       0.619   3.253   0.604  0.00  0.00    -0.002 A 
ATOM      8  C6  OXE d   1      -0.573   2.617   0.932  0.00  0.00     0.003 A 
ENDROOT
TORSDOF 0
ENDMDL
