MODEL 1
REMARK minimizedAffinity -5.727386
REMARK minimizedRMSD -1
REMARK  0 active torsions:
REMARK  status: ('A' for Active; 'I' for Inactive)
ROOT
ATOM      1  C2' OXE d   1      -2.059   1.059  -0.194  0.00  0.00     0.078 C 
ATOM      2  C1' OXE d   1       0.199  -0.603  -0.063  0.00  0.00     0.078 C 
ATOM      3  C1  OXE d   1       0.395   0.871   0.190  0.00  0.00    -0.078 A 
ATOM      4  C2  OXE d   1      -0.708   1.683   0.078  0.00  0.00    -0.078 A 
ATOM      5  C3  OXE d   1      -0.593   3.043   0.354  0.00  0.00     0.003 A 
ATOM      6  C4  OXE d   1       0.662   3.614   0.595  0.00  0.00    -0.002 A 
ATOM      7  C5  OXE d   1       1.805   2.810   0.675  0.00  0.00    -0.002 A 
ATOM      8  C6  OXE d   1       1.681   1.434   0.517  0.00  0.00     0.003 A 
ENDROOT
TORSDOF 0
ENDMDL
