MODEL 1
REMARK minimizedAffinity -4.48641729
REMARK minimizedRMSD -1
REMARK  0 active torsions:
REMARK  status: ('A' for Active; 'I' for Inactive)
ROOT
ATOM      1  C2' OXE d   1      -2.631  -0.005   1.207  0.00  0.00     0.078 C 
ATOM      2  C1' OXE d   1      -0.627  -1.480  -0.092  0.00  0.00     0.078 C 
ATOM      3  C1  OXE d   1      -0.397  -0.003   0.105  0.00  0.00    -0.078 A 
ATOM      4  C2  OXE d   1      -1.403   0.720   0.700  0.00  0.00    -0.078 A 
ATOM      5  C3  OXE d   1      -1.220   2.076   0.955  0.00  0.00     0.003 A 
ATOM      6  C4  OXE d   1      -0.086   2.741   0.474  0.00  0.00    -0.002 A 
ATOM      7  C5  OXE d   1       0.934   2.031  -0.170  0.00  0.00    -0.002 A 
ATOM      8  C6  OXE d   1       0.813   0.654  -0.324  0.00  0.00     0.003 A 
ENDROOT
TORSDOF 0
ENDMDL
