MODEL 1
REMARK minimizedAffinity -5.8826623
REMARK minimizedRMSD -1
REMARK  0 active torsions:
REMARK  status: ('A' for Active; 'I' for Inactive)
ROOT
ATOM      1  C2' OXE d   1       0.837  -0.534   0.017  0.00  0.00     0.078 C 
ATOM      2  C1' OXE d   1      -1.498   0.968   0.433  0.00  0.00     0.078 C 
ATOM      3  C1  OXE d   1      -0.194   1.715   0.306  0.00  0.00    -0.078 A 
ATOM      4  C2  OXE d   1       0.949   0.970   0.149  0.00  0.00    -0.078 A 
ATOM      5  C3  OXE d   1       2.172   1.611  -0.028  0.00  0.00     0.003 A 
ATOM      6  C4  OXE d   1       2.268   3.002   0.105  0.00  0.00    -0.002 A 
ATOM      7  C5  OXE d   1       1.121   3.777   0.305  0.00  0.00    -0.002 A 
ATOM      8  C6  OXE d   1      -0.120   3.154   0.365  0.00  0.00     0.003 A 
ENDROOT
TORSDOF 0
ENDMDL
