MODEL 1
REMARK minimizedAffinity -5.06359673
REMARK minimizedRMSD -1
REMARK  0 active torsions:
REMARK  status: ('A' for Active; 'I' for Inactive)
ROOT
ATOM      1  C2' OXE d   1       0.710   3.401   0.170  0.00  0.00     0.078 C 
ATOM      2  C1' OXE d   1       2.895   1.640   0.223  0.00  0.00     0.078 C 
ATOM      3  C1  OXE d   1       1.516   1.045   0.088  0.00  0.00    -0.078 A 
ATOM      4  C2  OXE d   1       0.449   1.911   0.110  0.00  0.00    -0.078 A 
ATOM      5  C3  OXE d   1      -0.841   1.419  -0.065  0.00  0.00     0.003 A 
ATOM      6  C4  OXE d   1      -1.074   0.040  -0.110  0.00  0.00    -0.002 A 
ATOM      7  C5  OXE d   1      -0.005  -0.862  -0.094  0.00  0.00    -0.002 A 
ATOM      8  C6  OXE d   1       1.296  -0.375  -0.038  0.00  0.00     0.003 A 
ENDROOT
TORSDOF 0
ENDMDL
