MODEL 1
REMARK minimizedAffinity -3.35085106
REMARK minimizedRMSD -1
REMARK  0 active torsions:
REMARK  status: ('A' for Active; 'I' for Inactive)
ROOT
ATOM      1  C2' OXE d   1       0.377  -1.432   0.248  0.00  0.00     0.078 C 
ATOM      2  C1' OXE d   1       2.495   0.403   0.417  0.00  0.00     0.078 C 
ATOM      3  C1  OXE d   1       1.088   0.944   0.480  0.00  0.00    -0.078 A 
ATOM      4  C2  OXE d   1       0.058   0.044   0.349  0.00  0.00    -0.078 A 
ATOM      5  C3  OXE d   1      -1.258   0.483   0.455  0.00  0.00     0.003 A 
ATOM      6  C4  OXE d   1      -1.545   1.851   0.539  0.00  0.00    -0.002 A 
ATOM      7  C5  OXE d   1      -0.511   2.789   0.633  0.00  0.00    -0.002 A 
ATOM      8  C6  OXE d   1       0.808   2.349   0.648  0.00  0.00     0.003 A 
ENDROOT
TORSDOF 0
ENDMDL
