MODEL 1
REMARK minimizedAffinity -4.70081949
REMARK minimizedRMSD -1
REMARK  0 active torsions:
REMARK  status: ('A' for Active; 'I' for Inactive)
ROOT
ATOM      1  C2' OXE d   1       0.501  -0.271  -0.362  0.00  0.00     0.078 C 
ATOM      2  C1' OXE d   1       3.018   0.645   0.477  0.00  0.00     0.078 C 
ATOM      3  C1  OXE d   1       2.021   1.670  -0.003  0.00  0.00    -0.078 A 
ATOM      4  C2  OXE d   1       0.809   1.208  -0.456  0.00  0.00    -0.078 A 
ATOM      5  C3  OXE d   1      -0.168   2.115  -0.858  0.00  0.00     0.003 A 
ATOM      6  C4  OXE d   1       0.129   3.481  -0.951  0.00  0.00    -0.002 A 
ATOM      7  C5  OXE d   1       1.371   3.968  -0.533  0.00  0.00    -0.002 A 
ATOM      8  C6  OXE d   1       2.312   3.082  -0.017  0.00  0.00     0.003 A 
ENDROOT
TORSDOF 0
ENDMDL
