MODEL 1
REMARK minimizedAffinity -6.19804478
REMARK minimizedRMSD -1
REMARK  0 active torsions:
REMARK  status: ('A' for Active; 'I' for Inactive)
ROOT
ATOM      1  C2' OXE d   1      -1.617   1.153   0.021  0.00  0.00     0.078 C 
ATOM      2  C1' OXE d   1       0.322  -0.817   0.508  0.00  0.00     0.078 C 
ATOM      3  C1  OXE d   1       0.785   0.615   0.402  0.00  0.00    -0.078 A 
ATOM      4  C2  OXE d   1      -0.165   1.566   0.116  0.00  0.00    -0.078 A 
ATOM      5  C3  OXE d   1       0.200   2.909   0.061  0.00  0.00     0.003 A 
ATOM      6  C4  OXE d   1       1.547   3.281   0.141  0.00  0.00    -0.002 A 
ATOM      7  C5  OXE d   1       2.535   2.323   0.392  0.00  0.00    -0.002 A 
ATOM      8  C6  OXE d   1       2.166   0.994   0.566  0.00  0.00     0.003 A 
ENDROOT
TORSDOF 0
ENDMDL
