MODEL 1
REMARK minimizedAffinity -4.00027227
REMARK minimizedRMSD -1
REMARK  0 active torsions:
REMARK  status: ('A' for Active; 'I' for Inactive)
ROOT
ATOM      1  C2' OXE d   1      -1.527  -4.180   0.174  0.00  0.00     0.078 C 
ATOM      2  C1' OXE d   1      -0.870  -4.077  -2.553  0.00  0.00     0.078 C 
ATOM      3  C1  OXE d   1      -0.320  -2.997  -1.656  0.00  0.00    -0.078 A 
ATOM      4  C2  OXE d   1      -0.685  -3.029  -0.331  0.00  0.00    -0.078 A 
ATOM      5  C3  OXE d   1      -0.162  -2.087   0.550  0.00  0.00     0.003 A 
ATOM      6  C4  OXE d   1       0.607  -1.019   0.073  0.00  0.00    -0.002 A 
ATOM      7  C5  OXE d   1       0.957  -0.945  -1.279  0.00  0.00    -0.002 A 
ATOM      8  C6  OXE d   1       0.538  -1.947  -2.148  0.00  0.00     0.003 A 
ENDROOT
TORSDOF 0
ENDMDL
