MODEL 1
REMARK minimizedAffinity 5.38590288
REMARK minimizedRMSD -1
REMARK  0 active torsions:
REMARK  status: ('A' for Active; 'I' for Inactive)
ROOT
ATOM      1  C   UNL d   1      -6.000   1.192  -3.696  0.00  0.00     0.020 A 
ATOM      2  C1  UNL d   1      -6.000   2.339  -4.489  0.00  0.00     0.020 A 
ATOM      3  C2  UNL d   1      -5.872   3.597  -3.897  0.00  0.00     0.034 A 
ATOM      4  C3  UNL d   1      -5.744   3.712  -2.508  0.00  0.00     0.017 A 
ATOM      5  C4  UNL d   1      -5.744   2.560  -1.713  0.00  0.00     0.017 A 
ATOM      6  C5  UNL d   1      -5.872   1.303  -2.311  0.00  0.00     0.034 A 
ATOM      7 Cl   UNL d   1      -5.590   2.621   0.008  0.00  0.00    -0.070 Cl
ATOM      8 Cl1  UNL d   1      -5.589   5.299  -1.844  0.00  0.00    -0.070 Cl
ENDROOT
TORSDOF 0
ENDMDL
