MODEL 1
REMARK minimizedAffinity 0.0160429981
REMARK minimizedRMSD -1
REMARK  0 active torsions:
REMARK  status: ('A' for Active; 'I' for Inactive)
ROOT
ATOM      1  C   UNL d   1      -5.990   2.359  -5.164  0.00  0.00     0.020 A 
ATOM      2  C1  UNL d   1      -5.989   1.145  -4.478  0.00  0.00     0.020 A 
ATOM      3  C2  UNL d   1      -5.991   1.132  -3.082  0.00  0.00     0.034 A 
ATOM      4  C3  UNL d   1      -5.994   2.335  -2.367  0.00  0.00     0.017 A 
ATOM      5  C4  UNL d   1      -5.995   3.553  -3.057  0.00  0.00     0.017 A 
ATOM      6  C5  UNL d   1      -5.993   3.560  -4.455  0.00  0.00     0.034 A 
ATOM      7 Cl   UNL d   1      -5.999   5.078  -2.244  0.00  0.00    -0.070 Cl
ATOM      8 Cl1  UNL d   1      -5.997   2.245  -0.642  0.00  0.00    -0.070 Cl
ENDROOT
TORSDOF 0
ENDMDL
