MODEL 1
REMARK minimizedAffinity 1.40299344
REMARK minimizedRMSD -1
REMARK  0 active torsions:
REMARK  status: ('A' for Active; 'I' for Inactive)
ROOT
ATOM      1  C   UNL d   1      -5.994   1.554  -4.116  0.00  0.00     0.020 A 
ATOM      2  C1  UNL d   1      -5.200   2.391  -4.900  0.00  0.00     0.020 A 
ATOM      3  C2  UNL d   1      -4.412   3.372  -4.295  0.00  0.00     0.034 A 
ATOM      4  C3  UNL d   1      -4.416   3.519  -2.903  0.00  0.00     0.017 A 
ATOM      5  C4  UNL d   1      -5.213   2.678  -2.118  0.00  0.00     0.017 A 
ATOM      6  C5  UNL d   1      -6.000   1.697  -2.728  0.00  0.00     0.034 A 
ATOM      7 Cl   UNL d   1      -5.270   2.799  -0.395  0.00  0.00    -0.070 Cl
ATOM      8 Cl1  UNL d   1      -3.416   4.754  -2.223  0.00  0.00    -0.070 Cl
ENDROOT
TORSDOF 0
ENDMDL
