MODEL 1
REMARK minimizedAffinity 8.15970039
REMARK minimizedRMSD -1
REMARK  0 active torsions:
REMARK  status: ('A' for Active; 'I' for Inactive)
ROOT
ATOM      1  C   UNL d   1      -4.832   4.373  -3.265  0.00  0.00     0.020 A 
ATOM      2  C1  UNL d   1      -4.827   4.060  -4.624  0.00  0.00     0.020 A 
ATOM      3  C2  UNL d   1      -5.188   2.779  -5.046  0.00  0.00     0.034 A 
ATOM      4  C3  UNL d   1      -5.555   1.806  -4.108  0.00  0.00     0.017 A 
ATOM      5  C4  UNL d   1      -5.559   2.122  -2.745  0.00  0.00     0.017 A 
ATOM      6  C5  UNL d   1      -5.197   3.406  -2.328  0.00  0.00     0.034 A 
ATOM      7 Cl   UNL d   1      -6.000   0.975  -1.529  0.00  0.00    -0.070 Cl
ATOM      8 Cl1  UNL d   1      -5.990   0.242  -4.701  0.00  0.00    -0.070 Cl
ENDROOT
TORSDOF 0
ENDMDL
