MODEL 1
REMARK minimizedAffinity 10.1256847
REMARK minimizedRMSD -1
REMARK  0 active torsions:
REMARK  status: ('A' for Active; 'I' for Inactive)
ROOT
ATOM      1  C   UNL d   1      -0.993  -3.847  -1.899  0.00  0.00     0.020 A 
ATOM      2  C1  UNL d   1      -0.022  -4.737  -1.439  0.00  0.00     0.020 A 
ATOM      3  C2  UNL d   1       1.097  -4.257  -0.755  0.00  0.00     0.034 A 
ATOM      4  C3  UNL d   1       1.249  -2.884  -0.529  0.00  0.00     0.017 A 
ATOM      5  C4  UNL d   1       0.274  -1.992  -0.991  0.00  0.00     0.017 A 
ATOM      6  C5  UNL d   1      -0.845  -2.478  -1.675  0.00  0.00     0.034 A 
ATOM      7 Cl   UNL d   1       0.392  -0.285  -0.750  0.00  0.00    -0.070 Cl
ATOM      8 Cl1  UNL d   1       2.657  -2.361   0.324  0.00  0.00    -0.070 Cl
ENDROOT
TORSDOF 0
ENDMDL
