MODEL 1
REMARK minimizedAffinity -1.82765305
REMARK minimizedRMSD -1
REMARK  0 active torsions:
REMARK  status: ('A' for Active; 'I' for Inactive)
ROOT
ATOM      1  C   UNL d   1      -5.549   3.817  -1.137  0.00  0.00     0.020 A 
ATOM      2  C1  UNL d   1      -5.870   2.472  -0.962  0.00  0.00     0.020 A 
ATOM      3  C2  UNL d   1      -5.999   1.634  -2.072  0.00  0.00     0.034 A 
ATOM      4  C3  UNL d   1      -5.806   2.141  -3.362  0.00  0.00     0.017 A 
ATOM      5  C4  UNL d   1      -5.484   3.492  -3.537  0.00  0.00     0.017 A 
ATOM      6  C5  UNL d   1      -5.356   4.326  -2.422  0.00  0.00     0.034 A 
ATOM      7 Cl   UNL d   1      -5.231   4.189  -5.098  0.00  0.00    -0.070 Cl
ATOM      8 Cl1  UNL d   1      -5.981   1.048  -4.689  0.00  0.00    -0.070 Cl
ENDROOT
TORSDOF 0
ENDMDL
