MODEL 1
REMARK minimizedAffinity 2.39382577
REMARK minimizedRMSD -1
REMARK  0 active torsions:
REMARK  status: ('A' for Active; 'I' for Inactive)
ROOT
ATOM      1  C   UNL d   1      -5.616   4.004  -2.110  0.00  0.00     0.020 A 
ATOM      2  C1  UNL d   1      -6.000   2.700  -1.798  0.00  0.00     0.020 A 
ATOM      3  C2  UNL d   1      -6.000   1.716  -2.789  0.00  0.00     0.034 A 
ATOM      4  C3  UNL d   1      -5.616   2.034  -4.097  0.00  0.00     0.017 A 
ATOM      5  C4  UNL d   1      -5.230   3.343  -4.409  0.00  0.00     0.017 A 
ATOM      6  C5  UNL d   1      -5.232   4.324  -3.413  0.00  0.00     0.034 A 
ATOM      7 Cl   UNL d   1      -4.743   3.811  -6.000  0.00  0.00    -0.070 Cl
ATOM      8 Cl1  UNL d   1      -5.640   0.768  -5.272  0.00  0.00    -0.070 Cl
ENDROOT
TORSDOF 0
ENDMDL
