MODEL 1
REMARK minimizedAffinity 4.18290234
REMARK minimizedRMSD -1
REMARK  0 active torsions:
REMARK  status: ('A' for Active; 'I' for Inactive)
ROOT
ATOM      1  C   UNL d   1      -5.986   4.167  -2.921  0.00  0.00     0.020 A 
ATOM      2  C1  UNL d   1      -5.988   4.142  -4.315  0.00  0.00     0.020 A 
ATOM      3  C2  UNL d   1      -5.992   2.920  -4.991  0.00  0.00     0.034 A 
ATOM      4  C3  UNL d   1      -5.994   1.718  -4.274  0.00  0.00     0.017 A 
ATOM      5  C4  UNL d   1      -5.992   1.745  -2.874  0.00  0.00     0.017 A 
ATOM      6  C5  UNL d   1      -5.988   2.971  -2.202  0.00  0.00     0.034 A 
ATOM      7 Cl   UNL d   1      -5.995   0.304  -1.920  0.00  0.00    -0.070 Cl
ATOM      8 Cl1  UNL d   1      -6.000   0.244  -5.175  0.00  0.00    -0.070 Cl
ENDROOT
TORSDOF 0
ENDMDL
