MODEL 1
REMARK minimizedAffinity 12.2100267
REMARK minimizedRMSD -1
REMARK  0 active torsions:
REMARK  status: ('A' for Active; 'I' for Inactive)
ROOT
ATOM      1  C   UNL d   1       5.600  -4.302  -0.624  0.00  0.00     0.020 A 
ATOM      2  C1  UNL d   1       5.584  -2.908  -0.630  0.00  0.00     0.020 A 
ATOM      3  C2  UNL d   1       5.256  -2.218  -1.799  0.00  0.00     0.034 A 
ATOM      4  C3  UNL d   1       4.942  -2.923  -2.967  0.00  0.00     0.017 A 
ATOM      5  C4  UNL d   1       4.958  -4.322  -2.960  0.00  0.00     0.017 A 
ATOM      6  C5  UNL d   1       5.287  -5.008  -1.787  0.00  0.00     0.034 A 
ATOM      7 Cl   UNL d   1       4.582  -5.260  -4.363  0.00  0.00    -0.070 Cl
ATOM      8 Cl1  UNL d   1       4.545  -2.005  -4.377  0.00  0.00    -0.070 Cl
ENDROOT
TORSDOF 0
ENDMDL
