MODEL 1
REMARK minimizedAffinity -5.56440163
REMARK minimizedRMSD -1
REMARK  0 active torsions:
REMARK  status: ('A' for Active; 'I' for Inactive)
ROOT
ATOM      1  C   UNL d   1      -3.487   4.882  -1.635  0.00  0.00    -0.002 A 
ATOM      2  C1  UNL d   1      -3.241   5.984  -0.829  0.00  0.00     0.010 A 
ATOM      3  C2  UNL d   1      -2.222   5.954   0.124  0.00  0.00     0.041 A 
ATOM      4  C3  UNL d   1      -1.444   4.786   0.254  0.00  0.00    -0.075 A 
ATOM      5  S   UNL d   1      -0.142   4.521   1.352  0.00  0.00     0.015 SA
ATOM      6  C4  UNL d   1       0.120   2.938   0.777  0.00  0.00     0.022 A 
ATOM      7  C5  UNL d   1      -0.756   2.604  -0.229  0.00  0.00     0.026 A 
ATOM      8  C6  UNL d   1      -1.672   3.663  -0.547  0.00  0.00    -0.082 A 
ATOM      9  C7  UNL d   1      -2.714   3.725  -1.503  0.00  0.00     0.045 A 
ENDROOT
TORSDOF 0
ENDMDL
