MODEL 1
REMARK minimizedAffinity -1.3370285
REMARK minimizedRMSD -1
REMARK  0 active torsions:
REMARK  status: ('A' for Active; 'I' for Inactive)
ROOT
ATOM      1  C   UNL d   1      -0.574   0.055  -0.833  0.00  0.00    -0.002 A 
ATOM      2  C1  UNL d   1      -0.100  -0.504   0.346  0.00  0.00     0.010 A 
ATOM      3  C2  UNL d   1       0.768   0.211   1.173  0.00  0.00     0.041 A 
ATOM      4  C3  UNL d   1       1.153   1.512   0.793  0.00  0.00    -0.075 A 
ATOM      5  S   UNL d   1       2.206   2.576   1.649  0.00  0.00     0.015 SA
ATOM      6  C4  UNL d   1       2.051   3.798   0.471  0.00  0.00     0.022 A 
ATOM      7  C5  UNL d   1       1.220   3.420  -0.557  0.00  0.00     0.026 A 
ATOM      8  C6  UNL d   1       0.689   2.097  -0.389  0.00  0.00    -0.082 A 
ATOM      9  C7  UNL d   1      -0.189   1.345  -1.206  0.00  0.00     0.045 A 
ENDROOT
TORSDOF 0
ENDMDL
