MODEL 1
REMARK minimizedAffinity -3.24101186
REMARK minimizedRMSD -1
REMARK  0 active torsions:
REMARK  status: ('A' for Active; 'I' for Inactive)
ROOT
ATOM      1  C   UNL d   1      -1.160  -0.984   0.023  0.00  0.00    -0.002 A 
ATOM      2  C1  UNL d   1      -0.094  -0.991  -0.866  0.00  0.00     0.010 A 
ATOM      3  C2  UNL d   1       0.405   0.206  -1.384  0.00  0.00     0.041 A 
ATOM      4  C3  UNL d   1      -0.189   1.420  -0.989  0.00  0.00    -0.075 A 
ATOM      5  S   UNL d   1       0.256   3.008  -1.493  0.00  0.00     0.015 SA
ATOM      6  C4  UNL d   1      -0.957   3.732  -0.540  0.00  0.00     0.022 A 
ATOM      7  C5  UNL d   1      -1.693   2.800   0.152  0.00  0.00     0.026 A 
ATOM      8  C6  UNL d   1      -1.262   1.452  -0.094  0.00  0.00    -0.082 A 
ATOM      9  C7  UNL d   1      -1.746   0.223   0.413  0.00  0.00     0.045 A 
ENDROOT
TORSDOF 0
ENDMDL
