MODEL 1
REMARK minimizedAffinity -1.36830604
REMARK minimizedRMSD -1
REMARK  0 active torsions:
REMARK  status: ('A' for Active; 'I' for Inactive)
ROOT
ATOM      1  C   UNL d   1      -2.223   0.230   1.159  0.00  0.00    -0.002 A 
ATOM      2  C1  UNL d   1      -2.297   1.542   0.712  0.00  0.00     0.010 A 
ATOM      3  C2  UNL d   1      -1.502   1.975  -0.352  0.00  0.00     0.041 A 
ATOM      4  C3  UNL d   1      -0.625   1.059  -0.965  0.00  0.00    -0.075 A 
ATOM      5  S   UNL d   1       0.442   1.365  -2.284  0.00  0.00     0.015 SA
ATOM      6  C4  UNL d   1       1.020  -0.238  -2.286  0.00  0.00     0.022 A 
ATOM      7  C5  UNL d   1       0.424  -1.002  -1.310  0.00  0.00     0.026 A 
ATOM      8  C6  UNL d   1      -0.534  -0.267  -0.533  0.00  0.00    -0.082 A 
ATOM      9  C7  UNL d   1      -1.352  -0.676   0.548  0.00  0.00     0.045 A 
ENDROOT
TORSDOF 0
ENDMDL
