MODEL 1
REMARK minimizedAffinity 2.27468085
REMARK minimizedRMSD -1
REMARK  0 active torsions:
REMARK  status: ('A' for Active; 'I' for Inactive)
ROOT
ATOM      1  C   UNL d   1      -1.211  -1.278   0.361  0.00  0.00    -0.002 A 
ATOM      2  C1  UNL d   1      -0.214  -1.379  -0.599  0.00  0.00     0.010 A 
ATOM      3  C2  UNL d   1       0.447  -0.238  -1.059  0.00  0.00     0.041 A 
ATOM      4  C3  UNL d   1       0.085   1.018  -0.532  0.00  0.00    -0.075 A 
ATOM      5  S   UNL d   1       0.758   2.551  -0.945  0.00  0.00     0.015 SA
ATOM      6  C4  UNL d   1      -0.263   3.375   0.143  0.00  0.00     0.022 A 
ATOM      7  C5  UNL d   1      -1.102   2.517   0.813  0.00  0.00     0.026 A 
ATOM      8  C6  UNL d   1      -0.915   1.144   0.435  0.00  0.00    -0.082 A 
ATOM      9  C7  UNL d   1      -1.567  -0.031   0.881  0.00  0.00     0.045 A 
ENDROOT
TORSDOF 0
ENDMDL
