MODEL 1
REMARK minimizedAffinity -2.67186332
REMARK minimizedRMSD -1
REMARK  0 active torsions:
REMARK  status: ('A' for Active; 'I' for Inactive)
ROOT
ATOM      1  C   UNL d   1      -0.822  -1.828   0.594  0.00  0.00    -0.002 A 
ATOM      2  C1  UNL d   1      -0.235  -1.979  -0.654  0.00  0.00     0.010 A 
ATOM      3  C2  UNL d   1       0.078  -0.862  -1.432  0.00  0.00     0.041 A 
ATOM      4  C3  UNL d   1      -0.209   0.422  -0.928  0.00  0.00    -0.075 A 
ATOM      5  S   UNL d   1       0.087   1.933  -1.702  0.00  0.00     0.015 SA
ATOM      6  C4  UNL d   1      -0.557   2.815  -0.394  0.00  0.00     0.022 A 
ATOM      7  C5  UNL d   1      -0.993   1.992   0.617  0.00  0.00     0.026 A 
ATOM      8  C6  UNL d   1      -0.799   0.599   0.327  0.00  0.00    -0.082 A 
ATOM      9  C7  UNL d   1      -1.106  -0.553   1.091  0.00  0.00     0.045 A 
ENDROOT
TORSDOF 0
ENDMDL
