MODEL 1
REMARK minimizedAffinity -4.28429794
REMARK minimizedRMSD -1
REMARK  0 active torsions:
REMARK  status: ('A' for Active; 'I' for Inactive)
ROOT
ATOM      1  C   UNL d   1      -0.739  -1.878  -0.602  0.00  0.00    -0.002 A 
ATOM      2  C1  UNL d   1      -1.398  -1.419   0.530  0.00  0.00     0.010 A 
ATOM      3  C2  UNL d   1      -1.412  -0.058   0.841  0.00  0.00     0.041 A 
ATOM      4  C3  UNL d   1      -0.747   0.843  -0.013  0.00  0.00    -0.075 A 
ATOM      5  S   UNL d   1      -0.631   2.554   0.168  0.00  0.00     0.015 SA
ATOM      6  C4  UNL d   1       0.295   2.716  -1.253  0.00  0.00     0.022 A 
ATOM      7  C5  UNL d   1       0.520   1.505  -1.863  0.00  0.00     0.026 A 
ATOM      8  C6  UNL d   1      -0.077   0.405  -1.159  0.00  0.00    -0.082 A 
ATOM      9  C7  UNL d   1      -0.081  -0.981  -1.447  0.00  0.00     0.045 A 
ENDROOT
TORSDOF 0
ENDMDL
