MODEL 1
REMARK minimizedAffinity -2.93202829
REMARK minimizedRMSD -1
REMARK  0 active torsions:
REMARK  status: ('A' for Active; 'I' for Inactive)
ROOT
ATOM      1  C   UNL d   1      -1.065   4.957   2.359  0.00  0.00    -0.002 A 
ATOM      2  C1  UNL d   1      -1.639   4.204   1.344  0.00  0.00     0.010 A 
ATOM      3  C2  UNL d   1      -0.840   3.460   0.473  0.00  0.00     0.041 A 
ATOM      4  C3  UNL d   1       0.558   3.484   0.642  0.00  0.00    -0.075 A 
ATOM      5  S   UNL d   1       1.734   2.651  -0.304  0.00  0.00     0.015 SA
ATOM      6  C4  UNL d   1       3.026   3.274   0.618  0.00  0.00     0.022 A 
ATOM      7  C5  UNL d   1       2.589   4.099   1.626  0.00  0.00     0.026 A 
ATOM      8  C6  UNL d   1       1.159   4.234   1.658  0.00  0.00    -0.082 A 
ATOM      9  C7  UNL d   1       0.323   4.978   2.524  0.00  0.00     0.045 A 
ENDROOT
TORSDOF 0
ENDMDL
