MODEL 1
REMARK minimizedAffinity -2.55888987
REMARK minimizedRMSD -1
REMARK  0 active torsions:
REMARK  status: ('A' for Active; 'I' for Inactive)
ROOT
ATOM      1  C   UNL d   1      -1.826  -1.317   0.861  0.00  0.00    -0.002 A 
ATOM      2  C1  UNL d   1      -0.555  -1.635   0.402  0.00  0.00     0.010 A 
ATOM      3  C2  UNL d   1       0.367  -0.628   0.111  0.00  0.00     0.041 A 
ATOM      4  C3  UNL d   1      -0.012   0.717   0.293  0.00  0.00    -0.075 A 
ATOM      5  S   UNL d   1       0.951   2.117   0.003  0.00  0.00     0.015 SA
ATOM      6  C4  UNL d   1      -0.301   3.169   0.482  0.00  0.00     0.022 A 
ATOM      7  C5  UNL d   1      -1.433   2.486   0.857  0.00  0.00     0.026 A 
ATOM      8  C6  UNL d   1      -1.285   1.062   0.755  0.00  0.00    -0.082 A 
ATOM      9  C7  UNL d   1      -2.198   0.018   1.040  0.00  0.00     0.045 A 
ENDROOT
TORSDOF 0
ENDMDL
