MODEL 1
REMARK minimizedAffinity -1.91784024
REMARK minimizedRMSD -1
REMARK  0 active torsions:
REMARK  status: ('A' for Active; 'I' for Inactive)
ROOT
ATOM      1  C   UNL d   1       0.886   2.998  -0.037  0.00  0.00    -0.002 A 
ATOM      2  C1  UNL d   1       0.345   2.639  -1.263  0.00  0.00     0.010 A 
ATOM      3  C2  UNL d   1      -0.305   1.414  -1.421  0.00  0.00     0.041 A 
ATOM      4  C3  UNL d   1      -0.405   0.548  -0.314  0.00  0.00    -0.075 A 
ATOM      5  S   UNL d   1      -1.158  -1.003  -0.272  0.00  0.00     0.015 SA
ATOM      6  C4  UNL d   1      -0.779  -1.224   1.375  0.00  0.00     0.022 A 
ATOM      7  C5  UNL d   1      -0.096  -0.152   1.896  0.00  0.00     0.026 A 
ATOM      8  C6  UNL d   1       0.131   0.888   0.931  0.00  0.00    -0.082 A 
ATOM      9  C7  UNL d   1       0.785   2.137   1.058  0.00  0.00     0.045 A 
ENDROOT
TORSDOF 0
ENDMDL
