MODEL 1
REMARK minimizedAffinity -3.30587244
REMARK minimizedRMSD -1
REMARK  0 active torsions:
REMARK  status: ('A' for Active; 'I' for Inactive)
ROOT
ATOM      1  O1  BZF d   1       1.422   0.446  -1.267  0.00  0.00    -0.204 OA
ATOM      2  C2  BZF d   1       0.795   1.584  -1.737  0.00  0.00     0.174 A 
ATOM      3  C3  BZF d   1       0.036   2.143  -0.773  0.00  0.00    -0.012 A 
ATOM      4  C3A BZF d   1       0.271   1.354   0.397  0.00  0.00    -0.107 A 
ATOM      5  C4  BZF d   1      -0.187   1.421   1.682  0.00  0.00     0.055 A 
ATOM      6  C5  BZF d   1       0.178   0.455   2.565  0.00  0.00    -0.016 A 
ATOM      7  C6  BZF d   1       0.995  -0.594   2.195  0.00  0.00     0.022 A 
ATOM      8  C7  BZF d   1       1.478  -0.700   0.934  0.00  0.00     0.029 A 
ATOM      9  C7A BZF d   1       1.137   0.293   0.048  0.00  0.00     0.058 A 
ENDROOT
TORSDOF 0
ENDMDL
