MODEL 1
REMARK minimizedAffinity 6.01927376
REMARK minimizedRMSD -1
REMARK  0 active torsions:
REMARK  status: ('A' for Active; 'I' for Inactive)
ROOT
ATOM      1  O1  BZF d   1       0.281  -0.807   0.050  0.00  0.00    -0.204 OA
ATOM      2  C2  BZF d   1      -0.162   0.048  -0.940  0.00  0.00     0.174 A 
ATOM      3  C3  BZF d   1      -0.412   1.274  -0.437  0.00  0.00    -0.012 A 
ATOM      4  C3A BZF d   1      -0.019   1.204   0.937  0.00  0.00    -0.107 A 
ATOM      5  C4  BZF d   1      -0.012   2.110   1.959  0.00  0.00     0.055 A 
ATOM      6  C5  BZF d   1       0.365   1.703   3.200  0.00  0.00    -0.016 A 
ATOM      7  C6  BZF d   1       0.736   0.399   3.455  0.00  0.00     0.022 A 
ATOM      8  C7  BZF d   1       0.750  -0.534   2.472  0.00  0.00     0.029 A 
ATOM      9  C7A BZF d   1       0.401  -0.118   1.210  0.00  0.00     0.058 A 
ENDROOT
TORSDOF 0
ENDMDL
