MODEL 1
REMARK minimizedAffinity 4.45382833
REMARK minimizedRMSD -1
REMARK  0 active torsions:
REMARK  status: ('A' for Active; 'I' for Inactive)
ROOT
ATOM      1  O1  BZF d   1       1.165   2.089   3.238  0.00  0.00    -0.204 OA
ATOM      2  C2  BZF d   1       0.764   3.218   2.550  0.00  0.00     0.174 A 
ATOM      3  C3  BZF d   1       0.580   2.941   1.243  0.00  0.00    -0.012 A 
ATOM      4  C3A BZF d   1       0.794   1.532   1.123  0.00  0.00    -0.107 A 
ATOM      5  C4  BZF d   1       0.739   0.660   0.073  0.00  0.00     0.055 A 
ATOM      6  C5  BZF d   1       1.074  -0.641   0.277  0.00  0.00    -0.016 A 
ATOM      7  C6  BZF d   1       1.473  -1.103   1.514  0.00  0.00     0.022 A 
ATOM      8  C7  BZF d   1       1.539  -0.277   2.586  0.00  0.00     0.029 A 
ATOM      9  C7A BZF d   1       1.169   1.031   2.391  0.00  0.00     0.058 A 
ENDROOT
TORSDOF 0
ENDMDL
