MODEL 1
REMARK minimizedAffinity 1.60561526
REMARK minimizedRMSD -1
REMARK  0 active torsions:
REMARK  status: ('A' for Active; 'I' for Inactive)
ROOT
ATOM      1  O1  BZF d   1      -0.373   1.600   0.403  0.00  0.00    -0.204 OA
ATOM      2  C2  BZF d   1      -0.311   0.247   0.128  0.00  0.00     0.174 A 
ATOM      3  C3  BZF d   1       0.620  -0.355   0.895  0.00  0.00    -0.012 A 
ATOM      4  C3A BZF d   1       1.111   0.669   1.765  0.00  0.00    -0.107 A 
ATOM      5  C4  BZF d   1       2.039   0.686   2.766  0.00  0.00     0.055 A 
ATOM      6  C5  BZF d   1       2.338   1.866   3.371  0.00  0.00    -0.016 A 
ATOM      7  C6  BZF d   1       1.732   3.047   2.997  0.00  0.00     0.022 A 
ATOM      8  C7  BZF d   1       0.801   3.080   2.012  0.00  0.00     0.029 A 
ATOM      9  C7A BZF d   1       0.473   1.884   1.422  0.00  0.00     0.058 A 
ENDROOT
TORSDOF 0
ENDMDL
