MODEL 1
REMARK minimizedAffinity -4.66887283
REMARK minimizedRMSD -1
REMARK  0 active torsions:
REMARK  status: ('A' for Active; 'I' for Inactive)
ROOT
ATOM      1  O1  BZF d   1       0.364   2.986   2.561  0.00  0.00    -0.204 OA
ATOM      2  C2  BZF d   1      -0.036   3.862   1.571  0.00  0.00     0.174 A 
ATOM      3  C3  BZF d   1       0.094   3.298   0.353  0.00  0.00    -0.012 A 
ATOM      4  C3A BZF d   1       0.520   1.955   0.603  0.00  0.00    -0.107 A 
ATOM      5  C4  BZF d   1       0.803   0.894  -0.208  0.00  0.00     0.055 A 
ATOM      6  C5  BZF d   1       1.265  -0.257   0.347  0.00  0.00    -0.016 A 
ATOM      7  C6  BZF d   1       1.459  -0.380   1.708  0.00  0.00     0.022 A 
ATOM      8  C7  BZF d   1       1.186   0.644   2.553  0.00  0.00     0.029 A 
ATOM      9  C7A BZF d   1       0.689   1.797   1.998  0.00  0.00     0.058 A 
ENDROOT
TORSDOF 0
ENDMDL
