MODEL 1
REMARK minimizedAffinity 0.686909914
REMARK minimizedRMSD -1
REMARK  0 active torsions:
REMARK  status: ('A' for Active; 'I' for Inactive)
ROOT
ATOM      1  O1  BZF d   1       0.264   1.281   0.351  0.00  0.00    -0.204 OA
ATOM      2  C2  BZF d   1       0.742   0.519   1.399  0.00  0.00     0.174 A 
ATOM      3  C3  BZF d   1       1.460   1.277   2.253  0.00  0.00    -0.012 A 
ATOM      4  C3A BZF d   1       1.350   2.613   1.754  0.00  0.00    -0.107 A 
ATOM      5  C4  BZF d   1       1.833   3.817   2.179  0.00  0.00     0.055 A 
ATOM      6  C5  BZF d   1       1.606   4.924   1.424  0.00  0.00    -0.016 A 
ATOM      7  C6  BZF d   1       0.906   4.863   0.238  0.00  0.00     0.022 A 
ATOM      8  C7  BZF d   1       0.402   3.692  -0.223  0.00  0.00     0.029 A 
ATOM      9  C7A BZF d   1       0.602   2.577   0.554  0.00  0.00     0.058 A 
ENDROOT
TORSDOF 0
ENDMDL
