MODEL 1
REMARK minimizedAffinity 0.864291072
REMARK minimizedRMSD -1
REMARK  0 active torsions:
REMARK  status: ('A' for Active; 'I' for Inactive)
ROOT
ATOM      1  O1  BZF d   1       2.124   1.471   2.872  0.00  0.00    -0.204 OA
ATOM      2  C2  BZF d   1       1.395   2.642   2.944  0.00  0.00     0.174 A 
ATOM      3  C3  BZF d   1       0.585   2.768   1.873  0.00  0.00    -0.012 A 
ATOM      4  C3A BZF d   1       0.755   1.558   1.128  0.00  0.00    -0.107 A 
ATOM      5  C4  BZF d   1       0.206   1.083  -0.028  0.00  0.00     0.055 A 
ATOM      6  C5  BZF d   1       0.640  -0.104  -0.526  0.00  0.00    -0.016 A 
ATOM      7  C6  BZF d   1       1.624  -0.839   0.103  0.00  0.00     0.022 A 
ATOM      8  C7  BZF d   1       2.195  -0.411   1.255  0.00  0.00     0.029 A 
ATOM      9  C7A BZF d   1       1.735   0.772   1.778  0.00  0.00     0.058 A 
ENDROOT
TORSDOF 0
ENDMDL
