MODEL 1
REMARK minimizedAffinity -2.66319418
REMARK minimizedRMSD -1
REMARK  0 active torsions:
REMARK  status: ('A' for Active; 'I' for Inactive)
ROOT
ATOM      1  O1  BZF d   1       0.909   0.383  -0.408  0.00  0.00    -0.204 OA
ATOM      2  C2  BZF d   1       0.935  -0.597   0.565  0.00  0.00     0.174 A 
ATOM      3  C3  BZF d   1       0.700  -0.068   1.783  0.00  0.00    -0.012 A 
ATOM      4  C3A BZF d   1       0.424   1.316   1.545  0.00  0.00    -0.107 A 
ATOM      5  C4  BZF d   1       0.102   2.363   2.361  0.00  0.00     0.055 A 
ATOM      6  C5  BZF d   1      -0.031   3.603   1.823  0.00  0.00    -0.016 A 
ATOM      7  C6  BZF d   1       0.155   3.834   0.475  0.00  0.00     0.022 A 
ATOM      8  C7  BZF d   1       0.471   2.826  -0.374  0.00  0.00     0.029 A 
ATOM      9  C7A BZF d   1       0.574   1.566   0.162  0.00  0.00     0.058 A 
ENDROOT
TORSDOF 0
ENDMDL
