MODEL 1
REMARK minimizedAffinity 2.73820329
REMARK minimizedRMSD -1
REMARK  0 active torsions:
REMARK  status: ('A' for Active; 'I' for Inactive)
ROOT
ATOM      1  O1  BZF d   1      -0.914   1.263   2.258  0.00  0.00    -0.204 OA
ATOM      2  C2  BZF d   1       0.414   1.149   1.896  0.00  0.00     0.174 A 
ATOM      3  C3  BZF d   1       0.528   0.658   0.644  0.00  0.00    -0.012 A 
ATOM      4  C3A BZF d   1      -0.814   0.540   0.163  0.00  0.00    -0.107 A 
ATOM      5  C4  BZF d   1      -1.354   0.125  -1.021  0.00  0.00     0.055 A 
ATOM      6  C5  BZF d   1      -2.705   0.061  -1.144  0.00  0.00    -0.016 A 
ATOM      7  C6  BZF d   1      -3.546   0.398  -0.104  0.00  0.00     0.022 A 
ATOM      8  C7  BZF d   1      -3.057   0.821   1.088  0.00  0.00     0.029 A 
ATOM      9  C7A BZF d   1      -1.692   0.918   1.205  0.00  0.00     0.058 A 
ENDROOT
TORSDOF 0
ENDMDL
