MODEL 1
REMARK minimizedAffinity -4.89861155
REMARK minimizedRMSD -1
REMARK  0 active torsions:
REMARK  status: ('A' for Active; 'I' for Inactive)
ROOT
ATOM      1  C2' OXE d   1       2.705  -1.152  -0.124  0.00  0.00     0.078 C 
ATOM      2  C1' OXE d   1       1.509  -0.641   2.364  0.00  0.00     0.078 C 
ATOM      3  C1  OXE d   1       0.709  -0.336   1.122  0.00  0.00    -0.078 A 
ATOM      4  C2  OXE d   1       1.319  -0.546  -0.091  0.00  0.00    -0.078 A 
ATOM      5  C3  OXE d   1       0.606  -0.333  -1.267  0.00  0.00     0.003 A 
ATOM      6  C4  OXE d   1      -0.672   0.238  -1.228  0.00  0.00    -0.002 A 
ATOM      7  C5  OXE d   1      -1.297   0.496  -0.003  0.00  0.00    -0.002 A 
ATOM      8  C6  OXE d   1      -0.638   0.176   1.179  0.00  0.00     0.003 A 
ENDROOT
TORSDOF 0
ENDMDL
