MODEL 1
REMARK minimizedAffinity -3.61320806
REMARK minimizedRMSD -1
REMARK  0 active torsions:
REMARK  status: ('A' for Active; 'I' for Inactive)
ROOT
ATOM      1  C2' OXE d   1      -0.333   0.755  -0.582  0.00  0.00     0.078 C 
ATOM      2  C1' OXE d   1      -2.246  -0.635   0.931  0.00  0.00     0.078 C 
ATOM      3  C1  OXE d   1      -0.820  -0.639   1.424  0.00  0.00    -0.078 A 
ATOM      4  C2  OXE d   1       0.117   0.004   0.652  0.00  0.00    -0.078 A 
ATOM      5  C3  OXE d   1       1.437   0.077   1.089  0.00  0.00     0.003 A 
ATOM      6  C4  OXE d   1       1.847  -0.628   2.226  0.00  0.00    -0.002 A 
ATOM      7  C5  OXE d   1       0.916  -1.323   3.005  0.00  0.00    -0.002 A 
ATOM      8  C6  OXE d   1      -0.426  -1.303   2.642  0.00  0.00     0.003 A 
ENDROOT
TORSDOF 0
ENDMDL
