MODEL 1
REMARK minimizedAffinity -5.21651411
REMARK minimizedRMSD -1
REMARK  0 active torsions:
REMARK  status: ('A' for Active; 'I' for Inactive)
ROOT
ATOM      1  C2' OXE d   1       0.380  -0.019  -1.168  0.00  0.00     0.078 C 
ATOM      2  C1' OXE d   1       2.383  -1.835  -0.413  0.00  0.00     0.078 C 
ATOM      3  C1  OXE d   1       1.477  -1.298   0.667  0.00  0.00    -0.078 A 
ATOM      4  C2  OXE d   1       0.529  -0.375   0.296  0.00  0.00    -0.078 A 
ATOM      5  C3  OXE d   1      -0.368   0.111   1.243  0.00  0.00     0.003 A 
ATOM      6  C4  OXE d   1      -0.216  -0.215   2.596  0.00  0.00    -0.002 A 
ATOM      7  C5  OXE d   1       0.768  -1.124   3.001  0.00  0.00    -0.002 A 
ATOM      8  C6  OXE d   1       1.593  -1.706   2.045  0.00  0.00     0.003 A 
ENDROOT
TORSDOF 0
ENDMDL
