MODEL 1
REMARK minimizedAffinity -2.74122095
REMARK minimizedRMSD -1
REMARK  0 active torsions:
REMARK  status: ('A' for Active; 'I' for Inactive)
ROOT
ATOM      1  C2' OXE d   1       2.577  -1.727  -0.716  0.00  0.00     0.078 C 
ATOM      2  C1' OXE d   1       1.600  -0.725   1.717  0.00  0.00     0.078 C 
ATOM      3  C1  OXE d   1       0.885  -0.320   0.452  0.00  0.00    -0.078 A 
ATOM      4  C2  OXE d   1       1.399  -0.777  -0.738  0.00  0.00    -0.078 A 
ATOM      5  C3  OXE d   1       0.746  -0.478  -1.930  0.00  0.00     0.003 A 
ATOM      6  C4  OXE d   1      -0.337   0.409  -1.943  0.00  0.00    -0.002 A 
ATOM      7  C5  OXE d   1      -0.852   0.918  -0.745  0.00  0.00    -0.002 A 
ATOM      8  C6  OXE d   1      -0.279   0.530   0.461  0.00  0.00     0.003 A 
ENDROOT
TORSDOF 0
ENDMDL
