MODEL 1
REMARK minimizedAffinity -3.30354643
REMARK minimizedRMSD -1
REMARK  0 active torsions:
REMARK  status: ('A' for Active; 'I' for Inactive)
ROOT
ATOM      1  C2' OXE d   1      -1.194  -0.674   0.399  0.00  0.00     0.078 C 
ATOM      2  C1' OXE d   1       1.542  -0.085   0.616  0.00  0.00     0.078 C 
ATOM      3  C1  OXE d   1       0.703   0.793  -0.277  0.00  0.00    -0.078 A 
ATOM      4  C2  OXE d   1      -0.626   0.470  -0.414  0.00  0.00    -0.078 A 
ATOM      5  C3  OXE d   1      -1.457   1.280  -1.183  0.00  0.00     0.003 A 
ATOM      6  C4  OXE d   1      -0.922   2.329  -1.939  0.00  0.00    -0.002 A 
ATOM      7  C5  OXE d   1       0.436   2.651  -1.845  0.00  0.00    -0.002 A 
ATOM      8  C6  OXE d   1       1.252   1.922  -0.988  0.00  0.00     0.003 A 
ENDROOT
TORSDOF 0
ENDMDL
