MODEL 1
REMARK minimizedAffinity -4.73871994
REMARK minimizedRMSD -1
REMARK  0 active torsions:
REMARK  status: ('A' for Active; 'I' for Inactive)
ROOT
ATOM      1  C2' OXE d   1       2.946  -1.577  -0.042  0.00  0.00     0.078 C 
ATOM      2  C1' OXE d   1       2.032  -1.718   2.608  0.00  0.00     0.078 C 
ATOM      3  C1  OXE d   1       1.082  -1.188   1.564  0.00  0.00    -0.078 A 
ATOM      4  C2  OXE d   1       1.553  -1.079   0.278  0.00  0.00    -0.078 A 
ATOM      5  C3  OXE d   1       0.700  -0.648  -0.734  0.00  0.00     0.003 A 
ATOM      6  C4  OXE d   1      -0.583  -0.179  -0.428  0.00  0.00    -0.002 A 
ATOM      7  C5  OXE d   1      -1.069  -0.244   0.882  0.00  0.00    -0.002 A 
ATOM      8  C6  OXE d   1      -0.266  -0.784   1.880  0.00  0.00     0.003 A 
ENDROOT
TORSDOF 0
ENDMDL
