MODEL 1
REMARK minimizedAffinity -3.85780478
REMARK minimizedRMSD -1
REMARK  0 active torsions:
REMARK  status: ('A' for Active; 'I' for Inactive)
ROOT
ATOM      1  C2' OXE d   1      -2.138  -0.031   1.226  0.00  0.00     0.078 C 
ATOM      2  C1' OXE d   1      -0.515   0.294  -1.041  0.00  0.00     0.078 C 
ATOM      3  C1  OXE d   1       0.162  -0.030   0.268  0.00  0.00    -0.078 A 
ATOM      4  C2  OXE d   1      -0.636  -0.141   1.381  0.00  0.00    -0.078 A 
ATOM      5  C3  OXE d   1      -0.069  -0.492   2.603  0.00  0.00     0.003 A 
ATOM      6  C4  OXE d   1       1.321  -0.581   2.740  0.00  0.00    -0.002 A 
ATOM      7  C5  OXE d   1       2.155  -0.433   1.627  0.00  0.00    -0.002 A 
ATOM      8  C6  OXE d   1       1.590  -0.199   0.378  0.00  0.00     0.003 A 
ENDROOT
TORSDOF 0
ENDMDL
