MODEL 1
REMARK minimizedAffinity -0.123322904
REMARK minimizedRMSD -1
REMARK  0 active torsions:
REMARK  status: ('A' for Active; 'I' for Inactive)
ROOT
ATOM      1  C2' OXE d   1       2.315  -0.744   0.491  0.00  0.00     0.078 C 
ATOM      2  C1' OXE d   1       0.313  -1.333   2.368  0.00  0.00     0.078 C 
ATOM      3  C1  OXE d   1      -0.094  -0.609   1.109  0.00  0.00    -0.078 A 
ATOM      4  C2  OXE d   1       0.900  -0.283   0.218  0.00  0.00    -0.078 A 
ATOM      5  C3  OXE d   1       0.572   0.336  -0.985  0.00  0.00     0.003 A 
ATOM      6  C4  OXE d   1      -0.738   0.768  -1.225  0.00  0.00    -0.002 A 
ATOM      7  C5  OXE d   1      -1.759   0.482  -0.312  0.00  0.00    -0.002 A 
ATOM      8  C6  OXE d   1      -1.462  -0.241   0.837  0.00  0.00     0.003 A 
ENDROOT
TORSDOF 0
ENDMDL
