MODEL 1
REMARK minimizedAffinity 14.880619
REMARK minimizedRMSD -1
REMARK  0 active torsions:
REMARK  status: ('A' for Active; 'I' for Inactive)
ROOT
ATOM      1  C   UNL d   1      -2.882   0.810   3.539  0.00  0.00     0.078 C 
ATOM      2  C1  UNL d   1      -2.935   0.046   2.250  0.00  0.00    -0.077 A 
ATOM      3  C2  UNL d   1      -1.788  -0.123   1.464  0.00  0.00    -0.001 A 
ATOM      4  C3  UNL d   1      -1.854  -0.828   0.261  0.00  0.00     0.003 A 
ATOM      5  C4  UNL d   1      -3.065  -1.368  -0.167  0.00  0.00    -0.005 A 
ATOM      6  C5  UNL d   1      -4.212  -1.203   0.607  0.00  0.00     0.003 A 
ATOM      7  C6  UNL d   1      -4.148  -0.498   1.810  0.00  0.00    -0.001 A 
ENDROOT
TORSDOF 0
ENDMDL
