MODEL 1
REMARK minimizedAffinity 21.5014706
REMARK minimizedRMSD -1
REMARK  0 active torsions:
REMARK  status: ('A' for Active; 'I' for Inactive)
ROOT
ATOM      1  C   UNL d   1       0.336  -0.425  -1.944  0.00  0.00     0.078 C 
ATOM      2  C1  UNL d   1       0.188  -1.879  -2.280  0.00  0.00    -0.077 A 
ATOM      3  C2  UNL d   1      -0.869  -2.635  -1.761  0.00  0.00    -0.001 A 
ATOM      4  C3  UNL d   1      -0.989  -3.990  -2.075  0.00  0.00     0.003 A 
ATOM      5  C4  UNL d   1      -0.054  -4.600  -2.908  0.00  0.00    -0.005 A 
ATOM      6  C5  UNL d   1       1.003  -3.856  -3.428  0.00  0.00     0.003 A 
ATOM      7  C6  UNL d   1       1.124  -2.501  -3.116  0.00  0.00    -0.001 A 
ENDROOT
TORSDOF 0
ENDMDL
