MODEL 1
REMARK minimizedAffinity 7.61769342
REMARK minimizedRMSD -1
REMARK  0 active torsions:
REMARK  status: ('A' for Active; 'I' for Inactive)
ROOT
ATOM      1  C   UNL d   1       2.400   4.531  -0.742  0.00  0.00     0.078 C 
ATOM      2  C1  UNL d   1       0.917   4.696  -0.599  0.00  0.00    -0.077 A 
ATOM      3  C2  UNL d   1       0.032   3.738  -1.109  0.00  0.00    -0.001 A 
ATOM      4  C3  UNL d   1      -1.347   3.910  -0.977  0.00  0.00     0.003 A 
ATOM      5  C4  UNL d   1      -1.854   5.040  -0.338  0.00  0.00    -0.005 A 
ATOM      6  C5  UNL d   1      -0.981   6.000   0.171  0.00  0.00     0.003 A 
ATOM      7  C6  UNL d   1       0.398   5.829   0.040  0.00  0.00    -0.001 A 
ENDROOT
TORSDOF 0
ENDMDL
