MODEL 1
REMARK minimizedAffinity 16.76264
REMARK minimizedRMSD -1
REMARK  0 active torsions:
REMARK  status: ('A' for Active; 'I' for Inactive)
ROOT
ATOM      1  C   UNL d   1      -2.566  -1.025  -0.171  0.00  0.00     0.078 C 
ATOM      2  C1  UNL d   1      -1.204  -1.081  -0.796  0.00  0.00    -0.077 A 
ATOM      3  C2  UNL d   1      -0.359   0.036  -0.785  0.00  0.00    -0.001 A 
ATOM      4  C3  UNL d   1       0.903  -0.028  -1.379  0.00  0.00     0.003 A 
ATOM      5  C4  UNL d   1       1.330  -1.205  -1.989  0.00  0.00    -0.005 A 
ATOM      6  C5  UNL d   1       0.496  -2.321  -2.007  0.00  0.00     0.003 A 
ATOM      7  C6  UNL d   1      -0.766  -2.259  -1.414  0.00  0.00    -0.001 A 
ENDROOT
TORSDOF 0
ENDMDL
