MODEL 1
REMARK minimizedAffinity 14.3701792
REMARK minimizedRMSD -1
REMARK  0 active torsions:
REMARK  status: ('A' for Active; 'I' for Inactive)
ROOT
ATOM      1  C   UNL d   1       4.841   1.160  -2.937  0.00  0.00     0.078 C 
ATOM      2  C1  UNL d   1       3.436   0.878  -2.496  0.00  0.00    -0.077 A 
ATOM      3  C2  UNL d   1       3.145  -0.217  -1.673  0.00  0.00    -0.001 A 
ATOM      4  C3  UNL d   1       1.831  -0.473  -1.278  0.00  0.00     0.003 A 
ATOM      5  C4  UNL d   1       0.798   0.360  -1.702  0.00  0.00    -0.005 A 
ATOM      6  C5  UNL d   1       1.077   1.451  -2.522  0.00  0.00     0.003 A 
ATOM      7  C6  UNL d   1       2.391   1.709  -2.918  0.00  0.00    -0.001 A 
ENDROOT
TORSDOF 0
ENDMDL
