MODEL 1
REMARK minimizedAffinity 5.53974485
REMARK minimizedRMSD -1
REMARK  0 active torsions:
REMARK  status: ('A' for Active; 'I' for Inactive)
ROOT
ATOM      1  C   UNL d   1       4.260   4.520   2.252  0.00  0.00     0.078 C 
ATOM      2  C1  UNL d   1       3.651   4.934   0.946  0.00  0.00    -0.077 A 
ATOM      3  C2  UNL d   1       2.431   5.619   0.904  0.00  0.00    -0.001 A 
ATOM      4  C3  UNL d   1       1.871   5.990  -0.320  0.00  0.00     0.003 A 
ATOM      5  C4  UNL d   1       2.524   5.679  -1.511  0.00  0.00    -0.005 A 
ATOM      6  C5  UNL d   1       3.738   4.996  -1.479  0.00  0.00     0.003 A 
ATOM      7  C6  UNL d   1       4.299   4.624  -0.256  0.00  0.00    -0.001 A 
ENDROOT
TORSDOF 0
ENDMDL
