MODEL 1
REMARK minimizedAffinity 8.29061699
REMARK minimizedRMSD -1
REMARK  0 active torsions:
REMARK  status: ('A' for Active; 'I' for Inactive)
ROOT
ATOM      1  C   UNL d   1      -4.867  -0.752   6.000  0.00  0.00     0.078 C 
ATOM      2  C1  UNL d   1      -4.887  -0.009   4.697  0.00  0.00    -0.077 A 
ATOM      3  C2  UNL d   1      -5.998  -0.075   3.847  0.00  0.00    -0.001 A 
ATOM      4  C3  UNL d   1      -6.000   0.613   2.633  0.00  0.00     0.003 A 
ATOM      5  C4  UNL d   1      -4.893   1.372   2.257  0.00  0.00    -0.005 A 
ATOM      6  C5  UNL d   1      -3.782   1.441   3.095  0.00  0.00     0.003 A 
ATOM      7  C6  UNL d   1      -3.779   0.753   4.310  0.00  0.00    -0.001 A 
ENDROOT
TORSDOF 0
ENDMDL
