MODEL 1
REMARK minimizedAffinity -3.11531925
REMARK minimizedRMSD -1
REMARK  0 active torsions:
REMARK  status: ('A' for Active; 'I' for Inactive)
ROOT
ATOM      1  C   UNL d   1       4.492   4.887   2.039  0.00  0.00     0.078 C 
ATOM      2  C1  UNL d   1       4.184   5.252   0.618  0.00  0.00    -0.077 A 
ATOM      3  C2  UNL d   1       2.878   5.174   0.119  0.00  0.00    -0.001 A 
ATOM      4  C3  UNL d   1       2.608   5.507  -1.209  0.00  0.00     0.003 A 
ATOM      5  C4  UNL d   1       3.639   5.921  -2.050  0.00  0.00    -0.005 A 
ATOM      6  C5  UNL d   1       4.942   6.000  -1.564  0.00  0.00     0.003 A 
ATOM      7  C6  UNL d   1       5.214   5.666  -0.236  0.00  0.00    -0.001 A 
ENDROOT
TORSDOF 0
ENDMDL
