MODEL 1
REMARK minimizedAffinity 17.888401
REMARK minimizedRMSD -1
REMARK  0 active torsions:
REMARK  status: ('A' for Active; 'I' for Inactive)
ROOT
ATOM      1  C   UNL d   1      -0.029  -2.488  -2.788  0.00  0.00     0.078 C 
ATOM      2  C1  UNL d   1       0.750  -1.311  -2.282  0.00  0.00    -0.077 A 
ATOM      3  C2  UNL d   1       0.355  -0.001  -2.584  0.00  0.00    -0.001 A 
ATOM      4  C3  UNL d   1       1.095   1.085  -2.114  0.00  0.00     0.003 A 
ATOM      5  C4  UNL d   1       2.235   0.873  -1.342  0.00  0.00    -0.005 A 
ATOM      6  C5  UNL d   1       2.637  -0.426  -1.038  0.00  0.00     0.003 A 
ATOM      7  C6  UNL d   1       1.898  -1.514  -1.507  0.00  0.00    -0.001 A 
ENDROOT
TORSDOF 0
ENDMDL
