MODEL 1
REMARK minimizedAffinity 7.84046173
REMARK minimizedRMSD -1
REMARK  0 active torsions:
REMARK  status: ('A' for Active; 'I' for Inactive)
ROOT
ATOM      1  C   UNL d   1       0.824  -0.009  -1.948  0.00  0.00     0.078 C 
ATOM      2  C1  UNL d   1       1.468   1.139  -2.665  0.00  0.00    -0.077 A 
ATOM      3  C2  UNL d   1       2.112   0.951  -3.895  0.00  0.00    -0.001 A 
ATOM      4  C3  UNL d   1       2.716   2.027  -4.547  0.00  0.00     0.003 A 
ATOM      5  C4  UNL d   1       2.683   3.298  -3.978  0.00  0.00    -0.005 A 
ATOM      6  C5  UNL d   1       2.048   3.494  -2.753  0.00  0.00     0.003 A 
ATOM      7  C6  UNL d   1       1.443   2.419  -2.099  0.00  0.00    -0.001 A 
ENDROOT
TORSDOF 0
ENDMDL
