MODEL 1
REMARK minimizedAffinity 4.20385551
REMARK minimizedRMSD -1
REMARK  0 active torsions:
REMARK  status: ('A' for Active; 'I' for Inactive)
ROOT
ATOM      1  C   UNL d   1       4.918  -1.692   5.365  0.00  0.00     0.078 C 
ATOM      2  C1  UNL d   1       4.918  -3.191   5.385  0.00  0.00    -0.077 A 
ATOM      3  C2  UNL d   1       3.848  -3.919   4.850  0.00  0.00    -0.001 A 
ATOM      4  C3  UNL d   1       3.857  -5.315   4.884  0.00  0.00     0.003 A 
ATOM      5  C4  UNL d   1       4.932  -5.994   5.455  0.00  0.00    -0.005 A 
ATOM      6  C5  UNL d   1       5.999  -5.277   5.993  0.00  0.00     0.003 A 
ATOM      7  C6  UNL d   1       5.992  -3.882   5.959  0.00  0.00    -0.001 A 
ENDROOT
TORSDOF 0
ENDMDL
