MODEL 1
REMARK minimizedAffinity -1.27564347
REMARK minimizedRMSD -1
REMARK  0 active torsions:
REMARK  status: ('A' for Active; 'I' for Inactive)
ROOT
ATOM      1  C   UNL d   1       5.650  -5.245   5.634  0.00  0.00     0.078 C 
ATOM      2  C1  UNL d   1       5.221  -3.858   5.258  0.00  0.00    -0.077 A 
ATOM      3  C2  UNL d   1       4.057  -3.641   4.511  0.00  0.00    -0.001 A 
ATOM      4  C3  UNL d   1       3.675  -2.346   4.159  0.00  0.00     0.003 A 
ATOM      5  C4  UNL d   1       4.452  -1.257   4.549  0.00  0.00    -0.005 A 
ATOM      6  C5  UNL d   1       5.613  -1.463   5.291  0.00  0.00     0.003 A 
ATOM      7  C6  UNL d   1       5.997  -2.758   5.643  0.00  0.00    -0.001 A 
ENDROOT
TORSDOF 0
ENDMDL
