MODEL 1
REMARK minimizedAffinity 2.52577853
REMARK minimizedRMSD -1
REMARK  0 active torsions:
REMARK  status: ('A' for Active; 'I' for Inactive)
ROOT
ATOM      1  C   UNL d   1      -5.137   5.851   2.309  0.00  0.00     0.078 C 
ATOM      2  C1  UNL d   1      -4.349   5.832   3.584  0.00  0.00    -0.077 A 
ATOM      3  C2  UNL d   1      -2.959   6.000   3.575  0.00  0.00    -0.001 A 
ATOM      4  C3  UNL d   1      -2.236   5.970   4.769  0.00  0.00     0.003 A 
ATOM      5  C4  UNL d   1      -2.895   5.772   5.981  0.00  0.00    -0.005 A 
ATOM      6  C5  UNL d   1      -4.278   5.602   6.000  0.00  0.00     0.003 A 
ATOM      7  C6  UNL d   1      -5.002   5.632   4.807  0.00  0.00    -0.001 A 
ENDROOT
TORSDOF 0
ENDMDL
