MODEL 1
REMARK minimizedAffinity 10.4440069
REMARK minimizedRMSD -1
REMARK  0 active torsions:
REMARK  status: ('A' for Active; 'I' for Inactive)
ROOT
ATOM      1  C   UNL d   1       5.076  -4.055   5.637  0.00  0.00     0.078 C 
ATOM      2  C1  UNL d   1       5.088  -2.647   5.122  0.00  0.00    -0.077 A 
ATOM      3  C2  UNL d   1       6.000  -1.706   5.616  0.00  0.00    -0.001 A 
ATOM      4  C3  UNL d   1       5.993  -0.396   5.134  0.00  0.00     0.003 A 
ATOM      5  C4  UNL d   1       5.076  -0.015   4.158  0.00  0.00    -0.005 A 
ATOM      6  C5  UNL d   1       4.163  -0.943   3.662  0.00  0.00     0.003 A 
ATOM      7  C6  UNL d   1       4.168  -2.254   4.142  0.00  0.00    -0.001 A 
ENDROOT
TORSDOF 0
ENDMDL
