MODEL 1
REMARK minimizedAffinity -0.983194232
REMARK minimizedRMSD -1
REMARK  0 active torsions:
REMARK  status: ('A' for Active; 'I' for Inactive)
ROOT
ATOM      1  C   UNL d   1      -5.875   5.984   2.618  0.00  0.00     0.078 C 
ATOM      2  C1  UNL d   1      -4.739   5.994   3.597  0.00  0.00    -0.077 A 
ATOM      3  C2  UNL d   1      -3.409   5.985   3.159  0.00  0.00    -0.001 A 
ATOM      4  C3  UNL d   1      -2.362   5.985   4.081  0.00  0.00     0.003 A 
ATOM      5  C4  UNL d   1      -2.634   5.993   5.448  0.00  0.00    -0.005 A 
ATOM      6  C5  UNL d   1      -3.954   6.000   5.894  0.00  0.00     0.003 A 
ATOM      7  C6  UNL d   1      -5.002   6.000   4.972  0.00  0.00    -0.001 A 
ENDROOT
TORSDOF 0
ENDMDL
