MODEL 1
REMARK minimizedAffinity 0.446605444
REMARK minimizedRMSD -1
REMARK  1 active torsions:
REMARK  status: ('A' for Active; 'I' for Inactive)
REMARK    1  A    between atoms: C1_2  and  C2_3 
ROOT
ATOM      1  C2  UNL d   1       0.257   1.293  -1.162  0.00  0.00    -0.073 A 
ATOM      2  C3  UNL d   1      -0.518   2.405  -1.513  0.00  0.00    -0.002 A 
ATOM      3  C4  UNL d   1      -1.796   2.571  -0.977  0.00  0.00     0.004 A 
ATOM      4  C5  UNL d   1      -2.308   1.634  -0.080  0.00  0.00    -0.004 A 
ATOM      5  C6  UNL d   1      -1.545   0.523   0.292  0.00  0.00    -0.075 A 
ATOM      6  C7  UNL d   1      -2.083  -0.495   1.254  0.00  0.00     0.076 C 
ATOM      7  C8  UNL d   1      -0.264   0.361  -0.252  0.00  0.00     0.001 A 
ENDROOT
BRANCH   1   8
ATOM      8  C1  UNL d   1       1.639   1.112  -1.733  0.00  0.00     0.053 C 
ATOM      9  C   UNL d   1       2.600   0.509  -0.721  0.00  0.00     0.018 C 
ENDBRANCH   1   8
TORSDOF 1
ENDMDL
