MODEL 1
REMARK minimizedAffinity -1.4165175
REMARK minimizedRMSD -1
REMARK  1 active torsions:
REMARK  status: ('A' for Active; 'I' for Inactive)
REMARK    1  A    between atoms: C1_2  and  C2_3 
ROOT
ATOM      1  C2  UNL d   1      -2.764   1.674   0.147  0.00  0.00    -0.073 A 
ATOM      2  C3  UNL d   1      -2.528   0.676   1.099  0.00  0.00    -0.002 A 
ATOM      3  C4  UNL d   1      -1.222   0.312   1.429  0.00  0.00     0.004 A 
ATOM      4  C5  UNL d   1      -0.140   0.945   0.817  0.00  0.00    -0.004 A 
ATOM      5  C6  UNL d   1      -0.355   1.953  -0.129  0.00  0.00    -0.075 A 
ATOM      6  C7  UNL d   1       0.797   2.642  -0.798  0.00  0.00     0.076 C 
ATOM      7  C8  UNL d   1      -1.670   2.311  -0.456  0.00  0.00     0.001 A 
ENDROOT
BRANCH   1   8
ATOM      8  C1  UNL d   1      -4.172   2.076  -0.207  0.00  0.00     0.053 C 
ATOM      9  C   UNL d   1      -5.195   1.459   0.733  0.00  0.00     0.018 C 
ENDBRANCH   1   8
TORSDOF 1
ENDMDL
