MODEL 1
REMARK minimizedAffinity 3.97719812
REMARK minimizedRMSD -1
REMARK  1 active torsions:
REMARK  status: ('A' for Active; 'I' for Inactive)
REMARK    1  A    between atoms: C1_2  and  C2_3 
ROOT
ATOM      1  C2  UNL d   1      -1.661   1.742   0.513  0.00  0.00    -0.073 A 
ATOM      2  C3  UNL d   1      -1.569   0.627   1.354  0.00  0.00    -0.002 A 
ATOM      3  C4  UNL d   1      -2.710  -0.109   1.677  0.00  0.00     0.004 A 
ATOM      4  C5  UNL d   1      -3.951   0.258   1.157  0.00  0.00    -0.004 A 
ATOM      5  C6  UNL d   1      -4.062   1.361   0.306  0.00  0.00    -0.075 A 
ATOM      6  C7  UNL d   1      -5.391   1.770  -0.260  0.00  0.00     0.076 C 
ATOM      7  C8  UNL d   1      -2.912   2.097  -0.012  0.00  0.00     0.001 A 
ENDROOT
BRANCH   1   8
ATOM      8  C1  UNL d   1      -0.431   2.536   0.156  0.00  0.00     0.053 C 
ATOM      9  C   UNL d   1       0.799   1.652   0.022  0.00  0.00     0.018 C 
ENDBRANCH   1   8
TORSDOF 1
ENDMDL
