MODEL 1
REMARK minimizedAffinity -3.17210269
REMARK minimizedRMSD -1
REMARK  1 active torsions:
REMARK  status: ('A' for Active; 'I' for Inactive)
REMARK    1  A    between atoms: C1_2  and  C2_3 
ROOT
ATOM      1  C2  UNL d   1       0.606   1.943   0.144  0.00  0.00    -0.073 A 
ATOM      2  C3  UNL d   1       0.716   1.567   1.487  0.00  0.00    -0.002 A 
ATOM      3  C4  UNL d   1       1.919   1.059   1.981  0.00  0.00     0.004 A 
ATOM      4  C5  UNL d   1       3.024   0.930   1.140  0.00  0.00    -0.004 A 
ATOM      5  C6  UNL d   1       2.937   1.313  -0.203  0.00  0.00    -0.075 A 
ATOM      6  C7  UNL d   1       4.116   1.178  -1.121  0.00  0.00     0.076 C 
ATOM      7  C8  UNL d   1       1.725   1.819  -0.691  0.00  0.00     0.001 A 
ENDROOT
BRANCH   1   8
ATOM      8  C1  UNL d   1      -0.689   2.498  -0.392  0.00  0.00     0.053 C 
ATOM      9  C   UNL d   1      -1.882   1.643   0.005  0.00  0.00     0.018 C 
ENDBRANCH   1   8
TORSDOF 1
ENDMDL
