MODEL 1
REMARK minimizedAffinity 0.363425016
REMARK minimizedRMSD -1
REMARK  1 active torsions:
REMARK  status: ('A' for Active; 'I' for Inactive)
REMARK    1  A    between atoms: C1_2  and  C2_3 
ROOT
ATOM      1  C2  UNL d   1       0.377   1.498   0.872  0.00  0.00    -0.073 A 
ATOM      2  C3  UNL d   1       0.084   2.783   0.400  0.00  0.00    -0.002 A 
ATOM      3  C4  UNL d   1      -1.231   3.141   0.102  0.00  0.00     0.004 A 
ATOM      4  C5  UNL d   1      -2.266   2.224   0.280  0.00  0.00    -0.004 A 
ATOM      5  C6  UNL d   1      -1.996   0.939   0.762  0.00  0.00    -0.075 A 
ATOM      6  C7  UNL d   1      -3.098  -0.060   0.956  0.00  0.00     0.076 C 
ATOM      7  C8  UNL d   1      -0.672   0.586   1.056  0.00  0.00     0.001 A 
ENDROOT
BRANCH   1   8
ATOM      8  C1  UNL d   1       1.795   1.108   1.201  0.00  0.00     0.053 C 
ATOM      9  C   UNL d   1       2.661   1.004  -0.044  0.00  0.00     0.018 C 
ENDBRANCH   1   8
TORSDOF 1
ENDMDL
