MODEL 1
REMARK minimizedAffinity 1.97467995
REMARK minimizedRMSD -1
REMARK  1 active torsions:
REMARK  status: ('A' for Active; 'I' for Inactive)
REMARK    1  A    between atoms: C1_2  and  C2_3 
ROOT
ATOM      1  C2  UNL d   1       0.848   1.591   0.665  0.00  0.00    -0.073 A 
ATOM      2  C3  UNL d   1       2.119   1.904   1.160  0.00  0.00    -0.002 A 
ATOM      3  C4  UNL d   1       2.255   2.649   2.333  0.00  0.00     0.004 A 
ATOM      4  C5  UNL d   1       1.124   3.083   3.024  0.00  0.00    -0.004 A 
ATOM      5  C6  UNL d   1      -0.155   2.770   2.552  0.00  0.00    -0.075 A 
ATOM      6  C7  UNL d   1      -1.381   3.230   3.283  0.00  0.00     0.076 C 
ATOM      7  C8  UNL d   1      -0.283   2.023   1.372  0.00  0.00     0.001 A 
ENDROOT
BRANCH   1   8
ATOM      8  C1  UNL d   1       0.697   0.782  -0.597  0.00  0.00     0.053 C 
ATOM      9  C   UNL d   1       1.371   1.447  -1.786  0.00  0.00     0.018 C 
ENDBRANCH   1   8
TORSDOF 1
ENDMDL
