MODEL 1
REMARK minimizedAffinity 9.06546307
REMARK minimizedRMSD -1
REMARK  1 active torsions:
REMARK  status: ('A' for Active; 'I' for Inactive)
REMARK    1  A    between atoms: C1_2  and  C2_3 
ROOT
ATOM      1  C2  UNL d   1       1.002   1.676   0.376  0.00  0.00    -0.073 A 
ATOM      2  C3  UNL d   1       2.223   1.901   1.020  0.00  0.00    -0.002 A 
ATOM      3  C4  UNL d   1       2.263   2.579   2.239  0.00  0.00     0.004 A 
ATOM      4  C5  UNL d   1       1.083   3.032   2.829  0.00  0.00    -0.004 A 
ATOM      5  C6  UNL d   1      -0.149   2.806   2.207  0.00  0.00    -0.075 A 
ATOM      6  C7  UNL d   1      -1.427   3.289   2.827  0.00  0.00     0.076 C 
ATOM      7  C8  UNL d   1      -0.180   2.127   0.981  0.00  0.00     0.001 A 
ENDROOT
BRANCH   1   8
ATOM      8  C1  UNL d   1       0.953   0.939  -0.937  0.00  0.00     0.053 C 
ATOM      9  C   UNL d   1       1.717   1.670  -2.030  0.00  0.00     0.018 C 
ENDBRANCH   1   8
TORSDOF 1
ENDMDL
