MODEL 1
REMARK minimizedAffinity -2.95798254
REMARK minimizedRMSD -1
REMARK  0 active torsions:
REMARK  status: ('A' for Active; 'I' for Inactive)
ROOT
ATOM      1  C   UNL d   1       0.827   2.487   0.641  0.00  0.00     0.077 C 
ATOM      2  C1  UNL d   1       0.311   1.233  -0.001  0.00  0.00    -0.074 A 
ATOM      3  C2  UNL d   1       0.178   1.139  -1.390  0.00  0.00    -0.005 A 
ATOM      4  C3  UNL d   1      -0.294  -0.036  -1.974  0.00  0.00     0.006 A 
ATOM      5  C4  UNL d   1      -0.638  -1.128  -1.175  0.00  0.00    -0.005 A 
ATOM      6  C5  UNL d   1      -0.511  -1.053   0.215  0.00  0.00    -0.074 A 
ATOM      7  C6  UNL d   1      -0.867  -2.220   1.087  0.00  0.00     0.077 C 
ATOM      8  C7  UNL d   1      -0.029   0.130   0.793  0.00  0.00    -0.001 A 
ENDROOT
TORSDOF 0
ENDMDL
