MODEL 1
REMARK minimizedAffinity -4.63243866
REMARK minimizedRMSD -1
REMARK  0 active torsions:
REMARK  status: ('A' for Active; 'I' for Inactive)
ROOT
ATOM      1  C   UNL d   1      -1.932  -0.774   3.732  0.00  0.00     0.077 C 
ATOM      2  C1  UNL d   1      -1.296  -0.901   2.380  0.00  0.00    -0.074 A 
ATOM      3  C2  UNL d   1      -1.412  -2.082   1.640  0.00  0.00    -0.005 A 
ATOM      4  C3  UNL d   1      -0.823  -2.182   0.379  0.00  0.00     0.006 A 
ATOM      5  C4  UNL d   1      -0.114  -1.104  -0.153  0.00  0.00    -0.005 A 
ATOM      6  C5  UNL d   1       0.011   0.085   0.573  0.00  0.00    -0.074 A 
ATOM      7  C6  UNL d   1       0.761   1.256   0.011  0.00  0.00     0.077 C 
ATOM      8  C7  UNL d   1      -0.589   0.180   1.835  0.00  0.00    -0.001 A 
ENDROOT
TORSDOF 0
ENDMDL
