MODEL 1
REMARK minimizedAffinity -4.48210669
REMARK minimizedRMSD -1
REMARK  0 active torsions:
REMARK  status: ('A' for Active; 'I' for Inactive)
ROOT
ATOM      1  C   UNL d   1      -0.032  -2.527  -2.990  0.00  0.00     0.077 C 
ATOM      2  C1  UNL d   1      -0.249  -1.835  -1.678  0.00  0.00    -0.074 A 
ATOM      3  C2  UNL d   1      -0.731  -2.535  -0.567  0.00  0.00    -0.005 A 
ATOM      4  C3  UNL d   1      -0.919  -1.879   0.650  0.00  0.00     0.006 A 
ATOM      5  C4  UNL d   1      -0.627  -0.520   0.768  0.00  0.00    -0.005 A 
ATOM      6  C5  UNL d   1      -0.143   0.196  -0.331  0.00  0.00    -0.074 A 
ATOM      7  C6  UNL d   1       0.186   1.655  -0.219  0.00  0.00     0.077 C 
ATOM      8  C7  UNL d   1       0.050  -0.471  -1.549  0.00  0.00    -0.001 A 
ENDROOT
TORSDOF 0
ENDMDL
