MODEL 1
REMARK minimizedAffinity -1.96757698
REMARK minimizedRMSD -1
REMARK  0 active torsions:
REMARK  status: ('A' for Active; 'I' for Inactive)
ROOT
ATOM      1  C   UNL d   1       0.826  -2.182  -0.544  0.00  0.00     0.077 C 
ATOM      2  C1  UNL d   1       0.385  -0.860   0.010  0.00  0.00    -0.074 A 
ATOM      3  C2  UNL d   1      -0.656  -0.782   0.940  0.00  0.00    -0.005 A 
ATOM      4  C3  UNL d   1      -1.049   0.454   1.454  0.00  0.00     0.006 A 
ATOM      5  C4  UNL d   1      -0.406   1.622   1.044  0.00  0.00    -0.005 A 
ATOM      6  C5  UNL d   1       0.638   1.564   0.115  0.00  0.00    -0.074 A 
ATOM      7  C6  UNL d   1       1.347   2.809  -0.329  0.00  0.00     0.077 C 
ATOM      8  C7  UNL d   1       1.032   0.318  -0.391  0.00  0.00    -0.001 A 
ENDROOT
TORSDOF 0
ENDMDL
