MODEL 1
REMARK minimizedAffinity -1.90086877
REMARK minimizedRMSD -1
REMARK  0 active torsions:
REMARK  status: ('A' for Active; 'I' for Inactive)
ROOT
ATOM      1  C   UNL d   1       0.045   4.994   1.932  0.00  0.00     0.077 C 
ATOM      2  C1  UNL d   1       0.666   3.971   1.028  0.00  0.00    -0.074 A 
ATOM      3  C2  UNL d   1       1.921   4.190   0.450  0.00  0.00    -0.005 A 
ATOM      4  C3  UNL d   1       2.490   3.225  -0.380  0.00  0.00     0.006 A 
ATOM      5  C4  UNL d   1       1.812   2.034  -0.641  0.00  0.00    -0.005 A 
ATOM      6  C5  UNL d   1       0.557   1.797  -0.072  0.00  0.00    -0.074 A 
ATOM      7  C6  UNL d   1      -0.181   0.518  -0.334  0.00  0.00     0.077 C 
ATOM      8  C7  UNL d   1      -0.006   2.768   0.768  0.00  0.00    -0.001 A 
ENDROOT
TORSDOF 0
ENDMDL
