MODEL 1
REMARK minimizedAffinity -5.02628136
REMARK minimizedRMSD -1
REMARK  0 active torsions:
REMARK  status: ('A' for Active; 'I' for Inactive)
ROOT
ATOM      1  C   UNL d   1       0.121  -3.329   0.407  0.00  0.00     0.077 C 
ATOM      2  C1  UNL d   1      -0.140  -1.863   0.226  0.00  0.00    -0.074 A 
ATOM      3  C2  UNL d   1       0.419  -1.160  -0.845  0.00  0.00    -0.005 A 
ATOM      4  C3  UNL d   1       0.159   0.201  -1.006  0.00  0.00     0.006 A 
ATOM      5  C4  UNL d   1      -0.661   0.871  -0.098  0.00  0.00    -0.005 A 
ATOM      6  C5  UNL d   1      -1.230   0.184   0.979  0.00  0.00    -0.074 A 
ATOM      7  C6  UNL d   1      -2.123   0.887   1.959  0.00  0.00     0.077 C 
ATOM      8  C7  UNL d   1      -0.970  -1.185   1.130  0.00  0.00    -0.001 A 
ENDROOT
TORSDOF 0
ENDMDL
