MODEL 1
REMARK minimizedAffinity -1.93643689
REMARK minimizedRMSD -1
REMARK  0 active torsions:
REMARK  status: ('A' for Active; 'I' for Inactive)
ROOT
ATOM      1  C   UNL d   1      -0.219  -3.781   0.454  0.00  0.00     0.077 C 
ATOM      2  C1  UNL d   1       0.025  -2.302   0.486  0.00  0.00    -0.074 A 
ATOM      3  C2  UNL d   1       1.235  -1.763   0.038  0.00  0.00    -0.005 A 
ATOM      4  C3  UNL d   1       1.445  -0.384   0.065  0.00  0.00     0.006 A 
ATOM      5  C4  UNL d   1       0.447   0.468   0.540  0.00  0.00    -0.005 A 
ATOM      6  C5  UNL d   1      -0.770  -0.052   0.991  0.00  0.00    -0.074 A 
ATOM      7  C6  UNL d   1      -1.856   0.851   1.495  0.00  0.00     0.077 C 
ATOM      8  C7  UNL d   1      -0.975  -1.438   0.954  0.00  0.00    -0.001 A 
ENDROOT
TORSDOF 0
ENDMDL
