MODEL 1
REMARK minimizedAffinity -4.47841406
REMARK minimizedRMSD -1
REMARK  0 active torsions:
REMARK  status: ('A' for Active; 'I' for Inactive)
ROOT
ATOM      1  C   UNL d   1      -0.479  -0.176   1.645  0.00  0.00     0.077 C 
ATOM      2  C1  UNL d   1      -0.362  -1.343   0.710  0.00  0.00    -0.074 A 
ATOM      3  C2  UNL d   1      -0.595  -2.647   1.156  0.00  0.00    -0.005 A 
ATOM      4  C3  UNL d   1      -0.492  -3.722   0.273  0.00  0.00     0.006 A 
ATOM      5  C4  UNL d   1      -0.155  -3.503  -1.063  0.00  0.00    -0.005 A 
ATOM      6  C5  UNL d   1       0.081  -2.205  -1.528  0.00  0.00    -0.074 A 
ATOM      7  C6  UNL d   1       0.435  -1.951  -2.963  0.00  0.00     0.077 C 
ATOM      8  C7  UNL d   1      -0.031  -1.130  -0.635  0.00  0.00    -0.001 A 
ENDROOT
TORSDOF 0
ENDMDL
