MODEL 1
REMARK minimizedAffinity -3.01603222
REMARK minimizedRMSD -1
REMARK  0 active torsions:
REMARK  status: ('A' for Active; 'I' for Inactive)
ROOT
ATOM      1  C   UNL d   1       0.351  -1.491  -2.657  0.00  0.00     0.077 C 
ATOM      2  C1  UNL d   1       0.057  -0.863  -1.327  0.00  0.00    -0.074 A 
ATOM      3  C2  UNL d   1      -0.417  -1.631  -0.258  0.00  0.00    -0.005 A 
ATOM      4  C3  UNL d   1      -0.678  -1.035   0.976  0.00  0.00     0.006 A 
ATOM      5  C4  UNL d   1      -0.467   0.333   1.154  0.00  0.00    -0.005 A 
ATOM      6  C5  UNL d   1       0.008   1.117   0.097  0.00  0.00    -0.074 A 
ATOM      7  C6  UNL d   1       0.249   2.586   0.274  0.00  0.00     0.077 C 
ATOM      8  C7  UNL d   1       0.273   0.509  -1.138  0.00  0.00    -0.001 A 
ENDROOT
TORSDOF 0
ENDMDL
