MODEL 1
REMARK minimizedAffinity -5.68603754
REMARK minimizedRMSD -1
REMARK  0 active torsions:
REMARK  status: ('A' for Active; 'I' for Inactive)
ROOT
ATOM      1  C   UNL d   1       0.380  -2.809  -2.701  0.00  0.00     0.077 C 
ATOM      2  C1  UNL d   1       0.071  -2.199  -1.365  0.00  0.00    -0.074 A 
ATOM      3  C2  UNL d   1      -0.452  -2.975  -0.325  0.00  0.00    -0.005 A 
ATOM      4  C3  UNL d   1      -0.725  -2.396   0.914  0.00  0.00     0.006 A 
ATOM      5  C4  UNL d   1      -0.478  -1.039   1.126  0.00  0.00    -0.005 A 
ATOM      6  C5  UNL d   1       0.045  -0.248   0.098  0.00  0.00    -0.074 A 
ATOM      7  C6  UNL d   1       0.325   1.210   0.312  0.00  0.00     0.077 C 
ATOM      8  C7  UNL d   1       0.323  -0.838  -1.143  0.00  0.00    -0.001 A 
ENDROOT
TORSDOF 0
ENDMDL
