MODEL 1
REMARK minimizedAffinity -4.8933053
REMARK minimizedRMSD -1
REMARK  0 active torsions:
REMARK  status: ('A' for Active; 'I' for Inactive)
ROOT
ATOM      1  C   UNL d   1       0.344  -3.063  -2.741  0.00  0.00     0.077 C 
ATOM      2  C1  UNL d   1       0.078  -2.322  -1.464  0.00  0.00    -0.074 A 
ATOM      3  C2  UNL d   1      -0.377  -2.994  -0.325  0.00  0.00    -0.005 A 
ATOM      4  C3  UNL d   1      -0.611  -2.293   0.859  0.00  0.00     0.006 A 
ATOM      5  C4  UNL d   1      -0.392  -0.916   0.914  0.00  0.00    -0.005 A 
ATOM      6  C5  UNL d   1       0.063  -0.228  -0.214  0.00  0.00    -0.074 A 
ATOM      7  C6  UNL d   1       0.313   1.251  -0.168  0.00  0.00     0.077 C 
ATOM      8  C7  UNL d   1       0.303  -0.940  -1.397  0.00  0.00    -0.001 A 
ENDROOT
TORSDOF 0
ENDMDL
