MODEL 1
REMARK minimizedAffinity -3.67943549
REMARK minimizedRMSD -1
REMARK  0 active torsions:
REMARK  status: ('A' for Active; 'I' for Inactive)
ROOT
ATOM      1  C   UNL d   1      -0.133  -2.389  -2.579  0.00  0.00     0.077 C 
ATOM      2  C1  UNL d   1      -0.297  -1.694  -1.260  0.00  0.00    -0.074 A 
ATOM      3  C2  UNL d   1      -0.883  -2.349  -0.172  0.00  0.00    -0.005 A 
ATOM      4  C3  UNL d   1      -1.021  -1.693   1.052  0.00  0.00     0.006 A 
ATOM      5  C4  UNL d   1      -0.576  -0.379   1.199  0.00  0.00    -0.005 A 
ATOM      6  C5  UNL d   1       0.013   0.291   0.122  0.00  0.00    -0.074 A 
ATOM      7  C6  UNL d   1       0.505   1.701   0.265  0.00  0.00     0.077 C 
ATOM      8  C7  UNL d   1       0.154  -0.377  -1.102  0.00  0.00    -0.001 A 
ENDROOT
TORSDOF 0
ENDMDL
