MODEL 1
REMARK minimizedAffinity -3.93733215
REMARK minimizedRMSD -1
REMARK  0 active torsions:
REMARK  status: ('A' for Active; 'I' for Inactive)
ROOT
ATOM      1  C   UNL d   1      -0.100   0.396   0.017  0.00  0.00     0.077 C 
ATOM      2  C1  UNL d   1       0.488   1.772   0.122  0.00  0.00    -0.074 A 
ATOM      3  C2  UNL d   1       1.485   2.197  -0.762  0.00  0.00    -0.005 A 
ATOM      4  C3  UNL d   1       2.015   3.483  -0.657  0.00  0.00     0.006 A 
ATOM      5  C4  UNL d   1       1.554   4.355   0.329  0.00  0.00    -0.005 A 
ATOM      6  C5  UNL d   1       0.557   3.948   1.221  0.00  0.00    -0.074 A 
ATOM      7  C6  UNL d   1       0.044   4.876   2.282  0.00  0.00     0.077 C 
ATOM      8  C7  UNL d   1       0.024   2.657   1.106  0.00  0.00    -0.001 A 
ENDROOT
TORSDOF 0
ENDMDL
