MODEL 1
REMARK minimizedAffinity -4.39912701
REMARK minimizedRMSD -1
REMARK  0 active torsions:
REMARK  status: ('A' for Active; 'I' for Inactive)
ROOT
ATOM      1  C   UNL d   1       0.971   0.819   2.443  0.00  0.00     0.020 A 
ATOM      2  C1  UNL d   1      -0.306   1.100   2.927  0.00  0.00     0.020 A 
ATOM      3  C2  UNL d   1      -1.419   0.932   2.101  0.00  0.00     0.034 A 
ATOM      4  C3  UNL d   1      -1.258   0.481   0.786  0.00  0.00     0.017 A 
ATOM      5  C4  UNL d   1       0.024   0.199   0.300  0.00  0.00     0.017 A 
ATOM      6  C5  UNL d   1       1.135   0.370   1.132  0.00  0.00     0.034 A 
ATOM      7 Cl   UNL d   1       0.303  -0.360  -1.311  0.00  0.00    -0.070 Cl
ATOM      8 Cl1  UNL d   1      -2.679   0.295  -0.180  0.00  0.00    -0.070 Cl
ENDROOT
TORSDOF 0
ENDMDL
