MODEL 1
REMARK minimizedAffinity -4.98914385
REMARK minimizedRMSD -1
REMARK  0 active torsions:
REMARK  status: ('A' for Active; 'I' for Inactive)
ROOT
ATOM      1  C   UNL d   1      -0.422   1.586   2.806  0.00  0.00     0.020 A 
ATOM      2  C1  UNL d   1       0.907   1.304   2.492  0.00  0.00     0.020 A 
ATOM      3  C2  UNL d   1       1.214   0.594   1.329  0.00  0.00     0.034 A 
ATOM      4  C3  UNL d   1       0.190   0.164   0.476  0.00  0.00     0.017 A 
ATOM      5  C4  UNL d   1      -1.143   0.448   0.792  0.00  0.00     0.017 A 
ATOM      6  C5  UNL d   1      -1.444   1.159   1.958  0.00  0.00     0.034 A 
ATOM      7 Cl   UNL d   1      -2.460  -0.049  -0.211  0.00  0.00    -0.070 Cl
ATOM      8 Cl1  UNL d   1       0.642  -0.708  -0.945  0.00  0.00    -0.070 Cl
ENDROOT
TORSDOF 0
ENDMDL
