MODEL 1
REMARK minimizedAffinity -3.49673223
REMARK minimizedRMSD -1
REMARK  0 active torsions:
REMARK  status: ('A' for Active; 'I' for Inactive)
ROOT
ATOM      1  C   UNL d   1       0.719  -1.052  -0.334  0.00  0.00     0.020 A 
ATOM      2  C1  UNL d   1       1.571  -0.502   0.624  0.00  0.00     0.020 A 
ATOM      3  C2  UNL d   1       1.078   0.418   1.551  0.00  0.00     0.034 A 
ATOM      4  C3  UNL d   1      -0.271   0.791   1.524  0.00  0.00     0.017 A 
ATOM      5  C4  UNL d   1      -1.125   0.239   0.562  0.00  0.00     0.017 A 
ATOM      6  C5  UNL d   1      -0.626  -0.682  -0.364  0.00  0.00     0.034 A 
ATOM      7 Cl   UNL d   1      -2.801   0.651   0.466  0.00  0.00    -0.070 Cl
ATOM      8 Cl1  UNL d   1      -0.812   1.934   2.701  0.00  0.00    -0.070 Cl
ENDROOT
TORSDOF 0
ENDMDL
