MODEL 1
REMARK minimizedAffinity -4.76322842
REMARK minimizedRMSD -1
REMARK  0 active torsions:
REMARK  status: ('A' for Active; 'I' for Inactive)
ROOT
ATOM      1  C   UNL d   1      -2.147   0.789   1.511  0.00  0.00     0.020 A 
ATOM      2  C1  UNL d   1      -1.511   0.759   2.751  0.00  0.00     0.020 A 
ATOM      3  C2  UNL d   1      -0.175   0.361   2.840  0.00  0.00     0.034 A 
ATOM      4  C3  UNL d   1       0.528  -0.008   1.688  0.00  0.00     0.017 A 
ATOM      5  C4  UNL d   1      -0.112   0.023   0.443  0.00  0.00     0.017 A 
ATOM      6  C5  UNL d   1      -1.449   0.422   0.360  0.00  0.00     0.034 A 
ATOM      7 Cl   UNL d   1       0.690  -0.418  -1.023  0.00  0.00    -0.070 Cl
ATOM      8 Cl1  UNL d   1       2.177  -0.490   1.872  0.00  0.00    -0.070 Cl
ENDROOT
TORSDOF 0
ENDMDL
