MODEL 1
REMARK minimizedAffinity -5.21700144
REMARK minimizedRMSD -1
REMARK  0 active torsions:
REMARK  status: ('A' for Active; 'I' for Inactive)
ROOT
ATOM      1  C   UNL d   1      -1.064   1.525   2.596  0.00  0.00     0.020 A 
ATOM      2  C1  UNL d   1       0.281   1.598   2.238  0.00  0.00     0.020 A 
ATOM      3  C2  UNL d   1       0.722   1.001   1.055  0.00  0.00     0.034 A 
ATOM      4  C3  UNL d   1      -0.183   0.328   0.227  0.00  0.00     0.017 A 
ATOM      5  C4  UNL d   1      -1.533   0.255   0.587  0.00  0.00     0.017 A 
ATOM      6  C5  UNL d   1      -1.969   0.855   1.773  0.00  0.00     0.034 A 
ATOM      7 Cl   UNL d   1      -2.709  -0.559  -0.384  0.00  0.00    -0.070 Cl
ATOM      8 Cl1  UNL d   1       0.432  -0.388  -1.221  0.00  0.00    -0.070 Cl
ENDROOT
TORSDOF 0
ENDMDL
