MODEL 1
REMARK minimizedAffinity -3.16903448
REMARK minimizedRMSD -1
REMARK  0 active torsions:
REMARK  status: ('A' for Active; 'I' for Inactive)
ROOT
ATOM      1  C   UNL d   1      -1.627  -0.047  -0.623  0.00  0.00     0.020 A 
ATOM      2  C1  UNL d   1      -0.389  -0.598  -0.953  0.00  0.00     0.020 A 
ATOM      3  C2  UNL d   1       0.694  -0.452  -0.083  0.00  0.00     0.034 A 
ATOM      4  C3  UNL d   1       0.540   0.245   1.121  0.00  0.00     0.017 A 
ATOM      5  C4  UNL d   1      -0.703   0.798   1.451  0.00  0.00     0.017 A 
ATOM      6  C5  UNL d   1      -1.783   0.649   0.576  0.00  0.00     0.034 A 
ATOM      7 Cl   UNL d   1      -0.969   1.672   2.918  0.00  0.00    -0.070 Cl
ATOM      8 Cl1  UNL d   1       1.922   0.386   2.150  0.00  0.00    -0.070 Cl
ENDROOT
TORSDOF 0
ENDMDL
