MODEL 1
REMARK minimizedAffinity -1.12137079
REMARK minimizedRMSD -1
REMARK  0 active torsions:
REMARK  status: ('A' for Active; 'I' for Inactive)
ROOT
ATOM      1  C   UNL d   1       0.916  -0.247  -3.356  0.00  0.00     0.020 A 
ATOM      2  C1  UNL d   1       1.925   0.379  -2.624  0.00  0.00     0.020 A 
ATOM      3  C2  UNL d   1       1.779   0.560  -1.247  0.00  0.00     0.034 A 
ATOM      4  C3  UNL d   1       0.622   0.114  -0.598  0.00  0.00     0.017 A 
ATOM      5  C4  UNL d   1      -0.389  -0.514  -1.333  0.00  0.00     0.017 A 
ATOM      6  C5  UNL d   1      -0.238  -0.693  -2.711  0.00  0.00     0.034 A 
ATOM      7 Cl   UNL d   1      -1.845  -1.091  -0.601  0.00  0.00    -0.070 Cl
ATOM      8 Cl1  UNL d   1       0.509   0.371   1.107  0.00  0.00    -0.070 Cl
ENDROOT
TORSDOF 0
ENDMDL
