MODEL 1
REMARK minimizedAffinity -3.72933316
REMARK minimizedRMSD -1
REMARK  0 active torsions:
REMARK  status: ('A' for Active; 'I' for Inactive)
ROOT
ATOM      1  C   UNL d   1      -1.638  -0.009  -0.541  0.00  0.00     0.020 A 
ATOM      2  C1  UNL d   1      -0.455  -0.586  -1.002  0.00  0.00     0.020 A 
ATOM      3  C2  UNL d   1       0.703  -0.522  -0.224  0.00  0.00     0.034 A 
ATOM      4  C3  UNL d   1       0.680   0.121   1.019  0.00  0.00     0.017 A 
ATOM      5  C4  UNL d   1      -0.507   0.699   1.481  0.00  0.00     0.017 A 
ATOM      6  C5  UNL d   1      -1.664   0.632   0.698  0.00  0.00     0.034 A 
ATOM      7 Cl   UNL d   1      -0.613   1.509   3.005  0.00  0.00    -0.070 Cl
ATOM      8 Cl1  UNL d   1       2.149   0.162   1.929  0.00  0.00    -0.070 Cl
ENDROOT
TORSDOF 0
ENDMDL
