MODEL 1
REMARK minimizedAffinity 18.4202671
REMARK minimizedRMSD -1
REMARK  0 active torsions:
REMARK  status: ('A' for Active; 'I' for Inactive)
ROOT
ATOM      1  N1  IND d   1      -4.735  -0.216  -2.704  0.00  0.00    -0.196 N 
ATOM      2  C2  IND d   1      -5.158   0.194  -1.470  0.00  0.00     0.054 A 
ATOM      3  C3  IND d   1      -5.034   1.535  -1.352  0.00  0.00    -0.031 A 
ATOM      4  C4  IND d   1      -4.257   3.265  -3.093  0.00  0.00     0.051 A 
ATOM      5  C5  IND d   1      -3.736   3.367  -4.352  0.00  0.00    -0.031 A 
ATOM      6  C6  IND d   1      -3.519   2.258  -5.143  0.00  0.00     0.015 A 
ATOM      7  C7  IND d   1      -3.828   1.001  -4.707  0.00  0.00    -0.016 A 
ATOM      8  C8  IND d   1      -4.351   0.893  -3.426  0.00  0.00    -0.047 A 
ATOM      9  C9  IND d   1      -4.533   2.011  -2.602  0.00  0.00    -0.096 A 
ATOM     10  HN1 IND d   1      -4.713  -1.029  -2.982  0.00  0.00     0.298 HD
ENDROOT
TORSDOF 0
ENDMDL
