MODEL 1
REMARK minimizedAffinity 9.95689201
REMARK minimizedRMSD -1
REMARK  0 active torsions:
REMARK  status: ('A' for Active; 'I' for Inactive)
ROOT
ATOM      1  N1  IND d   1       0.980  -4.244  -2.975  0.00  0.00    -0.196 N 
ATOM      2  C2  IND d   1       0.452  -4.345  -1.718  0.00  0.00     0.054 A 
ATOM      3  C3  IND d   1       1.344  -4.917  -0.878  0.00  0.00    -0.031 A 
ATOM      4  C4  IND d   1       3.764  -5.671  -1.328  0.00  0.00     0.051 A 
ATOM      5  C5  IND d   1       4.679  -5.813  -2.334  0.00  0.00    -0.031 A 
ATOM      6  C6  IND d   1       4.402  -5.430  -3.630  0.00  0.00     0.015 A 
ATOM      7  C7  IND d   1       3.200  -4.876  -3.969  0.00  0.00    -0.016 A 
ATOM      8  C8  IND d   1       2.266  -4.737  -2.951  0.00  0.00    -0.047 A 
ATOM      9  C9  IND d   1       2.526  -5.163  -1.643  0.00  0.00    -0.096 A 
ATOM     10  HN1 IND d   1       0.577  -3.926  -3.665  0.00  0.00     0.298 HD
ENDROOT
TORSDOF 0
ENDMDL
