MODEL 1
REMARK minimizedAffinity 5.91835165
REMARK minimizedRMSD -1
REMARK  0 active torsions:
REMARK  status: ('A' for Active; 'I' for Inactive)
ROOT
ATOM      1  N1  IND d   1       1.143   3.058  -0.746  0.00  0.00    -0.196 N 
ATOM      2  C2  IND d   1       0.100   3.633  -1.417  0.00  0.00     0.054 A 
ATOM      3  C3  IND d   1      -1.040   3.521  -0.699  0.00  0.00    -0.031 A 
ATOM      4  C4  IND d   1      -1.405   2.522   1.646  0.00  0.00     0.051 A 
ATOM      5  C5  IND d   1      -0.757   1.844   2.641  0.00  0.00    -0.031 A 
ATOM      6  C6  IND d   1       0.584   1.533   2.557  0.00  0.00     0.015 A 
ATOM      7  C7  IND d   1       1.334   1.899   1.475  0.00  0.00    -0.016 A 
ATOM      8  C8  IND d   1       0.679   2.581   0.460  0.00  0.00    -0.047 A 
ATOM      9  C9  IND d   1      -0.692   2.863   0.520  0.00  0.00    -0.096 A 
ATOM     10  HN1 IND d   1       1.953   3.003  -1.030  0.00  0.00     0.298 HD
ENDROOT
TORSDOF 0
ENDMDL
