MODEL 1
REMARK minimizedAffinity 8.02725029
REMARK minimizedRMSD -1
REMARK  0 active torsions:
REMARK  status: ('A' for Active; 'I' for Inactive)
ROOT
ATOM      1  N1  IND d   1      -5.221   5.509  -1.508  0.00  0.00    -0.196 N 
ATOM      2  C2  IND d   1      -4.488   5.306  -2.644  0.00  0.00     0.054 A 
ATOM      3  C3  IND d   1      -3.167   5.334  -2.362  0.00  0.00    -0.031 A 
ATOM      4  C4  IND d   1      -1.984   5.597  -0.091  0.00  0.00     0.051 A 
ATOM      5  C5  IND d   1      -2.231   5.847   1.230  0.00  0.00    -0.031 A 
ATOM      6  C6  IND d   1      -3.514   5.997   1.716  0.00  0.00     0.015 A 
ATOM      7  C7  IND d   1      -4.603   5.891   0.897  0.00  0.00    -0.016 A 
ATOM      8  C8  IND d   1      -4.355   5.645  -0.446  0.00  0.00    -0.047 A 
ATOM      9  C9  IND d   1      -3.054   5.534  -0.952  0.00  0.00    -0.096 A 
ATOM     10  HN1 IND d   1      -6.079   5.546  -1.465  0.00  0.00     0.298 HD
ENDROOT
TORSDOF 0
ENDMDL
