MODEL 1
REMARK minimizedAffinity 19.2898121
REMARK minimizedRMSD -1
REMARK  0 active torsions:
REMARK  status: ('A' for Active; 'I' for Inactive)
ROOT
ATOM      1  N1  IND d   1       3.508  -4.288  -2.923  0.00  0.00    -0.196 N 
ATOM      2  C2  IND d   1       2.771  -4.898  -3.899  0.00  0.00     0.054 A 
ATOM      3  C3  IND d   1       1.524  -5.165  -3.449  0.00  0.00    -0.031 A 
ATOM      4  C4  IND d   1       0.447  -4.598  -1.181  0.00  0.00     0.051 A 
ATOM      5  C5  IND d   1       0.737  -4.075   0.048  0.00  0.00    -0.031 A 
ATOM      6  C6  IND d   1       1.989  -3.584   0.355  0.00  0.00     0.015 A 
ATOM      7  C7  IND d   1       3.000  -3.588  -0.563  0.00  0.00    -0.016 A 
ATOM      8  C8  IND d   1       2.712  -4.124  -1.810  0.00  0.00    -0.047 A 
ATOM      9  C9  IND d   1       1.455  -4.662  -2.114  0.00  0.00    -0.096 A 
ATOM     10  HN1 IND d   1       4.331  -4.047  -2.992  0.00  0.00     0.298 HD
ENDROOT
TORSDOF 0
ENDMDL
