MODEL 1
REMARK minimizedAffinity 7.73691893
REMARK minimizedRMSD -1
REMARK  0 active torsions:
REMARK  status: ('A' for Active; 'I' for Inactive)
ROOT
ATOM      1  N1  IND d   1      -2.551   3.454   2.297  0.00  0.00    -0.196 N 
ATOM      2  C2  IND d   1      -3.320   3.846   1.237  0.00  0.00     0.054 A 
ATOM      3  C3  IND d   1      -2.678   3.598   0.074  0.00  0.00    -0.031 A 
ATOM      4  C4  IND d   1      -0.405   2.461  -0.331  0.00  0.00     0.051 A 
ATOM      5  C5  IND d   1       0.683   1.962   0.330  0.00  0.00    -0.031 A 
ATOM      6  C6  IND d   1       0.748   1.932   1.708  0.00  0.00     0.015 A 
ATOM      7  C7  IND d   1      -0.281   2.391   2.480  0.00  0.00    -0.016 A 
ATOM      8  C8  IND d   1      -1.384   2.905   1.813  0.00  0.00    -0.047 A 
ATOM      9  C9  IND d   1      -1.438   2.977   0.415  0.00  0.00    -0.096 A 
ATOM     10  HN1 IND d   1      -2.761   3.536   3.127  0.00  0.00     0.298 HD
ENDROOT
TORSDOF 0
ENDMDL
