MODEL 1
REMARK minimizedAffinity 13.2265692
REMARK minimizedRMSD -1
REMARK  0 active torsions:
REMARK  status: ('A' for Active; 'I' for Inactive)
ROOT
ATOM      1  N1  IND d   1       1.857  -5.296  -1.277  0.00  0.00    -0.196 N 
ATOM      2  C2  IND d   1       1.684  -4.666  -0.076  0.00  0.00     0.054 A 
ATOM      3  C3  IND d   1       2.864  -4.188   0.379  0.00  0.00    -0.031 A 
ATOM      4  C4  IND d   1       5.186  -4.239  -0.732  0.00  0.00     0.051 A 
ATOM      5  C5  IND d   1       5.851  -4.737  -1.817  0.00  0.00    -0.031 A 
ATOM      6  C6  IND d   1       5.204  -5.460  -2.799  0.00  0.00     0.015 A 
ATOM      7  C7  IND d   1       3.861  -5.702  -2.737  0.00  0.00    -0.016 A 
ATOM      8  C8  IND d   1       3.184  -5.204  -1.633  0.00  0.00    -0.047 A 
ATOM      9  C9  IND d   1       3.843  -4.506  -0.612  0.00  0.00    -0.096 A 
ATOM     10  HN1 IND d   1       1.240  -5.686  -1.732  0.00  0.00     0.298 HD
ENDROOT
TORSDOF 0
ENDMDL
