MODEL 1
REMARK minimizedAffinity 9.73270035
REMARK minimizedRMSD -1
REMARK  0 active torsions:
REMARK  status: ('A' for Active; 'I' for Inactive)
ROOT
ATOM      1  N1  IND d   1       2.565   4.306  -1.272  0.00  0.00    -0.196 N 
ATOM      2  C2  IND d   1       2.262   5.588  -1.635  0.00  0.00     0.054 A 
ATOM      3  C3  IND d   1       0.939   5.820  -1.481  0.00  0.00    -0.031 A 
ATOM      4  C4  IND d   1      -0.896   4.272  -0.553  0.00  0.00     0.051 A 
ATOM      5  C5  IND d   1      -1.110   2.992  -0.125  0.00  0.00    -0.031 A 
ATOM      6  C6  IND d   1      -0.089   2.066  -0.053  0.00  0.00     0.015 A 
ATOM      7  C7  IND d   1       1.192   2.391  -0.397  0.00  0.00    -0.016 A 
ATOM      8  C8  IND d   1       1.412   3.688  -0.839  0.00  0.00    -0.047 A 
ATOM      9  C9  IND d   1       0.372   4.619  -0.955  0.00  0.00    -0.096 A 
ATOM     10  HN1 IND d   1       3.345   3.945  -1.308  0.00  0.00     0.298 HD
ENDROOT
TORSDOF 0
ENDMDL
