MODEL 1
REMARK minimizedAffinity 11.7341337
REMARK minimizedRMSD -1
REMARK  0 active torsions:
REMARK  status: ('A' for Active; 'I' for Inactive)
ROOT
ATOM      1  N1  IND d   1       1.775   4.048  -0.897  0.00  0.00    -0.196 N 
ATOM      2  C2  IND d   1       1.236   5.118  -1.555  0.00  0.00     0.054 A 
ATOM      3  C3  IND d   1      -0.110   5.121  -1.425  0.00  0.00    -0.031 A 
ATOM      4  C4  IND d   1      -1.627   3.525  -0.092  0.00  0.00     0.051 A 
ATOM      5  C5  IND d   1      -1.597   2.373   0.643  0.00  0.00    -0.031 A 
ATOM      6  C6  IND d   1      -0.418   1.709   0.910  0.00  0.00     0.015 A 
ATOM      7  C7  IND d   1       0.783   2.180   0.459  0.00  0.00    -0.016 A 
ATOM      8  C8  IND d   1       0.756   3.345  -0.294  0.00  0.00    -0.047 A 
ATOM      9  C9  IND d   1      -0.443   4.001  -0.604  0.00  0.00    -0.096 A 
ATOM     10  HN1 IND d   1       2.611   3.848  -0.866  0.00  0.00     0.298 HD
ENDROOT
TORSDOF 0
ENDMDL
