MODEL 1
REMARK minimizedAffinity -3.07709837
REMARK minimizedRMSD -1
REMARK  1 active torsions:
REMARK  status: ('A' for Active; 'I' for Inactive)
REMARK    1  A    between atoms: C3_4  and  O_7 
ROOT
ATOM      1  C   UNL d   1       2.483   1.496   2.000  0.00  0.00    -0.033 A 
ATOM      2  C1  UNL d   1       3.596   2.334   2.102  0.00  0.00     0.039 A 
ATOM      3  C2  UNL d   1       4.160   2.891   0.953  0.00  0.00    -0.080 A 
ATOM      4  C3  UNL d   1       3.604   2.603  -0.290  0.00  0.00     0.150 A 
ATOM      5  C4  UNL d   1       2.494   1.772  -0.399  0.00  0.00    -0.007 A 
ATOM      6  C5  UNL d   1       1.932   1.216   0.749  0.00  0.00     0.039 A 
ENDROOT
BRANCH   4   7
ATOM      7  O   UNL d   1       4.124   3.119  -1.440  0.00  0.00    -0.526 OA
ATOM      8  H5  UNL d   1       4.905   3.651  -1.213  0.00  0.00     0.418 HD
ENDBRANCH   4   7
TORSDOF 1
ENDMDL
