MODEL 1
REMARK minimizedAffinity -1.72222376
REMARK minimizedRMSD -1
REMARK  1 active torsions:
REMARK  status: ('A' for Active; 'I' for Inactive)
REMARK    1  A    between atoms: C3_4  and  O_7 
ROOT
ATOM      1  C   UNL d   1       1.252   0.147   0.391  0.00  0.00    -0.033 A 
ATOM      2  C1  UNL d   1       0.627  -0.945   0.996  0.00  0.00     0.039 A 
ATOM      3  C2  UNL d   1      -0.610  -1.393   0.528  0.00  0.00    -0.080 A 
ATOM      4  C3  UNL d   1      -1.210  -0.741  -0.546  0.00  0.00     0.150 A 
ATOM      5  C4  UNL d   1      -0.591   0.345  -1.157  0.00  0.00    -0.007 A 
ATOM      6  C5  UNL d   1       0.643   0.791  -0.687  0.00  0.00     0.039 A 
ENDROOT
BRANCH   4   7
ATOM      7  O   UNL d   1      -2.419  -1.139  -1.036  0.00  0.00    -0.526 OA
ATOM      8  H5  UNL d   1      -2.739  -1.882  -0.498  0.00  0.00     0.418 HD
ENDBRANCH   4   7
TORSDOF 1
ENDMDL
