MODEL 1
REMARK minimizedAffinity -3.31937861
REMARK minimizedRMSD -1
REMARK  1 active torsions:
REMARK  status: ('A' for Active; 'I' for Inactive)
REMARK    1  A    between atoms: C3_4  and  O_7 
ROOT
ATOM      1  C   UNL d   1       1.914   0.871   0.991  0.00  0.00    -0.033 A 
ATOM      2  C1  UNL d   1       2.403   0.879  -0.316  0.00  0.00     0.039 A 
ATOM      3  C2  UNL d   1       3.025   2.021  -0.824  0.00  0.00    -0.080 A 
ATOM      4  C3  UNL d   1       3.153   3.147  -0.015  0.00  0.00     0.150 A 
ATOM      5  C4  UNL d   1       2.671   3.145   1.290  0.00  0.00    -0.007 A 
ATOM      6  C5  UNL d   1       2.049   2.004   1.795  0.00  0.00     0.039 A 
ENDROOT
BRANCH   4   7
ATOM      7  O   UNL d   1       3.748   4.286  -0.468  0.00  0.00    -0.526 OA
ATOM      8  H5  UNL d   1       4.006   4.151  -1.395  0.00  0.00     0.418 HD
ENDBRANCH   4   7
TORSDOF 1
ENDMDL
