MODEL 1
REMARK minimizedAffinity -4.55823421
REMARK minimizedRMSD -1
REMARK  1 active torsions:
REMARK  status: ('A' for Active; 'I' for Inactive)
REMARK    1  A    between atoms: C3_4  and  O_7 
ROOT
ATOM      1  C   UNL d   1      -0.727   0.302  -1.618  0.00  0.00    -0.033 A 
ATOM      2  C1  UNL d   1      -1.920  -0.324  -1.250  0.00  0.00     0.039 A 
ATOM      3  C2  UNL d   1      -1.959  -1.149  -0.124  0.00  0.00    -0.080 A 
ATOM      4  C3  UNL d   1      -0.801  -1.337   0.625  0.00  0.00     0.150 A 
ATOM      5  C4  UNL d   1       0.389  -0.713   0.267  0.00  0.00    -0.007 A 
ATOM      6  C5  UNL d   1       0.427   0.109  -0.858  0.00  0.00     0.039 A 
ENDROOT
BRANCH   4   7
ATOM      7  O   UNL d   1      -0.789  -2.137   1.730  0.00  0.00    -0.526 OA
ATOM      8  H5  UNL d   1      -1.674  -2.524   1.839  0.00  0.00     0.418 HD
ENDBRANCH   4   7
TORSDOF 1
ENDMDL
