MODEL 1
REMARK minimizedAffinity -3.23344493
REMARK minimizedRMSD -1
REMARK  1 active torsions:
REMARK  status: ('A' for Active; 'I' for Inactive)
REMARK    1  A    between atoms: C3_4  and  O_7 
ROOT
ATOM      1  C   UNL d   1       2.119   1.958   1.179  0.00  0.00    -0.033 A 
ATOM      2  C1  UNL d   1       2.862   1.368   0.155  0.00  0.00     0.039 A 
ATOM      3  C2  UNL d   1       3.579   2.166  -0.739  0.00  0.00    -0.080 A 
ATOM      4  C3  UNL d   1       3.547   3.550  -0.596  0.00  0.00     0.150 A 
ATOM      5  C4  UNL d   1       2.813   4.145   0.425  0.00  0.00    -0.007 A 
ATOM      6  C5  UNL d   1       2.096   3.347   1.315  0.00  0.00     0.039 A 
ENDROOT
BRANCH   4   7
ATOM      7  O   UNL d   1       4.227   4.370  -1.447  0.00  0.00    -0.526 OA
ATOM      8  H5  UNL d   1       4.665   3.821  -2.119  0.00  0.00     0.418 HD
ENDBRANCH   4   7
TORSDOF 1
ENDMDL
