MODEL 1
REMARK minimizedAffinity -1.99212849
REMARK minimizedRMSD -1
REMARK  1 active torsions:
REMARK  status: ('A' for Active; 'I' for Inactive)
REMARK    1  A    between atoms: C3_4  and  O_7 
ROOT
ATOM      1  C   UNL d   1       1.241   0.556  -0.110  0.00  0.00    -0.033 A 
ATOM      2  C1  UNL d   1       0.628   1.338  -1.092  0.00  0.00     0.039 A 
ATOM      3  C2  UNL d   1      -0.632   0.986  -1.580  0.00  0.00    -0.080 A 
ATOM      4  C3  UNL d   1      -1.267  -0.147  -1.080  0.00  0.00     0.150 A 
ATOM      5  C4  UNL d   1      -0.664  -0.928  -0.099  0.00  0.00    -0.007 A 
ATOM      6  C5  UNL d   1       0.594  -0.576   0.387  0.00  0.00     0.039 A 
ENDROOT
BRANCH   4   7
ATOM      7  O   UNL d   1      -2.495  -0.533  -1.529  0.00  0.00    -0.526 OA
ATOM      8  H5  UNL d   1      -2.776   0.085  -2.226  0.00  0.00     0.418 HD
ENDBRANCH   4   7
TORSDOF 1
ENDMDL
