MODEL 1
REMARK minimizedAffinity -2.28702784
REMARK minimizedRMSD -1
REMARK  1 active torsions:
REMARK  status: ('A' for Active; 'I' for Inactive)
REMARK    1  A    between atoms: C3_4  and  O_7 
ROOT
ATOM      1  C   UNL d   1      -1.813  -0.821  -1.546  0.00  0.00    -0.033 A 
ATOM      2  C1  UNL d   1      -1.445   0.476  -1.910  0.00  0.00     0.039 A 
ATOM      3  C2  UNL d   1      -0.393   1.115  -1.253  0.00  0.00    -0.080 A 
ATOM      4  C3  UNL d   1       0.283   0.448  -0.235  0.00  0.00     0.150 A 
ATOM      5  C4  UNL d   1      -0.076  -0.845   0.131  0.00  0.00    -0.007 A 
ATOM      6  C5  UNL d   1      -1.128  -1.482  -0.526  0.00  0.00     0.039 A 
ENDROOT
BRANCH   4   7
ATOM      7  O   UNL d   1       1.314   1.034   0.439  0.00  0.00    -0.526 OA
ATOM      8  H5  UNL d   1       1.431   1.936   0.098  0.00  0.00     0.418 HD
ENDBRANCH   4   7
TORSDOF 1
ENDMDL
