MODEL 1
REMARK minimizedAffinity -3.3255918
REMARK minimizedRMSD -1
REMARK  1 active torsions:
REMARK  status: ('A' for Active; 'I' for Inactive)
REMARK    1  A    between atoms: C3_4  and  O_7 
ROOT
ATOM      1  C   UNL d   1      -0.432   0.370  -1.627  0.00  0.00    -0.033 A 
ATOM      2  C1  UNL d   1      -1.613  -0.300  -1.302  0.00  0.00     0.039 A 
ATOM      3  C2  UNL d   1      -1.649  -1.162  -0.205  0.00  0.00    -0.080 A 
ATOM      4  C3  UNL d   1      -0.500  -1.345   0.559  0.00  0.00     0.150 A 
ATOM      5  C4  UNL d   1       0.679  -0.677   0.243  0.00  0.00    -0.007 A 
ATOM      6  C5  UNL d   1       0.713   0.183  -0.853  0.00  0.00     0.039 A 
ENDROOT
BRANCH   4   7
ATOM      7  O   UNL d   1      -0.485  -2.180   1.636  0.00  0.00    -0.526 OA
ATOM      8  H5  UNL d   1      -1.361  -2.594   1.717  0.00  0.00     0.418 HD
ENDBRANCH   4   7
TORSDOF 1
ENDMDL
