MODEL 1
REMARK minimizedAffinity 0.840730071
REMARK minimizedRMSD -1
REMARK  1 active torsions:
REMARK  status: ('A' for Active; 'I' for Inactive)
REMARK    1  A    between atoms: C3_4  and  O_7 
ROOT
ATOM      1  C   UNL d   1      -2.486  -1.763  -1.070  0.00  0.00    -0.033 A 
ATOM      2  C1  UNL d   1      -1.592  -1.898  -2.133  0.00  0.00     0.039 A 
ATOM      3  C2  UNL d   1      -1.217  -0.779  -2.879  0.00  0.00    -0.080 A 
ATOM      4  C3  UNL d   1      -1.742   0.468  -2.551  0.00  0.00     0.150 A 
ATOM      5  C4  UNL d   1      -2.630   0.610  -1.490  0.00  0.00    -0.007 A 
ATOM      6  C5  UNL d   1      -3.004  -0.509  -0.747  0.00  0.00     0.039 A 
ENDROOT
BRANCH   4   7
ATOM      7  O   UNL d   1      -1.409   1.588  -3.252  0.00  0.00    -0.526 OA
ATOM      8  H5  UNL d   1      -0.810   1.333  -3.974  0.00  0.00     0.418 HD
ENDBRANCH   4   7
TORSDOF 1
ENDMDL
