MODEL 1
REMARK minimizedAffinity -0.363998055
REMARK minimizedRMSD -1
REMARK  1 active torsions:
REMARK  status: ('A' for Active; 'I' for Inactive)
REMARK    1  A    between atoms: C3_4  and  O_7 
ROOT
ATOM      1  C   UNL d   1       2.852   3.826   0.882  0.00  0.00    -0.033 A 
ATOM      2  C1  UNL d   1       2.512   3.014   1.965  0.00  0.00     0.039 A 
ATOM      3  C2  UNL d   1       2.167   1.677   1.756  0.00  0.00    -0.080 A 
ATOM      4  C3  UNL d   1       2.167   1.165   0.462  0.00  0.00     0.150 A 
ATOM      5  C4  UNL d   1       2.509   1.968  -0.622  0.00  0.00    -0.007 A 
ATOM      6  C5  UNL d   1       2.853   3.303  -0.412  0.00  0.00     0.039 A 
ENDROOT
BRANCH   4   7
ATOM      7  O   UNL d   1       1.833  -0.132   0.208  0.00  0.00    -0.526 OA
ATOM      8  H5  UNL d   1       1.592  -0.557   1.048  0.00  0.00     0.418 HD
ENDBRANCH   4   7
TORSDOF 1
ENDMDL
