MODEL 1
REMARK minimizedAffinity -1.75174332
REMARK minimizedRMSD -1
REMARK  1 active torsions:
REMARK  status: ('A' for Active; 'I' for Inactive)
REMARK    1  A    between atoms: C3_4  and  O_7 
ROOT
ATOM      1  C   UNL d   1       2.604   3.110   1.465  0.00  0.00    -0.033 A 
ATOM      2  C1  UNL d   1       3.048   2.836   0.170  0.00  0.00     0.039 A 
ATOM      3  C2  UNL d   1       2.545   1.733  -0.524  0.00  0.00    -0.080 A 
ATOM      4  C3  UNL d   1       1.599   0.915   0.088  0.00  0.00     0.150 A 
ATOM      5  C4  UNL d   1       1.149   1.185   1.376  0.00  0.00    -0.007 A 
ATOM      6  C5  UNL d   1       1.654   2.286   2.067  0.00  0.00     0.039 A 
ENDROOT
BRANCH   4   7
ATOM      7  O   UNL d   1       1.082  -0.175  -0.548  0.00  0.00    -0.526 OA
ATOM      8  H5  UNL d   1       1.507  -0.253  -1.419  0.00  0.00     0.418 HD
ENDBRANCH   4   7
TORSDOF 1
ENDMDL
