MODEL 1
REMARK minimizedAffinity -3.30287671
REMARK minimizedRMSD -1
REMARK  1 active torsions:
REMARK  status: ('A' for Active; 'I' for Inactive)
REMARK    1  A    between atoms: C3_4  and  O_7 
ROOT
ATOM      1  C   UNL d   1      -2.973  -2.046  -0.425  0.00  0.00    -0.033 A 
ATOM      2  C1  UNL d   1      -1.989  -2.610   0.390  0.00  0.00     0.039 A 
ATOM      3  C2  UNL d   1      -0.810  -1.910   0.651  0.00  0.00    -0.080 A 
ATOM      4  C3  UNL d   1      -0.627  -0.648   0.093  0.00  0.00     0.150 A 
ATOM      5  C4  UNL d   1      -1.604  -0.078  -0.717  0.00  0.00    -0.007 A 
ATOM      6  C5  UNL d   1      -2.781  -0.779  -0.977  0.00  0.00     0.039 A 
ENDROOT
BRANCH   4   7
ATOM      7  O   UNL d   1       0.510   0.072   0.315  0.00  0.00    -0.526 OA
ATOM      8  H5  UNL d   1       1.107  -0.459   0.868  0.00  0.00     0.418 HD
ENDBRANCH   4   7
TORSDOF 1
ENDMDL
