MODEL 1
REMARK minimizedAffinity -4.00359201
REMARK minimizedRMSD -1
REMARK  1 active torsions:
REMARK  status: ('A' for Active; 'I' for Inactive)
REMARK    1  A    between atoms: C3_4  and  O_7 
ROOT
ATOM      1  C   UNL d   1       1.388   0.452  -0.209  0.00  0.00    -0.033 A 
ATOM      2  C1  UNL d   1       0.878   0.966  -1.403  0.00  0.00     0.039 A 
ATOM      3  C2  UNL d   1      -0.454   0.735  -1.752  0.00  0.00    -0.080 A 
ATOM      4  C3  UNL d   1      -1.264  -0.009  -0.900  0.00  0.00     0.150 A 
ATOM      5  C4  UNL d   1      -0.764  -0.520   0.293  0.00  0.00    -0.007 A 
ATOM      6  C5  UNL d   1       0.566  -0.290   0.640  0.00  0.00     0.039 A 
ENDROOT
BRANCH   4   7
ATOM      7  O   UNL d   1      -2.569  -0.264  -1.200  0.00  0.00    -0.526 OA
ATOM      8  H5  UNL d   1      -2.768   0.127  -2.067  0.00  0.00     0.418 HD
ENDBRANCH   4   7
TORSDOF 1
ENDMDL
