MODEL 1
REMARK minimizedAffinity -3.53245926
REMARK minimizedRMSD -1
REMARK  1 active torsions:
REMARK  status: ('A' for Active; 'I' for Inactive)
REMARK    1  A    between atoms: C3_4  and  O_7 
ROOT
ATOM      1  C   UNL d   1       2.880   3.321   1.239  0.00  0.00    -0.033 A 
ATOM      2  C1  UNL d   1       2.366   2.756   2.407  0.00  0.00     0.039 A 
ATOM      3  C2  UNL d   1       2.036   1.400   2.443  0.00  0.00    -0.080 A 
ATOM      4  C3  UNL d   1       2.226   0.620   1.306  0.00  0.00     0.150 A 
ATOM      5  C4  UNL d   1       2.742   1.175   0.139  0.00  0.00    -0.007 A 
ATOM      6  C5  UNL d   1       3.070   2.530   0.105  0.00  0.00     0.039 A 
ENDROOT
BRANCH   4   7
ATOM      7  O   UNL d   1       1.914  -0.707   1.291  0.00  0.00    -0.526 OA
ATOM      8  H5  UNL d   1       1.541  -0.945   2.157  0.00  0.00     0.418 HD
ENDBRANCH   4   7
TORSDOF 1
ENDMDL
