MODEL 1
REMARK minimizedAffinity -3.11856437
REMARK minimizedRMSD -1
REMARK  1 active torsions:
REMARK  status: ('A' for Active; 'I' for Inactive)
REMARK    1  A    between atoms: C3_4  and  O_7 
ROOT
ATOM      1  C   UNL d   1      -2.106  -0.130  -1.293  0.00  0.00    -0.033 A 
ATOM      2  C1  UNL d   1      -1.814  -0.891  -0.160  0.00  0.00     0.039 A 
ATOM      3  C2  UNL d   1      -0.577  -0.757   0.474  0.00  0.00    -0.080 A 
ATOM      4  C3  UNL d   1       0.358   0.140  -0.036  0.00  0.00     0.150 A 
ATOM      5  C4  UNL d   1       0.072   0.904  -1.162  0.00  0.00    -0.007 A 
ATOM      6  C5  UNL d   1      -1.163   0.769  -1.794  0.00  0.00     0.039 A 
ENDROOT
BRANCH   4   7
ATOM      7  O   UNL d   1       1.580   0.302   0.545  0.00  0.00    -0.526 OA
ATOM      8  H5  UNL d   1       1.647  -0.311   1.296  0.00  0.00     0.418 HD
ENDBRANCH   4   7
TORSDOF 1
ENDMDL
