MODEL 1
REMARK minimizedAffinity -2.23751903
REMARK minimizedRMSD -1
REMARK  1 active torsions:
REMARK  status: ('A' for Active; 'I' for Inactive)
REMARK    1  A    between atoms: C3_4  and  O_7 
ROOT
ATOM      1  C   UNL d   1      -1.914  -0.593  -1.495  0.00  0.00    -0.033 A 
ATOM      2  C1  UNL d   1      -1.458  -1.363  -0.423  0.00  0.00     0.039 A 
ATOM      3  C2  UNL d   1      -0.313  -0.979   0.278  0.00  0.00    -0.080 A 
ATOM      4  C3  UNL d   1       0.364   0.177  -0.101  0.00  0.00     0.150 A 
ATOM      5  C4  UNL d   1      -0.086   0.951  -1.165  0.00  0.00    -0.007 A 
ATOM      6  C5  UNL d   1      -1.229   0.565  -1.865  0.00  0.00     0.039 A 
ENDROOT
BRANCH   4   7
ATOM      7  O   UNL d   1       1.488   0.589   0.551  0.00  0.00    -0.526 OA
ATOM      8  H5  UNL d   1       1.698  -0.058   1.244  0.00  0.00     0.418 HD
ENDBRANCH   4   7
TORSDOF 1
ENDMDL
