MODEL 1
REMARK minimizedAffinity -1.84616256
REMARK minimizedRMSD -1
REMARK  0 active torsions:
REMARK  status: ('A' for Active; 'I' for Inactive)
ROOT
ATOM      1  C2' OXE d   1       1.341  -0.288  -1.724  0.00  0.00     0.078 C 
ATOM      2  C1' OXE d   1       2.859   0.938   0.293  0.00  0.00     0.078 C 
ATOM      3  C1  OXE d   1       1.532   0.335   0.680  0.00  0.00    -0.078 A 
ATOM      4  C2  OXE d   1       0.775  -0.222  -0.322  0.00  0.00    -0.078 A 
ATOM      5  C3  OXE d   1      -0.432  -0.841  -0.011  0.00  0.00     0.003 A 
ATOM      6  C4  OXE d   1      -0.954  -0.766   1.286  0.00  0.00    -0.002 A 
ATOM      7  C5  OXE d   1      -0.217  -0.169   2.314  0.00  0.00    -0.002 A 
ATOM      8  C6  OXE d   1       1.044   0.348   2.037  0.00  0.00     0.003 A 
ENDROOT
TORSDOF 0
ENDMDL
