MODEL 1
REMARK minimizedAffinity -4.537117
REMARK minimizedRMSD -1
REMARK  0 active torsions:
REMARK  status: ('A' for Active; 'I' for Inactive)
ROOT
ATOM      1  C2' OXE d   1      -1.300   0.804  -2.192  0.00  0.00     0.078 C 
ATOM      2  C1' OXE d   1       1.203  -0.038  -3.142  0.00  0.00     0.078 C 
ATOM      3  C1  OXE d   1       0.904  -0.236  -1.677  0.00  0.00    -0.078 A 
ATOM      4  C2  OXE d   1      -0.306   0.221  -1.212  0.00  0.00    -0.078 A 
ATOM      5  C3  OXE d   1      -0.654   0.015   0.120  0.00  0.00     0.003 A 
ATOM      6  C4  OXE d   1       0.275  -0.516   1.022  0.00  0.00    -0.002 A 
ATOM      7  C5  OXE d   1       1.528  -0.952   0.577  0.00  0.00    -0.002 A 
ATOM      8  C6  OXE d   1       1.840  -0.859  -0.775  0.00  0.00     0.003 A 
ENDROOT
TORSDOF 0
ENDMDL
