MODEL 1
REMARK minimizedAffinity -2.17978573
REMARK minimizedRMSD -1
REMARK  0 active torsions:
REMARK  status: ('A' for Active; 'I' for Inactive)
ROOT
ATOM      1  C2' OXE d   1       0.267  -0.116  -0.428  0.00  0.00     0.078 C 
ATOM      2  C1' OXE d   1       1.244  -0.651   2.148  0.00  0.00     0.078 C 
ATOM      3  C1  OXE d   1      -0.230  -0.370   2.000  0.00  0.00    -0.078 A 
ATOM      4  C2  OXE d   1      -0.692  -0.064   0.742  0.00  0.00    -0.078 A 
ATOM      5  C3  OXE d   1      -2.052   0.150   0.541  0.00  0.00     0.003 A 
ATOM      6  C4  OXE d   1      -2.930   0.207   1.630  0.00  0.00    -0.002 A 
ATOM      7  C5  OXE d   1      -2.473  -0.064   2.924  0.00  0.00    -0.002 A 
ATOM      8  C6  OXE d   1      -1.137  -0.395   3.120  0.00  0.00     0.003 A 
ENDROOT
TORSDOF 0
ENDMDL
