MODEL 1
REMARK minimizedAffinity -4.78479576
REMARK minimizedRMSD -1
REMARK  0 active torsions:
REMARK  status: ('A' for Active; 'I' for Inactive)
ROOT
ATOM      1  C2' OXE d   1      -0.232  -1.050   0.494  0.00  0.00     0.078 C 
ATOM      2  C1' OXE d   1       0.023   1.118  -1.271  0.00  0.00     0.078 C 
ATOM      3  C1  OXE d   1       0.397  -0.252  -1.780  0.00  0.00    -0.078 A 
ATOM      4  C2  OXE d   1       0.314  -1.300  -0.895  0.00  0.00    -0.078 A 
ATOM      5  C3  OXE d   1       0.596  -2.592  -1.329  0.00  0.00     0.003 A 
ATOM      6  C4  OXE d   1       1.109  -2.813  -2.613  0.00  0.00    -0.002 A 
ATOM      7  C5  OXE d   1       1.240  -1.753  -3.517  0.00  0.00    -0.002 A 
ATOM      8  C6  OXE d   1       0.849  -0.476  -3.131  0.00  0.00     0.003 A 
ENDROOT
TORSDOF 0
ENDMDL
