MODEL 1
REMARK minimizedAffinity -3.36732173
REMARK minimizedRMSD -1
REMARK  0 active torsions:
REMARK  status: ('A' for Active; 'I' for Inactive)
ROOT
ATOM      1  C2' OXE d   1      -0.859   0.143  -0.105  0.00  0.00     0.078 C 
ATOM      2  C1' OXE d   1       1.473  -1.266   0.569  0.00  0.00     0.078 C 
ATOM      3  C1  OXE d   1       1.156  -1.090  -0.895  0.00  0.00    -0.078 A 
ATOM      4  C2  OXE d   1      -0.012  -0.439  -1.215  0.00  0.00    -0.078 A 
ATOM      5  C3  OXE d   1      -0.325  -0.202  -2.551  0.00  0.00     0.003 A 
ATOM      6  C4  OXE d   1       0.459  -0.753  -3.571  0.00  0.00    -0.002 A 
ATOM      7  C5  OXE d   1       1.631  -1.453  -3.267  0.00  0.00    -0.002 A 
ATOM      8  C6  OXE d   1       2.016  -1.593  -1.938  0.00  0.00     0.003 A 
ENDROOT
TORSDOF 0
ENDMDL
