MODEL 1
REMARK minimizedAffinity -1.70400846
REMARK minimizedRMSD -1
REMARK  0 active torsions:
REMARK  status: ('A' for Active; 'I' for Inactive)
ROOT
ATOM      1  C2' OXE d   1      -0.252  -0.088  -0.928  0.00  0.00     0.078 C 
ATOM      2  C1' OXE d   1       1.663   0.004   1.122  0.00  0.00     0.078 C 
ATOM      3  C1  OXE d   1       0.208   0.077   1.514  0.00  0.00    -0.078 A 
ATOM      4  C2  OXE d   1      -0.720   0.078   0.502  0.00  0.00    -0.078 A 
ATOM      5  C3  OXE d   1      -2.077   0.088   0.811  0.00  0.00     0.003 A 
ATOM      6  C4  OXE d   1      -2.502   0.252   2.135  0.00  0.00    -0.002 A 
ATOM      7  C5  OXE d   1      -1.571   0.293   3.179  0.00  0.00    -0.002 A 
ATOM      8  C6  OXE d   1      -0.217   0.164   2.890  0.00  0.00     0.003 A 
ENDROOT
TORSDOF 0
ENDMDL
