MODEL 1
REMARK minimizedAffinity -3.13215137
REMARK minimizedRMSD -1
REMARK  0 active torsions:
REMARK  status: ('A' for Active; 'I' for Inactive)
ROOT
ATOM      1  C2' OXE d   1       0.388   0.036  -1.885  0.00  0.00     0.078 C 
ATOM      2  C1' OXE d   1      -2.052   0.666  -0.648  0.00  0.00     0.078 C 
ATOM      3  C1  OXE d   1      -0.870   0.369   0.240  0.00  0.00    -0.078 A 
ATOM      4  C2  OXE d   1       0.308   0.016  -0.373  0.00  0.00    -0.078 A 
ATOM      5  C3  OXE d   1       1.444  -0.214   0.397  0.00  0.00     0.003 A 
ATOM      6  C4  OXE d   1       1.360  -0.239   1.795  0.00  0.00    -0.002 A 
ATOM      7  C5  OXE d   1       0.159   0.078   2.439  0.00  0.00    -0.002 A 
ATOM      8  C6  OXE d   1      -0.951   0.426   1.678  0.00  0.00     0.003 A 
ENDROOT
TORSDOF 0
ENDMDL
