MODEL 1
REMARK minimizedAffinity -3.31406021
REMARK minimizedRMSD -1
REMARK  0 active torsions:
REMARK  status: ('A' for Active; 'I' for Inactive)
ROOT
ATOM      1  C2' OXE d   1       2.132   0.316   1.199  0.00  0.00     0.078 C 
ATOM      2  C1' OXE d   1      -0.191  -0.296   2.652  0.00  0.00     0.078 C 
ATOM      3  C1  OXE d   1      -0.342   0.023   1.186  0.00  0.00    -0.078 A 
ATOM      4  C2  OXE d   1       0.794   0.367   0.493  0.00  0.00    -0.078 A 
ATOM      5  C3  OXE d   1       0.719   0.617  -0.874  0.00  0.00     0.003 A 
ATOM      6  C4  OXE d   1      -0.523   0.672  -1.517  0.00  0.00    -0.002 A 
ATOM      7  C5  OXE d   1      -1.697   0.364  -0.821  0.00  0.00    -0.002 A 
ATOM      8  C6  OXE d   1      -1.619  -0.004   0.518  0.00  0.00     0.003 A 
ENDROOT
TORSDOF 0
ENDMDL
