MODEL 1
REMARK minimizedAffinity -3.13637829
REMARK minimizedRMSD -1
REMARK  0 active torsions:
REMARK  status: ('A' for Active; 'I' for Inactive)
ROOT
ATOM      1  C2' OXE d   1       1.495  -2.538  -3.717  0.00  0.00     0.078 C 
ATOM      2  C1' OXE d   1       0.653  -0.116  -2.575  0.00  0.00     0.078 C 
ATOM      3  C1  OXE d   1       1.983  -0.133  -3.287  0.00  0.00    -0.078 A 
ATOM      4  C2  OXE d   1       2.408  -1.334  -3.803  0.00  0.00    -0.078 A 
ATOM      5  C3  OXE d   1       3.602  -1.393  -4.517  0.00  0.00     0.003 A 
ATOM      6  C4  OXE d   1       4.445  -0.277  -4.583  0.00  0.00    -0.002 A 
ATOM      7  C5  OXE d   1       4.048   0.945  -4.030  0.00  0.00    -0.002 A 
ATOM      8  C6  OXE d   1       2.804   1.045  -3.418  0.00  0.00     0.003 A 
ENDROOT
TORSDOF 0
ENDMDL
