MODEL 1
REMARK minimizedAffinity -1.88107979
REMARK minimizedRMSD -1
REMARK  0 active torsions:
REMARK  status: ('A' for Active; 'I' for Inactive)
ROOT
ATOM      1  C2' OXE d   1       0.789   0.496   2.675  0.00  0.00     0.078 C 
ATOM      2  C1' OXE d   1       0.471  -2.169   1.853  0.00  0.00     0.078 C 
ATOM      3  C1  OXE d   1       0.525  -1.105   0.785  0.00  0.00    -0.078 A 
ATOM      4  C2  OXE d   1       0.634   0.201   1.199  0.00  0.00    -0.078 A 
ATOM      5  C3  OXE d   1       0.743   1.216   0.253  0.00  0.00     0.003 A 
ATOM      6  C4  OXE d   1       0.589   0.936  -1.110  0.00  0.00    -0.002 A 
ATOM      7  C5  OXE d   1       0.437  -0.383  -1.550  0.00  0.00    -0.002 A 
ATOM      8  C6  OXE d   1       0.446  -1.417  -0.621  0.00  0.00     0.003 A 
ENDROOT
TORSDOF 0
ENDMDL
