MODEL 1
REMARK minimizedAffinity -3.69019794
REMARK minimizedRMSD -1
REMARK  0 active torsions:
REMARK  status: ('A' for Active; 'I' for Inactive)
ROOT
ATOM      1  C2' OXE d   1       1.495  -2.146  -3.270  0.00  0.00     0.078 C 
ATOM      2  C1' OXE d   1       0.582   0.392  -4.048  0.00  0.00     0.078 C 
ATOM      3  C1  OXE d   1       0.562   0.057  -2.577  0.00  0.00    -0.078 A 
ATOM      4  C2  OXE d   1       0.967  -1.204  -2.210  0.00  0.00    -0.078 A 
ATOM      5  C3  OXE d   1       1.019  -1.545  -0.862  0.00  0.00     0.003 A 
ATOM      6  C4  OXE d   1       0.519  -0.671   0.111  0.00  0.00    -0.002 A 
ATOM      7  C5  OXE d   1       0.065   0.603  -0.245  0.00  0.00    -0.002 A 
ATOM      8  C6  OXE d   1       0.120   0.998  -1.577  0.00  0.00     0.003 A 
ENDROOT
TORSDOF 0
ENDMDL
