MODEL 1
REMARK minimizedAffinity -1.340657
REMARK minimizedRMSD -1
REMARK  0 active torsions:
REMARK  status: ('A' for Active; 'I' for Inactive)
ROOT
ATOM      1  C2' OXE d   1       1.905  -0.369   1.222  0.00  0.00     0.078 C 
ATOM      2  C1' OXE d   1      -0.256  -0.090   2.992  0.00  0.00     0.078 C 
ATOM      3  C1  OXE d   1      -0.517   0.127   1.523  0.00  0.00    -0.078 A 
ATOM      4  C2  OXE d   1       0.555   0.035   0.669  0.00  0.00    -0.078 A 
ATOM      5  C3  OXE d   1       0.359   0.172  -0.702  0.00  0.00     0.003 A 
ATOM      6  C4  OXE d   1      -0.890   0.555  -1.204  0.00  0.00    -0.002 A 
ATOM      7  C5  OXE d   1      -1.988   0.694  -0.348  0.00  0.00    -0.002 A 
ATOM      8  C6  OXE d   1      -1.828   0.442   1.010  0.00  0.00     0.003 A 
ENDROOT
TORSDOF 0
ENDMDL
