MODEL 1
REMARK minimizedAffinity -4.56795311
REMARK minimizedRMSD -1
REMARK  0 active torsions:
REMARK  status: ('A' for Active; 'I' for Inactive)
ROOT
ATOM      1  C2' OXE d   1       1.828  -1.867   0.371  0.00  0.00     0.078 C 
ATOM      2  C1' OXE d   1       0.448  -0.917  -1.881  0.00  0.00     0.078 C 
ATOM      3  C1  OXE d   1      -0.169  -0.678  -0.526  0.00  0.00    -0.078 A 
ATOM      4  C2  OXE d   1       0.490  -1.187   0.568  0.00  0.00    -0.078 A 
ATOM      5  C3  OXE d   1      -0.007  -0.948   1.845  0.00  0.00     0.003 A 
ATOM      6  C4  OXE d   1      -1.250  -0.327   2.017  0.00  0.00    -0.002 A 
ATOM      7  C5  OXE d   1      -1.957   0.164   0.915  0.00  0.00    -0.002 A 
ATOM      8  C6  OXE d   1      -1.411   0.035  -0.358  0.00  0.00     0.003 A 
ENDROOT
TORSDOF 0
ENDMDL
