MODEL 1
REMARK minimizedAffinity -3.9944036
REMARK minimizedRMSD -1
REMARK  0 active torsions:
REMARK  status: ('A' for Active; 'I' for Inactive)
ROOT
ATOM      1  C2' OXE d   1       0.561  -0.686  -1.324  0.00  0.00     0.078 C 
ATOM      2  C1' OXE d   1       2.462  -1.527   0.563  0.00  0.00     0.078 C 
ATOM      3  C1  OXE d   1       1.188  -0.904   1.077  0.00  0.00    -0.078 A 
ATOM      4  C2  OXE d   1       0.284  -0.453   0.146  0.00  0.00    -0.078 A 
ATOM      5  C3  OXE d   1      -0.932   0.079   0.566  0.00  0.00     0.003 A 
ATOM      6  C4  OXE d   1      -1.176   0.299   1.927  0.00  0.00    -0.002 A 
ATOM      7  C5  OXE d   1      -0.251  -0.116   2.891  0.00  0.00    -0.002 A 
ATOM      8  C6  OXE d   1       0.914  -0.757   2.485  0.00  0.00     0.003 A 
ENDROOT
TORSDOF 0
ENDMDL
