MODEL 1
REMARK minimizedAffinity 1.00646007
REMARK minimizedRMSD -1
REMARK  3 active torsions:
REMARK  status: ('A' for Active; 'I' for Inactive)
REMARK    1  A    between atoms: C3'_2  and  C2'_3 
REMARK    2  A    between atoms: C2'_3  and  C1'_4 
REMARK    3  A    between atoms: C1'_4  and  C1_5 
ROOT
ATOM      1  C1  N4B d   1       4.112  -4.760  -2.510  0.00  0.00    -0.075 A 
ATOM      2  C2  N4B d   1       3.851  -3.387  -2.713  0.00  0.00     0.002 A 
ATOM      3  C3  N4B d   1       4.605  -2.441  -2.062  0.00  0.00     0.002 A 
ATOM      4  C4  N4B d   1       5.608  -2.843  -1.193  0.00  0.00    -0.004 A 
ATOM      5  C5  N4B d   1       5.871  -4.171  -1.023  0.00  0.00     0.002 A 
ATOM      6  C6  N4B d   1       5.124  -5.132  -1.673  0.00  0.00     0.002 A 
ENDROOT
BRANCH   1   7
ATOM      7  C1' N4B d   1       3.259  -5.831  -3.133  0.00  0.00     0.057 C 
BRANCH   7   8
ATOM      8  C2' N4B d   1       1.789  -5.510  -2.880  0.00  0.00     0.009 C 
BRANCH   8   9
ATOM      9  C3' N4B d   1       1.432  -5.607  -1.407  0.00  0.00     0.004 C 
ATOM     10  C4' N4B d   1      -0.007  -5.283  -1.136  0.00  0.00     0.003 C 
ENDBRANCH   8   9
ENDBRANCH   7   8
ENDBRANCH   1   7
TORSDOF 3
ENDMDL
