MODEL 1
REMARK minimizedAffinity 7.31620216
REMARK minimizedRMSD -1
REMARK  3 active torsions:
REMARK  status: ('A' for Active; 'I' for Inactive)
REMARK    1  A    between atoms: C3'_2  and  C2'_3 
REMARK    2  A    between atoms: C2'_3  and  C1'_4 
REMARK    3  A    between atoms: C1'_4  and  C1_5 
ROOT
ATOM      1  C1  N4B d   1       4.421  -4.343  -1.117  0.00  0.00    -0.075 A 
ATOM      2  C2  N4B d   1       5.620  -3.605  -1.218  0.00  0.00     0.002 A 
ATOM      3  C3  N4B d   1       5.670  -2.311  -0.758  0.00  0.00     0.002 A 
ATOM      4  C4  N4B d   1       4.534  -1.732  -0.214  0.00  0.00    -0.004 A 
ATOM      5  C5  N4B d   1       3.386  -2.461  -0.097  0.00  0.00     0.002 A 
ATOM      6  C6  N4B d   1       3.323  -3.763  -0.551  0.00  0.00     0.002 A 
ENDROOT
BRANCH   1   7
ATOM      7  C1' N4B d   1       4.293  -5.731  -1.684  0.00  0.00     0.057 C 
BRANCH   7   8
ATOM      8  C2' N4B d   1       3.328  -5.703  -2.865  0.00  0.00     0.009 C 
BRANCH   8   9
ATOM      9  C3' N4B d   1       3.902  -4.947  -4.050  0.00  0.00     0.004 C 
ATOM     10  C4' N4B d   1       3.467  -3.512  -4.090  0.00  0.00     0.003 C 
ENDBRANCH   8   9
ENDBRANCH   7   8
ENDBRANCH   1   7
TORSDOF 3
ENDMDL
