MODEL 1
REMARK minimizedAffinity 3.90287447
REMARK minimizedRMSD -1
REMARK  3 active torsions:
REMARK  status: ('A' for Active; 'I' for Inactive)
REMARK    1  A    between atoms: C3'_2  and  C2'_3 
REMARK    2  A    between atoms: C2'_3  and  C1'_4 
REMARK    3  A    between atoms: C1'_4  and  C1_5 
ROOT
ATOM      1  C1  N4B d   1       3.881  -3.337  -0.405  0.00  0.00    -0.075 A 
ATOM      2  C2  N4B d   1       5.245  -3.700  -0.459  0.00  0.00     0.002 A 
ATOM      3  C3  N4B d   1       5.996  -3.386  -1.565  0.00  0.00     0.002 A 
ATOM      4  C4  N4B d   1       5.402  -2.730  -2.633  0.00  0.00    -0.004 A 
ATOM      5  C5  N4B d   1       4.091  -2.360  -2.563  0.00  0.00     0.002 A 
ATOM      6  C6  N4B d   1       3.325  -2.666  -1.455  0.00  0.00     0.002 A 
ENDROOT
BRANCH   1   7
ATOM      7  C1' N4B d   1       2.999  -3.734   0.747  0.00  0.00     0.057 C 
BRANCH   7   8
ATOM      8  C2' N4B d   1       2.349  -5.079   0.439  0.00  0.00     0.009 C 
BRANCH   8   9
ATOM      9  C3' N4B d   1       1.313  -4.970  -0.667  0.00  0.00     0.004 C 
ATOM     10  C4' N4B d   1       1.501  -6.000  -1.742  0.00  0.00     0.003 C 
ENDBRANCH   8   9
ENDBRANCH   7   8
ENDBRANCH   1   7
TORSDOF 3
ENDMDL
