MODEL 1
REMARK minimizedAffinity 2.09317207
REMARK minimizedRMSD -1
REMARK  3 active torsions:
REMARK  status: ('A' for Active; 'I' for Inactive)
REMARK    1  A    between atoms: C3'_2  and  C2'_3 
REMARK    2  A    between atoms: C2'_3  and  C1'_4 
REMARK    3  A    between atoms: C1'_4  and  C1_5 
ROOT
ATOM      1  C1  N4B d   1      -3.214   1.794  -2.013  0.00  0.00    -0.075 A 
ATOM      2  C2  N4B d   1      -3.681   3.080  -2.364  0.00  0.00     0.002 A 
ATOM      3  C3  N4B d   1      -5.029   3.341  -2.375  0.00  0.00     0.002 A 
ATOM      4  C4  N4B d   1      -5.926   2.332  -2.060  0.00  0.00    -0.004 A 
ATOM      5  C5  N4B d   1      -5.466   1.099  -1.698  0.00  0.00     0.002 A 
ATOM      6  C6  N4B d   1      -4.114   0.824  -1.678  0.00  0.00     0.002 A 
ENDROOT
BRANCH   1   7
ATOM      7  C1' N4B d   1      -1.754   1.437  -2.069  0.00  0.00     0.057 C 
BRANCH   7   8
ATOM      8  C2' N4B d   1      -1.010   2.199  -0.976  0.00  0.00     0.009 C 
BRANCH   8   9
ATOM      9  C3' N4B d   1      -0.182   3.340  -1.542  0.00  0.00     0.004 C 
ATOM     10  C4' N4B d   1       0.466   4.172  -0.476  0.00  0.00     0.003 C 
ENDBRANCH   8   9
ENDBRANCH   7   8
ENDBRANCH   1   7
TORSDOF 3
ENDMDL
