MODEL 1
REMARK minimizedAffinity 4.82202911
REMARK minimizedRMSD -1
REMARK  3 active torsions:
REMARK  status: ('A' for Active; 'I' for Inactive)
REMARK    1  A    between atoms: C3'_2  and  C2'_3 
REMARK    2  A    between atoms: C2'_3  and  C1'_4 
REMARK    3  A    between atoms: C1'_4  and  C1_5 
ROOT
ATOM      1  C1  N4B d   1       4.226  -4.142  -2.339  0.00  0.00    -0.075 A 
ATOM      2  C2  N4B d   1       3.702  -2.854  -2.588  0.00  0.00     0.002 A 
ATOM      3  C3  N4B d   1       3.973  -1.823  -1.722  0.00  0.00     0.002 A 
ATOM      4  C4  N4B d   1       4.747  -2.060  -0.595  0.00  0.00    -0.004 A 
ATOM      5  C5  N4B d   1       5.270  -3.300  -0.376  0.00  0.00     0.002 A 
ATOM      6  C6  N4B d   1       5.009  -4.345  -1.240  0.00  0.00     0.002 A 
ENDROOT
BRANCH   1   7
ATOM      7  C1' N4B d   1       3.886  -5.319  -3.211  0.00  0.00     0.057 C 
BRANCH   7   8
ATOM      8  C2' N4B d   1       2.626  -5.993  -2.674  0.00  0.00     0.009 C 
BRANCH   8   9
ATOM      9  C3' N4B d   1       2.446  -5.757  -1.184  0.00  0.00     0.004 C 
ATOM     10  C4' N4B d   1       1.006  -5.628  -0.786  0.00  0.00     0.003 C 
ENDBRANCH   8   9
ENDBRANCH   7   8
ENDBRANCH   1   7
TORSDOF 3
ENDMDL
