MODEL 1
REMARK minimizedAffinity -0.13062714
REMARK minimizedRMSD -1
REMARK  0 active torsions:
REMARK  status: ('A' for Active; 'I' for Inactive)
ROOT
ATOM      1  C2' OXE d   1       3.555  -3.110   0.465  0.00  0.00     0.078 C 
ATOM      2  C1' OXE d   1       5.975  -1.697   0.301  0.00  0.00     0.078 C 
ATOM      3  C1  OXE d   1       4.730  -1.023  -0.219  0.00  0.00    -0.078 A 
ATOM      4  C2  OXE d   1       3.559  -1.740  -0.178  0.00  0.00    -0.078 A 
ATOM      5  C3  OXE d   1       2.371  -1.145  -0.595  0.00  0.00     0.003 A 
ATOM      6  C4  OXE d   1       2.385   0.119  -1.197  0.00  0.00    -0.002 A 
ATOM      7  C5  OXE d   1       3.574   0.851  -1.285  0.00  0.00    -0.002 A 
ATOM      8  C6  OXE d   1       4.746   0.313  -0.764  0.00  0.00     0.003 A 
ENDROOT
TORSDOF 0
ENDMDL
