MODEL 1
REMARK minimizedAffinity 6.59418869
REMARK minimizedRMSD -1
REMARK  0 active torsions:
REMARK  status: ('A' for Active; 'I' for Inactive)
ROOT
ATOM      1  C2' OXE d   1       2.658  -1.373  -0.614  0.00  0.00     0.078 C 
ATOM      2  C1' OXE d   1       1.300  -2.113   1.729  0.00  0.00     0.078 C 
ATOM      3  C1  OXE d   1       2.718  -2.596   1.556  0.00  0.00    -0.078 A 
ATOM      4  C2  OXE d   1       3.359  -2.268   0.385  0.00  0.00    -0.078 A 
ATOM      5  C3  OXE d   1       4.687  -2.642   0.198  0.00  0.00     0.003 A 
ATOM      6  C4  OXE d   1       5.324  -3.479   1.122  0.00  0.00    -0.002 A 
ATOM      7  C5  OXE d   1       4.676  -3.857   2.302  0.00  0.00    -0.002 A 
ATOM      8  C6  OXE d   1       3.391  -3.391   2.554  0.00  0.00     0.003 A 
ENDROOT
TORSDOF 0
ENDMDL
