MODEL 1
REMARK minimizedAffinity 3.44985008
REMARK minimizedRMSD -1
REMARK  0 active torsions:
REMARK  status: ('A' for Active; 'I' for Inactive)
ROOT
ATOM      1  C2' OXE d   1       0.232  -0.297   2.964  0.00  0.00     0.078 C 
ATOM      2  C1' OXE d   1       1.207  -0.699   0.362  0.00  0.00     0.078 C 
ATOM      3  C1  OXE d   1      -0.272  -0.457   0.529  0.00  0.00    -0.078 A 
ATOM      4  C2  OXE d   1      -0.748  -0.308   1.810  0.00  0.00    -0.078 A 
ATOM      5  C3  OXE d   1      -2.096  -0.028   2.017  0.00  0.00     0.003 A 
ATOM      6  C4  OXE d   1      -2.996  -0.050   0.945  0.00  0.00    -0.002 A 
ATOM      7  C5  OXE d   1      -2.539  -0.240  -0.363  0.00  0.00    -0.002 A 
ATOM      8  C6  OXE d   1      -1.177  -0.402  -0.592  0.00  0.00     0.003 A 
ENDROOT
TORSDOF 0
ENDMDL
