MODEL 1
REMARK minimizedAffinity 6.36760187
REMARK minimizedRMSD -1
REMARK  1 active torsions:
REMARK  status: ('A' for Active; 'I' for Inactive)
REMARK    1  A    between atoms: N_2  and  C1_3 
ROOT
ATOM      1  C1  UNL d   1       4.088   3.728   1.630  0.00  0.00     0.143 A 
ATOM      2  C2  UNL d   1       4.772   2.711   2.306  0.00  0.00    -0.057 A 
ATOM      3  C3  UNL d   1       5.708   3.006   3.305  0.00  0.00     0.033 A 
ATOM      4  C4  UNL d   1       5.999   4.327   3.626  0.00  0.00    -0.042 A 
ATOM      5  C5  UNL d   1       5.350   5.354   2.950  0.00  0.00     0.033 A 
ATOM      6  C6  UNL d   1       4.412   5.054   1.958  0.00  0.00    -0.057 A 
ENDROOT
BRANCH   1   7
ATOM      7  N   UNL d   1       3.219   3.502   0.560  0.00  0.00    -0.732 N 
ATOM      8  C   UNL d   1       3.670   2.794  -0.619  0.00  0.00     0.284 C 
ATOM      9  H3  UNL d   1       2.284   3.246   0.867  0.00  0.00     0.395 HD
ENDBRANCH   1   7
TORSDOF 1
ENDMDL
