MODEL 1
REMARK minimizedAffinity 0.310361207
REMARK minimizedRMSD -1
REMARK  1 active torsions:
REMARK  status: ('A' for Active; 'I' for Inactive)
REMARK    1  A    between atoms: N_2  and  C1_3 
ROOT
ATOM      1  C1  UNL d   1      -0.089   0.770   0.818  0.00  0.00     0.143 A 
ATOM      2  C2  UNL d   1      -0.114   0.889  -0.575  0.00  0.00    -0.057 A 
ATOM      3  C3  UNL d   1      -0.187  -0.241  -1.399  0.00  0.00     0.033 A 
ATOM      4  C4  UNL d   1      -0.207  -1.515  -0.842  0.00  0.00    -0.042 A 
ATOM      5  C5  UNL d   1      -0.157  -1.658   0.540  0.00  0.00     0.033 A 
ATOM      6  C6  UNL d   1      -0.091  -0.526   1.357  0.00  0.00    -0.057 A 
ENDROOT
BRANCH   1   7
ATOM      7  N   UNL d   1       0.083   1.850   1.688  0.00  0.00    -0.732 N 
ATOM      8  C   UNL d   1       1.392   2.172   2.214  0.00  0.00     0.284 C 
ATOM      9  H3  UNL d   1      -0.466   2.662   1.412  0.00  0.00     0.395 HD
ENDBRANCH   1   7
TORSDOF 1
ENDMDL
