MODEL 1
REMARK minimizedAffinity -1.04694545
REMARK minimizedRMSD -1
REMARK  1 active torsions:
REMARK  status: ('A' for Active; 'I' for Inactive)
REMARK    1  A    between atoms: N_2  and  C1_3 
ROOT
ATOM      1  C1  UNL d   1      -5.890   4.252  -0.992  0.00  0.00     0.143 A 
ATOM      2  C2  UNL d   1      -5.868   3.300  -2.017  0.00  0.00    -0.057 A 
ATOM      3  C3  UNL d   1      -5.860   3.684  -3.364  0.00  0.00     0.033 A 
ATOM      4  C4  UNL d   1      -5.902   5.030  -3.710  0.00  0.00    -0.042 A 
ATOM      5  C5  UNL d   1      -5.950   5.993  -2.708  0.00  0.00     0.033 A 
ATOM      6  C6  UNL d   1      -5.951   5.604  -1.365  0.00  0.00    -0.057 A 
ENDROOT
BRANCH   1   7
ATOM      7  N   UNL d   1      -5.999   3.932   0.364  0.00  0.00    -0.732 N 
ATOM      8  C   UNL d   1      -5.997   2.552   0.798  0.00  0.00     0.284 C 
ATOM      9  H3  UNL d   1      -5.453   4.555   0.955  0.00  0.00     0.395 HD
ENDBRANCH   1   7
TORSDOF 1
ENDMDL
