MODEL 1
REMARK minimizedAffinity -1.62449276
REMARK minimizedRMSD -1
REMARK  1 active torsions:
REMARK  status: ('A' for Active; 'I' for Inactive)
REMARK    1  A    between atoms: N_2  and  C1_3 
ROOT
ATOM      1  C1  UNL d   1       0.750   1.405   0.989  0.00  0.00     0.143 A 
ATOM      2  C2  UNL d   1       1.084   0.313   0.181  0.00  0.00    -0.057 A 
ATOM      3  C3  UNL d   1       0.146  -0.266  -0.682  0.00  0.00     0.033 A 
ATOM      4  C4  UNL d   1      -1.156   0.221  -0.731  0.00  0.00    -0.042 A 
ATOM      5  C5  UNL d   1      -1.518   1.289   0.082  0.00  0.00     0.033 A 
ATOM      6  C6  UNL d   1      -0.575   1.867   0.937  0.00  0.00    -0.057 A 
ENDROOT
BRANCH   1   7
ATOM      7  N   UNL d   1       1.610   1.962   1.939  0.00  0.00    -0.732 N 
ATOM      8  C   UNL d   1       2.827   2.628   1.530  0.00  0.00     0.284 C 
ATOM      9  H3  UNL d   1       1.108   2.435   2.687  0.00  0.00     0.395 HD
ENDBRANCH   1   7
TORSDOF 1
ENDMDL
