MODEL 1
REMARK minimizedAffinity 3.97804308
REMARK minimizedRMSD -1
REMARK  1 active torsions:
REMARK  status: ('A' for Active; 'I' for Inactive)
REMARK    1  A    between atoms: N_2  and  C1_3 
ROOT
ATOM      1  C1  UNL d   1       3.667   5.902   4.819  0.00  0.00     0.143 A 
ATOM      2  C2  UNL d   1       5.039   5.929   5.088  0.00  0.00    -0.057 A 
ATOM      3  C3  UNL d   1       5.981   5.986   4.054  0.00  0.00     0.033 A 
ATOM      4  C4  UNL d   1       5.565   5.985   2.726  0.00  0.00    -0.042 A 
ATOM      5  C5  UNL d   1       4.207   5.933   2.435  0.00  0.00     0.033 A 
ATOM      6  C6  UNL d   1       3.271   5.884   3.473  0.00  0.00    -0.057 A 
ENDROOT
BRANCH   1   7
ATOM      7  N   UNL d   1       2.685   5.746   5.801  0.00  0.00    -0.732 N 
ATOM      8  C   UNL d   1       1.285   5.685   5.440  0.00  0.00     0.284 C 
ATOM      9  H3  UNL d   1       2.958   5.082   6.522  0.00  0.00     0.395 HD
ENDBRANCH   1   7
TORSDOF 1
ENDMDL
