MODEL 1
REMARK minimizedAffinity -2.29312944
REMARK minimizedRMSD -1
REMARK  1 active torsions:
REMARK  status: ('A' for Active; 'I' for Inactive)
REMARK    1  A    between atoms: N_2  and  C1_3 
ROOT
ATOM      1  C1  UNL d   1      -5.593   4.441  -4.062  0.00  0.00     0.143 A 
ATOM      2  C2  UNL d   1      -5.514   4.191  -5.436  0.00  0.00    -0.057 A 
ATOM      3  C3  UNL d   1      -5.569   2.886  -5.941  0.00  0.00     0.033 A 
ATOM      4  C4  UNL d   1      -5.676   1.803  -5.076  0.00  0.00    -0.042 A 
ATOM      5  C5  UNL d   1      -5.731   2.026  -3.704  0.00  0.00     0.033 A 
ATOM      6  C6  UNL d   1      -5.681   3.331  -3.206  0.00  0.00    -0.057 A 
ENDROOT
BRANCH   1   7
ATOM      7  N   UNL d   1      -5.444   5.707  -3.491  0.00  0.00    -0.732 N 
ATOM      8  C   UNL d   1      -6.000   5.998  -2.187  0.00  0.00     0.284 C 
ATOM      9  H3  UNL d   1      -4.516   6.096  -3.644  0.00  0.00     0.395 HD
ENDBRANCH   1   7
TORSDOF 1
ENDMDL
