MODEL 1
REMARK minimizedAffinity 13.7039843
REMARK minimizedRMSD -1
REMARK  1 active torsions:
REMARK  status: ('A' for Active; 'I' for Inactive)
REMARK    1  A    between atoms: N_2  and  C1_3 
ROOT
ATOM      1  C1  UNL d   1      -2.029   5.294  -5.998  0.00  0.00     0.143 A 
ATOM      2  C2  UNL d   1      -0.796   5.954  -5.986  0.00  0.00    -0.057 A 
ATOM      3  C3  UNL d   1       0.409   5.242  -5.998  0.00  0.00     0.033 A 
ATOM      4  C4  UNL d   1       0.402   3.851  -5.991  0.00  0.00    -0.042 A 
ATOM      5  C5  UNL d   1      -0.812   3.173  -5.977  0.00  0.00     0.033 A 
ATOM      6  C6  UNL d   1      -2.012   3.890  -5.973  0.00  0.00    -0.057 A 
ENDROOT
BRANCH   1   7
ATOM      7  N   UNL d   1      -3.261   5.944  -5.888  0.00  0.00    -0.732 N 
ATOM      8  C   UNL d   1      -4.166   5.629  -4.803  0.00  0.00     0.284 C 
ATOM      9  H3  UNL d   1      -3.197   6.936  -6.101  0.00  0.00     0.395 HD
ENDBRANCH   1   7
TORSDOF 1
ENDMDL
