MODEL 1
REMARK minimizedAffinity 7.89052582
REMARK minimizedRMSD -1
REMARK  1 active torsions:
REMARK  status: ('A' for Active; 'I' for Inactive)
REMARK    1  A    between atoms: N_2  and  C1_3 
ROOT
ATOM      1  C1  UNL d   1      -2.925  -1.264   1.909  0.00  0.00     0.143 A 
ATOM      2  C2  UNL d   1      -2.105  -2.293   1.433  0.00  0.00    -0.057 A 
ATOM      3  C3  UNL d   1      -1.707  -3.348   2.263  0.00  0.00     0.033 A 
ATOM      4  C4  UNL d   1      -2.101  -3.377   3.597  0.00  0.00    -0.042 A 
ATOM      5  C5  UNL d   1      -2.895  -2.352   4.098  0.00  0.00     0.033 A 
ATOM      6  C6  UNL d   1      -3.295  -1.305   3.262  0.00  0.00    -0.057 A 
ENDROOT
BRANCH   1   7
ATOM      7  N   UNL d   1      -3.274  -0.138   1.159  0.00  0.00    -0.732 N 
ATOM      8  C   UNL d   1      -2.271   0.835   0.782  0.00  0.00     0.284 C 
ATOM      9  H3  UNL d   1      -3.943  -0.352   0.424  0.00  0.00     0.395 HD
ENDBRANCH   1   7
TORSDOF 1
ENDMDL
