MODEL 1
REMARK minimizedAffinity -1.79586542
REMARK minimizedRMSD -1
REMARK  1 active torsions:
REMARK  status: ('A' for Active; 'I' for Inactive)
REMARK    1  A    between atoms: N_2  and  C1_3 
ROOT
ATOM      1  C1  UNL d   1      -1.385  -4.966  -3.778  0.00  0.00     0.143 A 
ATOM      2  C2  UNL d   1      -1.618  -3.630  -3.435  0.00  0.00    -0.057 A 
ATOM      3  C3  UNL d   1      -2.613  -3.280  -2.514  0.00  0.00     0.033 A 
ATOM      4  C4  UNL d   1      -3.413  -4.262  -1.939  0.00  0.00    -0.042 A 
ATOM      5  C5  UNL d   1      -3.215  -5.594  -2.284  0.00  0.00     0.033 A 
ATOM      6  C6  UNL d   1      -2.216  -5.937  -3.200  0.00  0.00    -0.057 A 
ENDROOT
BRANCH   1   7
ATOM      7  N   UNL d   1      -0.478  -5.369  -4.761  0.00  0.00    -0.732 N 
ATOM      8  C   UNL d   1       0.923  -5.549  -4.443  0.00  0.00     0.284 C 
ATOM      9  H3  UNL d   1      -0.861  -6.087  -5.372  0.00  0.00     0.395 HD
ENDBRANCH   1   7
TORSDOF 1
ENDMDL
