MODEL 1
REMARK minimizedAffinity 2.51104903
REMARK minimizedRMSD -1
REMARK  1 active torsions:
REMARK  status: ('A' for Active; 'I' for Inactive)
REMARK    1  A    between atoms: N_2  and  C1_3 
ROOT
ATOM      1  C1  UNL d   1      -2.585  -3.365   0.218  0.00  0.00     0.143 A 
ATOM      2  C2  UNL d   1      -3.110  -2.090   0.454  0.00  0.00    -0.057 A 
ATOM      3  C3  UNL d   1      -2.826  -1.397   1.637  0.00  0.00     0.033 A 
ATOM      4  C4  UNL d   1      -2.034  -1.980   2.620  0.00  0.00    -0.042 A 
ATOM      5  C5  UNL d   1      -1.522  -3.257   2.417  0.00  0.00     0.033 A 
ATOM      6  C6  UNL d   1      -1.803  -3.942   1.231  0.00  0.00    -0.057 A 
ENDROOT
BRANCH   1   7
ATOM      7  N   UNL d   1      -2.910  -4.146  -0.894  0.00  0.00    -0.732 N 
ATOM      8  C   UNL d   1      -2.523  -3.730  -2.225  0.00  0.00     0.284 C 
ATOM      9  H3  UNL d   1      -2.791  -5.141  -0.719  0.00  0.00     0.395 HD
ENDBRANCH   1   7
TORSDOF 1
ENDMDL
