MODEL 1
REMARK minimizedAffinity -6.54274368
REMARK minimizedRMSD -1
REMARK  2 active torsions:
REMARK  status: ('A' for Active; 'I' for Inactive)
REMARK    1  A    between atoms: C2'_3  and  C1'_4 
REMARK    2  A    between atoms: C1'_4  and  C1_5 
ROOT
ATOM      1  C1  I4B d   1       0.425   0.043  -0.787  0.00  0.00    -0.075 A 
ATOM      2  C2  I4B d   1      -0.082  -0.238   0.457  0.00  0.00     0.003 A 
ATOM      3  C3  I4B d   1      -0.126  -1.574   0.923  0.00  0.00     0.002 A 
ATOM      4  C4  I4B d   1       0.296  -2.596   0.098  0.00  0.00    -0.004 A 
ATOM      5  C5  I4B d   1       0.831  -2.307  -1.154  0.00  0.00     0.002 A 
ATOM      6  C6  I4B d   1       0.907  -0.978  -1.595  0.00  0.00     0.003 A 
ENDROOT
BRANCH   1   7
ATOM      7  C1' I4B d   1       0.426   1.462  -1.261  0.00  0.00     0.060 C 
BRANCH   7   8
ATOM      8  C2' I4B d   1       1.013   2.321  -0.160  0.00  0.00    -0.013 C 
ATOM      9  C4' I4B d   1       2.381   2.828  -0.534  0.00  0.00     0.013 C 
ATOM     10  C3' I4B d   1       0.067   3.456   0.097  0.00  0.00     0.013 C 
ENDBRANCH   7   8
ENDBRANCH   1   7
TORSDOF 2
ENDMDL
