MODEL 1
REMARK minimizedAffinity -3.67887187
REMARK minimizedRMSD -1
REMARK  2 active torsions:
REMARK  status: ('A' for Active; 'I' for Inactive)
REMARK    1  A    between atoms: C2'_3  and  C1'_4 
REMARK    2  A    between atoms: C1'_4  and  C1_5 
ROOT
ATOM      1  C1  I4B d   1       0.450   0.574  -0.497  0.00  0.00    -0.075 A 
ATOM      2  C2  I4B d   1      -0.451   0.267   0.492  0.00  0.00     0.003 A 
ATOM      3  C3  I4B d   1      -0.743  -1.084   0.795  0.00  0.00     0.002 A 
ATOM      4  C4  I4B d   1      -0.154  -2.090   0.056  0.00  0.00    -0.004 A 
ATOM      5  C5  I4B d   1       0.777  -1.777  -0.931  0.00  0.00     0.002 A 
ATOM      6  C6  I4B d   1       1.090  -0.437  -1.201  0.00  0.00     0.003 A 
ENDROOT
BRANCH   1   7
ATOM      7  C1' I4B d   1       0.711   2.013  -0.814  0.00  0.00     0.060 C 
BRANCH   7   8
ATOM      8  C2' I4B d   1       1.330   2.656   0.411  0.00  0.00    -0.013 C 
ATOM      9  C4' I4B d   1       2.834   2.626   0.341  0.00  0.00     0.013 C 
ATOM     10  C3' I4B d   1       0.820   4.063   0.503  0.00  0.00     0.013 C 
ENDBRANCH   7   8
ENDBRANCH   1   7
TORSDOF 2
ENDMDL
