MODEL 1
REMARK minimizedAffinity -4.86735106
REMARK minimizedRMSD -1
REMARK  2 active torsions:
REMARK  status: ('A' for Active; 'I' for Inactive)
REMARK    1  A    between atoms: C2'_3  and  C1'_4 
REMARK    2  A    between atoms: C1'_4  and  C1_5 
ROOT
ATOM      1  C1  I4B d   1       0.199  -1.345  -0.231  0.00  0.00    -0.075 A 
ATOM      2  C2  I4B d   1       0.099  -1.543  -1.585  0.00  0.00     0.003 A 
ATOM      3  C3  I4B d   1      -0.238  -2.819  -2.097  0.00  0.00     0.002 A 
ATOM      4  C4  I4B d   1      -0.414  -3.875  -1.226  0.00  0.00    -0.004 A 
ATOM      5  C5  I4B d   1      -0.334  -3.669   0.148  0.00  0.00     0.002 A 
ATOM      6  C6  I4B d   1      -0.038  -2.393   0.650  0.00  0.00     0.003 A 
ENDROOT
BRANCH   1   7
ATOM      7  C1' I4B d   1       0.588   0.008   0.274  0.00  0.00     0.060 C 
BRANCH   7   8
ATOM      8  C2' I4B d   1      -0.467   0.996  -0.180  0.00  0.00    -0.013 C 
ATOM      9  C4' I4B d   1      -1.753   0.808   0.581  0.00  0.00     0.013 C 
ATOM     10  C3' I4B d   1       0.080   2.379   0.015  0.00  0.00     0.013 C 
ENDBRANCH   7   8
ENDBRANCH   1   7
TORSDOF 2
ENDMDL
