MODEL 1
REMARK minimizedAffinity -0.967721641
REMARK minimizedRMSD -1
REMARK  2 active torsions:
REMARK  status: ('A' for Active; 'I' for Inactive)
REMARK    1  A    between atoms: C2'_3  and  C1'_4 
REMARK    2  A    between atoms: C1'_4  and  C1_5 
ROOT
ATOM      1  C1  I4B d   1       0.459   2.211   0.333  0.00  0.00    -0.075 A 
ATOM      2  C2  I4B d   1       1.788   1.881   0.239  0.00  0.00     0.003 A 
ATOM      3  C3  I4B d   1       2.783   2.815   0.616  0.00  0.00     0.002 A 
ATOM      4  C4  I4B d   1       2.408   4.076   1.032  0.00  0.00    -0.004 A 
ATOM      5  C5  I4B d   1       1.060   4.401   1.148  0.00  0.00     0.002 A 
ATOM      6  C6  I4B d   1       0.078   3.459   0.809  0.00  0.00     0.003 A 
ENDROOT
BRANCH   1   7
ATOM      7  C1' I4B d   1      -0.565   1.212  -0.105  0.00  0.00     0.060 C 
BRANCH   7   8
ATOM      8  C2' I4B d   1       0.087  -0.156  -0.103  0.00  0.00    -0.013 C 
ATOM      9  C4' I4B d   1      -0.621  -1.096   0.838  0.00  0.00     0.013 C 
ATOM     10  C3' I4B d   1       0.069  -0.681  -1.507  0.00  0.00     0.013 C 
ENDBRANCH   7   8
ENDBRANCH   1   7
TORSDOF 2
ENDMDL
