MODEL 1
REMARK minimizedAffinity 0.691879869
REMARK minimizedRMSD -1
REMARK  2 active torsions:
REMARK  status: ('A' for Active; 'I' for Inactive)
REMARK    1  A    between atoms: C2'_3  and  C1'_4 
REMARK    2  A    between atoms: C1'_4  and  C1_5 
ROOT
ATOM      1  C1  I4B d   1       0.925   2.182   0.369  0.00  0.00    -0.075 A 
ATOM      2  C2  I4B d   1       2.148   1.928  -0.199  0.00  0.00     0.003 A 
ATOM      3  C3  I4B d   1       3.278   2.701   0.164  0.00  0.00     0.002 A 
ATOM      4  C4  I4B d   1       3.129   3.744   1.056  0.00  0.00    -0.004 A 
ATOM      5  C5  I4B d   1       1.893   3.985   1.649  0.00  0.00     0.002 A 
ATOM      6  C6  I4B d   1       0.786   3.191   1.313  0.00  0.00     0.003 A 
ENDROOT
BRANCH   1   7
ATOM      7  C1' I4B d   1      -0.253   1.367  -0.063  0.00  0.00     0.060 C 
BRANCH   7   8
ATOM      8  C2' I4B d   1       0.219  -0.055  -0.286  0.00  0.00    -0.013 C 
ATOM      9  C4' I4B d   1      -0.614  -1.035   0.496  0.00  0.00     0.013 C 
ATOM     10  C3' I4B d   1       0.152  -0.339  -1.757  0.00  0.00     0.013 C 
ENDBRANCH   7   8
ENDBRANCH   1   7
TORSDOF 2
ENDMDL
