MODEL 1
REMARK minimizedAffinity -5.45034742
REMARK minimizedRMSD -1
REMARK  2 active torsions:
REMARK  status: ('A' for Active; 'I' for Inactive)
REMARK    1  A    between atoms: C2'_3  and  C1'_4 
REMARK    2  A    between atoms: C1'_4  and  C1_5 
ROOT
ATOM      1  C1  I4B d   1       0.108  -1.407  -0.246  0.00  0.00    -0.075 A 
ATOM      2  C2  I4B d   1       0.448  -2.439   0.593  0.00  0.00     0.003 A 
ATOM      3  C3  I4B d   1       0.692  -3.732   0.070  0.00  0.00     0.002 A 
ATOM      4  C4  I4B d   1       0.538  -3.959  -1.283  0.00  0.00    -0.004 A 
ATOM      5  C5  I4B d   1       0.216  -2.906  -2.135  0.00  0.00     0.002 A 
ATOM      6  C6  I4B d   1       0.012  -1.620  -1.615  0.00  0.00     0.003 A 
ENDROOT
BRANCH   1   7
ATOM      7  C1' I4B d   1      -0.176  -0.062   0.344  0.00  0.00     0.060 C 
BRANCH   7   8
ATOM      8  C2' I4B d   1       0.473   0.982  -0.542  0.00  0.00    -0.013 C 
ATOM      9  C4' I4B d   1      -0.559   1.882  -1.170  0.00  0.00     0.013 C 
ATOM     10  C3' I4B d   1       1.437   1.766   0.297  0.00  0.00     0.013 C 
ENDBRANCH   7   8
ENDBRANCH   1   7
TORSDOF 2
ENDMDL
