MODEL 1
REMARK minimizedAffinity -5.91976118
REMARK minimizedRMSD -1
REMARK  2 active torsions:
REMARK  status: ('A' for Active; 'I' for Inactive)
REMARK    1  A    between atoms: C2'_3  and  C1'_4 
REMARK    2  A    between atoms: C1'_4  and  C1_5 
ROOT
ATOM      1  C1  I4B d   1       0.374  -0.371  -0.334  0.00  0.00    -0.075 A 
ATOM      2  C2  I4B d   1       1.064  -1.553  -0.233  0.00  0.00     0.003 A 
ATOM      3  C3  I4B d   1       1.540  -2.202  -1.399  0.00  0.00     0.002 A 
ATOM      4  C4  I4B d   1       1.262  -1.663  -2.638  0.00  0.00    -0.004 A 
ATOM      5  C5  I4B d   1       0.582  -0.452  -2.737  0.00  0.00     0.002 A 
ATOM      6  C6  I4B d   1       0.146   0.205  -1.577  0.00  0.00     0.003 A 
ENDROOT
BRANCH   1   7
ATOM      7  C1' I4B d   1      -0.142   0.270   0.915  0.00  0.00     0.060 C 
BRANCH   7   8
ATOM      8  C2' I4B d   1      -1.604  -0.101   1.060  0.00  0.00    -0.013 C 
ATOM      9  C4' I4B d   1      -1.788  -1.595   1.081  0.00  0.00     0.013 C 
ATOM     10  C3' I4B d   1      -2.118   0.526   2.322  0.00  0.00     0.013 C 
ENDBRANCH   7   8
ENDBRANCH   1   7
TORSDOF 2
ENDMDL
