MODEL 1
REMARK minimizedAffinity -6.30559969
REMARK minimizedRMSD -1
REMARK  2 active torsions:
REMARK  status: ('A' for Active; 'I' for Inactive)
REMARK    1  A    between atoms: C2'_3  and  C1'_4 
REMARK    2  A    between atoms: C1'_4  and  C1_5 
ROOT
ATOM      1  C1  I4B d   1       0.227  -1.433  -0.100  0.00  0.00    -0.075 A 
ATOM      2  C2  I4B d   1       0.243  -2.425   0.849  0.00  0.00     0.003 A 
ATOM      3  C3  I4B d   1       0.391  -3.779   0.461  0.00  0.00     0.002 A 
ATOM      4  C4  I4B d   1       0.468  -4.098  -0.879  0.00  0.00    -0.004 A 
ATOM      5  C5  I4B d   1       0.474  -3.089  -1.838  0.00  0.00     0.002 A 
ATOM      6  C6  I4B d   1       0.366  -1.747  -1.446  0.00  0.00     0.003 A 
ENDROOT
BRANCH   1   7
ATOM      7  C1' I4B d   1       0.036  -0.017   0.342  0.00  0.00     0.060 C 
BRANCH   7   8
ATOM      8  C2' I4B d   1       0.883   0.868  -0.550  0.00  0.00    -0.013 C 
ATOM      9  C4' I4B d   1       0.068   1.448  -1.676  0.00  0.00     0.013 C 
ATOM     10  C3' I4B d   1       1.477   1.951   0.301  0.00  0.00     0.013 C 
ENDBRANCH   7   8
ENDBRANCH   1   7
TORSDOF 2
ENDMDL
