MODEL 1
REMARK minimizedAffinity -2.75525284
REMARK minimizedRMSD -1
REMARK  2 active torsions:
REMARK  status: ('A' for Active; 'I' for Inactive)
REMARK    1  A    between atoms: C2'_3  and  C1'_4 
REMARK    2  A    between atoms: C1'_4  and  C1_5 
ROOT
ATOM      1  C1  I4B d   1       1.036   2.360  -0.394  0.00  0.00    -0.075 A 
ATOM      2  C2  I4B d   1       0.074   1.425  -0.685  0.00  0.00     0.003 A 
ATOM      3  C3  I4B d   1       0.406   0.269  -1.432  0.00  0.00     0.002 A 
ATOM      4  C4  I4B d   1       1.692   0.114  -1.908  0.00  0.00    -0.004 A 
ATOM      5  C5  I4B d   1       2.671   1.052  -1.593  0.00  0.00     0.002 A 
ATOM      6  C6  I4B d   1       2.344   2.176  -0.821  0.00  0.00     0.003 A 
ENDROOT
BRANCH   1   7
ATOM      7  C1' I4B d   1       0.643   3.586   0.368  0.00  0.00     0.060 C 
BRANCH   7   8
ATOM      8  C2' I4B d   1       1.260   3.494   1.749  0.00  0.00    -0.013 C 
ATOM      9  C4' I4B d   1       2.729   3.826   1.712  0.00  0.00     0.013 C 
ATOM     10  C3' I4B d   1       0.516   4.432   2.652  0.00  0.00     0.013 C 
ENDBRANCH   7   8
ENDBRANCH   1   7
TORSDOF 2
ENDMDL
