MODEL 1
REMARK minimizedAffinity -4.74842119
REMARK minimizedRMSD -1
REMARK  2 active torsions:
REMARK  status: ('A' for Active; 'I' for Inactive)
REMARK    1  A    between atoms: C2'_3  and  C1'_4 
REMARK    2  A    between atoms: C1'_4  and  C1_5 
ROOT
ATOM      1  C1  I4B d   1       0.386  -1.383  -0.584  0.00  0.00    -0.075 A 
ATOM      2  C2  I4B d   1       0.583  -1.543  -1.933  0.00  0.00     0.003 A 
ATOM      3  C3  I4B d   1       0.237  -2.762  -2.565  0.00  0.00     0.002 A 
ATOM      4  C4  I4B d   1      -0.254  -3.805  -1.807  0.00  0.00    -0.004 A 
ATOM      5  C5  I4B d   1      -0.475  -3.634  -0.443  0.00  0.00     0.002 A 
ATOM      6  C6  I4B d   1      -0.165  -2.411   0.170  0.00  0.00     0.003 A 
ENDROOT
BRANCH   1   7
ATOM      7  C1' I4B d   1       0.793  -0.095   0.056  0.00  0.00     0.060 C 
BRANCH   7   8
ATOM      8  C2' I4B d   1      -0.347   0.889  -0.107  0.00  0.00    -0.013 C 
ATOM      9  C4' I4B d   1      -1.335   0.771   1.024  0.00  0.00     0.013 C 
ATOM     10  C3' I4B d   1       0.237   2.269  -0.173  0.00  0.00     0.013 C 
ENDBRANCH   7   8
ENDBRANCH   1   7
TORSDOF 2
ENDMDL
