MODEL 1
REMARK minimizedAffinity 3.42793298
REMARK minimizedRMSD -1
REMARK  2 active torsions:
REMARK  status: ('A' for Active; 'I' for Inactive)
REMARK    1  A    between atoms: C1_2  and  C2_3 
REMARK    2  A    between atoms: C2_3  and  C3_4 
ROOT
ATOM      1  C3  UNL d   1       4.365   5.227  -3.961  0.00  0.00    -0.075 A 
ATOM      2  C4  UNL d   1       4.181   3.859  -4.208  0.00  0.00     0.002 A 
ATOM      3  C5  UNL d   1       4.898   3.219  -5.219  0.00  0.00     0.002 A 
ATOM      4  C6  UNL d   1       5.801   3.938  -6.000  0.00  0.00    -0.004 A 
ATOM      5  C7  UNL d   1       5.980   5.301  -5.774  0.00  0.00     0.002 A 
ATOM      6  C8  UNL d   1       5.266   5.943  -4.760  0.00  0.00     0.002 A 
ENDROOT
BRANCH   1   7
ATOM      7  C2  UNL d   1       3.613   5.920  -2.850  0.00  0.00     0.056 C 
BRANCH   7   8
ATOM      8  C1  UNL d   1       4.258   5.764  -1.469  0.00  0.00     0.007 C 
ATOM      9  C   UNL d   1       5.778   5.687  -1.521  0.00  0.00     0.009 C 
ENDBRANCH   7   8
ENDBRANCH   1   7
TORSDOF 2
ENDMDL
