MODEL 1
REMARK minimizedAffinity 17.5715084
REMARK minimizedRMSD -1
REMARK  2 active torsions:
REMARK  status: ('A' for Active; 'I' for Inactive)
REMARK    1  A    between atoms: C1_2  and  C2_3 
REMARK    2  A    between atoms: C2_3  and  C3_4 
ROOT
ATOM      1  C3  UNL d   1       1.398  -2.240  -2.485  0.00  0.00    -0.075 A 
ATOM      2  C4  UNL d   1       0.387  -1.373  -2.925  0.00  0.00     0.002 A 
ATOM      3  C5  UNL d   1      -0.750  -1.158  -2.147  0.00  0.00     0.002 A 
ATOM      4  C6  UNL d   1      -0.897  -1.813  -0.926  0.00  0.00    -0.004 A 
ATOM      5  C7  UNL d   1       0.093  -2.689  -0.486  0.00  0.00     0.002 A 
ATOM      6  C8  UNL d   1       1.235  -2.902  -1.261  0.00  0.00     0.002 A 
ENDROOT
BRANCH   1   7
ATOM      7  C2  UNL d   1       2.645  -2.454  -3.308  0.00  0.00     0.056 C 
BRANCH   7   8
ATOM      8  C1  UNL d   1       3.617  -1.269  -3.290  0.00  0.00     0.007 C 
ATOM      9  C   UNL d   1       4.510  -1.244  -2.056  0.00  0.00     0.009 C 
ENDBRANCH   7   8
ENDBRANCH   1   7
TORSDOF 2
ENDMDL
