MODEL 1
REMARK minimizedAffinity 6.17808199
REMARK minimizedRMSD -1
REMARK  2 active torsions:
REMARK  status: ('A' for Active; 'I' for Inactive)
REMARK    1  A    between atoms: C1_2  and  C2_3 
REMARK    2  A    between atoms: C2_3  and  C3_4 
ROOT
ATOM      1  C3  UNL d   1       4.508   5.207  -3.346  0.00  0.00    -0.075 A 
ATOM      2  C4  UNL d   1       4.037   6.000  -4.403  0.00  0.00     0.002 A 
ATOM      3  C5  UNL d   1       3.909   5.466  -5.685  0.00  0.00     0.002 A 
ATOM      4  C6  UNL d   1       4.258   4.140  -5.930  0.00  0.00    -0.004 A 
ATOM      5  C7  UNL d   1       4.742   3.348  -4.891  0.00  0.00     0.002 A 
ATOM      6  C8  UNL d   1       4.868   3.878  -3.605  0.00  0.00     0.002 A 
ENDROOT
BRANCH   1   7
ATOM      7  C2  UNL d   1       4.621   5.770  -1.949  0.00  0.00     0.056 C 
BRANCH   7   8
ATOM      8  C1  UNL d   1       5.988   5.545  -1.295  0.00  0.00     0.007 C 
ATOM      9  C   UNL d   1       5.972   4.458  -0.229  0.00  0.00     0.009 C 
ENDBRANCH   7   8
ENDBRANCH   1   7
TORSDOF 2
ENDMDL
