MODEL 1
REMARK minimizedAffinity 10.4813242
REMARK minimizedRMSD -1
REMARK  2 active torsions:
REMARK  status: ('A' for Active; 'I' for Inactive)
REMARK    1  A    between atoms: C1_2  and  C2_3 
REMARK    2  A    between atoms: C2_3  and  C3_4 
ROOT
ATOM      1  C3  UNL d   1       0.522  -2.132  -2.355  0.00  0.00    -0.075 A 
ATOM      2  C4  UNL d   1      -0.660  -1.379  -2.313  0.00  0.00     0.002 A 
ATOM      3  C5  UNL d   1      -1.431  -1.336  -1.152  0.00  0.00     0.002 A 
ATOM      4  C6  UNL d   1      -1.038  -2.052  -0.024  0.00  0.00    -0.004 A 
ATOM      5  C7  UNL d   1       0.126  -2.818  -0.060  0.00  0.00     0.002 A 
ATOM      6  C8  UNL d   1       0.902  -2.859  -1.219  0.00  0.00     0.002 A 
ENDROOT
BRANCH   1   7
ATOM      7  C2  UNL d   1       1.377  -2.159  -3.600  0.00  0.00     0.056 C 
BRANCH   7   8
ATOM      8  C1  UNL d   1       2.881  -2.253  -3.321  0.00  0.00     0.007 C 
ATOM      9  C   UNL d   1       3.701  -2.586  -4.560  0.00  0.00     0.009 C 
ENDBRANCH   7   8
ENDBRANCH   1   7
TORSDOF 2
ENDMDL
