MODEL 1
REMARK minimizedAffinity 5.19819641
REMARK minimizedRMSD -1
REMARK  2 active torsions:
REMARK  status: ('A' for Active; 'I' for Inactive)
REMARK    1  A    between atoms: C1_2  and  C2_3 
REMARK    2  A    between atoms: C2_3  and  C3_4 
ROOT
ATOM      1  C3  UNL d   1       1.840  -1.911  -2.839  0.00  0.00    -0.075 A 
ATOM      2  C4  UNL d   1       0.749  -1.238  -3.408  0.00  0.00     0.002 A 
ATOM      3  C5  UNL d   1      -0.495  -1.245  -2.777  0.00  0.00     0.002 A 
ATOM      4  C6  UNL d   1      -0.666  -1.932  -1.577  0.00  0.00    -0.004 A 
ATOM      5  C7  UNL d   1       0.406  -2.618  -1.011  0.00  0.00     0.002 A 
ATOM      6  C8  UNL d   1       1.653  -2.609  -1.639  0.00  0.00     0.002 A 
ENDROOT
BRANCH   1   7
ATOM      7  C2  UNL d   1       3.197  -1.883  -3.503  0.00  0.00     0.056 C 
BRANCH   7   8
ATOM      8  C1  UNL d   1       3.427  -3.023  -4.500  0.00  0.00     0.007 C 
ATOM      9  C   UNL d   1       4.397  -4.081  -3.990  0.00  0.00     0.009 C 
ENDBRANCH   7   8
ENDBRANCH   1   7
TORSDOF 2
ENDMDL
