MODEL 1
REMARK minimizedAffinity 19.1668663
REMARK minimizedRMSD -1
REMARK  2 active torsions:
REMARK  status: ('A' for Active; 'I' for Inactive)
REMARK    1  A    between atoms: C1_2  and  C2_3 
REMARK    2  A    between atoms: C2_3  and  C3_4 
ROOT
ATOM      1  C3  UNL d   1      -3.896  -3.986  -4.573  0.00  0.00    -0.075 A 
ATOM      2  C4  UNL d   1      -5.295  -3.980  -4.662  0.00  0.00     0.002 A 
ATOM      3  C5  UNL d   1      -5.965  -4.981  -5.366  0.00  0.00     0.002 A 
ATOM      4  C6  UNL d   1      -5.245  -5.993  -5.998  0.00  0.00    -0.004 A 
ATOM      5  C7  UNL d   1      -3.853  -6.000  -5.930  0.00  0.00     0.002 A 
ATOM      6  C8  UNL d   1      -3.181  -5.002  -5.222  0.00  0.00     0.002 A 
ENDROOT
BRANCH   1   7
ATOM      7  C2  UNL d   1      -3.167  -2.921  -3.788  0.00  0.00     0.056 C 
BRANCH   7   8
ATOM      8  C1  UNL d   1      -1.694  -2.758  -4.177  0.00  0.00     0.007 C 
ATOM      9  C   UNL d   1      -0.811  -2.322  -3.016  0.00  0.00     0.009 C 
ENDBRANCH   7   8
ENDBRANCH   1   7
TORSDOF 2
ENDMDL
