MODEL 1
REMARK minimizedAffinity 12.0810966
REMARK minimizedRMSD -1
REMARK  2 active torsions:
REMARK  status: ('A' for Active; 'I' for Inactive)
REMARK    1  A    between atoms: C1_2  and  C2_3 
REMARK    2  A    between atoms: C2_3  and  C3_4 
ROOT
ATOM      1  C3  UNL d   1      -1.554  -2.811  -3.128  0.00  0.00    -0.075 A 
ATOM      2  C4  UNL d   1      -0.605  -3.735  -2.668  0.00  0.00     0.002 A 
ATOM      3  C5  UNL d   1       0.277  -3.394  -1.643  0.00  0.00     0.002 A 
ATOM      4  C6  UNL d   1       0.229  -2.124  -1.072  0.00  0.00    -0.004 A 
ATOM      5  C7  UNL d   1      -0.698  -1.192  -1.532  0.00  0.00     0.002 A 
ATOM      6  C8  UNL d   1      -1.585  -1.532  -2.555  0.00  0.00     0.002 A 
ENDROOT
BRANCH   1   7
ATOM      7  C2  UNL d   1      -2.531  -3.184  -4.217  0.00  0.00     0.056 C 
BRANCH   7   8
ATOM      8  C1  UNL d   1      -2.189  -4.490  -4.942  0.00  0.00     0.007 C 
ATOM      9  C   UNL d   1      -3.416  -5.319  -5.297  0.00  0.00     0.009 C 
ENDBRANCH   7   8
ENDBRANCH   1   7
TORSDOF 2
ENDMDL
