MODEL 1
REMARK minimizedAffinity 13.0702782
REMARK minimizedRMSD -1
REMARK  2 active torsions:
REMARK  status: ('A' for Active; 'I' for Inactive)
REMARK    1  A    between atoms: C1_2  and  C2_3 
REMARK    2  A    between atoms: C2_3  and  C3_4 
ROOT
ATOM      1  C3  UNL d   1       2.715   4.223   0.151  0.00  0.00    -0.075 A 
ATOM      2  C4  UNL d   1       2.209   5.023   1.186  0.00  0.00     0.002 A 
ATOM      3  C5  UNL d   1       0.901   4.851   1.640  0.00  0.00     0.002 A 
ATOM      4  C6  UNL d   1       0.080   3.886   1.059  0.00  0.00    -0.004 A 
ATOM      5  C7  UNL d   1       0.567   3.097   0.019  0.00  0.00     0.002 A 
ATOM      6  C8  UNL d   1       1.876   3.264  -0.434  0.00  0.00     0.002 A 
ENDROOT
BRANCH   1   7
ATOM      7  C2  UNL d   1       4.139   4.384  -0.325  0.00  0.00     0.056 C 
BRANCH   7   8
ATOM      8  C1  UNL d   1       4.516   5.824  -0.689  0.00  0.00     0.007 C 
ATOM      9  C   UNL d   1       6.000   6.000  -0.981  0.00  0.00     0.009 C 
ENDBRANCH   7   8
ENDBRANCH   1   7
TORSDOF 2
ENDMDL
