MODEL 1
REMARK minimizedAffinity 5.0352726
REMARK minimizedRMSD -1
REMARK  2 active torsions:
REMARK  status: ('A' for Active; 'I' for Inactive)
REMARK    1  A    between atoms: C1_2  and  C2_3 
REMARK    2  A    between atoms: C2_3  and  C3_4 
ROOT
ATOM      1  C3  UNL d   1      -1.298  -2.156  -2.445  0.00  0.00    -0.075 A 
ATOM      2  C4  UNL d   1      -1.885  -1.364  -1.447  0.00  0.00     0.002 A 
ATOM      3  C5  UNL d   1      -1.349  -1.334  -0.160  0.00  0.00     0.002 A 
ATOM      4  C6  UNL d   1      -0.228  -2.103   0.150  0.00  0.00    -0.004 A 
ATOM      5  C7  UNL d   1       0.353  -2.906  -0.829  0.00  0.00     0.002 A 
ATOM      6  C8  UNL d   1      -0.179  -2.934  -2.119  0.00  0.00     0.002 A 
ENDROOT
BRANCH   1   7
ATOM      7  C2  UNL d   1      -1.856  -2.170  -3.848  0.00  0.00     0.056 C 
BRANCH   7   8
ATOM      8  C1  UNL d   1      -2.963  -3.206  -4.069  0.00  0.00     0.007 C 
ATOM      9  C   UNL d   1      -2.931  -3.833  -5.456  0.00  0.00     0.009 C 
ENDBRANCH   7   8
ENDBRANCH   1   7
TORSDOF 2
ENDMDL
