MODEL 1
REMARK minimizedAffinity 15.2761593
REMARK minimizedRMSD -1
REMARK  2 active torsions:
REMARK  status: ('A' for Active; 'I' for Inactive)
REMARK    1  A    between atoms: C1_2  and  C2_3 
REMARK    2  A    between atoms: C2_3  and  C3_4 
ROOT
ATOM      1  C3  UNL d   1      -0.545  -2.251  -3.025  0.00  0.00    -0.075 A 
ATOM      2  C4  UNL d   1      -1.289  -1.501  -2.103  0.00  0.00     0.002 A 
ATOM      3  C5  UNL d   1      -0.969  -1.529  -0.745  0.00  0.00     0.002 A 
ATOM      4  C6  UNL d   1       0.089  -2.313  -0.292  0.00  0.00    -0.004 A 
ATOM      5  C7  UNL d   1       0.825  -3.075  -1.196  0.00  0.00     0.002 A 
ATOM      6  C8  UNL d   1       0.510  -3.046  -2.556  0.00  0.00     0.002 A 
ENDROOT
BRANCH   1   7
ATOM      7  C2  UNL d   1      -0.867  -2.203  -4.500  0.00  0.00     0.056 C 
BRANCH   7   8
ATOM      8  C1  UNL d   1      -2.326  -2.534  -4.830  0.00  0.00     0.007 C 
ATOM      9  C   UNL d   1      -2.473  -3.500  -5.999  0.00  0.00     0.009 C 
ENDBRANCH   7   8
ENDBRANCH   1   7
TORSDOF 2
ENDMDL
