MODEL 1
REMARK minimizedAffinity 2.47781372
REMARK minimizedRMSD -1
REMARK  2 active torsions:
REMARK  status: ('A' for Active; 'I' for Inactive)
REMARK    1  A    between atoms: C1_2  and  C2_3 
REMARK    2  A    between atoms: C2_3  and  C3_4 
ROOT
ATOM      1  C3  UNL d   1       1.255  -2.766  -3.769  0.00  0.00    -0.075 A 
ATOM      2  C4  UNL d   1       0.565  -2.253  -2.661  0.00  0.00     0.002 A 
ATOM      3  C5  UNL d   1      -0.802  -1.985  -2.740  0.00  0.00     0.002 A 
ATOM      4  C6  UNL d   1      -1.493  -2.217  -3.928  0.00  0.00    -0.004 A 
ATOM      5  C7  UNL d   1      -0.813  -2.710  -5.040  0.00  0.00     0.002 A 
ATOM      6  C8  UNL d   1       0.553  -2.983  -4.962  0.00  0.00     0.002 A 
ENDROOT
BRANCH   1   7
ATOM      7  C2  UNL d   1       2.729  -3.085  -3.681  0.00  0.00     0.056 C 
BRANCH   7   8
ATOM      8  C1  UNL d   1       3.573  -1.967  -3.060  0.00  0.00     0.007 C 
ATOM      9  C   UNL d   1       4.538  -1.325  -4.047  0.00  0.00     0.009 C 
ENDBRANCH   7   8
ENDBRANCH   1   7
TORSDOF 2
ENDMDL
