MODEL 1
REMARK minimizedAffinity 11.0662384
REMARK minimizedRMSD -1
REMARK  2 active torsions:
REMARK  status: ('A' for Active; 'I' for Inactive)
REMARK    1  A    between atoms: C1_2  and  C2_3 
REMARK    2  A    between atoms: C2_3  and  C3_4 
ROOT
ATOM      1  C3  UNL d   1      -1.388  -2.803  -3.403  0.00  0.00    -0.075 A 
ATOM      2  C4  UNL d   1      -0.216  -3.534  -3.161  0.00  0.00     0.002 A 
ATOM      3  C5  UNL d   1       0.670  -3.140  -2.158  0.00  0.00     0.002 A 
ATOM      4  C6  UNL d   1       0.402  -2.008  -1.392  0.00  0.00    -0.004 A 
ATOM      5  C7  UNL d   1      -0.752  -1.265  -1.635  0.00  0.00     0.002 A 
ATOM      6  C8  UNL d   1      -1.642  -1.659  -2.635  0.00  0.00     0.002 A 
ENDROOT
BRANCH   1   7
ATOM      7  C2  UNL d   1      -2.366  -3.241  -4.467  0.00  0.00     0.056 C 
BRANCH   7   8
ATOM      8  C1  UNL d   1      -2.038  -4.600  -5.094  0.00  0.00     0.007 C 
ATOM      9  C   UNL d   1      -3.186  -5.596  -5.002  0.00  0.00     0.009 C 
ENDBRANCH   7   8
ENDBRANCH   1   7
TORSDOF 2
ENDMDL
