MODEL 1
REMARK minimizedAffinity 1.67395413
REMARK minimizedRMSD -1
REMARK  0 active torsions:
REMARK  status: ('A' for Active; 'I' for Inactive)
ROOT
ATOM      1  C   UNL d   1       0.177  -2.267   5.623  0.00  0.00     0.020 A 
ATOM      2  C1  UNL d   1       0.374  -1.154   4.806  0.00  0.00     0.020 A 
ATOM      3  C2  UNL d   1      -0.724  -0.424   4.345  0.00  0.00     0.034 A 
ATOM      4  C3  UNL d   1      -2.023  -0.806   4.699  0.00  0.00     0.017 A 
ATOM      5  C4  UNL d   1      -2.219  -1.923   5.519  0.00  0.00     0.017 A 
ATOM      6  C5  UNL d   1      -1.117  -2.651   5.978  0.00  0.00     0.034 A 
ATOM      7 Cl   UNL d   1      -3.792  -2.456   5.999  0.00  0.00    -0.070 Cl
ATOM      8 Cl1  UNL d   1      -3.333   0.143   4.092  0.00  0.00    -0.070 Cl
ENDROOT
TORSDOF 0
ENDMDL
