MODEL 1
REMARK minimizedAffinity 2.84411025
REMARK minimizedRMSD -1
REMARK  0 active torsions:
REMARK  status: ('A' for Active; 'I' for Inactive)
ROOT
ATOM      1  C   UNL d   1      -2.804  -0.819   4.988  0.00  0.00     0.020 A 
ATOM      2  C1  UNL d   1      -2.449  -1.850   5.858  0.00  0.00     0.020 A 
ATOM      3  C2  UNL d   1      -1.109  -2.214   5.999  0.00  0.00     0.034 A 
ATOM      4  C3  UNL d   1      -0.118  -1.547   5.269  0.00  0.00     0.017 A 
ATOM      5  C4  UNL d   1      -0.475  -0.512   4.397  0.00  0.00     0.017 A 
ATOM      6  C5  UNL d   1      -1.819  -0.152   4.259  0.00  0.00     0.034 A 
ATOM      7 Cl   UNL d   1       0.691   0.357   3.463  0.00  0.00    -0.070 Cl
ATOM      8 Cl1  UNL d   1       1.520  -2.048   5.493  0.00  0.00    -0.070 Cl
ENDROOT
TORSDOF 0
ENDMDL
