MODEL 1
REMARK minimizedAffinity -0.448986948
REMARK minimizedRMSD -1
REMARK  0 active torsions:
REMARK  status: ('A' for Active; 'I' for Inactive)
ROOT
ATOM      1  C   UNL d   1      -0.932  -1.669   1.815  0.00  0.00     0.020 A 
ATOM      2  C1  UNL d   1      -1.012  -2.718   0.900  0.00  0.00     0.020 A 
ATOM      3  C2  UNL d   1      -0.553  -2.541  -0.407  0.00  0.00     0.034 A 
ATOM      4  C3  UNL d   1      -0.012  -1.312  -0.802  0.00  0.00     0.017 A 
ATOM      5  C4  UNL d   1       0.068  -0.260   0.117  0.00  0.00     0.017 A 
ATOM      6  C5  UNL d   1      -0.393  -0.442   1.425  0.00  0.00     0.034 A 
ATOM      7 Cl   UNL d   1       0.723   1.285  -0.297  0.00  0.00    -0.070 Cl
ATOM      8 Cl1  UNL d   1       0.537  -1.164  -2.434  0.00  0.00    -0.070 Cl
ENDROOT
TORSDOF 0
ENDMDL
