MODEL 1
REMARK minimizedAffinity -3.45509505
REMARK minimizedRMSD -1
REMARK  0 active torsions:
REMARK  status: ('A' for Active; 'I' for Inactive)
ROOT
ATOM      1  C   UNL d   1      -0.047  -1.924  -0.060  0.00  0.00     0.020 A 
ATOM      2  C1  UNL d   1       0.104  -1.122  -1.191  0.00  0.00     0.020 A 
ATOM      3  C2  UNL d   1       0.516   0.206  -1.055  0.00  0.00     0.034 A 
ATOM      4  C3  UNL d   1       0.777   0.735   0.214  0.00  0.00     0.017 A 
ATOM      5  C4  UNL d   1       0.626  -0.071   1.348  0.00  0.00     0.017 A 
ATOM      6  C5  UNL d   1       0.214  -1.400   1.206  0.00  0.00     0.034 A 
ATOM      7 Cl   UNL d   1       0.930   0.511   2.947  0.00  0.00    -0.070 Cl
ATOM      8 Cl1  UNL d   1       1.283   2.385   0.308  0.00  0.00    -0.070 Cl
ENDROOT
TORSDOF 0
ENDMDL
