MODEL 1
REMARK minimizedAffinity -4.48153925
REMARK minimizedRMSD -1
REMARK  0 active torsions:
REMARK  status: ('A' for Active; 'I' for Inactive)
ROOT
ATOM      1  C   UNL d   1      -0.849  -1.703   2.341  0.00  0.00     0.020 A 
ATOM      2  C1  UNL d   1      -0.675  -2.916   1.675  0.00  0.00     0.020 A 
ATOM      3  C2  UNL d   1      -0.291  -2.926   0.333  0.00  0.00     0.034 A 
ATOM      4  C3  UNL d   1      -0.078  -1.721  -0.348  0.00  0.00     0.017 A 
ATOM      5  C4  UNL d   1      -0.252  -0.505   0.322  0.00  0.00     0.017 A 
ATOM      6  C5  UNL d   1      -0.637  -0.501   1.666  0.00  0.00     0.034 A 
ATOM      7 Cl   UNL d   1      -0.008   1.022  -0.450  0.00  0.00    -0.070 Cl
ATOM      8 Cl1  UNL d   1       0.397  -1.808  -2.007  0.00  0.00    -0.070 Cl
ENDROOT
TORSDOF 0
ENDMDL
