MODEL 1
REMARK minimizedAffinity -3.48784947
REMARK minimizedRMSD -1
REMARK  0 active torsions:
REMARK  status: ('A' for Active; 'I' for Inactive)
ROOT
ATOM      1  C   UNL d   1       0.360  -2.490  -2.602  0.00  0.00     0.020 A 
ATOM      2  C1  UNL d   1      -0.059  -3.527  -1.769  0.00  0.00     0.020 A 
ATOM      3  C2  UNL d   1      -0.474  -3.250  -0.465  0.00  0.00     0.034 A 
ATOM      4  C3  UNL d   1      -0.471  -1.934   0.011  0.00  0.00     0.017 A 
ATOM      5  C4  UNL d   1      -0.050  -0.894  -0.826  0.00  0.00     0.017 A 
ATOM      6  C5  UNL d   1       0.364  -1.176  -2.131  0.00  0.00     0.034 A 
ATOM      7 Cl   UNL d   1      -0.019   0.756  -0.311  0.00  0.00    -0.070 Cl
ATOM      8 Cl1  UNL d   1      -0.997  -1.665   1.634  0.00  0.00    -0.070 Cl
ENDROOT
TORSDOF 0
ENDMDL
