MODEL 1
REMARK minimizedAffinity -1.53365803
REMARK minimizedRMSD -1
REMARK  0 active torsions:
REMARK  status: ('A' for Active; 'I' for Inactive)
ROOT
ATOM      1  C   UNL d   1       2.762   3.433   0.543  0.00  0.00     0.020 A 
ATOM      2  C1  UNL d   1       3.370   2.409   1.269  0.00  0.00     0.020 A 
ATOM      3  C2  UNL d   1       2.833   1.119   1.239  0.00  0.00     0.034 A 
ATOM      4  C3  UNL d   1       1.686   0.851   0.483  0.00  0.00     0.017 A 
ATOM      5  C4  UNL d   1       1.077   1.880  -0.244  0.00  0.00     0.017 A 
ATOM      6  C5  UNL d   1       1.619   3.169  -0.212  0.00  0.00     0.034 A 
ATOM      7 Cl   UNL d   1      -0.340   1.626  -1.200  0.00  0.00    -0.070 Cl
ATOM      8 Cl1  UNL d   1       1.078  -0.766   0.493  0.00  0.00    -0.070 Cl
ENDROOT
TORSDOF 0
ENDMDL
