MODEL 1
REMARK minimizedAffinity -3.4161191
REMARK minimizedRMSD -1
REMARK  0 active torsions:
REMARK  status: ('A' for Active; 'I' for Inactive)
ROOT
ATOM      1  C   UNL d   1      -2.085  -0.768   1.705  0.00  0.00     0.020 A 
ATOM      2  C1  UNL d   1      -1.964  -2.055   1.182  0.00  0.00     0.020 A 
ATOM      3  C2  UNL d   1      -0.916  -2.359   0.311  0.00  0.00     0.034 A 
ATOM      4  C3  UNL d   1       0.015  -1.375  -0.041  0.00  0.00     0.017 A 
ATOM      5  C4  UNL d   1      -0.107  -0.083   0.484  0.00  0.00     0.017 A 
ATOM      6  C5  UNL d   1      -1.159   0.216   1.356  0.00  0.00     0.034 A 
ATOM      7 Cl   UNL d   1       1.003   1.183   0.097  0.00  0.00    -0.070 Cl
ATOM      8 Cl1  UNL d   1       1.286  -1.821  -1.123  0.00  0.00    -0.070 Cl
ENDROOT
TORSDOF 0
ENDMDL
