MODEL 1
REMARK minimizedAffinity -4.95890045
REMARK minimizedRMSD -1
REMARK  0 active torsions:
REMARK  status: ('A' for Active; 'I' for Inactive)
ROOT
ATOM      1  C   UNL d   1       0.934  -2.349  -1.444  0.00  0.00     0.020 A 
ATOM      2  C1  UNL d   1       0.488  -3.192  -0.426  0.00  0.00     0.020 A 
ATOM      3  C2  UNL d   1      -0.340  -2.693   0.581  0.00  0.00     0.034 A 
ATOM      4  C3  UNL d   1      -0.726  -1.347   0.573  0.00  0.00     0.017 A 
ATOM      5  C4  UNL d   1      -0.278  -0.502  -0.449  0.00  0.00     0.017 A 
ATOM      6  C5  UNL d   1       0.551  -1.007  -1.455  0.00  0.00     0.034 A 
ATOM      7 Cl   UNL d   1      -0.711   1.169  -0.526  0.00  0.00    -0.070 Cl
ATOM      8 Cl1  UNL d   1      -1.752  -0.798   1.850  0.00  0.00    -0.070 Cl
ENDROOT
TORSDOF 0
ENDMDL
