MODEL 1
REMARK minimizedAffinity 1.01396477
REMARK minimizedRMSD -1
REMARK  0 active torsions:
REMARK  status: ('A' for Active; 'I' for Inactive)
ROOT
ATOM      1  C   UNL d   1      -2.129  -0.003   1.251  0.00  0.00     0.020 A 
ATOM      2  C1  UNL d   1      -0.757  -0.213   1.118  0.00  0.00     0.020 A 
ATOM      3  C2  UNL d   1      -0.266  -1.503   0.902  0.00  0.00     0.034 A 
ATOM      4  C3  UNL d   1      -1.147  -2.587   0.819  0.00  0.00     0.017 A 
ATOM      5  C4  UNL d   1      -2.524  -2.375   0.952  0.00  0.00     0.017 A 
ATOM      6  C5  UNL d   1      -3.011  -1.081   1.168  0.00  0.00     0.034 A 
ATOM      7 Cl   UNL d   1      -3.674  -3.662   0.861  0.00  0.00    -0.070 Cl
ATOM      8 Cl1  UNL d   1      -0.471  -4.154   0.550  0.00  0.00    -0.070 Cl
ENDROOT
TORSDOF 0
ENDMDL
