MODEL 1
REMARK minimizedAffinity -4.18391323
REMARK minimizedRMSD -1
REMARK  0 active torsions:
REMARK  status: ('A' for Active; 'I' for Inactive)
ROOT
ATOM      1  C   UNL d   1       0.771  -3.222  -0.166  0.00  0.00     0.020 A 
ATOM      2  C1  UNL d   1      -0.316  -3.658   0.591  0.00  0.00     0.020 A 
ATOM      3  C2  UNL d   1      -1.276  -2.741   1.026  0.00  0.00     0.034 A 
ATOM      4  C3  UNL d   1      -1.151  -1.385   0.703  0.00  0.00     0.017 A 
ATOM      5  C4  UNL d   1      -0.060  -0.949  -0.057  0.00  0.00     0.017 A 
ATOM      6  C5  UNL d   1       0.899  -1.871  -0.489  0.00  0.00     0.034 A 
ATOM      7 Cl   UNL d   1       0.162   0.708  -0.494  0.00  0.00    -0.070 Cl
ATOM      8 Cl1  UNL d   1      -2.376  -0.308   1.273  0.00  0.00    -0.070 Cl
ENDROOT
TORSDOF 0
ENDMDL
