MODEL 1
REMARK minimizedAffinity -5.4466815
REMARK minimizedRMSD -1
REMARK  0 active torsions:
REMARK  status: ('A' for Active; 'I' for Inactive)
ROOT
ATOM      1  C   UNL d   1       1.029   2.181   1.680  0.00  0.00     0.020 A 
ATOM      2  C1  UNL d   1       0.815   1.316   2.753  0.00  0.00     0.020 A 
ATOM      3  C2  UNL d   1       0.325   0.029   2.525  0.00  0.00     0.034 A 
ATOM      4  C3  UNL d   1       0.047  -0.398   1.221  0.00  0.00     0.017 A 
ATOM      5  C4  UNL d   1       0.262   0.470   0.145  0.00  0.00     0.017 A 
ATOM      6  C5  UNL d   1       0.753   1.758   0.379  0.00  0.00     0.034 A 
ATOM      7 Cl   UNL d   1      -0.057   0.015  -1.491  0.00  0.00    -0.070 Cl
ATOM      8 Cl1  UNL d   1      -0.557  -2.004   1.013  0.00  0.00    -0.070 Cl
ENDROOT
TORSDOF 0
ENDMDL
