MODEL 1
REMARK minimizedAffinity -0.789719164
REMARK minimizedRMSD -1
REMARK  0 active torsions:
REMARK  status: ('A' for Active; 'I' for Inactive)
ROOT
ATOM      1  C   UNL d   1       0.955   3.280   1.249  0.00  0.00     0.020 A 
ATOM      2  C1  UNL d   1       1.685   3.260   0.062  0.00  0.00     0.020 A 
ATOM      3  C2  UNL d   1       1.514   2.212  -0.845  0.00  0.00     0.034 A 
ATOM      4  C3  UNL d   1       0.611   1.180  -0.567  0.00  0.00     0.017 A 
ATOM      5  C4  UNL d   1      -0.121   1.201   0.626  0.00  0.00     0.017 A 
ATOM      6  C5  UNL d   1       0.054   2.252   1.531  0.00  0.00     0.034 A 
ATOM      7 Cl   UNL d   1      -1.254  -0.037   1.040  0.00  0.00    -0.070 Cl
ATOM      8 Cl1  UNL d   1       0.450  -0.084  -1.734  0.00  0.00    -0.070 Cl
ENDROOT
TORSDOF 0
ENDMDL
