MODEL 1
REMARK minimizedAffinity -2.70377731
REMARK minimizedRMSD -1
REMARK  0 active torsions:
REMARK  status: ('A' for Active; 'I' for Inactive)
ROOT
ATOM      1  C   UNL d   1      -1.263  -2.444   1.339  0.00  0.00     0.020 A 
ATOM      2  C1  UNL d   1      -1.378  -1.269   2.081  0.00  0.00     0.020 A 
ATOM      3  C2  UNL d   1      -1.069  -0.040   1.494  0.00  0.00     0.034 A 
ATOM      4  C3  UNL d   1      -0.643   0.017   0.162  0.00  0.00     0.017 A 
ATOM      5  C4  UNL d   1      -0.528  -1.163  -0.582  0.00  0.00     0.017 A 
ATOM      6  C5  UNL d   1      -0.839  -2.391   0.011  0.00  0.00     0.034 A 
ATOM      7 Cl   UNL d   1      -0.010  -1.173  -2.230  0.00  0.00    -0.070 Cl
ATOM      8 Cl1  UNL d   1      -0.279   1.571  -0.499  0.00  0.00    -0.070 Cl
ENDROOT
TORSDOF 0
ENDMDL
