MODEL 1
REMARK minimizedAffinity -3.84221053
REMARK minimizedRMSD -1
REMARK  0 active torsions:
REMARK  status: ('A' for Active; 'I' for Inactive)
ROOT
ATOM      1  C   UNL d   1       0.463   1.223   0.010  0.00  0.00     0.020 A 
ATOM      2  C1  UNL d   1       0.023   0.837   1.276  0.00  0.00     0.020 A 
ATOM      3  C2  UNL d   1      -0.450  -0.460   1.485  0.00  0.00     0.034 A 
ATOM      4  C3  UNL d   1      -0.483  -1.376   0.428  0.00  0.00     0.017 A 
ATOM      5  C4  UNL d   1      -0.041  -0.988  -0.842  0.00  0.00     0.017 A 
ATOM      6  C5  UNL d   1       0.432   0.312  -1.046  0.00  0.00     0.034 A 
ATOM      7 Cl   UNL d   1      -0.051  -2.063  -2.196  0.00  0.00    -0.070 Cl
ATOM      8 Cl1  UNL d   1      -1.080  -2.964   0.758  0.00  0.00    -0.070 Cl
ENDROOT
TORSDOF 0
ENDMDL
