MODEL 1
REMARK minimizedAffinity -2.45179319
REMARK minimizedRMSD -1
REMARK  0 active torsions:
REMARK  status: ('A' for Active; 'I' for Inactive)
ROOT
ATOM      1  C   UNL d   1       0.450  -0.016   2.395  0.00  0.00     0.020 A 
ATOM      2  C1  UNL d   1      -0.335  -0.698   1.465  0.00  0.00     0.020 A 
ATOM      3  C2  UNL d   1      -0.524  -0.166   0.188  0.00  0.00     0.034 A 
ATOM      4  C3  UNL d   1       0.072   1.051  -0.163  0.00  0.00     0.017 A 
ATOM      5  C4  UNL d   1       0.860   1.734   0.771  0.00  0.00     0.017 A 
ATOM      6  C5  UNL d   1       1.046   1.197   2.048  0.00  0.00     0.034 A 
ATOM      7 Cl   UNL d   1       1.628   3.239   0.410  0.00  0.00    -0.070 Cl
ATOM      8 Cl1  UNL d   1      -0.204   1.649  -1.760  0.00  0.00    -0.070 Cl
ENDROOT
TORSDOF 0
ENDMDL
