MODEL 1
REMARK minimizedAffinity -1.83523309
REMARK minimizedRMSD -1
REMARK  0 active torsions:
REMARK  status: ('A' for Active; 'I' for Inactive)
ROOT
ATOM      1  C   UNL d   1      -0.374  -0.138   1.296  0.00  0.00     0.020 A 
ATOM      2  C1  UNL d   1      -1.093  -1.282   1.637  0.00  0.00     0.020 A 
ATOM      3  C2  UNL d   1      -1.332  -2.269   0.678  0.00  0.00     0.034 A 
ATOM      4  C3  UNL d   1      -0.850  -2.113  -0.627  0.00  0.00     0.017 A 
ATOM      5  C4  UNL d   1      -0.128  -0.963  -0.968  0.00  0.00     0.017 A 
ATOM      6  C5  UNL d   1       0.108   0.021  -0.004  0.00  0.00     0.034 A 
ATOM      7 Cl   UNL d   1       0.497  -0.700  -2.558  0.00  0.00    -0.070 Cl
ATOM      8 Cl1  UNL d   1      -1.182  -3.373  -1.762  0.00  0.00    -0.070 Cl
ENDROOT
TORSDOF 0
ENDMDL
