MODEL 1
REMARK minimizedAffinity -3.77317929
REMARK minimizedRMSD -1
REMARK  0 active torsions:
REMARK  status: ('A' for Active; 'I' for Inactive)
ROOT
ATOM      1  C   UNL d   1      -1.229  -1.523   1.790  0.00  0.00     0.020 A 
ATOM      2  C1  UNL d   1      -0.624  -0.328   1.403  0.00  0.00     0.020 A 
ATOM      3  C2  UNL d   1      -0.128  -0.185   0.105  0.00  0.00     0.034 A 
ATOM      4  C3  UNL d   1      -0.235  -1.239  -0.809  0.00  0.00     0.017 A 
ATOM      5  C4  UNL d   1      -0.842  -2.438  -0.419  0.00  0.00     0.017 A 
ATOM      6  C5  UNL d   1      -1.338  -2.576   0.881  0.00  0.00     0.034 A 
ATOM      7 Cl   UNL d   1      -1.011  -3.783  -1.491  0.00  0.00    -0.070 Cl
ATOM      8 Cl1  UNL d   1       0.401  -0.993  -2.397  0.00  0.00    -0.070 Cl
ENDROOT
TORSDOF 0
ENDMDL
