MODEL 1
REMARK minimizedAffinity 8.47843647
REMARK minimizedRMSD -1
REMARK  0 active torsions:
REMARK  status: ('A' for Active; 'I' for Inactive)
ROOT
ATOM      1  C   UNL d   1       0.688   1.256  -1.321  0.00  0.00    -0.002 A 
ATOM      2  C1  UNL d   1       0.803   0.076  -2.043  0.00  0.00     0.010 A 
ATOM      3  C2  UNL d   1       0.265  -1.114  -1.549  0.00  0.00     0.041 A 
ATOM      4  C3  UNL d   1      -0.399  -1.098  -0.306  0.00  0.00    -0.075 A 
ATOM      5  S   UNL d   1      -1.137  -2.434   0.495  0.00  0.00     0.015 SA
ATOM      6  C4  UNL d   1      -1.623  -1.470   1.814  0.00  0.00     0.022 A 
ATOM      7  C5  UNL d   1      -1.239  -0.159   1.663  0.00  0.00     0.026 A 
ATOM      8  C6  UNL d   1      -0.528   0.078   0.439  0.00  0.00    -0.082 A 
ATOM      9  C7  UNL d   1       0.029   1.268  -0.089  0.00  0.00     0.045 A 
ENDROOT
TORSDOF 0
ENDMDL
