MODEL 1
REMARK minimizedAffinity -0.860151231
REMARK minimizedRMSD -1
REMARK  0 active torsions:
REMARK  status: ('A' for Active; 'I' for Inactive)
ROOT
ATOM      1  C   UNL d   1       0.159   1.646  -1.466  0.00  0.00    -0.002 A 
ATOM      2  C1  UNL d   1       0.686   0.481  -2.004  0.00  0.00     0.010 A 
ATOM      3  C2  UNL d   1       0.462  -0.752  -1.387  0.00  0.00     0.041 A 
ATOM      4  C3  UNL d   1      -0.311  -0.794  -0.210  0.00  0.00    -0.075 A 
ATOM      5  S   UNL d   1      -0.717  -2.190   0.717  0.00  0.00     0.015 SA
ATOM      6  C4  UNL d   1      -1.602  -1.272   1.849  0.00  0.00     0.022 A 
ATOM      7  C5  UNL d   1      -1.597   0.068   1.542  0.00  0.00     0.026 A 
ATOM      8  C6  UNL d   1      -0.854   0.366   0.351  0.00  0.00    -0.082 A 
ATOM      9  C7  UNL d   1      -0.607   1.600  -0.298  0.00  0.00     0.045 A 
ENDROOT
TORSDOF 0
ENDMDL
