MODEL 1
REMARK minimizedAffinity 2.91990042
REMARK minimizedRMSD -1
REMARK  0 active torsions:
REMARK  status: ('A' for Active; 'I' for Inactive)
ROOT
ATOM      1  C   UNL d   1       1.300   0.606  -2.535  0.00  0.00    -0.002 A 
ATOM      2  C1  UNL d   1       2.279   1.147  -1.714  0.00  0.00     0.010 A 
ATOM      3  C2  UNL d   1       2.078   1.239  -0.335  0.00  0.00     0.041 A 
ATOM      4  C3  UNL d   1       0.866   0.771   0.210  0.00  0.00    -0.075 A 
ATOM      5  S   UNL d   1       0.400   0.781   1.870  0.00  0.00     0.015 SA
ATOM      6  C4  UNL d   1      -1.108   0.065   1.528  0.00  0.00     0.022 A 
ATOM      7  C5  UNL d   1      -1.269  -0.182   0.185  0.00  0.00     0.026 A 
ATOM      8  C6  UNL d   1      -0.134   0.221  -0.597  0.00  0.00    -0.082 A 
ATOM      9  C7  UNL d   1       0.099   0.142  -1.991  0.00  0.00     0.045 A 
ENDROOT
TORSDOF 0
ENDMDL
