MODEL 1
REMARK minimizedAffinity 9.51092815
REMARK minimizedRMSD -1
REMARK  0 active torsions:
REMARK  status: ('A' for Active; 'I' for Inactive)
ROOT
ATOM      1  C   UNL d   1       3.858   3.790   0.725  0.00  0.00    -0.002 A 
ATOM      2  C1  UNL d   1       2.864   3.766   1.692  0.00  0.00     0.010 A 
ATOM      3  C2  UNL d   1       1.848   2.810   1.643  0.00  0.00     0.041 A 
ATOM      4  C3  UNL d   1       1.849   1.867   0.596  0.00  0.00    -0.075 A 
ATOM      5  S   UNL d   1       0.706   0.604   0.333  0.00  0.00     0.015 SA
ATOM      6  C4  UNL d   1       1.511   0.065  -1.069  0.00  0.00     0.022 A 
ATOM      7  C5  UNL d   1       2.626   0.820  -1.345  0.00  0.00     0.026 A 
ATOM      8  C6  UNL d   1       2.840   1.871  -0.390  0.00  0.00    -0.082 A 
ATOM      9  C7  UNL d   1       3.856   2.854  -0.313  0.00  0.00     0.045 A 
ENDROOT
TORSDOF 0
ENDMDL
