MODEL 1
REMARK minimizedAffinity 8.98611259
REMARK minimizedRMSD -1
REMARK  0 active torsions:
REMARK  status: ('A' for Active; 'I' for Inactive)
ROOT
ATOM      1  C   UNL d   1      -2.238  -1.489   2.643  0.00  0.00    -0.002 A 
ATOM      2  C1  UNL d   1      -2.057  -2.228   1.483  0.00  0.00     0.010 A 
ATOM      3  C2  UNL d   1      -1.386  -1.680   0.388  0.00  0.00     0.041 A 
ATOM      4  C3  UNL d   1      -0.894  -0.363   0.480  0.00  0.00    -0.075 A 
ATOM      5  S   UNL d   1      -0.040   0.515  -0.733  0.00  0.00     0.015 SA
ATOM      6  C4  UNL d   1       0.105   1.893   0.260  0.00  0.00     0.022 A 
ATOM      7  C5  UNL d   1      -0.478   1.705   1.490  0.00  0.00     0.026 A 
ATOM      8  C6  UNL d   1      -1.063   0.401   1.638  0.00  0.00    -0.082 A 
ATOM      9  C7  UNL d   1      -1.748  -0.183   2.730  0.00  0.00     0.045 A 
ENDROOT
TORSDOF 0
ENDMDL
