MODEL 1
REMARK minimizedAffinity 4.62530279
REMARK minimizedRMSD -1
REMARK  0 active torsions:
REMARK  status: ('A' for Active; 'I' for Inactive)
ROOT
ATOM      1  C   UNL d   1      -1.500  -3.000   1.125  0.00  0.00    -0.002 A 
ATOM      2  C1  UNL d   1      -1.500  -1.983   2.070  0.00  0.00     0.010 A 
ATOM      3  C2  UNL d   1      -0.910  -0.750   1.786  0.00  0.00     0.041 A 
ATOM      4  C3  UNL d   1      -0.316  -0.553   0.524  0.00  0.00    -0.075 A 
ATOM      5  S   UNL d   1       0.466   0.874  -0.046  0.00  0.00     0.015 SA
ATOM      6  C4  UNL d   1       0.817   0.168  -1.557  0.00  0.00     0.022 A 
ATOM      7  C5  UNL d   1       0.356  -1.124  -1.642  0.00  0.00     0.026 A 
ATOM      8  C6  UNL d   1      -0.304  -1.561  -0.444  0.00  0.00    -0.082 A 
ATOM      9  C7  UNL d   1      -0.910  -2.801  -0.126  0.00  0.00     0.045 A 
ENDROOT
TORSDOF 0
ENDMDL
