MODEL 1
REMARK minimizedAffinity -4.46447802
REMARK minimizedRMSD -1
REMARK  0 active torsions:
REMARK  status: ('A' for Active; 'I' for Inactive)
ROOT
ATOM      1  C   UNL d   1      -1.544  -1.754   1.485  0.00  0.00    -0.002 A 
ATOM      2  C1  UNL d   1      -1.624  -0.378   1.648  0.00  0.00     0.010 A 
ATOM      3  C2  UNL d   1      -0.879   0.477   0.834  0.00  0.00     0.041 A 
ATOM      4  C3  UNL d   1      -0.046  -0.078  -0.157  0.00  0.00    -0.075 A 
ATOM      5  S   UNL d   1       0.957   0.775  -1.270  0.00  0.00     0.015 SA
ATOM      6  C4  UNL d   1       1.514  -0.667  -1.988  0.00  0.00     0.022 A 
ATOM      7  C5  UNL d   1       0.959  -1.782  -1.405  0.00  0.00     0.026 A 
ATOM      8  C6  UNL d   1       0.050  -1.461  -0.341  0.00  0.00    -0.082 A 
ATOM      9  C7  UNL d   1      -0.717  -2.302   0.501  0.00  0.00     0.045 A 
ENDROOT
TORSDOF 0
ENDMDL
