MODEL 1
REMARK minimizedAffinity 2.78291249
REMARK minimizedRMSD -1
REMARK  0 active torsions:
REMARK  status: ('A' for Active; 'I' for Inactive)
ROOT
ATOM      1  C   UNL d   1      -1.829  -0.740   1.050  0.00  0.00    -0.002 A 
ATOM      2  C1  UNL d   1      -1.648   0.552   0.577  0.00  0.00     0.010 A 
ATOM      3  C2  UNL d   1      -0.697   0.820  -0.410  0.00  0.00     0.041 A 
ATOM      4  C3  UNL d   1       0.074  -0.243  -0.920  0.00  0.00    -0.075 A 
ATOM      5  S   UNL d   1       1.297  -0.152  -2.132  0.00  0.00     0.015 SA
ATOM      6  C4  UNL d   1       1.607  -1.826  -2.051  0.00  0.00     0.022 A 
ATOM      7  C5  UNL d   1       0.807  -2.454  -1.127  0.00  0.00     0.026 A 
ATOM      8  C6  UNL d   1      -0.090  -1.552  -0.460  0.00  0.00    -0.082 A 
ATOM      9  C7  UNL d   1      -1.061  -1.792   0.542  0.00  0.00     0.045 A 
ENDROOT
TORSDOF 0
ENDMDL
