MODEL 1
REMARK minimizedAffinity -5.61017513
REMARK minimizedRMSD -1
REMARK  0 active torsions:
REMARK  status: ('A' for Active; 'I' for Inactive)
ROOT
ATOM      1  C   UNL d   1      -0.193  -3.762  -0.562  0.00  0.00    -0.002 A 
ATOM      2  C1  UNL d   1       0.331  -3.375  -1.787  0.00  0.00     0.010 A 
ATOM      3  C2  UNL d   1       0.536  -2.024  -2.077  0.00  0.00     0.041 A 
ATOM      4  C3  UNL d   1       0.205  -1.060  -1.105  0.00  0.00    -0.075 A 
ATOM      5  S   UNL d   1       0.372   0.650  -1.238  0.00  0.00     0.015 SA
ATOM      6  C4  UNL d   1      -0.248   0.908   0.329  0.00  0.00     0.022 A 
ATOM      7  C5  UNL d   1      -0.579  -0.272   0.952  0.00  0.00     0.026 A 
ATOM      8  C6  UNL d   1      -0.323  -1.426   0.137  0.00  0.00    -0.082 A 
ATOM      9  C7  UNL d   1      -0.520  -2.802   0.400  0.00  0.00     0.045 A 
ENDROOT
TORSDOF 0
ENDMDL
