MODEL 1
REMARK minimizedAffinity 11.9638243
REMARK minimizedRMSD -1
REMARK  0 active torsions:
REMARK  status: ('A' for Active; 'I' for Inactive)
ROOT
ATOM      1  C   UNL d   1       0.120   0.345   1.449  0.00  0.00    -0.002 A 
ATOM      2  C1  UNL d   1      -0.961   1.154   1.770  0.00  0.00     0.010 A 
ATOM      3  C2  UNL d   1      -2.256   0.631   1.799  0.00  0.00     0.041 A 
ATOM      4  C3  UNL d   1      -2.447  -0.732   1.501  0.00  0.00    -0.075 A 
ATOM      5  S   UNL d   1      -3.942  -1.591   1.477  0.00  0.00     0.015 SA
ATOM      6  C4  UNL d   1      -3.181  -3.053   1.042  0.00  0.00     0.022 A 
ATOM      7  C5  UNL d   1      -1.820  -2.907   0.914  0.00  0.00     0.026 A 
ATOM      8  C6  UNL d   1      -1.374  -1.567   1.177  0.00  0.00    -0.082 A 
ATOM      9  C7  UNL d   1      -0.074  -1.007   1.154  0.00  0.00     0.045 A 
ENDROOT
TORSDOF 0
ENDMDL
