MODEL 1
REMARK minimizedAffinity -6.18397045
REMARK minimizedRMSD -1
REMARK  0 active torsions:
REMARK  status: ('A' for Active; 'I' for Inactive)
ROOT
ATOM      1  C   UNL d   1       0.722  -3.564  -0.958  0.00  0.00    -0.002 A 
ATOM      2  C1  UNL d   1       1.209  -3.074  -2.161  0.00  0.00     0.010 A 
ATOM      3  C2  UNL d   1       1.204  -1.703  -2.424  0.00  0.00     0.041 A 
ATOM      4  C3  UNL d   1       0.698  -0.823  -1.446  0.00  0.00    -0.075 A 
ATOM      5  S   UNL d   1       0.592   0.894  -1.548  0.00  0.00     0.015 SA
ATOM      6  C4  UNL d   1      -0.100   1.018   0.005  0.00  0.00     0.022 A 
ATOM      7  C5  UNL d   1      -0.255  -0.211   0.600  0.00  0.00     0.026 A 
ATOM      8  C6  UNL d   1       0.203  -1.293  -0.226  0.00  0.00    -0.082 A 
ATOM      9  C7  UNL d   1       0.221  -2.689   0.010  0.00  0.00     0.045 A 
ENDROOT
TORSDOF 0
ENDMDL
