MODEL 1
REMARK minimizedAffinity 2.1421895
REMARK minimizedRMSD -1
REMARK  0 active torsions:
REMARK  status: ('A' for Active; 'I' for Inactive)
ROOT
ATOM      1  N1  IND d   1       1.273  -3.010   0.979  0.00  0.00    -0.196 N 
ATOM      2  C2  IND d   1       0.729  -1.786   0.706  0.00  0.00     0.054 A 
ATOM      3  C3  IND d   1       0.683  -1.031   1.826  0.00  0.00    -0.031 A 
ATOM      4  C4  IND d   1       1.541  -1.565   4.194  0.00  0.00     0.051 A 
ATOM      5  C5  IND d   1       2.083  -2.572   4.942  0.00  0.00    -0.031 A 
ATOM      6  C6  IND d   1       2.392  -3.801   4.395  0.00  0.00     0.015 A 
ATOM      7  C7  IND d   1       2.179  -4.065   3.072  0.00  0.00    -0.016 A 
ATOM      8  C8  IND d   1       1.622  -3.047   2.311  0.00  0.00    -0.047 A 
ATOM      9  C9  IND d   1       1.268  -1.812   2.870  0.00  0.00    -0.096 A 
ATOM     10  HN1 IND d   1       1.380  -3.649   0.414  0.00  0.00     0.298 HD
ENDROOT
TORSDOF 0
ENDMDL
