MODEL 1
REMARK minimizedAffinity 3.10734653
REMARK minimizedRMSD -1
REMARK  0 active torsions:
REMARK  status: ('A' for Active; 'I' for Inactive)
ROOT
ATOM      1  N1  IND d   1      -5.999  -4.363  -6.000  0.00  0.00    -0.196 N 
ATOM      2  C2  IND d   1      -5.798  -5.710  -5.880  0.00  0.00     0.054 A 
ATOM      3  C3  IND d   1      -5.260  -6.000  -4.674  0.00  0.00    -0.031 A 
ATOM      4  C4  IND d   1      -4.723  -4.432  -2.704  0.00  0.00     0.051 A 
ATOM      5  C5  IND d   1      -4.701  -3.112  -2.353  0.00  0.00    -0.031 A 
ATOM      6  C6  IND d   1      -5.121  -2.121  -3.217  0.00  0.00     0.015 A 
ATOM      7  C7  IND d   1      -5.592  -2.416  -4.465  0.00  0.00    -0.016 A 
ATOM      8  C8  IND d   1      -5.610  -3.756  -4.826  0.00  0.00    -0.047 A 
ATOM      9  C9  IND d   1      -5.145  -4.762  -3.970  0.00  0.00    -0.096 A 
ATOM     10  HN1 IND d   1      -6.316  -3.963  -6.692  0.00  0.00     0.298 HD
ENDROOT
TORSDOF 0
ENDMDL
