MODEL 1
REMARK minimizedAffinity 8.37564945
REMARK minimizedRMSD -1
REMARK  0 active torsions:
REMARK  status: ('A' for Active; 'I' for Inactive)
ROOT
ATOM      1  N1  IND d   1       1.172  -0.959   5.043  0.00  0.00    -0.196 N 
ATOM      2  C2  IND d   1       0.740  -2.187   5.460  0.00  0.00     0.054 A 
ATOM      3  C3  IND d   1       0.694  -3.048   4.418  0.00  0.00    -0.031 A 
ATOM      4  C4  IND d   1       1.378  -2.683   1.963  0.00  0.00     0.051 A 
ATOM      5  C5  IND d   1       1.798  -1.715   1.095  0.00  0.00    -0.031 A 
ATOM      6  C6  IND d   1       2.039  -0.420   1.507  0.00  0.00     0.015 A 
ATOM      7  C7  IND d   1       1.878  -0.046   2.811  0.00  0.00    -0.016 A 
ATOM      8  C8  IND d   1       1.444  -1.024   3.694  0.00  0.00    -0.047 A 
ATOM      9  C9  IND d   1       1.158  -2.330   3.274  0.00  0.00    -0.096 A 
ATOM     10  HN1 IND d   1       1.258  -0.262   5.540  0.00  0.00     0.298 HD
ENDROOT
TORSDOF 0
ENDMDL
