MODEL 1
REMARK minimizedAffinity -2.6117444
REMARK minimizedRMSD -1
REMARK  0 active torsions:
REMARK  status: ('A' for Active; 'I' for Inactive)
ROOT
ATOM      1  N1  IND d   1       0.460  -5.088   3.582  0.00  0.00    -0.196 N 
ATOM      2  C2  IND d   1       1.111  -6.000   2.799  0.00  0.00     0.054 A 
ATOM      3  C3  IND d   1       1.713  -5.382   1.758  0.00  0.00    -0.031 A 
ATOM      4  C4  IND d   1       1.844  -2.873   1.199  0.00  0.00     0.051 A 
ATOM      5  C5  IND d   1       1.374  -1.654   1.601  0.00  0.00    -0.031 A 
ATOM      6  C6  IND d   1       0.561  -1.514   2.707  0.00  0.00     0.015 A 
ATOM      7  C7  IND d   1       0.195  -2.592   3.463  0.00  0.00    -0.016 A 
ATOM      8  C8  IND d   1       0.665  -3.832   3.054  0.00  0.00    -0.047 A 
ATOM      9  C9  IND d   1       1.456  -3.985   1.908  0.00  0.00    -0.096 A 
ATOM     10  HN1 IND d   1      -0.001  -5.268   4.285  0.00  0.00     0.298 HD
ENDROOT
TORSDOF 0
ENDMDL
