MODEL 1
REMARK minimizedAffinity -1.73043728
REMARK minimizedRMSD -1
REMARK  0 active torsions:
REMARK  status: ('A' for Active; 'I' for Inactive)
ROOT
ATOM      1  N1  IND d   1      -3.213   1.844  -2.072  0.00  0.00    -0.196 N 
ATOM      2  C2  IND d   1      -4.103   1.442  -3.029  0.00  0.00     0.054 A 
ATOM      3  C3  IND d   1      -5.256   1.029  -2.455  0.00  0.00    -0.031 A 
ATOM      4  C4  IND d   1      -5.937   1.023   0.027  0.00  0.00     0.051 A 
ATOM      5  C5  IND d   1      -5.446   1.264   1.280  0.00  0.00    -0.031 A 
ATOM      6  C6  IND d   1      -4.161   1.723   1.483  0.00  0.00     0.015 A 
ATOM      7  C7  IND d   1      -3.318   1.969   0.436  0.00  0.00    -0.016 A 
ATOM      8  C8  IND d   1      -3.811   1.719  -0.837  0.00  0.00    -0.047 A 
ATOM      9  C9  IND d   1      -5.100   1.212  -1.047  0.00  0.00    -0.096 A 
ATOM     10  HN1 IND d   1      -2.415   2.127  -2.217  0.00  0.00     0.298 HD
ENDROOT
TORSDOF 0
ENDMDL
