MODEL 1
REMARK minimizedAffinity 9.22982502
REMARK minimizedRMSD -1
REMARK  0 active torsions:
REMARK  status: ('A' for Active; 'I' for Inactive)
ROOT
ATOM      1  N1  IND d   1      -2.372   3.364   2.244  0.00  0.00    -0.196 N 
ATOM      2  C2  IND d   1      -1.679   2.953   1.140  0.00  0.00     0.054 A 
ATOM      3  C3  IND d   1      -2.479   2.971   0.050  0.00  0.00    -0.031 A 
ATOM      4  C4  IND d   1      -4.927   3.737  -0.171  0.00  0.00     0.051 A 
ATOM      5  C5  IND d   1      -5.993   4.161   0.571  0.00  0.00    -0.031 A 
ATOM      6  C6  IND d   1      -5.905   4.348   1.935  0.00  0.00     0.015 A 
ATOM      7  C7  IND d   1      -4.738   4.127   2.610  0.00  0.00    -0.016 A 
ATOM      8  C8  IND d   1      -3.655   3.689   1.862  0.00  0.00    -0.047 A 
ATOM      9  C9  IND d   1      -3.750   3.457   0.483  0.00  0.00    -0.096 A 
ATOM     10  HN1 IND d   1      -2.059   3.411   3.044  0.00  0.00     0.298 HD
ENDROOT
TORSDOF 0
ENDMDL
