MODEL 1
REMARK minimizedAffinity 14.3308954
REMARK minimizedRMSD -1
REMARK  0 active torsions:
REMARK  status: ('A' for Active; 'I' for Inactive)
ROOT
ATOM      1  N1  IND d   1       2.868  -0.699   1.185  0.00  0.00    -0.196 N 
ATOM      2  C2  IND d   1       2.305   0.541   1.301  0.00  0.00     0.054 A 
ATOM      3  C3  IND d   1       1.379   0.547   2.287  0.00  0.00    -0.031 A 
ATOM      4  C4  IND d   1       0.701  -1.338   3.904  0.00  0.00     0.051 A 
ATOM      5  C5  IND d   1       0.912  -2.663   4.163  0.00  0.00    -0.031 A 
ATOM      6  C6  IND d   1       1.807  -3.415   3.430  0.00  0.00     0.015 A 
ATOM      7  C7  IND d   1       2.534  -2.866   2.413  0.00  0.00    -0.016 A 
ATOM      8  C8  IND d   1       2.317  -1.522   2.142  0.00  0.00    -0.047 A 
ATOM      9  C9  IND d   1       1.380  -0.764   2.855  0.00  0.00    -0.096 A 
ATOM     10  HN1 IND d   1       3.466  -0.926   0.610  0.00  0.00     0.298 HD
ENDROOT
TORSDOF 0
ENDMDL
