MODEL 1
REMARK minimizedAffinity 10.0843344
REMARK minimizedRMSD -1
REMARK  0 active torsions:
REMARK  status: ('A' for Active; 'I' for Inactive)
ROOT
ATOM      1  N1  IND d   1       5.193  -1.937   1.703  0.00  0.00    -0.196 N 
ATOM      2  C2  IND d   1       5.571  -3.012   2.458  0.00  0.00     0.054 A 
ATOM      3  C3  IND d   1       4.506  -3.523   3.116  0.00  0.00    -0.031 A 
ATOM      4  C4  IND d   1       2.033  -2.815   3.022  0.00  0.00     0.051 A 
ATOM      5  C5  IND d   1       1.204  -1.862   2.500  0.00  0.00    -0.031 A 
ATOM      6  C6  IND d   1       1.672  -0.866   1.667  0.00  0.00     0.015 A 
ATOM      7  C7  IND d   1       2.990  -0.793   1.314  0.00  0.00    -0.016 A 
ATOM      8  C8  IND d   1       3.835  -1.755   1.847  0.00  0.00    -0.047 A 
ATOM      9  C9  IND d   1       3.374  -2.743   2.727  0.00  0.00    -0.096 A 
ATOM     10  HN1 IND d   1       5.716  -1.455   1.220  0.00  0.00     0.298 HD
ENDROOT
TORSDOF 0
ENDMDL
