MODEL 1
REMARK minimizedAffinity -4.36376238
REMARK minimizedRMSD -1
REMARK  0 active torsions:
REMARK  status: ('A' for Active; 'I' for Inactive)
ROOT
ATOM      1  C4' PXY d   1       0.498  -0.332  -2.387  0.00  0.00     0.077 C 
ATOM      2  C1' PXY d   1      -0.777   1.496   2.947  0.00  0.00     0.077 C 
ATOM      3  C1  PXY d   1      -0.455   1.012   1.547  0.00  0.00    -0.082 A 
ATOM      4  C2  PXY d   1       0.803   0.777   1.209  0.00  0.00     0.003 A 
ATOM      5  C3  PXY d   1       1.115   0.369  -0.062  0.00  0.00     0.003 A 
ATOM      6  C4  PXY d   1       0.125   0.149  -0.982  0.00  0.00    -0.082 A 
ATOM      7  C5  PXY d   1      -1.161   0.377  -0.642  0.00  0.00     0.003 A 
ATOM      8  C6  PXY d   1      -1.454   0.829   0.641  0.00  0.00     0.003 A 
ENDROOT
TORSDOF 0
ENDMDL
