MODEL 1
REMARK minimizedAffinity -2.38761044
REMARK minimizedRMSD -1
REMARK  0 active torsions:
REMARK  status: ('A' for Active; 'I' for Inactive)
ROOT
ATOM      1  C4' PXY d   1       0.067  -0.416  -1.782  0.00  0.00     0.077 C 
ATOM      2  C1' PXY d   1      -0.737   1.646   3.558  0.00  0.00     0.077 C 
ATOM      3  C1  PXY d   1      -0.535   1.097   2.159  0.00  0.00    -0.082 A 
ATOM      4  C2  PXY d   1       0.635   1.246   1.560  0.00  0.00     0.003 A 
ATOM      5  C3  PXY d   1       0.824   0.784   0.283  0.00  0.00     0.003 A 
ATOM      6  C4  PXY d   1      -0.178   0.114  -0.367  0.00  0.00    -0.082 A 
ATOM      7  C5  PXY d   1      -1.371  -0.052   0.242  0.00  0.00     0.003 A 
ATOM      8  C6  PXY d   1      -1.556   0.461   1.523  0.00  0.00     0.003 A 
ENDROOT
TORSDOF 0
ENDMDL
