MODEL 1
REMARK minimizedAffinity -3.86778784
REMARK minimizedRMSD -1
REMARK  0 active torsions:
REMARK  status: ('A' for Active; 'I' for Inactive)
ROOT
ATOM      1  C4' PXY d   1      -0.969   1.766   2.964  0.00  0.00     0.077 C 
ATOM      2  C1' PXY d   1       0.625  -1.049  -1.826  0.00  0.00     0.077 C 
ATOM      3  C1  PXY d   1       0.196  -0.307  -0.576  0.00  0.00    -0.082 A 
ATOM      4  C2  PXY d   1       1.109   0.088   0.296  0.00  0.00     0.003 A 
ATOM      5  C3  PXY d   1       0.736   0.732   1.447  0.00  0.00     0.003 A 
ATOM      6  C4  PXY d   1      -0.581   1.022   1.683  0.00  0.00    -0.082 A 
ATOM      7  C5  PXY d   1      -1.518   0.631   0.794  0.00  0.00     0.003 A 
ATOM      8  C6  PXY d   1      -1.122  -0.058  -0.349  0.00  0.00     0.003 A 
ENDROOT
TORSDOF 0
ENDMDL
