MODEL 1
REMARK minimizedAffinity -2.72671247
REMARK minimizedRMSD -1
REMARK  0 active torsions:
REMARK  status: ('A' for Active; 'I' for Inactive)
ROOT
ATOM      1  C4' PXY d   1       0.365  -0.896  -2.394  0.00  0.00     0.077 C 
ATOM      2  C1' PXY d   1      -1.363   1.281   2.675  0.00  0.00     0.077 C 
ATOM      3  C1  PXY d   1      -0.898   0.717   1.347  0.00  0.00    -0.082 A 
ATOM      4  C2  PXY d   1      -1.793   0.315   0.459  0.00  0.00     0.003 A 
ATOM      5  C3  PXY d   1      -1.390  -0.228  -0.735  0.00  0.00     0.003 A 
ATOM      6  C4  PXY d   1      -0.059  -0.311  -1.043  0.00  0.00    -0.082 A 
ATOM      7  C5  PXY d   1       0.860   0.107  -0.147  0.00  0.00     0.003 A 
ATOM      8  C6  PXY d   1       0.431   0.617   1.076  0.00  0.00     0.003 A 
ENDROOT
TORSDOF 0
ENDMDL
