MODEL 1
REMARK minimizedAffinity -4.14795208
REMARK minimizedRMSD -1
REMARK  0 active torsions:
REMARK  status: ('A' for Active; 'I' for Inactive)
ROOT
ATOM      1  C4' PXY d   1       0.033  -0.836  -2.178  0.00  0.00     0.077 C 
ATOM      2  C1' PXY d   1      -0.573   0.639   3.378  0.00  0.00     0.077 C 
ATOM      3  C1  PXY d   1      -0.427   0.248   1.921  0.00  0.00    -0.082 A 
ATOM      4  C2  PXY d   1       0.777   0.009   1.426  0.00  0.00     0.003 A 
ATOM      5  C3  PXY d   1       0.931  -0.315   0.102  0.00  0.00     0.003 A 
ATOM      6  C4  PXY d   1      -0.164  -0.447  -0.710  0.00  0.00    -0.082 A 
ATOM      7  C5  PXY d   1      -1.396  -0.215  -0.210  0.00  0.00     0.003 A 
ATOM      8  C6  PXY d   1      -1.527   0.153   1.126  0.00  0.00     0.003 A 
ENDROOT
TORSDOF 0
ENDMDL
