MODEL 1
REMARK minimizedAffinity -3.4223783
REMARK minimizedRMSD -1
REMARK  0 active torsions:
REMARK  status: ('A' for Active; 'I' for Inactive)
ROOT
ATOM      1  C4' PXY d   1      -1.159   1.218   3.218  0.00  0.00     0.077 C 
ATOM      2  C1' PXY d   1       0.818  -0.718  -1.858  0.00  0.00     0.077 C 
ATOM      3  C1  PXY d   1       0.289  -0.206  -0.533  0.00  0.00    -0.082 A 
ATOM      4  C2  PXY d   1       1.133   0.057   0.452  0.00  0.00     0.003 A 
ATOM      5  C3  PXY d   1       0.669   0.490   1.667  0.00  0.00     0.003 A 
ATOM      6  C4  PXY d   1      -0.669   0.708   1.860  0.00  0.00    -0.082 A 
ATOM      7  C5  PXY d   1      -1.536   0.453   0.857  0.00  0.00     0.003 A 
ATOM      8  C6  PXY d   1      -1.048  -0.026  -0.355  0.00  0.00     0.003 A 
ENDROOT
TORSDOF 0
ENDMDL
