MODEL 1
REMARK minimizedAffinity -3.19220614
REMARK minimizedRMSD -1
REMARK  0 active torsions:
REMARK  status: ('A' for Active; 'I' for Inactive)
ROOT
ATOM      1  C4' PXY d   1      -0.741   0.622   3.427  0.00  0.00     0.077 C 
ATOM      2  C1' PXY d   1       0.396  -0.171  -2.185  0.00  0.00     0.077 C 
ATOM      3  C1  PXY d   1       0.110   0.032  -0.711  0.00  0.00    -0.082 A 
ATOM      4  C2  PXY d   1      -1.143   0.072  -0.287  0.00  0.00     0.003 A 
ATOM      5  C3  PXY d   1      -1.421   0.287   1.039  0.00  0.00     0.003 A 
ATOM      6  C4  PXY d   1      -0.405   0.409   1.948  0.00  0.00    -0.082 A 
ATOM      7  C5  PXY d   1       0.876   0.359   1.525  0.00  0.00     0.003 A 
ATOM      8  C6  PXY d   1       1.136   0.181   0.170  0.00  0.00     0.003 A 
ENDROOT
TORSDOF 0
ENDMDL
