MODEL 1
REMARK minimizedAffinity -5.0331955
REMARK minimizedRMSD -1
REMARK  0 active torsions:
REMARK  status: ('A' for Active; 'I' for Inactive)
ROOT
ATOM      1  C4' PXY d   1      -0.058  -1.397  -1.592  0.00  0.00     0.077 C 
ATOM      2  C1' PXY d   1      -0.196   1.317   3.510  0.00  0.00     0.077 C 
ATOM      3  C1  PXY d   1      -0.171   0.600   2.175  0.00  0.00    -0.082 A 
ATOM      4  C2  PXY d   1       0.988   0.355   1.585  0.00  0.00     0.003 A 
ATOM      5  C3  PXY d   1       1.027  -0.264   0.362  0.00  0.00     0.003 A 
ATOM      6  C4  PXY d   1      -0.130  -0.684  -0.239  0.00  0.00    -0.082 A 
ATOM      7  C5  PXY d   1      -1.315  -0.448   0.362  0.00  0.00     0.003 A 
ATOM      8  C6  PXY d   1      -1.336   0.219   1.583  0.00  0.00     0.003 A 
ENDROOT
TORSDOF 0
ENDMDL
