MODEL 1
REMARK minimizedAffinity -3.62595677
REMARK minimizedRMSD -1
REMARK  0 active torsions:
REMARK  status: ('A' for Active; 'I' for Inactive)
ROOT
ATOM      1  C4' PXY d   1       0.403  -0.881  -2.114  0.00  0.00     0.077 C 
ATOM      2  C1' PXY d   1      -1.040   1.507   2.949  0.00  0.00     0.077 C 
ATOM      3  C1  PXY d   1      -0.672   0.872   1.623  0.00  0.00    -0.082 A 
ATOM      4  C2  PXY d   1       0.557   1.010   1.150  0.00  0.00     0.003 A 
ATOM      5  C3  PXY d   1       0.898   0.470  -0.062  0.00  0.00     0.003 A 
ATOM      6  C4  PXY d   1      -0.012  -0.265  -0.775  0.00  0.00    -0.082 A 
ATOM      7  C5  PXY d   1      -1.264  -0.419  -0.295  0.00  0.00     0.003 A 
ATOM      8  C6  PXY d   1      -1.602   0.172   0.919  0.00  0.00     0.003 A 
ENDROOT
TORSDOF 0
ENDMDL
