MODEL 1
REMARK minimizedAffinity -4.7084589
REMARK minimizedRMSD -1
REMARK  0 active torsions:
REMARK  status: ('A' for Active; 'I' for Inactive)
ROOT
ATOM      1  C4' PXY d   1      -0.001  -0.842  -1.713  0.00  0.00     0.077 C 
ATOM      2  C1' PXY d   1      -0.427   1.891   3.363  0.00  0.00     0.077 C 
ATOM      3  C1  PXY d   1      -0.328   1.172   2.032  0.00  0.00    -0.082 A 
ATOM      4  C2  PXY d   1       0.825   0.640   1.660  0.00  0.00     0.003 A 
ATOM      5  C3  PXY d   1       0.940   0.014   0.445  0.00  0.00     0.003 A 
ATOM      6  C4  PXY d   1      -0.149  -0.115  -0.374  0.00  0.00    -0.082 A 
ATOM      7  C5  PXY d   1      -1.332   0.416   0.003  0.00  0.00     0.003 A 
ATOM      8  C6  PXY d   1      -1.418   1.083   1.222  0.00  0.00     0.003 A 
ENDROOT
TORSDOF 0
ENDMDL
