MODEL 1
REMARK minimizedAffinity -4.46215439
REMARK minimizedRMSD -1
REMARK  0 active torsions:
REMARK  status: ('A' for Active; 'I' for Inactive)
ROOT
ATOM      1  C4' PXY d   1       2.186   0.466   1.993  0.00  0.00     0.077 C 
ATOM      2  C1' PXY d   1      -3.011  -0.633  -0.289  0.00  0.00     0.077 C 
ATOM      3  C1  PXY d   1      -1.653  -0.334   0.316  0.00  0.00    -0.082 A 
ATOM      4  C2  PXY d   1      -0.559  -0.771  -0.286  0.00  0.00     0.003 A 
ATOM      5  C3  PXY d   1       0.676  -0.537   0.263  0.00  0.00     0.003 A 
ATOM      6  C4  PXY d   1       0.794   0.196   1.413  0.00  0.00    -0.082 A 
ATOM      7  C5  PXY d   1      -0.317   0.654   2.028  0.00  0.00     0.003 A 
ATOM      8  C6  PXY d   1      -1.563   0.371   1.476  0.00  0.00     0.003 A 
ENDROOT
TORSDOF 0
ENDMDL
