MODEL 1
REMARK minimizedAffinity -4.23003054
REMARK minimizedRMSD -1
REMARK  1 active torsions:
REMARK  status: ('A' for Active; 'I' for Inactive)
REMARK    1  A    between atoms: C1_2  and  C2_3 
ROOT
ATOM      1  C2  UNL d   1      -0.783   0.203  -0.251  0.00  0.00    -0.081 A 
ATOM      2  C3  UNL d   1      -0.443  -1.120  -0.559  0.00  0.00     0.006 A 
ATOM      3  C4  UNL d   1       0.813  -1.626  -0.218  0.00  0.00     0.002 A 
ATOM      4  C5  UNL d   1       1.747  -0.821   0.444  0.00  0.00    -0.080 A 
ATOM      5  C6  UNL d   1       3.088  -1.362   0.843  0.00  0.00     0.076 C 
ATOM      6  C7  UNL d   1       1.414   0.506   0.736  0.00  0.00     0.002 A 
ATOM      7  C8  UNL d   1       0.158   1.013   0.395  0.00  0.00     0.006 A 
ENDROOT
BRANCH   1   8
ATOM      8  C1  UNL d   1      -2.160   0.733  -0.559  0.00  0.00     0.054 C 
ATOM      9  C   UNL d   1      -3.011   0.829   0.699  0.00  0.00     0.018 C 
ENDBRANCH   1   8
TORSDOF 1
ENDMDL
