MODEL 1
REMARK minimizedAffinity -3.22026587
REMARK minimizedRMSD -1
REMARK  1 active torsions:
REMARK  status: ('A' for Active; 'I' for Inactive)
REMARK    1  A    between atoms: C1_2  and  C2_3 
ROOT
ATOM      1  C2  UNL d   1      -1.674   0.633   0.570  0.00  0.00    -0.081 A 
ATOM      2  C3  UNL d   1      -1.486  -0.633   1.138  0.00  0.00     0.006 A 
ATOM      3  C4  UNL d   1      -0.399  -1.424   0.760  0.00  0.00     0.002 A 
ATOM      4  C5  UNL d   1       0.522  -0.960  -0.185  0.00  0.00    -0.080 A 
ATOM      5  C6  UNL d   1       1.710  -1.788  -0.577  0.00  0.00     0.076 C 
ATOM      6  C7  UNL d   1       0.325   0.297  -0.765  0.00  0.00     0.002 A 
ATOM      7  C8  UNL d   1      -0.762   1.089  -0.388  0.00  0.00     0.006 A 
ENDROOT
BRANCH   1   8
ATOM      8  C1  UNL d   1      -2.809   1.516   1.023  0.00  0.00     0.054 C 
ATOM      9  C   UNL d   1      -4.106   0.729   1.147  0.00  0.00     0.018 C 
ENDBRANCH   1   8
TORSDOF 1
ENDMDL
