MODEL 1
REMARK minimizedAffinity -4.276124
REMARK minimizedRMSD -1
REMARK  1 active torsions:
REMARK  status: ('A' for Active; 'I' for Inactive)
REMARK    1  A    between atoms: C1_2  and  C2_3 
ROOT
ATOM      1  C2  UNL d   1      -0.589   0.536  -0.411  0.00  0.00    -0.081 A 
ATOM      2  C3  UNL d   1      -0.475  -0.812  -0.773  0.00  0.00     0.006 A 
ATOM      3  C4  UNL d   1       0.641  -1.557  -0.387  0.00  0.00     0.002 A 
ATOM      4  C5  UNL d   1       1.658  -0.970   0.373  0.00  0.00    -0.080 A 
ATOM      5  C6  UNL d   1       2.848  -1.766   0.819  0.00  0.00     0.076 C 
ATOM      6  C7  UNL d   1       1.553   0.382   0.720  0.00  0.00     0.002 A 
ATOM      7  C8  UNL d   1       0.437   1.127   0.333  0.00  0.00     0.006 A 
ENDROOT
BRANCH   1   8
ATOM      8  C1  UNL d   1      -1.822   1.325  -0.771  0.00  0.00     0.054 C 
ATOM      9  C   UNL d   1      -2.957   1.054   0.207  0.00  0.00     0.018 C 
ENDBRANCH   1   8
TORSDOF 1
ENDMDL
