MODEL 1
REMARK minimizedAffinity 1.47002602
REMARK minimizedRMSD -1
REMARK  1 active torsions:
REMARK  status: ('A' for Active; 'I' for Inactive)
REMARK    1  A    between atoms: C1_2  and  C2_3 
ROOT
ATOM      1  C2  UNL d   1       1.601  -2.274  -0.662  0.00  0.00    -0.081 A 
ATOM      2  C3  UNL d   1       1.295  -3.521  -0.105  0.00  0.00     0.006 A 
ATOM      3  C4  UNL d   1       0.164  -4.226  -0.526  0.00  0.00     0.002 A 
ATOM      4  C5  UNL d   1      -0.673  -3.700  -1.515  0.00  0.00    -0.080 A 
ATOM      5  C6  UNL d   1      -1.873  -4.460  -1.997  0.00  0.00     0.076 C 
ATOM      6  C7  UNL d   1      -0.377  -2.445  -2.059  0.00  0.00     0.002 A 
ATOM      7  C8  UNL d   1       0.753  -1.740  -1.639  0.00  0.00     0.006 A 
ENDROOT
BRANCH   1   8
ATOM      8  C1  UNL d   1       2.855  -1.541  -0.258  0.00  0.00     0.054 C 
ATOM      9  C   UNL d   1       3.094  -1.641   1.242  0.00  0.00     0.018 C 
ENDBRANCH   1   8
TORSDOF 1
ENDMDL
