MODEL 1
REMARK minimizedAffinity 12.2359228
REMARK minimizedRMSD -1
REMARK  3 active torsions:
REMARK  status: ('A' for Active; 'I' for Inactive)
REMARK    1  A    between atoms: C3'_2  and  C2'_3 
REMARK    2  A    between atoms: C2'_3  and  C1'_4 
REMARK    3  A    between atoms: C1'_4  and  C1_5 
ROOT
ATOM      1  C1  N4B d   1       2.765   0.868  -0.319  0.00  0.00    -0.075 A 
ATOM      2  C2  N4B d   1       2.886   0.145   0.888  0.00  0.00     0.002 A 
ATOM      3  C3  N4B d   1       2.298   0.620   2.035  0.00  0.00     0.002 A 
ATOM      4  C4  N4B d   1       1.604   1.821   2.003  0.00  0.00    -0.004 A 
ATOM      5  C5  N4B d   1       1.471   2.501   0.828  0.00  0.00     0.002 A 
ATOM      6  C6  N4B d   1       2.053   2.033  -0.333  0.00  0.00     0.002 A 
ENDROOT
BRANCH   1   7
ATOM      7  C1' N4B d   1       3.463   0.432  -1.578  0.00  0.00     0.057 C 
BRANCH   7   8
ATOM      8  C2' N4B d   1       3.940   1.666  -2.339  0.00  0.00     0.009 C 
BRANCH   8   9
ATOM      9  C3' N4B d   1       3.279   1.784  -3.702  0.00  0.00     0.004 C 
ATOM     10  C4' N4B d   1       3.452   0.552  -4.540  0.00  0.00     0.003 C 
ENDBRANCH   8   9
ENDBRANCH   7   8
ENDBRANCH   1   7
TORSDOF 3
ENDMDL
