MODEL 1
REMARK minimizedAffinity 13.2993174
REMARK minimizedRMSD -1
REMARK  3 active torsions:
REMARK  status: ('A' for Active; 'I' for Inactive)
REMARK    1  A    between atoms: C3'_2  and  C2'_3 
REMARK    2  A    between atoms: C2'_3  and  C1'_4 
REMARK    3  A    between atoms: C1'_4  and  C1_5 
ROOT
ATOM      1  C1  N4B d   1       2.352   1.321   1.026  0.00  0.00    -0.075 A 
ATOM      2  C2  N4B d   1       1.248   1.282   1.905  0.00  0.00     0.002 A 
ATOM      3  C3  N4B d   1       1.358   0.646   3.117  0.00  0.00     0.002 A 
ATOM      4  C4  N4B d   1       2.550   0.028   3.462  0.00  0.00    -0.004 A 
ATOM      5  C5  N4B d   1       3.620   0.092   2.618  0.00  0.00     0.002 A 
ATOM      6  C6  N4B d   1       3.526   0.731   1.399  0.00  0.00     0.002 A 
ENDROOT
BRANCH   1   7
ATOM      7  C1' N4B d   1       2.254   1.930  -0.346  0.00  0.00     0.057 C 
BRANCH   7   8
ATOM      8  C2' N4B d   1       3.097   1.111  -1.319  0.00  0.00     0.009 C 
BRANCH   8   9
ATOM      9  C3' N4B d   1       3.710   1.977  -2.407  0.00  0.00     0.004 C 
ATOM     10  C4' N4B d   1       3.752   1.291  -3.740  0.00  0.00     0.003 C 
ENDBRANCH   8   9
ENDBRANCH   7   8
ENDBRANCH   1   7
TORSDOF 3
ENDMDL
