MODEL 1
REMARK minimizedAffinity 16.3429279
REMARK minimizedRMSD -1
REMARK  3 active torsions:
REMARK  status: ('A' for Active; 'I' for Inactive)
REMARK    1  A    between atoms: C3'_2  and  C2'_3 
REMARK    2  A    between atoms: C2'_3  and  C1'_4 
REMARK    3  A    between atoms: C1'_4  and  C1_5 
ROOT
ATOM      1  C1  N4B d   1      -3.235  -4.480  -2.830  0.00  0.00    -0.075 A 
ATOM      2  C2  N4B d   1      -3.990  -5.414  -2.086  0.00  0.00     0.002 A 
ATOM      3  C3  N4B d   1      -5.361  -5.336  -2.075  0.00  0.00     0.002 A 
ATOM      4  C4  N4B d   1      -5.996  -4.326  -2.782  0.00  0.00    -0.004 A 
ATOM      5  C5  N4B d   1      -5.261  -3.443  -3.519  0.00  0.00     0.002 A 
ATOM      6  C6  N4B d   1      -3.883  -3.512  -3.542  0.00  0.00     0.002 A 
ENDROOT
BRANCH   1   7
ATOM      7  C1' N4B d   1      -1.731  -4.472  -2.803  0.00  0.00     0.057 C 
BRANCH   7   8
ATOM      8  C2' N4B d   1      -1.211  -5.691  -3.559  0.00  0.00     0.009 C 
BRANCH   8   9
ATOM      9  C3' N4B d   1      -0.157  -5.314  -4.587  0.00  0.00     0.004 C 
ATOM     10  C4' N4B d   1      -0.669  -5.383  -5.995  0.00  0.00     0.003 C 
ENDBRANCH   8   9
ENDBRANCH   7   8
ENDBRANCH   1   7
TORSDOF 3
ENDMDL
