MODEL 1
REMARK minimizedAffinity 14.0688629
REMARK minimizedRMSD -1
REMARK  3 active torsions:
REMARK  status: ('A' for Active; 'I' for Inactive)
REMARK    1  A    between atoms: C3'_2  and  C2'_3 
REMARK    2  A    between atoms: C2'_3  and  C1'_4 
REMARK    3  A    between atoms: C1'_4  and  C1_5 
ROOT
ATOM      1  C1  N4B d   1       2.757   3.235  -4.858  0.00  0.00    -0.075 A 
ATOM      2  C2  N4B d   1       3.037   4.019  -6.000  0.00  0.00     0.002 A 
ATOM      3  C3  N4B d   1       2.787   5.369  -5.984  0.00  0.00     0.002 A 
ATOM      4  C4  N4B d   1       2.243   5.952  -4.849  0.00  0.00    -0.004 A 
ATOM      5  C5  N4B d   1       2.000   5.193  -3.742  0.00  0.00     0.002 A 
ATOM      6  C6  N4B d   1       2.249   3.836  -3.743  0.00  0.00     0.002 A 
ENDROOT
BRANCH   1   7
ATOM      7  C1' N4B d   1       2.933   1.741  -4.858  0.00  0.00     0.057 C 
BRANCH   7   8
ATOM      8  C2' N4B d   1       4.416   1.412  -5.003  0.00  0.00     0.009 C 
BRANCH   8   9
ATOM      9  C3' N4B d   1       4.645  -0.063  -5.286  0.00  0.00     0.004 C 
ATOM     10  C4' N4B d   1       3.409  -0.760  -5.772  0.00  0.00     0.003 C 
ENDBRANCH   8   9
ENDBRANCH   7   8
ENDBRANCH   1   7
TORSDOF 3
ENDMDL
