MODEL 1
REMARK minimizedAffinity 6.31841946
REMARK minimizedRMSD -1
REMARK  3 active torsions:
REMARK  status: ('A' for Active; 'I' for Inactive)
REMARK    1  A    between atoms: C3'_2  and  C2'_3 
REMARK    2  A    between atoms: C2'_3  and  C1'_4 
REMARK    3  A    between atoms: C1'_4  and  C1_5 
ROOT
ATOM      1  C1  N4B d   1      -3.139  -6.000  -0.427  0.00  0.00    -0.075 A 
ATOM      2  C2  N4B d   1      -1.771  -5.995  -0.077  0.00  0.00     0.002 A 
ATOM      3  C3  N4B d   1      -1.401  -5.979   1.245  0.00  0.00     0.002 A 
ATOM      4  C4  N4B d   1      -2.377  -5.948   2.230  0.00  0.00    -0.004 A 
ATOM      5  C5  N4B d   1      -3.696  -5.979   1.884  0.00  0.00     0.002 A 
ATOM      6  C6  N4B d   1      -4.083  -5.999   0.559  0.00  0.00     0.002 A 
ENDROOT
BRANCH   1   7
ATOM      7  C1' N4B d   1      -3.592  -5.931  -1.860  0.00  0.00     0.057 C 
BRANCH   7   8
ATOM      8  C2' N4B d   1      -5.116  -5.999  -1.907  0.00  0.00     0.009 C 
BRANCH   8   9
ATOM      9  C3' N4B d   1      -5.702  -4.972  -2.860  0.00  0.00     0.004 C 
ATOM     10  C4' N4B d   1      -4.681  -3.992  -3.357  0.00  0.00     0.003 C 
ENDBRANCH   8   9
ENDBRANCH   7   8
ENDBRANCH   1   7
TORSDOF 3
ENDMDL
