MODEL 1
REMARK minimizedAffinity 23.6438446
REMARK minimizedRMSD -1
REMARK  3 active torsions:
REMARK  status: ('A' for Active; 'I' for Inactive)
REMARK    1  A    between atoms: C3'_2  and  C2'_3 
REMARK    2  A    between atoms: C2'_3  and  C1'_4 
REMARK    3  A    between atoms: C1'_4  and  C1_5 
ROOT
ATOM      1  C1  N4B d   1      -4.018  -5.390  -1.218  0.00  0.00    -0.075 A 
ATOM      2  C2  N4B d   1      -5.214  -5.819  -1.835  0.00  0.00     0.002 A 
ATOM      3  C3  N4B d   1      -5.670  -5.182  -2.963  0.00  0.00     0.002 A 
ATOM      4  C4  N4B d   1      -4.962  -4.108  -3.479  0.00  0.00    -0.004 A 
ATOM      5  C5  N4B d   1      -3.794  -3.716  -2.891  0.00  0.00     0.002 A 
ATOM      6  C6  N4B d   1      -3.321  -4.349  -1.760  0.00  0.00     0.002 A 
ENDROOT
BRANCH   1   7
ATOM      7  C1' N4B d   1      -3.524  -6.000   0.066  0.00  0.00     0.057 C 
BRANCH   7   8
ATOM      8  C2' N4B d   1      -2.932  -4.903   0.946  0.00  0.00     0.009 C 
BRANCH   8   9
ATOM      9  C3' N4B d   1      -1.425  -5.034   1.080  0.00  0.00     0.004 C 
ATOM     10  C4' N4B d   1      -0.698  -3.772   0.721  0.00  0.00     0.003 C 
ENDBRANCH   8   9
ENDBRANCH   7   8
ENDBRANCH   1   7
TORSDOF 3
ENDMDL
