MODEL 1
REMARK minimizedAffinity 21.2616787
REMARK minimizedRMSD -1
REMARK  3 active torsions:
REMARK  status: ('A' for Active; 'I' for Inactive)
REMARK    1  A    between atoms: C3'_2  and  C2'_3 
REMARK    2  A    between atoms: C2'_3  and  C1'_4 
REMARK    3  A    between atoms: C1'_4  and  C1_5 
ROOT
ATOM      1  C1  N4B d   1      -3.459  -3.849  -2.360  0.00  0.00    -0.075 A 
ATOM      2  C2  N4B d   1      -3.635  -5.218  -2.062  0.00  0.00     0.002 A 
ATOM      3  C3  N4B d   1      -4.824  -5.837  -2.357  0.00  0.00     0.002 A 
ATOM      4  C4  N4B d   1      -5.854  -5.107  -2.931  0.00  0.00    -0.004 A 
ATOM      5  C5  N4B d   1      -5.667  -3.791  -3.239  0.00  0.00     0.002 A 
ATOM      6  C6  N4B d   1      -4.476  -3.157  -2.952  0.00  0.00     0.002 A 
ENDROOT
BRANCH   1   7
ATOM      7  C1' N4B d   1      -2.207  -3.107  -1.978  0.00  0.00     0.057 C 
BRANCH   7   8
ATOM      8  C2' N4B d   1      -2.331  -2.627  -0.535  0.00  0.00     0.009 C 
BRANCH   8   9
ATOM      9  C3' N4B d   1      -1.176  -3.110   0.326  0.00  0.00     0.004 C 
ATOM     10  C4' N4B d   1      -1.629  -3.704   1.626  0.00  0.00     0.003 C 
ENDBRANCH   8   9
ENDBRANCH   7   8
ENDBRANCH   1   7
TORSDOF 3
ENDMDL
