MODEL 1
REMARK minimizedAffinity 4.35247469
REMARK minimizedRMSD -1
REMARK  3 active torsions:
REMARK  status: ('A' for Active; 'I' for Inactive)
REMARK    1  A    between atoms: C3'_2  and  C2'_3 
REMARK    2  A    between atoms: C2'_3  and  C1'_4 
REMARK    3  A    between atoms: C1'_4  and  C1_5 
ROOT
ATOM      1  C1  N4B d   1       1.235   1.920   3.149  0.00  0.00    -0.075 A 
ATOM      2  C2  N4B d   1       2.245   1.066   2.655  0.00  0.00     0.002 A 
ATOM      3  C3  N4B d   1       2.758   0.075   3.456  0.00  0.00     0.002 A 
ATOM      4  C4  N4B d   1       2.293  -0.067   4.755  0.00  0.00    -0.004 A 
ATOM      5  C5  N4B d   1       1.300   0.746   5.216  0.00  0.00     0.002 A 
ATOM      6  C6  N4B d   1       0.771   1.743   4.421  0.00  0.00     0.002 A 
ENDROOT
BRANCH   1   7
ATOM      7  C1' N4B d   1       0.703   3.072   2.341  0.00  0.00     0.057 C 
BRANCH   7   8
ATOM      8  C2' N4B d   1       1.836   3.663   1.507  0.00  0.00     0.009 C 
BRANCH   8   9
ATOM      9  C3' N4B d   1       2.665   4.659   2.300  0.00  0.00     0.004 C 
ATOM     10  C4' N4B d   1       3.410   5.622   1.425  0.00  0.00     0.003 C 
ENDBRANCH   8   9
ENDBRANCH   7   8
ENDBRANCH   1   7
TORSDOF 3
ENDMDL
