MODEL 1
REMARK minimizedAffinity 11.1143589
REMARK minimizedRMSD -1
REMARK  3 active torsions:
REMARK  status: ('A' for Active; 'I' for Inactive)
REMARK    1  A    between atoms: C3'_2  and  C2'_3 
REMARK    2  A    between atoms: C2'_3  and  C1'_4 
REMARK    3  A    between atoms: C1'_4  and  C1_5 
ROOT
ATOM      1  C1  N4B d   1      -1.674  -2.225  -1.121  0.00  0.00    -0.075 A 
ATOM      2  C2  N4B d   1      -2.722  -2.070  -0.187  0.00  0.00     0.002 A 
ATOM      3  C3  N4B d   1      -2.563  -2.512   1.103  0.00  0.00     0.002 A 
ATOM      4  C4  N4B d   1      -1.377  -3.127   1.476  0.00  0.00    -0.004 A 
ATOM      5  C5  N4B d   1      -0.361  -3.250   0.575  0.00  0.00     0.002 A 
ATOM      6  C6  N4B d   1      -0.505  -2.807  -0.724  0.00  0.00     0.002 A 
ENDROOT
BRANCH   1   7
ATOM      7  C1' N4B d   1      -1.833  -1.835  -2.565  0.00  0.00     0.057 C 
BRANCH   7   8
ATOM      8  C2' N4B d   1      -2.365  -3.030  -3.351  0.00  0.00     0.009 C 
BRANCH   8   9
ATOM      9  C3' N4B d   1      -3.569  -3.664  -2.675  0.00  0.00     0.004 C 
ATOM     10  C4' N4B d   1      -4.827  -3.526  -3.480  0.00  0.00     0.003 C 
ENDBRANCH   8   9
ENDBRANCH   7   8
ENDBRANCH   1   7
TORSDOF 3
ENDMDL
