MODEL 1
REMARK minimizedAffinity 12.4866476
REMARK minimizedRMSD -1
REMARK  3 active torsions:
REMARK  status: ('A' for Active; 'I' for Inactive)
REMARK    1  A    between atoms: C3'_2  and  C2'_3 
REMARK    2  A    between atoms: C2'_3  and  C1'_4 
REMARK    3  A    between atoms: C1'_4  and  C1_5 
ROOT
ATOM      1  C1  N4B d   1       3.740   1.276  -3.497  0.00  0.00    -0.075 A 
ATOM      2  C2  N4B d   1       2.795   2.161  -4.062  0.00  0.00     0.002 A 
ATOM      3  C3  N4B d   1       2.071   3.001  -3.252  0.00  0.00     0.002 A 
ATOM      4  C4  N4B d   1       2.260   2.961  -1.879  0.00  0.00    -0.004 A 
ATOM      5  C5  N4B d   1       3.193   2.122  -1.343  0.00  0.00     0.002 A 
ATOM      6  C6  N4B d   1       3.931   1.275  -2.145  0.00  0.00     0.002 A 
ENDROOT
BRANCH   1   7
ATOM      7  C1' N4B d   1       4.494   0.279  -4.333  0.00  0.00     0.057 C 
BRANCH   7   8
ATOM      8  C2' N4B d   1       3.523  -0.409  -5.289  0.00  0.00     0.009 C 
BRANCH   8   9
ATOM      9  C3' N4B d   1       3.965  -1.821  -5.630  0.00  0.00     0.004 C 
ATOM     10  C4' N4B d   1       2.870  -2.831  -5.458  0.00  0.00     0.003 C 
ENDBRANCH   8   9
ENDBRANCH   7   8
ENDBRANCH   1   7
TORSDOF 3
ENDMDL
