MODEL 1
REMARK minimizedAffinity 8.160285
REMARK minimizedRMSD -1
REMARK  3 active torsions:
REMARK  status: ('A' for Active; 'I' for Inactive)
REMARK    1  A    between atoms: C3'_2  and  C2'_3 
REMARK    2  A    between atoms: C2'_3  and  C1'_4 
REMARK    3  A    between atoms: C1'_4  and  C1_5 
ROOT
ATOM      1  C1  N4B d   1      -2.370  -2.306   0.025  0.00  0.00    -0.075 A 
ATOM      2  C2  N4B d   1      -1.789  -3.563   0.302  0.00  0.00     0.002 A 
ATOM      3  C3  N4B d   1      -0.835  -3.677   1.284  0.00  0.00     0.002 A 
ATOM      4  C4  N4B d   1      -0.435  -2.550   1.985  0.00  0.00    -0.004 A 
ATOM      5  C5  N4B d   1      -1.019  -1.344   1.729  0.00  0.00     0.002 A 
ATOM      6  C6  N4B d   1      -1.982  -1.216   0.748  0.00  0.00     0.002 A 
ENDROOT
BRANCH   1   7
ATOM      7  C1' N4B d   1      -3.354  -2.116  -1.096  0.00  0.00     0.057 C 
BRANCH   7   8
ATOM      8  C2' N4B d   1      -3.026  -3.093  -2.222  0.00  0.00     0.009 C 
BRANCH   8   9
ATOM      9  C3' N4B d   1      -4.155  -4.080  -2.465  0.00  0.00     0.004 C 
ATOM     10  C4' N4B d   1      -5.314  -3.468  -3.193  0.00  0.00     0.003 C 
ENDBRANCH   8   9
ENDBRANCH   7   8
ENDBRANCH   1   7
TORSDOF 3
ENDMDL
