MODEL 1
REMARK minimizedAffinity 17.7940693
REMARK minimizedRMSD -1
REMARK  3 active torsions:
REMARK  status: ('A' for Active; 'I' for Inactive)
REMARK    1  A    between atoms: C3'_2  and  C2'_3 
REMARK    2  A    between atoms: C2'_3  and  C1'_4 
REMARK    3  A    between atoms: C1'_4  and  C1_5 
ROOT
ATOM      1  C1  N4B d   1      -1.507  -3.533   1.197  0.00  0.00    -0.075 A 
ATOM      2  C2  N4B d   1      -0.392  -2.883   0.624  0.00  0.00     0.002 A 
ATOM      3  C3  N4B d   1      -0.578  -1.932  -0.349  0.00  0.00     0.002 A 
ATOM      4  C4  N4B d   1      -1.862  -1.629  -0.777  0.00  0.00    -0.004 A 
ATOM      5  C5  N4B d   1      -2.935  -2.244  -0.201  0.00  0.00     0.002 A 
ATOM      6  C6  N4B d   1      -2.764  -3.199   0.781  0.00  0.00     0.002 A 
ENDROOT
BRANCH   1   7
ATOM      7  C1' N4B d   1      -1.350  -4.641   2.202  0.00  0.00     0.057 C 
BRANCH   7   8
ATOM      8  C2' N4B d   1      -1.868  -5.943   1.598  0.00  0.00     0.009 C 
BRANCH   8   9
ATOM      9  C3' N4B d   1      -3.386  -6.000   1.586  0.00  0.00     0.004 C 
ATOM     10  C4' N4B d   1      -3.957  -5.997   0.199  0.00  0.00     0.003 C 
ENDBRANCH   8   9
ENDBRANCH   7   8
ENDBRANCH   1   7
TORSDOF 3
ENDMDL
