MODEL 1
REMARK minimizedAffinity -4.70396137
REMARK minimizedRMSD -1
REMARK  0 active torsions:
REMARK  status: ('A' for Active; 'I' for Inactive)
ROOT
ATOM      1  C   UNL d   1       1.172  -0.709  -0.819  0.00  0.00     0.020 A 
ATOM      2  C1  UNL d   1      -0.199  -0.486  -0.944  0.00  0.00     0.020 A 
ATOM      3  C2  UNL d   1      -0.999  -0.399   0.197  0.00  0.00     0.034 A 
ATOM      4  C3  UNL d   1      -0.430  -0.536   1.469  0.00  0.00     0.017 A 
ATOM      5  C4  UNL d   1       0.946  -0.759   1.593  0.00  0.00     0.017 A 
ATOM      6  C5  UNL d   1       1.743  -0.845   0.447  0.00  0.00     0.034 A 
ATOM      7 Cl   UNL d   1       1.721  -0.938   3.128  0.00  0.00    -0.070 Cl
ATOM      8 Cl1  UNL d   1      -1.479  -0.417   2.836  0.00  0.00    -0.070 Cl
ENDROOT
TORSDOF 0
ENDMDL
