MODEL 1
REMARK minimizedAffinity -3.55914831
REMARK minimizedRMSD -1
REMARK  0 active torsions:
REMARK  status: ('A' for Active; 'I' for Inactive)
ROOT
ATOM      1  C   UNL d   1       1.684  -0.305   2.073  0.00  0.00     0.020 A 
ATOM      2  C1  UNL d   1       0.676  -0.493   3.019  0.00  0.00     0.020 A 
ATOM      3  C2  UNL d   1      -0.664  -0.438   2.630  0.00  0.00     0.034 A 
ATOM      4  C3  UNL d   1      -1.000  -0.195   1.294  0.00  0.00     0.017 A 
ATOM      5  C4  UNL d   1       0.012  -0.007   0.346  0.00  0.00     0.017 A 
ATOM      6  C5  UNL d   1       1.352  -0.063   0.740  0.00  0.00     0.034 A 
ATOM      7 Cl   UNL d   1      -0.325   0.298  -1.322  0.00  0.00    -0.070 Cl
ATOM      8 Cl1  UNL d   1      -2.678  -0.141   0.884  0.00  0.00    -0.070 Cl
ENDROOT
TORSDOF 0
ENDMDL
