MODEL 1
REMARK minimizedAffinity -3.69154859
REMARK minimizedRMSD -1
REMARK  0 active torsions:
REMARK  status: ('A' for Active; 'I' for Inactive)
ROOT
ATOM      1  C   UNL d   1      -0.742  -0.006  -1.278  0.00  0.00     0.020 A 
ATOM      2  C1  UNL d   1      -1.381   0.235  -0.063  0.00  0.00     0.020 A 
ATOM      3  C2  UNL d   1      -0.678   0.094   1.135  0.00  0.00     0.034 A 
ATOM      4  C3  UNL d   1       0.668  -0.290   1.121  0.00  0.00     0.017 A 
ATOM      5  C4  UNL d   1       1.308  -0.532  -0.100  0.00  0.00     0.017 A 
ATOM      6  C5  UNL d   1       0.600  -0.389  -1.297  0.00  0.00     0.034 A 
ATOM      7 Cl   UNL d   1       2.967  -1.008  -0.197  0.00  0.00    -0.070 Cl
ATOM      8 Cl1  UNL d   1       1.475  -0.444   2.641  0.00  0.00    -0.070 Cl
ENDROOT
TORSDOF 0
ENDMDL
