MODEL 1
REMARK minimizedAffinity -1.2589947
REMARK minimizedRMSD -1
REMARK  0 active torsions:
REMARK  status: ('A' for Active; 'I' for Inactive)
ROOT
ATOM      1  C   UNL d   1      -0.741  -0.255  -1.241  0.00  0.00     0.020 A 
ATOM      2  C1  UNL d   1      -1.399   0.002  -0.039  0.00  0.00     0.020 A 
ATOM      3  C2  UNL d   1      -0.714  -0.120   1.171  0.00  0.00     0.034 A 
ATOM      4  C3  UNL d   1       0.633  -0.500   1.183  0.00  0.00     0.017 A 
ATOM      5  C4  UNL d   1       1.292  -0.758  -0.024  0.00  0.00     0.017 A 
ATOM      6  C5  UNL d   1       0.602  -0.634  -1.234  0.00  0.00     0.034 A 
ATOM      7 Cl   UNL d   1       2.953  -1.231  -0.090  0.00  0.00    -0.070 Cl
ATOM      8 Cl1  UNL d   1       1.418  -0.631   2.717  0.00  0.00    -0.070 Cl
ENDROOT
TORSDOF 0
ENDMDL
