MODEL 1
REMARK minimizedAffinity 0.0600760467
REMARK minimizedRMSD -1
REMARK  0 active torsions:
REMARK  status: ('A' for Active; 'I' for Inactive)
ROOT
ATOM      1  C   UNL d   1      -0.580   0.563  -1.246  0.00  0.00     0.020 A 
ATOM      2  C1  UNL d   1      -1.301   0.704  -0.061  0.00  0.00     0.020 A 
ATOM      3  C2  UNL d   1      -0.870   0.058   1.100  0.00  0.00     0.034 A 
ATOM      4  C3  UNL d   1       0.286  -0.731   1.078  0.00  0.00     0.017 A 
ATOM      5  C4  UNL d   1       1.009  -0.871  -0.112  0.00  0.00     0.017 A 
ATOM      6  C5  UNL d   1       0.573  -0.223  -1.271  0.00  0.00     0.034 A 
ATOM      7 Cl   UNL d   1       2.445  -1.828  -0.217  0.00  0.00    -0.070 Cl
ATOM      8 Cl1  UNL d   1       0.761  -1.500   2.550  0.00  0.00    -0.070 Cl
ENDROOT
TORSDOF 0
ENDMDL
