MODEL 1
REMARK minimizedAffinity -1.15289235
REMARK minimizedRMSD -1
REMARK  0 active torsions:
REMARK  status: ('A' for Active; 'I' for Inactive)
ROOT
ATOM      1  C   UNL d   1      -0.983   0.218  -0.513  0.00  0.00     0.020 A 
ATOM      2  C1  UNL d   1      -1.465   0.375   0.786  0.00  0.00     0.020 A 
ATOM      3  C2  UNL d   1      -0.647   0.070   1.875  0.00  0.00     0.034 A 
ATOM      4  C3  UNL d   1       0.658  -0.393   1.668  0.00  0.00     0.017 A 
ATOM      5  C4  UNL d   1       1.140  -0.550   0.364  0.00  0.00     0.017 A 
ATOM      6  C5  UNL d   1       0.317  -0.244  -0.723  0.00  0.00     0.034 A 
ATOM      7 Cl   UNL d   1       2.738  -1.117   0.029  0.00  0.00    -0.070 Cl
ATOM      8 Cl1  UNL d   1       1.614  -0.751   3.062  0.00  0.00    -0.070 Cl
ENDROOT
TORSDOF 0
ENDMDL
