MODEL 1
REMARK minimizedAffinity -3.48795009
REMARK minimizedRMSD -1
REMARK  0 active torsions:
REMARK  status: ('A' for Active; 'I' for Inactive)
ROOT
ATOM      1  C   UNL d   1       1.315  -1.024   2.798  0.00  0.00     0.020 A 
ATOM      2  C1  UNL d   1       2.134  -0.022   2.278  0.00  0.00     0.020 A 
ATOM      3  C2  UNL d   1       1.685   0.763   1.214  0.00  0.00     0.034 A 
ATOM      4  C3  UNL d   1       0.416   0.548   0.666  0.00  0.00     0.017 A 
ATOM      5  C4  UNL d   1      -0.405  -0.458   1.188  0.00  0.00     0.017 A 
ATOM      6  C5  UNL d   1       0.049  -1.241   2.254  0.00  0.00     0.034 A 
ATOM      7 Cl   UNL d   1      -1.984  -0.784   0.565  0.00  0.00    -0.070 Cl
ATOM      8 Cl1  UNL d   1      -0.074   1.556  -0.649  0.00  0.00    -0.070 Cl
ENDROOT
TORSDOF 0
ENDMDL
