MODEL 1
REMARK minimizedAffinity -4.5575614
REMARK minimizedRMSD -1
REMARK  0 active torsions:
REMARK  status: ('A' for Active; 'I' for Inactive)
ROOT
ATOM      1  C   UNL d   1       0.902  -1.044   2.335  0.00  0.00     0.020 A 
ATOM      2  C1  UNL d   1       1.716  -0.618   1.286  0.00  0.00     0.020 A 
ATOM      3  C2  UNL d   1       1.145  -0.058   0.142  0.00  0.00     0.034 A 
ATOM      4  C3  UNL d   1      -0.244   0.079   0.043  0.00  0.00     0.017 A 
ATOM      5  C4  UNL d   1      -1.061  -0.349   1.096  0.00  0.00     0.017 A 
ATOM      6  C5  UNL d   1      -0.484  -0.909   2.240  0.00  0.00     0.034 A 
ATOM      7 Cl   UNL d   1      -2.784  -0.213   1.047  0.00  0.00    -0.070 Cl
ATOM      8 Cl1  UNL d   1      -0.882   0.781  -1.401  0.00  0.00    -0.070 Cl
ENDROOT
TORSDOF 0
ENDMDL
