MODEL 1
REMARK minimizedAffinity -4.13997698
REMARK minimizedRMSD -1
REMARK  0 active torsions:
REMARK  status: ('A' for Active; 'I' for Inactive)
ROOT
ATOM      1  C   UNL d   1      -0.813  -0.099   2.408  0.00  0.00     0.020 A 
ATOM      2  C1  UNL d   1       0.332  -0.828   2.731  0.00  0.00     0.020 A 
ATOM      3  C2  UNL d   1       1.217  -1.220   1.724  0.00  0.00     0.034 A 
ATOM      4  C3  UNL d   1       0.958  -0.884   0.390  0.00  0.00     0.017 A 
ATOM      5  C4  UNL d   1      -0.191  -0.153   0.067  0.00  0.00     0.017 A 
ATOM      6  C5  UNL d   1      -1.073   0.237   1.079  0.00  0.00     0.034 A 
ATOM      7 Cl   UNL d   1      -0.577   0.298  -1.556  0.00  0.00    -0.070 Cl
ATOM      8 Cl1  UNL d   1       2.096  -1.402  -0.804  0.00  0.00    -0.070 Cl
ENDROOT
TORSDOF 0
ENDMDL
