MODEL 1
REMARK minimizedAffinity 5.82148314
REMARK minimizedRMSD -1
REMARK  1 active torsions:
REMARK  status: ('A' for Active; 'I' for Inactive)
REMARK    1  A    between atoms: N_2  and  C1_3 
ROOT
ATOM      1  C1  UNL d   1       3.894   0.851  -0.366  0.00  0.00     0.143 A 
ATOM      2  C2  UNL d   1       4.976   1.357   0.362  0.00  0.00    -0.057 A 
ATOM      3  C3  UNL d   1       6.000   2.078  -0.265  0.00  0.00     0.033 A 
ATOM      4  C4  UNL d   1       5.973   2.281  -1.641  0.00  0.00    -0.042 A 
ATOM      5  C5  UNL d   1       4.920   1.765  -2.388  0.00  0.00     0.033 A 
ATOM      6  C6  UNL d   1       3.898   1.052  -1.755  0.00  0.00    -0.057 A 
ENDROOT
BRANCH   1   7
ATOM      7  N   UNL d   1       2.897   0.042   0.185  0.00  0.00    -0.732 N 
ATOM      8  C   UNL d   1       3.053  -0.524   1.508  0.00  0.00     0.284 C 
ATOM      9  H3  UNL d   1       1.961   0.392  -0.010  0.00  0.00     0.395 HD
ENDBRANCH   1   7
TORSDOF 1
ENDMDL
