MODEL 1
REMARK minimizedAffinity 10.1278858
REMARK minimizedRMSD -1
REMARK  1 active torsions:
REMARK  status: ('A' for Active; 'I' for Inactive)
REMARK    1  A    between atoms: N_2  and  C1_3 
ROOT
ATOM      1  C1  UNL d   1      -2.656  -2.827  -4.084  0.00  0.00     0.143 A 
ATOM      2  C2  UNL d   1      -2.194  -1.606  -3.583  0.00  0.00    -0.057 A 
ATOM      3  C3  UNL d   1      -1.270  -1.554  -2.532  0.00  0.00     0.033 A 
ATOM      4  C4  UNL d   1      -0.811  -2.728  -1.943  0.00  0.00    -0.042 A 
ATOM      5  C5  UNL d   1      -1.275  -3.953  -2.409  0.00  0.00     0.033 A 
ATOM      6  C6  UNL d   1      -2.194  -3.998  -3.463  0.00  0.00    -0.057 A 
ENDROOT
BRANCH   1   7
ATOM      7  N   UNL d   1      -3.649  -2.942  -5.060  0.00  0.00    -0.732 N 
ATOM      8  C   UNL d   1      -4.687  -3.944  -4.941  0.00  0.00     0.284 C 
ATOM      9  H3  UNL d   1      -3.980  -2.037  -5.386  0.00  0.00     0.395 HD
ENDBRANCH   1   7
TORSDOF 1
ENDMDL
