MODEL 1
REMARK minimizedAffinity 4.47784042
REMARK minimizedRMSD -1
REMARK  1 active torsions:
REMARK  status: ('A' for Active; 'I' for Inactive)
REMARK    1  A    between atoms: N_2  and  C1_3 
ROOT
ATOM      1  C1  UNL d   1       3.954   1.560  -1.118  0.00  0.00     0.143 A 
ATOM      2  C2  UNL d   1       3.054   0.490  -1.155  0.00  0.00    -0.057 A 
ATOM      3  C3  UNL d   1       2.427   0.027   0.008  0.00  0.00     0.033 A 
ATOM      4  C4  UNL d   1       2.712   0.611   1.238  0.00  0.00    -0.042 A 
ATOM      5  C5  UNL d   1       3.622   1.660   1.303  0.00  0.00     0.033 A 
ATOM      6  C6  UNL d   1       4.240   2.122   0.137  0.00  0.00    -0.057 A 
ENDROOT
BRANCH   1   7
ATOM      7  N   UNL d   1       4.685   2.002  -2.224  0.00  0.00    -0.732 N 
ATOM      8  C   UNL d   1       5.992   2.598  -2.053  0.00  0.00     0.284 C 
ATOM      9  H3  UNL d   1       4.618   1.363  -3.013  0.00  0.00     0.395 HD
ENDBRANCH   1   7
TORSDOF 1
ENDMDL
