MODEL 1
REMARK minimizedAffinity 11.5358543
REMARK minimizedRMSD -1
REMARK  1 active torsions:
REMARK  status: ('A' for Active; 'I' for Inactive)
REMARK    1  A    between atoms: N_2  and  C1_3 
ROOT
ATOM      1  C1  UNL d   1       1.234   2.660   0.462  0.00  0.00     0.143 A 
ATOM      2  C2  UNL d   1       2.398   2.406   1.195  0.00  0.00    -0.057 A 
ATOM      3  C3  UNL d   1       3.129   1.226   1.011  0.00  0.00     0.033 A 
ATOM      4  C4  UNL d   1       2.691   0.263   0.107  0.00  0.00    -0.042 A 
ATOM      5  C5  UNL d   1       1.524   0.484  -0.615  0.00  0.00     0.033 A 
ATOM      6  C6  UNL d   1       0.802   1.667  -0.431  0.00  0.00    -0.057 A 
ENDROOT
BRANCH   1   7
ATOM      7  N   UNL d   1       0.411   3.769   0.670  0.00  0.00    -0.732 N 
ATOM      8  C   UNL d   1       0.650   4.667   1.779  0.00  0.00     0.284 C 
ATOM      9  H3  UNL d   1       0.163   4.238  -0.198  0.00  0.00     0.395 HD
ENDBRANCH   1   7
TORSDOF 1
ENDMDL
