MODEL 1
REMARK minimizedAffinity 12.3185453
REMARK minimizedRMSD -1
REMARK  1 active torsions:
REMARK  status: ('A' for Active; 'I' for Inactive)
REMARK    1  A    between atoms: N_2  and  C1_3 
ROOT
ATOM      1  C1  UNL d   1      -3.722   0.104  -0.044  0.00  0.00     0.143 A 
ATOM      2  C2  UNL d   1      -3.060  -1.119  -0.195  0.00  0.00    -0.057 A 
ATOM      3  C3  UNL d   1      -1.713  -1.174  -0.573  0.00  0.00     0.033 A 
ATOM      4  C4  UNL d   1      -1.010  -0.003  -0.836  0.00  0.00    -0.042 A 
ATOM      5  C5  UNL d   1      -1.655   1.223  -0.716  0.00  0.00     0.033 A 
ATOM      6  C6  UNL d   1      -2.998   1.271  -0.332  0.00  0.00    -0.057 A 
ENDROOT
BRANCH   1   7
ATOM      7  N   UNL d   1      -5.087   0.221   0.233  0.00  0.00    -0.732 N 
ATOM      8  C   UNL d   1      -6.000  -0.854  -0.091  0.00  0.00     0.284 C 
ATOM      9  H3  UNL d   1      -5.263   0.659   1.135  0.00  0.00     0.395 HD
ENDBRANCH   1   7
TORSDOF 1
ENDMDL
