MODEL 1
REMARK minimizedAffinity -2.87488556
REMARK minimizedRMSD -1
REMARK  0 active torsions:
REMARK  status: ('A' for Active; 'I' for Inactive)
ROOT
ATOM      1  C1  BNZ d   1       6.000   1.356   1.479  0.00  0.00     0.000 A 
ATOM      2  C2  BNZ d   1       5.943   0.037   1.842  0.00  0.00     0.000 A 
ATOM      3  C3  BNZ d   1       4.885  -0.746   1.473  0.00  0.00     0.000 A 
ATOM      4  C4  BNZ d   1       3.867  -0.200   0.778  0.00  0.00     0.000 A 
ATOM      5  C5  BNZ d   1       3.905   1.131   0.412  0.00  0.00     0.000 A 
ATOM      6  C6  BNZ d   1       4.990   1.906   0.751  0.00  0.00     0.000 A 
ENDROOT
TORSDOF 0
ENDMDL
