MODEL 1
REMARK minimizedAffinity -0.660518169
REMARK minimizedRMSD -1
REMARK  0 active torsions:
REMARK  status: ('A' for Active; 'I' for Inactive)
ROOT
ATOM      1  C1  BNZ d   1       3.639  -0.065   1.467  0.00  0.00     0.000 A 
ATOM      2  C2  BNZ d   1       3.655   1.104   0.753  0.00  0.00     0.000 A 
ATOM      3  C3  BNZ d   1       4.837   1.691   0.399  0.00  0.00     0.000 A 
ATOM      4  C4  BNZ d   1       6.000   1.132   0.792  0.00  0.00     0.000 A 
ATOM      5  C5  BNZ d   1       6.000  -0.041   1.520  0.00  0.00     0.000 A 
ATOM      6  C6  BNZ d   1       4.809  -0.650   1.842  0.00  0.00     0.000 A 
ENDROOT
TORSDOF 0
ENDMDL
