MODEL 1
REMARK minimizedAffinity 0.86322552
REMARK minimizedRMSD -1
REMARK  0 active torsions:
REMARK  status: ('A' for Active; 'I' for Inactive)
ROOT
ATOM      1  C1  BNZ d   1       0.072  -4.441  -2.328  0.00  0.00     0.000 A 
ATOM      2  C2  BNZ d   1      -1.291  -4.497  -2.446  0.00  0.00     0.000 A 
ATOM      3  C3  BNZ d   1      -2.078  -4.745  -1.356  0.00  0.00     0.000 A 
ATOM      4  C4  BNZ d   1      -1.500  -4.976  -0.159  0.00  0.00     0.000 A 
ATOM      5  C5  BNZ d   1      -0.127  -4.931  -0.026  0.00  0.00     0.000 A 
ATOM      6  C6  BNZ d   1       0.660  -4.643  -1.118  0.00  0.00     0.000 A 
ENDROOT
TORSDOF 0
ENDMDL
