MODEL 1
REMARK minimizedAffinity 0.753165007
REMARK minimizedRMSD -1
REMARK  0 active torsions:
REMARK  status: ('A' for Active; 'I' for Inactive)
ROOT
ATOM      1  C1  BNZ d   1      -4.820   1.294   4.100  0.00  0.00     0.000 A 
ATOM      2  C2  BNZ d   1      -5.990   1.691   4.691  0.00  0.00     0.000 A 
ATOM      3  C3  BNZ d   1      -5.999   2.687   5.627  0.00  0.00     0.000 A 
ATOM      4  C4  BNZ d   1      -4.835   3.257   6.000  0.00  0.00     0.000 A 
ATOM      5  C5  BNZ d   1      -3.646   2.862   5.420  0.00  0.00     0.000 A 
ATOM      6  C6  BNZ d   1      -3.646   1.886   4.450  0.00  0.00     0.000 A 
ENDROOT
TORSDOF 0
ENDMDL
