MODEL 1
REMARK minimizedAffinity 3.18498397
REMARK minimizedRMSD -1
REMARK  0 active torsions:
REMARK  status: ('A' for Active; 'I' for Inactive)
ROOT
ATOM      1  C1  BNZ d   1      -5.262   3.074   6.000  0.00  0.00     0.000 A 
ATOM      2  C2  BNZ d   1      -4.132   3.269   5.251  0.00  0.00     0.000 A 
ATOM      3  C3  BNZ d   1      -3.615   2.259   4.488  0.00  0.00     0.000 A 
ATOM      4  C4  BNZ d   1      -4.205   1.046   4.507  0.00  0.00     0.000 A 
ATOM      5  C5  BNZ d   1      -5.339   0.831   5.264  0.00  0.00     0.000 A 
ATOM      6  C6  BNZ d   1      -5.879   1.861   6.000  0.00  0.00     0.000 A 
ENDROOT
TORSDOF 0
ENDMDL
