MODEL 1
REMARK minimizedAffinity 2.87831283
REMARK minimizedRMSD -1
REMARK  0 active torsions:
REMARK  status: ('A' for Active; 'I' for Inactive)
ROOT
ATOM      1  C1  BNZ d   1      -3.794   3.668   5.259  0.00  0.00     0.000 A 
ATOM      2  C2  BNZ d   1      -3.805   2.567   4.444  0.00  0.00     0.000 A 
ATOM      3  C3  BNZ d   1      -4.915   1.775   4.353  0.00  0.00     0.000 A 
ATOM      4  C4  BNZ d   1      -5.997   2.061   5.105  0.00  0.00     0.000 A 
ATOM      5  C5  BNZ d   1      -5.999   3.162   5.938  0.00  0.00     0.000 A 
ATOM      6  C6  BNZ d   1      -4.893   3.979   5.998  0.00  0.00     0.000 A 
ENDROOT
TORSDOF 0
ENDMDL
