MODEL 1
REMARK minimizedAffinity -0.866273701
REMARK minimizedRMSD -1
REMARK  0 active torsions:
REMARK  status: ('A' for Active; 'I' for Inactive)
ROOT
ATOM      1  C1  BNZ d   1      -0.004  -4.111  -0.623  0.00  0.00     0.000 A 
ATOM      2  C2  BNZ d   1       1.043  -4.130  -1.505  0.00  0.00     0.000 A 
ATOM      3  C3  BNZ d   1       1.101  -5.063  -2.503  0.00  0.00     0.000 A 
ATOM      4  C4  BNZ d   1       0.134  -5.999  -2.591  0.00  0.00     0.000 A 
ATOM      5  C5  BNZ d   1      -0.923  -5.999  -1.703  0.00  0.00     0.000 A 
ATOM      6  C6  BNZ d   1      -0.998  -5.035  -0.725  0.00  0.00     0.000 A 
ENDROOT
TORSDOF 0
ENDMDL
