MODEL 1
REMARK minimizedAffinity 4.65990019
REMARK minimizedRMSD -1
REMARK  0 active torsions:
REMARK  status: ('A' for Active; 'I' for Inactive)
ROOT
ATOM      1  C1  BNZ d   1      -2.633   2.663   0.796  0.00  0.00     0.000 A 
ATOM      2  C2  BNZ d   1      -3.196   1.959   1.828  0.00  0.00     0.000 A 
ATOM      3  C3  BNZ d   1      -2.435   1.534   2.881  0.00  0.00     0.000 A 
ATOM      4  C4  BNZ d   1      -1.109   1.777   2.882  0.00  0.00     0.000 A 
ATOM      5  C5  BNZ d   1      -0.525   2.477   1.845  0.00  0.00     0.000 A 
ATOM      6  C6  BNZ d   1      -1.300   2.937   0.805  0.00  0.00     0.000 A 
ENDROOT
TORSDOF 0
ENDMDL
