MODEL 1
REMARK minimizedAffinity 3.44074941
REMARK minimizedRMSD -1
REMARK  0 active torsions:
REMARK  status: ('A' for Active; 'I' for Inactive)
ROOT
ATOM      1  C1  BNZ d   1      -4.110   3.043   5.999  0.00  0.00     0.000 A 
ATOM      2  C2  BNZ d   1      -5.088   4.001   5.998  0.00  0.00     0.000 A 
ATOM      3  C3  BNZ d   1      -5.988   4.083   4.973  0.00  0.00     0.000 A 
ATOM      4  C4  BNZ d   1      -5.885   3.232   3.931  0.00  0.00     0.000 A 
ATOM      5  C5  BNZ d   1      -4.899   2.266   3.912  0.00  0.00     0.000 A 
ATOM      6  C6  BNZ d   1      -4.019   2.162   4.965  0.00  0.00     0.000 A 
ENDROOT
TORSDOF 0
ENDMDL
