MODEL 1
REMARK minimizedAffinity -0.809392512
REMARK minimizedRMSD -1
REMARK  0 active torsions:
REMARK  status: ('A' for Active; 'I' for Inactive)
ROOT
ATOM      1  C1  BNZ d   1      -1.124   2.587   2.445  0.00  0.00     0.000 A 
ATOM      2  C2  BNZ d   1      -0.026   1.999   1.876  0.00  0.00     0.000 A 
ATOM      3  C3  BNZ d   1      -0.050   0.684   1.504  0.00  0.00     0.000 A 
ATOM      4  C4  BNZ d   1      -1.157  -0.051   1.737  0.00  0.00     0.000 A 
ATOM      5  C5  BNZ d   1      -2.269   0.525   2.318  0.00  0.00     0.000 A 
ATOM      6  C6  BNZ d   1      -2.254   1.859   2.656  0.00  0.00     0.000 A 
ENDROOT
TORSDOF 0
ENDMDL
