MODEL 1
REMARK minimizedAffinity -2.49423218
REMARK minimizedRMSD -1
REMARK  0 active torsions:
REMARK  status: ('A' for Active; 'I' for Inactive)
ROOT
ATOM      1  C1  BNZ d   1      -2.005   2.603   1.575  0.00  0.00     0.000 A 
ATOM      2  C2  BNZ d   1      -3.283   2.707   2.053  0.00  0.00     0.000 A 
ATOM      3  C3  BNZ d   1      -3.578   2.362   3.343  0.00  0.00     0.000 A 
ATOM      4  C4  BNZ d   1      -2.604   1.876   4.138  0.00  0.00     0.000 A 
ATOM      5  C5  BNZ d   1      -1.311   1.757   3.668  0.00  0.00     0.000 A 
ATOM      6  C6  BNZ d   1      -1.010   2.142   2.381  0.00  0.00     0.000 A 
ENDROOT
TORSDOF 0
ENDMDL
