MODEL 1
REMARK minimizedAffinity 3.21758294
REMARK minimizedRMSD -1
REMARK  0 active torsions:
REMARK  status: ('A' for Active; 'I' for Inactive)
ROOT
ATOM      1  C1  BNZ d   1      -5.998   1.896   6.000  0.00  0.00     0.000 A 
ATOM      2  C2  BNZ d   1      -5.273   1.176   5.088  0.00  0.00     0.000 A 
ATOM      3  C3  BNZ d   1      -4.473   1.806   4.176  0.00  0.00     0.000 A 
ATOM      4  C4  BNZ d   1      -4.430   3.153   4.150  0.00  0.00     0.000 A 
ATOM      5  C5  BNZ d   1      -5.163   3.894   5.056  0.00  0.00     0.000 A 
ATOM      6  C6  BNZ d   1      -5.937   3.256   5.998  0.00  0.00     0.000 A 
ENDROOT
TORSDOF 0
ENDMDL
