MODEL 1
REMARK minimizedAffinity 4.3296771
REMARK minimizedRMSD -1
REMARK  0 active torsions:
REMARK  status: ('A' for Active; 'I' for Inactive)
ROOT
ATOM      1  C1  BNZ d   1      -5.226   1.423   5.182  0.00  0.00     0.000 A 
ATOM      2  C2  BNZ d   1      -6.000   2.209   5.992  0.00  0.00     0.000 A 
ATOM      3  C3  BNZ d   1      -5.864   3.569   5.984  0.00  0.00     0.000 A 
ATOM      4  C4  BNZ d   1      -4.928   4.138   5.197  0.00  0.00     0.000 A 
ATOM      5  C5  BNZ d   1      -4.134   3.358   4.381  0.00  0.00     0.000 A 
ATOM      6  C6  BNZ d   1      -4.300   1.992   4.363  0.00  0.00     0.000 A 
ENDROOT
TORSDOF 0
ENDMDL
