MODEL 1
REMARK minimizedAffinity 0.563347518
REMARK minimizedRMSD -1
REMARK  0 active torsions:
REMARK  status: ('A' for Active; 'I' for Inactive)
ROOT
ATOM      1  C1  BNZ d   1      -1.359  -3.320  -2.367  0.00  0.00     0.000 A 
ATOM      2  C2  BNZ d   1      -2.535  -2.678  -2.647  0.00  0.00     0.000 A 
ATOM      3  C3  BNZ d   1      -3.596  -2.754  -1.789  0.00  0.00     0.000 A 
ATOM      4  C4  BNZ d   1      -3.494  -3.505  -0.673  0.00  0.00     0.000 A 
ATOM      5  C5  BNZ d   1      -2.317  -4.166  -0.381  0.00  0.00     0.000 A 
ATOM      6  C6  BNZ d   1      -1.238  -4.055  -1.227  0.00  0.00     0.000 A 
ENDROOT
TORSDOF 0
ENDMDL
