MODEL 1
REMARK minimizedAffinity 2.43771529
REMARK minimizedRMSD -1
REMARK  0 active torsions:
REMARK  status: ('A' for Active; 'I' for Inactive)
ROOT
ATOM      1  C1  BNZ d   1      -3.714  -2.772  -1.528  0.00  0.00     0.000 A 
ATOM      2  C2  BNZ d   1      -4.028  -2.187  -0.330  0.00  0.00     0.000 A 
ATOM      3  C3  BNZ d   1      -4.029  -0.827  -0.195  0.00  0.00     0.000 A 
ATOM      4  C4  BNZ d   1      -3.679  -0.056  -1.244  0.00  0.00     0.000 A 
ATOM      5  C5  BNZ d   1      -3.350  -0.631  -2.455  0.00  0.00     0.000 A 
ATOM      6  C6  BNZ d   1      -3.388  -1.999  -2.599  0.00  0.00     0.000 A 
ENDROOT
TORSDOF 0
ENDMDL
