MODEL 1
REMARK minimizedAffinity 4.6326828
REMARK minimizedRMSD -1
REMARK  0 active torsions:
REMARK  status: ('A' for Active; 'I' for Inactive)
ROOT
ATOM      1  C1  BNZ d   1      -4.939   3.948   5.458  0.00  0.00     0.000 A 
ATOM      2  C2  BNZ d   1      -3.902   3.255   4.892  0.00  0.00     0.000 A 
ATOM      3  C3  BNZ d   1      -3.914   1.888   4.849  0.00  0.00     0.000 A 
ATOM      4  C4  BNZ d   1      -4.942   1.217   5.407  0.00  0.00     0.000 A 
ATOM      5  C5  BNZ d   1      -5.990   1.901   5.990  0.00  0.00     0.000 A 
ATOM      6  C6  BNZ d   1      -5.993   3.277   5.997  0.00  0.00     0.000 A 
ENDROOT
TORSDOF 0
ENDMDL
