MODEL 1
REMARK minimizedAffinity 6.0104661
REMARK minimizedRMSD -1
REMARK  0 active torsions:
REMARK  status: ('A' for Active; 'I' for Inactive)
ROOT
ATOM      1  C1  BNZ d   1       4.099   3.770  -5.178  0.00  0.00     0.000 A 
ATOM      2  C2  BNZ d   1       3.777   2.523  -4.714  0.00  0.00     0.000 A 
ATOM      3  C3  BNZ d   1       2.636   2.318  -3.991  0.00  0.00     0.000 A 
ATOM      4  C4  BNZ d   1       1.839   3.366  -3.698  0.00  0.00     0.000 A 
ATOM      5  C5  BNZ d   1       2.155   4.632  -4.150  0.00  0.00     0.000 A 
ATOM      6  C6  BNZ d   1       3.284   4.827  -4.911  0.00  0.00     0.000 A 
ENDROOT
TORSDOF 0
ENDMDL
