MODEL 1
REMARK minimizedAffinity -2.28572059
REMARK minimizedRMSD -1
REMARK  0 active torsions:
REMARK  status: ('A' for Active; 'I' for Inactive)
ROOT
ATOM      1  C2' OXE d   1      -1.170   2.366  -1.200  0.00  0.00     0.078 C 
ATOM      2  C1' OXE d   1      -1.421   1.898   1.557  0.00  0.00     0.078 C 
ATOM      3  C1  OXE d   1      -0.731   0.847   0.725  0.00  0.00    -0.078 A 
ATOM      4  C2  OXE d   1      -0.654   1.062  -0.630  0.00  0.00    -0.078 A 
ATOM      5  C3  OXE d   1       0.021   0.150  -1.436  0.00  0.00     0.003 A 
ATOM      6  C4  OXE d   1       0.487  -1.058  -0.903  0.00  0.00    -0.002 A 
ATOM      7  C5  OXE d   1       0.384  -1.316   0.468  0.00  0.00    -0.002 A 
ATOM      8  C6  OXE d   1      -0.183  -0.357   1.301  0.00  0.00     0.003 A 
ENDROOT
TORSDOF 0
ENDMDL
