MODEL 1
REMARK minimizedAffinity 1.56671381
REMARK minimizedRMSD -1
REMARK  0 active torsions:
REMARK  status: ('A' for Active; 'I' for Inactive)
ROOT
ATOM      1  C2' OXE d   1       0.843  -1.650   2.872  0.00  0.00     0.078 C 
ATOM      2  C1' OXE d   1       1.562  -1.303   0.181  0.00  0.00     0.078 C 
ATOM      3  C1  OXE d   1       1.001  -0.113   0.918  0.00  0.00    -0.078 A 
ATOM      4  C2  OXE d   1       0.609  -0.304   2.221  0.00  0.00    -0.078 A 
ATOM      5  C3  OXE d   1       0.136   0.775   2.964  0.00  0.00     0.003 A 
ATOM      6  C4  OXE d   1      -0.087   2.014   2.351  0.00  0.00    -0.002 A 
ATOM      7  C5  OXE d   1       0.269   2.219   1.014  0.00  0.00    -0.002 A 
ATOM      8  C6  OXE d   1       0.853   1.180   0.297  0.00  0.00     0.003 A 
ENDROOT
TORSDOF 0
ENDMDL
