MODEL 1
REMARK minimizedAffinity -3.69131017
REMARK minimizedRMSD -1
REMARK  0 active torsions:
REMARK  status: ('A' for Active; 'I' for Inactive)
ROOT
ATOM      1  C2' OXE d   1       3.575  -3.817  -1.768  0.00  0.00     0.078 C 
ATOM      2  C1' OXE d   1       3.709  -5.924   0.083  0.00  0.00     0.078 C 
ATOM      3  C1  OXE d   1       2.346  -5.386  -0.273  0.00  0.00    -0.078 A 
ATOM      4  C2  OXE d   1       2.293  -4.325  -1.144  0.00  0.00    -0.078 A 
ATOM      5  C3  OXE d   1       1.058  -3.826  -1.548  0.00  0.00     0.003 A 
ATOM      6  C4  OXE d   1      -0.123  -4.294  -0.959  0.00  0.00    -0.002 A 
ATOM      7  C5  OXE d   1      -0.089  -5.348  -0.040  0.00  0.00    -0.002 A 
ATOM      8  C6  OXE d   1       1.131  -5.933   0.281  0.00  0.00     0.003 A 
ENDROOT
TORSDOF 0
ENDMDL
