MODEL 1
REMARK minimizedAffinity -4.57278585
REMARK minimizedRMSD -1
REMARK  0 active torsions:
REMARK  status: ('A' for Active; 'I' for Inactive)
ROOT
ATOM      1  C2' OXE d   1       0.584  -0.401  -0.984  0.00  0.00     0.078 C 
ATOM      2  C1' OXE d   1      -0.828   1.855  -1.875  0.00  0.00     0.078 C 
ATOM      3  C1  OXE d   1      -0.681   1.660  -0.386  0.00  0.00    -0.078 A 
ATOM      4  C2  OXE d   1      -0.029   0.528   0.041  0.00  0.00    -0.078 A 
ATOM      5  C3  OXE d   1       0.181   0.327   1.402  0.00  0.00     0.003 A 
ATOM      6  C4  OXE d   1      -0.398   1.186   2.344  0.00  0.00    -0.002 A 
ATOM      7  C5  OXE d   1      -1.100   2.324   1.930  0.00  0.00    -0.002 A 
ATOM      8  C6  OXE d   1      -1.214   2.597   0.572  0.00  0.00     0.003 A 
ENDROOT
TORSDOF 0
ENDMDL
