MODEL 1
REMARK minimizedAffinity -3.43690681
REMARK minimizedRMSD -1
REMARK  0 active torsions:
REMARK  status: ('A' for Active; 'I' for Inactive)
ROOT
ATOM      1  C2' OXE d   1      -1.238   1.720  -1.561  0.00  0.00     0.078 C 
ATOM      2  C1' OXE d   1      -1.233   1.940   1.238  0.00  0.00     0.078 C 
ATOM      3  C1  OXE d   1      -0.527   0.757   0.624  0.00  0.00    -0.078 A 
ATOM      4  C2  OXE d   1      -0.575   0.632  -0.744  0.00  0.00    -0.078 A 
ATOM      5  C3  OXE d   1       0.106  -0.411  -1.365  0.00  0.00     0.003 A 
ATOM      6  C4  OXE d   1       0.708  -1.418  -0.601  0.00  0.00    -0.002 A 
ATOM      7  C5  OXE d   1       0.734  -1.332   0.795  0.00  0.00    -0.002 A 
ATOM      8  C6  OXE d   1       0.159  -0.231   1.420  0.00  0.00     0.003 A 
ENDROOT
TORSDOF 0
ENDMDL
