MODEL 1
REMARK minimizedAffinity -2.91837406
REMARK minimizedRMSD -1
REMARK  0 active torsions:
REMARK  status: ('A' for Active; 'I' for Inactive)
ROOT
ATOM      1  C1  DEN d   1      -1.661  -0.182   0.599  0.00  0.00     0.130 A 
ATOM      2  C2  DEN d   1      -1.101  -1.525   0.473  0.00  0.00    -0.031 A 
ATOM      3  C3  DEN d   1       0.364  -1.398   0.343  0.00  0.00     0.027 A 
ATOM      4  C4  DEN d   1       1.813   0.736   0.331  0.00  0.00     0.027 A 
ATOM      5  C5  DEN d   1       1.786   2.112   0.398  0.00  0.00    -0.003 A 
ATOM      6  C6  DEN d   1       0.615   2.815   0.502  0.00  0.00     0.001 A 
ATOM      7  C7  DEN d   1      -0.575   2.142   0.587  0.00  0.00     0.017 A 
ATOM      8  C8  DEN d   1      -0.556   0.756   0.513  0.00  0.00    -0.094 A 
ATOM      9  C9  DEN d   1       0.638   0.062   0.420  0.00  0.00    -0.072 A 
ENDROOT
TORSDOF 0
ENDMDL
