MODEL 1
REMARK minimizedAffinity -1.75618863
REMARK minimizedRMSD -1
REMARK  0 active torsions:
REMARK  status: ('A' for Active; 'I' for Inactive)
ROOT
ATOM      1  C1  DEN d   1       1.713  -0.159  -0.755  0.00  0.00     0.130 A 
ATOM      2  C2  DEN d   1       1.131  -1.429  -0.328  0.00  0.00    -0.031 A 
ATOM      3  C3  DEN d   1      -0.114  -1.135   0.410  0.00  0.00     0.027 A 
ATOM      4  C4  DEN d   1      -1.193   1.150   0.927  0.00  0.00     0.027 A 
ATOM      5  C5  DEN d   1      -1.060   2.513   0.780  0.00  0.00    -0.003 A 
ATOM      6  C6  DEN d   1       0.015   3.078   0.147  0.00  0.00     0.001 A 
ATOM      7  C7  DEN d   1       0.978   2.274  -0.404  0.00  0.00     0.017 A 
ATOM      8  C8  DEN d   1       0.854   0.899  -0.254  0.00  0.00    -0.094 A 
ATOM      9  C9  DEN d   1      -0.246   0.347   0.379  0.00  0.00    -0.072 A 
ENDROOT
TORSDOF 0
ENDMDL
