MODEL 1
REMARK minimizedAffinity -3.24028325
REMARK minimizedRMSD -1
REMARK  0 active torsions:
REMARK  status: ('A' for Active; 'I' for Inactive)
ROOT
ATOM      1  C1  DEN d   1       1.334  -0.679   0.189  0.00  0.00     0.130 A 
ATOM      2  C2  DEN d   1      -0.047  -1.147   0.117  0.00  0.00    -0.031 A 
ATOM      3  C3  DEN d   1      -0.934   0.016   0.323  0.00  0.00     0.027 A 
ATOM      4  C4  DEN d   1      -0.304   2.483   0.739  0.00  0.00     0.027 A 
ATOM      5  C5  DEN d   1       0.744   3.363   0.895  0.00  0.00    -0.003 A 
ATOM      6  C6  DEN d   1       2.051   2.955   0.860  0.00  0.00     0.001 A 
ATOM      7  C7  DEN d   1       2.345   1.639   0.620  0.00  0.00     0.017 A 
ATOM      8  C8  DEN d   1       1.294   0.744   0.470  0.00  0.00    -0.094 A 
ATOM      9  C9  DEN d   1      -0.021   1.178   0.495  0.00  0.00    -0.072 A 
ENDROOT
TORSDOF 0
ENDMDL
