MODEL 1
REMARK minimizedAffinity -4.14256048
REMARK minimizedRMSD -1
REMARK  0 active torsions:
REMARK  status: ('A' for Active; 'I' for Inactive)
ROOT
ATOM      1  C1  DEN d   1      -0.899  -0.337   1.505  0.00  0.00     0.130 A 
ATOM      2  C2  DEN d   1      -0.317  -1.485   0.814  0.00  0.00    -0.031 A 
ATOM      3  C3  DEN d   1       0.567  -0.974  -0.253  0.00  0.00     0.027 A 
ATOM      4  C4  DEN d   1       1.094   1.468  -0.895  0.00  0.00     0.027 A 
ATOM      5  C5  DEN d   1       0.828   2.787  -0.602  0.00  0.00    -0.003 A 
ATOM      6  C6  DEN d   1      -0.050   3.155   0.383  0.00  0.00     0.001 A 
ATOM      7  C7  DEN d   1      -0.661   2.191   1.141  0.00  0.00     0.017 A 
ATOM      8  C8  DEN d   1      -0.404   0.859   0.847  0.00  0.00    -0.094 A 
ATOM      9  C9  DEN d   1       0.496   0.508  -0.144  0.00  0.00    -0.072 A 
ENDROOT
TORSDOF 0
ENDMDL
