MODEL 1
REMARK minimizedAffinity 0.0667781085
REMARK minimizedRMSD -1
REMARK  0 active torsions:
REMARK  status: ('A' for Active; 'I' for Inactive)
ROOT
ATOM      1  C1  DEN d   1      -1.135  -3.086  -0.413  0.00  0.00     0.130 A 
ATOM      2  C2  DEN d   1      -0.628  -3.486  -1.723  0.00  0.00    -0.031 A 
ATOM      3  C3  DEN d   1      -0.007  -2.303  -2.352  0.00  0.00     0.027 A 
ATOM      4  C4  DEN d   1       0.222   0.094  -1.427  0.00  0.00     0.027 A 
ATOM      5  C5  DEN d   1      -0.065   0.919  -0.362  0.00  0.00    -0.003 A 
ATOM      6  C6  DEN d   1      -0.753   0.478   0.737  0.00  0.00     0.001 A 
ATOM      7  C7  DEN d   1      -1.138  -0.834   0.816  0.00  0.00     0.017 A 
ATOM      8  C8  DEN d   1      -0.859  -1.670  -0.257  0.00  0.00    -0.094 A 
ATOM      9  C9  DEN d   1      -0.151  -1.208  -1.354  0.00  0.00    -0.072 A 
ENDROOT
TORSDOF 0
ENDMDL
