MODEL 1
REMARK minimizedAffinity -3.30671144
REMARK minimizedRMSD -1
REMARK  0 active torsions:
REMARK  status: ('A' for Active; 'I' for Inactive)
ROOT
ATOM      1  C1  DEN d   1       0.458  -0.734  -0.419  0.00  0.00     0.130 A 
ATOM      2  C2  DEN d   1      -0.468  -1.417   0.480  0.00  0.00    -0.031 A 
ATOM      3  C3  DEN d   1      -1.250  -0.389   1.196  0.00  0.00     0.027 A 
ATOM      4  C4  DEN d   1      -1.121   2.179   0.997  0.00  0.00     0.027 A 
ATOM      5  C5  DEN d   1      -0.479   3.226   0.373  0.00  0.00    -0.003 A 
ATOM      6  C6  DEN d   1       0.535   3.029  -0.526  0.00  0.00     0.001 A 
ATOM      7  C7  DEN d   1       0.907   1.754  -0.861  0.00  0.00     0.017 A 
ATOM      8  C8  DEN d   1       0.269   0.693  -0.230  0.00  0.00    -0.094 A 
ATOM      9  C9  DEN d   1      -0.762   0.913   0.667  0.00  0.00    -0.072 A 
ENDROOT
TORSDOF 0
ENDMDL
