MODEL 1
REMARK minimizedAffinity 6.82902718
REMARK minimizedRMSD -1
REMARK  0 active torsions:
REMARK  status: ('A' for Active; 'I' for Inactive)
ROOT
ATOM      1  C1  DEN d   1      -3.030  -1.825   4.789  0.00  0.00     0.130 A 
ATOM      2  C2  DEN d   1      -2.923  -3.003   5.645  0.00  0.00    -0.031 A 
ATOM      3  C3  DEN d   1      -1.746  -3.780   5.206  0.00  0.00     0.027 A 
ATOM      4  C4  DEN d   1      -0.087  -3.274   3.297  0.00  0.00     0.027 A 
ATOM      5  C5  DEN d   1       0.224  -2.394   2.284  0.00  0.00    -0.003 A 
ATOM      6  C6  DEN d   1      -0.541  -1.290   2.016  0.00  0.00     0.001 A 
ATOM      7  C7  DEN d   1      -1.630  -1.012   2.798  0.00  0.00     0.017 A 
ATOM      8  C8  DEN d   1      -1.955  -1.899   3.816  0.00  0.00    -0.094 A 
ATOM      9  C9  DEN d   1      -1.162  -3.003   4.080  0.00  0.00    -0.072 A 
ENDROOT
TORSDOF 0
ENDMDL
