MODEL 1
REMARK minimizedAffinity -2.98124385
REMARK minimizedRMSD -1
REMARK  0 active torsions:
REMARK  status: ('A' for Active; 'I' for Inactive)
ROOT
ATOM      1  C1  DEN d   1       2.583   0.356   0.742  0.00  0.00     0.130 A 
ATOM      2  C2  DEN d   1       3.259   1.555   1.230  0.00  0.00    -0.031 A 
ATOM      3  C3  DEN d   1       2.236   2.595   1.460  0.00  0.00     0.027 A 
ATOM      4  C4  DEN d   1      -0.317   2.463   1.115  0.00  0.00     0.027 A 
ATOM      5  C5  DEN d   1      -1.354   1.655   0.704  0.00  0.00    -0.003 A 
ATOM      6  C6  DEN d   1      -1.149   0.379   0.249  0.00  0.00     0.001 A 
ATOM      7  C7  DEN d   1       0.118  -0.142   0.236  0.00  0.00     0.017 A 
ATOM      8  C8  DEN d   1       1.169   0.670   0.642  0.00  0.00    -0.094 A 
ATOM      9  C9  DEN d   1       0.941   1.952   1.110  0.00  0.00    -0.072 A 
ENDROOT
TORSDOF 0
ENDMDL
