MODEL 1
REMARK minimizedAffinity -2.33451295
REMARK minimizedRMSD -1
REMARK  0 active torsions:
REMARK  status: ('A' for Active; 'I' for Inactive)
ROOT
ATOM      1  C1  DEN d   1       1.112   2.374  -0.406  0.00  0.00     0.130 A 
ATOM      2  C2  DEN d   1       0.131   3.293   0.164  0.00  0.00    -0.031 A 
ATOM      3  C3  DEN d   1      -0.998   2.493   0.682  0.00  0.00     0.027 A 
ATOM      4  C4  DEN d   1      -1.317  -0.066   0.660  0.00  0.00     0.027 A 
ATOM      5  C5  DEN d   1      -0.758  -1.264   0.273  0.00  0.00    -0.003 A 
ATOM      6  C6  DEN d   1       0.437  -1.331  -0.393  0.00  0.00     0.001 A 
ATOM      7  C7  DEN d   1       1.135  -0.180  -0.651  0.00  0.00     0.017 A 
ATOM      8  C8  DEN d   1       0.575   1.032  -0.270  0.00  0.00    -0.094 A 
ATOM      9  C9  DEN d   1      -0.629   1.077   0.412  0.00  0.00    -0.072 A 
ENDROOT
TORSDOF 0
ENDMDL
