MODEL 1
REMARK minimizedAffinity 3.68915606
REMARK minimizedRMSD -1
REMARK  0 active torsions:
REMARK  status: ('A' for Active; 'I' for Inactive)
ROOT
ATOM      1  C1  DEN d   1      -2.047   1.129   1.175  0.00  0.00     0.130 A 
ATOM      2  C2  DEN d   1      -3.246   1.583   0.476  0.00  0.00    -0.031 A 
ATOM      3  C3  DEN d   1      -2.833   2.555  -0.555  0.00  0.00     0.027 A 
ATOM      4  C4  DEN d   1      -0.466   3.395  -1.139  0.00  0.00     0.027 A 
ATOM      5  C5  DEN d   1       0.870   3.305  -0.812  0.00  0.00    -0.003 A 
ATOM      6  C6  DEN d   1       1.319   2.516   0.214  0.00  0.00     0.001 A 
ATOM      7  C7  DEN d   1       0.430   1.751   0.920  0.00  0.00     0.017 A 
ATOM      8  C8  DEN d   1      -0.919   1.841   0.602  0.00  0.00    -0.094 A 
ATOM      9  C9  DEN d   1      -1.352   2.635  -0.447  0.00  0.00    -0.072 A 
ENDROOT
TORSDOF 0
ENDMDL
