MODEL 1
REMARK minimizedAffinity 3.82809687
REMARK minimizedRMSD -1
REMARK  0 active torsions:
REMARK  status: ('A' for Active; 'I' for Inactive)
ROOT
ATOM      1  C1  DEN d   1      -2.192   2.917  -0.562  0.00  0.00     0.130 A 
ATOM      2  C2  DEN d   1      -2.748   1.834   0.246  0.00  0.00    -0.031 A 
ATOM      3  C3  DEN d   1      -1.626   1.123   0.891  0.00  0.00     0.027 A 
ATOM      4  C4  DEN d   1       0.904   1.593   0.723  0.00  0.00     0.027 A 
ATOM      5  C5  DEN d   1       1.860   2.401   0.147  0.00  0.00    -0.003 A 
ATOM      6  C6  DEN d   1       1.537   3.407  -0.724  0.00  0.00     0.001 A 
ATOM      7  C7  DEN d   1       0.222   3.662  -1.010  0.00  0.00     0.017 A 
ATOM      8  C8  DEN d   1      -0.747   2.846  -0.440  0.00  0.00    -0.094 A 
ATOM      9  C9  DEN d   1      -0.401   1.842   0.448  0.00  0.00    -0.072 A 
ENDROOT
TORSDOF 0
ENDMDL
