MODEL 1
REMARK minimizedAffinity -4.70379972
REMARK minimizedRMSD -1
REMARK  0 active torsions:
REMARK  status: ('A' for Active; 'I' for Inactive)
ROOT
ATOM      1  C1  DEN d   1      -1.381   1.171   0.379  0.00  0.00     0.130 A 
ATOM      2  C2  DEN d   1      -0.945   2.561   0.276  0.00  0.00    -0.031 A 
ATOM      3  C3  DEN d   1       0.518   2.567   0.072  0.00  0.00     0.027 A 
ATOM      4  C4  DEN d   1       2.140   0.569  -0.098  0.00  0.00     0.027 A 
ATOM      5  C5  DEN d   1       2.237  -0.804  -0.059  0.00  0.00    -0.003 A 
ATOM      6  C6  DEN d   1       1.150  -1.608   0.161  0.00  0.00     0.001 A 
ATOM      7  C7  DEN d   1      -0.091  -1.045   0.305  0.00  0.00     0.017 A 
ATOM      8  C8  DEN d   1      -0.196   0.339   0.275  0.00  0.00    -0.094 A 
ATOM      9  C9  DEN d   1       0.913   1.133   0.039  0.00  0.00    -0.072 A 
ENDROOT
TORSDOF 0
ENDMDL
