MODEL 1
REMARK minimizedAffinity -4.37634087
REMARK minimizedRMSD -1
REMARK  0 active torsions:
REMARK  status: ('A' for Active; 'I' for Inactive)
ROOT
ATOM      1  C1  DEN d   1      -0.828   0.351   0.391  0.00  0.00     0.130 A 
ATOM      2  C2  DEN d   1       0.020  -0.838   0.392  0.00  0.00    -0.031 A 
ATOM      3  C3  DEN d   1       1.424  -0.398   0.262  0.00  0.00     0.027 A 
ATOM      4  C4  DEN d   1       2.361   1.997   0.065  0.00  0.00     0.027 A 
ATOM      5  C5  DEN d   1       2.027   3.332   0.006  0.00  0.00    -0.003 A 
ATOM      6  C6  DEN d   1       0.727   3.761   0.037  0.00  0.00     0.001 A 
ATOM      7  C7  DEN d   1      -0.286   2.849   0.175  0.00  0.00     0.017 A 
ATOM      8  C8  DEN d   1       0.043   1.501   0.227  0.00  0.00    -0.094 A 
ATOM      9  C9  DEN d   1       1.364   1.088   0.207  0.00  0.00    -0.072 A 
ENDROOT
TORSDOF 0
ENDMDL
