MODEL 1
REMARK minimizedAffinity -1.60209239
REMARK minimizedRMSD -1
REMARK  0 active torsions:
REMARK  status: ('A' for Active; 'I' for Inactive)
ROOT
ATOM      1  C1  DEN d   1      -0.641   2.094   0.385  0.00  0.00     0.130 A 
ATOM      2  C2  DEN d   1       0.379   3.135   0.301  0.00  0.00    -0.031 A 
ATOM      3  C3  DEN d   1       1.702   2.479   0.311  0.00  0.00     0.027 A 
ATOM      4  C4  DEN d   1       2.266  -0.034   0.444  0.00  0.00     0.027 A 
ATOM      5  C5  DEN d   1       1.734  -1.301   0.542  0.00  0.00    -0.003 A 
ATOM      6  C6  DEN d   1       0.384  -1.521   0.628  0.00  0.00     0.001 A 
ATOM      7  C7  DEN d   1      -0.481  -0.460   0.573  0.00  0.00     0.017 A 
ATOM      8  C8  DEN d   1       0.049   0.820   0.481  0.00  0.00    -0.094 A 
ATOM      9  C9  DEN d   1       1.415   1.021   0.383  0.00  0.00    -0.072 A 
ENDROOT
TORSDOF 0
ENDMDL
