MODEL 1
REMARK minimizedAffinity -2.49103165
REMARK minimizedRMSD -1
REMARK  0 active torsions:
REMARK  status: ('A' for Active; 'I' for Inactive)
ROOT
ATOM      1  C1  BNZ d   1      -1.907  -1.671   0.959  0.00  0.00     0.000 A 
ATOM      2  C2  BNZ d   1      -1.688  -1.817   2.302  0.00  0.00     0.000 A 
ATOM      3  C3  BNZ d   1      -0.806  -1.005   2.960  0.00  0.00     0.000 A 
ATOM      4  C4  BNZ d   1      -0.118  -0.075   2.268  0.00  0.00     0.000 A 
ATOM      5  C5  BNZ d   1      -0.321   0.079   0.911  0.00  0.00     0.000 A 
ATOM      6  C6  BNZ d   1      -1.238  -0.715   0.259  0.00  0.00     0.000 A 
ENDROOT
TORSDOF 0
ENDMDL
