MODEL 1
REMARK minimizedAffinity -4.47644091
REMARK minimizedRMSD -1
REMARK  0 active torsions:
REMARK  status: ('A' for Active; 'I' for Inactive)
ROOT
ATOM      1  C1  BNZ d   1       0.415   0.828  -0.990  0.00  0.00     0.000 A 
ATOM      2  C2  BNZ d   1       1.234   0.629   0.089  0.00  0.00     0.000 A 
ATOM      3  C3  BNZ d   1       0.757   0.052   1.233  0.00  0.00     0.000 A 
ATOM      4  C4  BNZ d   1      -0.546  -0.287   1.311  0.00  0.00     0.000 A 
ATOM      5  C5  BNZ d   1      -1.387  -0.084   0.235  0.00  0.00     0.000 A 
ATOM      6  C6  BNZ d   1      -0.894   0.461  -0.928  0.00  0.00     0.000 A 
ENDROOT
TORSDOF 0
ENDMDL
