MODEL 1
REMARK minimizedAffinity -3.85680866
REMARK minimizedRMSD -1
REMARK  0 active torsions:
REMARK  status: ('A' for Active; 'I' for Inactive)
ROOT
ATOM      1  C1  BNZ d   1      -1.102  -0.426   2.327  0.00  0.00     0.000 A 
ATOM      2  C2  BNZ d   1      -1.529  -0.730   1.062  0.00  0.00     0.000 A 
ATOM      3  C3  BNZ d   1      -0.675  -0.656  -0.002  0.00  0.00     0.000 A 
ATOM      4  C4  BNZ d   1       0.593  -0.239   0.194  0.00  0.00     0.000 A 
ATOM      5  C5  BNZ d   1       1.036   0.080   1.462  0.00  0.00     0.000 A 
ATOM      6  C6  BNZ d   1       0.184  -0.033   2.536  0.00  0.00     0.000 A 
ENDROOT
TORSDOF 0
ENDMDL
