MODEL 1
REMARK minimizedAffinity -2.11766267
REMARK minimizedRMSD -1
REMARK  0 active torsions:
REMARK  status: ('A' for Active; 'I' for Inactive)
ROOT
ATOM      1  C1  BNZ d   1       1.779   0.574   1.478  0.00  0.00     0.000 A 
ATOM      2  C2  BNZ d   1       1.141   0.420   2.679  0.00  0.00     0.000 A 
ATOM      3  C3  BNZ d   1      -0.150  -0.026   2.734  0.00  0.00     0.000 A 
ATOM      4  C4  BNZ d   1      -0.814  -0.278   1.587  0.00  0.00     0.000 A 
ATOM      5  C5  BNZ d   1      -0.187  -0.118   0.367  0.00  0.00     0.000 A 
ATOM      6  C6  BNZ d   1       1.126   0.294   0.318  0.00  0.00     0.000 A 
ENDROOT
TORSDOF 0
ENDMDL
