MODEL 1
REMARK minimizedAffinity -2.27009416
REMARK minimizedRMSD -1
REMARK  0 active torsions:
REMARK  status: ('A' for Active; 'I' for Inactive)
ROOT
ATOM      1  C1  BNZ d   1      -0.310   0.209  -0.224  0.00  0.00     0.000 A 
ATOM      2  C2  BNZ d   1      -0.052  -0.513  -1.359  0.00  0.00     0.000 A 
ATOM      3  C3  BNZ d   1       0.672  -1.671  -1.302  0.00  0.00     0.000 A 
ATOM      4  C4  BNZ d   1       1.169  -2.085  -0.119  0.00  0.00     0.000 A 
ATOM      5  C5  BNZ d   1       0.925  -1.363   1.033  0.00  0.00     0.000 A 
ATOM      6  C6  BNZ d   1       0.163  -0.218   0.978  0.00  0.00     0.000 A 
ENDROOT
TORSDOF 0
ENDMDL
