MODEL 1
REMARK minimizedAffinity -3.81983471
REMARK minimizedRMSD -1
REMARK  0 active torsions:
REMARK  status: ('A' for Active; 'I' for Inactive)
ROOT
ATOM      1  C1  BNZ d   1      -1.133  -0.885   1.444  0.00  0.00     0.000 A 
ATOM      2  C2  BNZ d   1      -0.403  -0.510   2.540  0.00  0.00     0.000 A 
ATOM      3  C3  BNZ d   1       0.685   0.307   2.411  0.00  0.00     0.000 A 
ATOM      4  C4  BNZ d   1       1.065   0.716   1.184  0.00  0.00     0.000 A 
ATOM      5  C5  BNZ d   1       0.346   0.339   0.067  0.00  0.00     0.000 A 
ATOM      6  C6  BNZ d   1      -0.772  -0.452   0.205  0.00  0.00     0.000 A 
ENDROOT
TORSDOF 0
ENDMDL
