MODEL 1
REMARK minimizedAffinity -4.09707451
REMARK minimizedRMSD -1
REMARK  0 active torsions:
REMARK  status: ('A' for Active; 'I' for Inactive)
ROOT
ATOM      1  C1  BNZ d   1      -1.191  -0.972   2.004  0.00  0.00     0.000 A 
ATOM      2  C2  BNZ d   1      -0.911  -0.731   0.686  0.00  0.00     0.000 A 
ATOM      3  C3  BNZ d   1       0.257  -0.122   0.318  0.00  0.00     0.000 A 
ATOM      4  C4  BNZ d   1       1.123   0.280   1.270  0.00  0.00     0.000 A 
ATOM      5  C5  BNZ d   1       0.850   0.053   2.605  0.00  0.00     0.000 A 
ATOM      6  C6  BNZ d   1      -0.308  -0.595   2.968  0.00  0.00     0.000 A 
ENDROOT
TORSDOF 0
ENDMDL
