MODEL 1
REMARK minimizedAffinity -3.83730936
REMARK minimizedRMSD -1
REMARK  0 active torsions:
REMARK  status: ('A' for Active; 'I' for Inactive)
ROOT
ATOM      1  C1  BNZ d   1       2.068  -0.251  -3.711  0.00  0.00     0.000 A 
ATOM      2  C2  BNZ d   1       1.962   0.671  -2.704  0.00  0.00     0.000 A 
ATOM      3  C3  BNZ d   1       0.894   0.656  -1.851  0.00  0.00     0.000 A 
ATOM      4  C4  BNZ d   1      -0.085  -0.255  -2.030  0.00  0.00     0.000 A 
ATOM      5  C5  BNZ d   1       0.003  -1.185  -3.046  0.00  0.00     0.000 A 
ATOM      6  C6  BNZ d   1       1.099  -1.191  -3.879  0.00  0.00     0.000 A 
ENDROOT
TORSDOF 0
ENDMDL
