MODEL 1
REMARK minimizedAffinity -3.12630343
REMARK minimizedRMSD -1
REMARK  0 active torsions:
REMARK  status: ('A' for Active; 'I' for Inactive)
ROOT
ATOM      1  C1  BNZ d   1      -1.035   0.012   0.429  0.00  0.00     0.000 A 
ATOM      2  C2  BNZ d   1      -1.102  -0.473   1.708  0.00  0.00     0.000 A 
ATOM      3  C3  BNZ d   1      -0.132  -0.172   2.622  0.00  0.00     0.000 A 
ATOM      4  C4  BNZ d   1       0.924   0.579   2.246  0.00  0.00     0.000 A 
ATOM      5  C5  BNZ d   1       1.010   1.068   0.958  0.00  0.00     0.000 A 
ATOM      6  C6  BNZ d   1       0.012   0.796   0.051  0.00  0.00     0.000 A 
ENDROOT
TORSDOF 0
ENDMDL
