MODEL 1
REMARK minimizedAffinity -4.01453304
REMARK minimizedRMSD -1
REMARK  0 active torsions:
REMARK  status: ('A' for Active; 'I' for Inactive)
ROOT
ATOM      1  C1  BNZ d   1       0.244   0.260  -0.526  0.00  0.00     0.000 A 
ATOM      2  C2  BNZ d   1       0.794   0.096   0.717  0.00  0.00     0.000 A 
ATOM      3  C3  BNZ d   1       0.034  -0.335   1.768  0.00  0.00     0.000 A 
ATOM      4  C4  BNZ d   1      -1.283  -0.563   1.585  0.00  0.00     0.000 A 
ATOM      5  C5  BNZ d   1      -1.854  -0.393   0.339  0.00  0.00     0.000 A 
ATOM      6  C6  BNZ d   1      -1.078   0.003  -0.725  0.00  0.00     0.000 A 
ENDROOT
TORSDOF 0
ENDMDL
