MODEL 1
REMARK minimizedAffinity -4.63014221
REMARK minimizedRMSD -1
REMARK  0 active torsions:
REMARK  status: ('A' for Active; 'I' for Inactive)
ROOT
ATOM      1  C1  BNZ d   1      -0.053  -0.448   1.336  0.00  0.00     0.000 A 
ATOM      2  C2  BNZ d   1       1.054   0.358   1.355  0.00  0.00     0.000 A 
ATOM      3  C3  BNZ d   1       1.308   1.224   0.328  0.00  0.00     0.000 A 
ATOM      4  C4  BNZ d   1       0.476   1.255  -0.734  0.00  0.00     0.000 A 
ATOM      5  C5  BNZ d   1      -0.640   0.442  -0.772  0.00  0.00     0.000 A 
ATOM      6  C6  BNZ d   1      -0.912  -0.400   0.282  0.00  0.00     0.000 A 
ENDROOT
TORSDOF 0
ENDMDL
