MODEL 1
REMARK minimizedAffinity -4.05540228
REMARK minimizedRMSD -1
REMARK  0 active torsions:
REMARK  status: ('A' for Active; 'I' for Inactive)
ROOT
ATOM      1  C1  BNZ d   1       0.904   0.359   1.219  0.00  0.00     0.000 A 
ATOM      2  C2  BNZ d   1       0.460  -0.176   2.399  0.00  0.00     0.000 A 
ATOM      3  C3  BNZ d   1      -0.732  -0.844   2.460  0.00  0.00     0.000 A 
ATOM      4  C4  BNZ d   1      -1.495  -0.941   1.352  0.00  0.00     0.000 A 
ATOM      5  C5  BNZ d   1      -1.065  -0.399   0.157  0.00  0.00     0.000 A 
ATOM      6  C6  BNZ d   1       0.153   0.239   0.090  0.00  0.00     0.000 A 
ENDROOT
TORSDOF 0
ENDMDL
