MODEL 1
REMARK minimizedAffinity -4.45291042
REMARK minimizedRMSD -1
REMARK  0 active torsions:
REMARK  status: ('A' for Active; 'I' for Inactive)
ROOT
ATOM      1  C1  BNZ d   1       0.673   0.487   2.677  0.00  0.00     0.000 A 
ATOM      2  C2  BNZ d   1       1.034   0.338   1.364  0.00  0.00     0.000 A 
ATOM      3  C3  BNZ d   1       0.292  -0.438   0.519  0.00  0.00     0.000 A 
ATOM      4  C4  BNZ d   1      -0.784  -1.097   0.995  0.00  0.00     0.000 A 
ATOM      5  C5  BNZ d   1      -1.155  -0.965   2.318  0.00  0.00     0.000 A 
ATOM      6  C6  BNZ d   1      -0.429  -0.151   3.158  0.00  0.00     0.000 A 
ENDROOT
TORSDOF 0
ENDMDL
