MODEL 1
REMARK minimizedAffinity -4.00769091
REMARK minimizedRMSD -1
REMARK  0 active torsions:
REMARK  status: ('A' for Active; 'I' for Inactive)
ROOT
ATOM      1  C1  BNZ d   1      -0.010  -1.213   0.513  0.00  0.00     0.000 A 
ATOM      2  C2  BNZ d   1      -0.654  -1.542   1.675  0.00  0.00     0.000 A 
ATOM      3  C3  BNZ d   1      -0.588  -0.723   2.768  0.00  0.00     0.000 A 
ATOM      4  C4  BNZ d   1       0.154   0.402   2.710  0.00  0.00     0.000 A 
ATOM      5  C5  BNZ d   1       0.816   0.743   1.547  0.00  0.00     0.000 A 
ATOM      6  C6  BNZ d   1       0.716  -0.064   0.437  0.00  0.00     0.000 A 
ENDROOT
TORSDOF 0
ENDMDL
