MODEL 1
REMARK minimizedAffinity -3.39573622
REMARK minimizedRMSD -1
REMARK  0 active torsions:
REMARK  status: ('A' for Active; 'I' for Inactive)
ROOT
ATOM      1  C1  BNZ d   1       0.341   0.177   2.019  0.00  0.00     0.000 A 
ATOM      2  C2  BNZ d   1       1.011   0.787   0.992  0.00  0.00     0.000 A 
ATOM      3  C3  BNZ d   1       0.719   0.486  -0.309  0.00  0.00     0.000 A 
ATOM      4  C4  BNZ d   1      -0.212  -0.451  -0.581  0.00  0.00     0.000 A 
ATOM      5  C5  BNZ d   1      -0.889  -1.081   0.444  0.00  0.00     0.000 A 
ATOM      6  C6  BNZ d   1      -0.621  -0.748   1.752  0.00  0.00     0.000 A 
ENDROOT
TORSDOF 0
ENDMDL
