MODEL 1
REMARK minimizedAffinity -5.09602833
REMARK minimizedRMSD -1
REMARK  0 active torsions:
REMARK  status: ('A' for Active; 'I' for Inactive)
ROOT
ATOM      1  C2' OXE d   1       2.044  -0.076   1.392  0.00  0.00     0.078 C 
ATOM      2  C1' OXE d   1       0.585   0.333  -0.971  0.00  0.00     0.078 C 
ATOM      3  C1  OXE d   1      -0.162   0.400   0.337  0.00  0.00    -0.078 A 
ATOM      4  C2  OXE d   1       0.551   0.152   1.486  0.00  0.00    -0.078 A 
ATOM      5  C3  OXE d   1      -0.078   0.256   2.723  0.00  0.00     0.003 A 
ATOM      6  C4  OXE d   1      -1.461   0.457   2.801  0.00  0.00    -0.002 A 
ATOM      7  C5  OXE d   1      -2.214   0.672   1.641  0.00  0.00    -0.002 A 
ATOM      8  C6  OXE d   1      -1.573   0.689   0.407  0.00  0.00     0.003 A 
ENDROOT
TORSDOF 0
ENDMDL
