MODEL 1
REMARK minimizedAffinity -1.33583426
REMARK minimizedRMSD -1
REMARK  0 active torsions:
REMARK  status: ('A' for Active; 'I' for Inactive)
ROOT
ATOM      1  C2' OXE d   1       0.293   0.153  -0.971  0.00  0.00     0.078 C 
ATOM      2  C1' OXE d   1       1.839   0.006   1.367  0.00  0.00     0.078 C 
ATOM      3  C1  OXE d   1       0.360   0.261   1.516  0.00  0.00    -0.078 A 
ATOM      4  C2  OXE d   1      -0.381   0.378   0.365  0.00  0.00    -0.078 A 
ATOM      5  C3  OXE d   1      -1.759   0.559   0.447  0.00  0.00     0.003 A 
ATOM      6  C4  OXE d   1      -2.372   0.776   1.687  0.00  0.00    -0.002 A 
ATOM      7  C5  OXE d   1      -1.629   0.701   2.870  0.00  0.00    -0.002 A 
ATOM      8  C6  OXE d   1      -0.273   0.402   2.805  0.00  0.00     0.003 A 
ENDROOT
TORSDOF 0
ENDMDL
