MODEL 1
REMARK minimizedAffinity -3.1693306
REMARK minimizedRMSD -1
REMARK  0 active torsions:
REMARK  status: ('A' for Active; 'I' for Inactive)
ROOT
ATOM      1  C2' OXE d   1       0.049  -0.027  -0.898  0.00  0.00     0.078 C 
ATOM      2  C1' OXE d   1       1.793  -0.169   1.298  0.00  0.00     0.078 C 
ATOM      3  C1  OXE d   1       0.337   0.116   1.573  0.00  0.00    -0.078 A 
ATOM      4  C2  OXE d   1      -0.500   0.230   0.489  0.00  0.00    -0.078 A 
ATOM      5  C3  OXE d   1      -1.862   0.437   0.689  0.00  0.00     0.003 A 
ATOM      6  C4  OXE d   1      -2.360   0.684   1.974  0.00  0.00    -0.002 A 
ATOM      7  C5  OXE d   1      -1.517   0.611   3.088  0.00  0.00    -0.002 A 
ATOM      8  C6  OXE d   1      -0.177   0.287   2.909  0.00  0.00     0.003 A 
ENDROOT
TORSDOF 0
ENDMDL
