MODEL 1
REMARK minimizedAffinity 0.925706267
REMARK minimizedRMSD -1
REMARK  0 active torsions:
REMARK  status: ('A' for Active; 'I' for Inactive)
ROOT
ATOM      1  C2' OXE d   1       1.118   0.007   0.889  0.00  0.00     0.078 C 
ATOM      2  C1' OXE d   1       0.688   0.086  -1.884  0.00  0.00     0.078 C 
ATOM      3  C1  OXE d   1      -0.502   0.294  -0.981  0.00  0.00    -0.078 A 
ATOM      4  C2  OXE d   1      -0.291   0.207   0.374  0.00  0.00    -0.078 A 
ATOM      5  C3  OXE d   1      -1.344   0.444   1.252  0.00  0.00     0.003 A 
ATOM      6  C4  OXE d   1      -2.646   0.618   0.767  0.00  0.00    -0.002 A 
ATOM      7  C5  OXE d   1      -2.890   0.671  -0.609  0.00  0.00    -0.002 A 
ATOM      8  C6  OXE d   1      -1.825   0.553  -1.495  0.00  0.00     0.003 A 
ENDROOT
TORSDOF 0
ENDMDL
