MODEL 1
REMARK minimizedAffinity -0.20431459
REMARK minimizedRMSD -1
REMARK  0 active torsions:
REMARK  status: ('A' for Active; 'I' for Inactive)
ROOT
ATOM      1  C2' OXE d   1       0.057   0.362  -1.688  0.00  0.00     0.078 C 
ATOM      2  C1' OXE d   1      -2.122   0.405   0.081  0.00  0.00     0.078 C 
ATOM      3  C1  OXE d   1      -0.742   0.250   0.669  0.00  0.00    -0.078 A 
ATOM      4  C2  OXE d   1       0.314   0.183  -0.207  0.00  0.00    -0.078 A 
ATOM      5  C3  OXE d   1       1.614   0.094   0.285  0.00  0.00     0.003 A 
ATOM      6  C4  OXE d   1       1.842  -0.081   1.655  0.00  0.00    -0.002 A 
ATOM      7  C5  OXE d   1       0.777  -0.056   2.561  0.00  0.00    -0.002 A 
ATOM      8  C6  OXE d   1      -0.515   0.151   2.089  0.00  0.00     0.003 A 
ENDROOT
TORSDOF 0
ENDMDL
