MODEL 1
REMARK minimizedAffinity -1.77209723
REMARK minimizedRMSD -1
REMARK  0 active torsions:
REMARK  status: ('A' for Active; 'I' for Inactive)
ROOT
ATOM      1  C2' OXE d   1      -0.432   0.081   3.110  0.00  0.00     0.078 C 
ATOM      2  C1' OXE d   1      -2.807   0.746   1.770  0.00  0.00     0.078 C 
ATOM      3  C1  OXE d   1      -1.601   0.399   0.933  0.00  0.00    -0.078 A 
ATOM      4  C2  OXE d   1      -0.430   0.121   1.597  0.00  0.00    -0.078 A 
ATOM      5  C3  OXE d   1       0.698  -0.259   0.876  0.00  0.00     0.003 A 
ATOM      6  C4  OXE d   1       0.694  -0.210  -0.524  0.00  0.00    -0.002 A 
ATOM      7  C5  OXE d   1      -0.477   0.110  -1.219  0.00  0.00    -0.002 A 
ATOM      8  C6  OXE d   1      -1.642   0.375  -0.508  0.00  0.00     0.003 A 
ENDROOT
TORSDOF 0
ENDMDL
