MODEL 1
REMARK minimizedAffinity -1.02748764
REMARK minimizedRMSD -1
REMARK  0 active torsions:
REMARK  status: ('A' for Active; 'I' for Inactive)
ROOT
ATOM      1  C2' OXE d   1       1.273   0.091  -4.215  0.00  0.00     0.078 C 
ATOM      2  C1' OXE d   1       1.784  -2.558  -3.440  0.00  0.00     0.078 C 
ATOM      3  C1  OXE d   1       1.310  -1.594  -2.381  0.00  0.00    -0.078 A 
ATOM      4  C2  OXE d   1       1.107  -0.289  -2.759  0.00  0.00    -0.078 A 
ATOM      5  C3  OXE d   1       0.618   0.629  -1.834  0.00  0.00     0.003 A 
ATOM      6  C4  OXE d   1       0.477   0.272  -0.488  0.00  0.00    -0.002 A 
ATOM      7  C5  OXE d   1       0.716  -1.043  -0.073  0.00  0.00    -0.002 A 
ATOM      8  C6  OXE d   1       1.091  -1.996  -1.014  0.00  0.00     0.003 A 
ENDROOT
TORSDOF 0
ENDMDL
