MODEL 1
REMARK minimizedAffinity -1.46968079
REMARK minimizedRMSD -1
REMARK  0 active torsions:
REMARK  status: ('A' for Active; 'I' for Inactive)
ROOT
ATOM      1  C2' OXE d   1      -1.445   0.386   0.335  0.00  0.00     0.078 C 
ATOM      2  C1' OXE d   1       1.259  -0.203   0.805  0.00  0.00     0.078 C 
ATOM      3  C1  OXE d   1       0.816  -0.026  -0.625  0.00  0.00    -0.078 A 
ATOM      4  C2  OXE d   1      -0.518   0.215  -0.849  0.00  0.00    -0.078 A 
ATOM      5  C3  OXE d   1      -0.970   0.440  -2.146  0.00  0.00     0.003 A 
ATOM      6  C4  OXE d   1      -0.108   0.271  -3.236  0.00  0.00    -0.002 A 
ATOM      7  C5  OXE d   1       1.246  -0.015  -3.033  0.00  0.00    -0.002 A 
ATOM      8  C6  OXE d   1       1.732  -0.124  -1.735  0.00  0.00     0.003 A 
ENDROOT
TORSDOF 0
ENDMDL
