MODEL 1
REMARK minimizedAffinity -2.46080303
REMARK minimizedRMSD -1
REMARK  0 active torsions:
REMARK  status: ('A' for Active; 'I' for Inactive)
ROOT
ATOM      1  C2' OXE d   1       0.529  -0.203  -0.919  0.00  0.00     0.078 C 
ATOM      2  C1' OXE d   1       2.417  -0.504   1.137  0.00  0.00     0.078 C 
ATOM      3  C1  OXE d   1       1.016  -0.100   1.522  0.00  0.00    -0.078 A 
ATOM      4  C2  OXE d   1       0.111   0.090   0.506  0.00  0.00    -0.078 A 
ATOM      5  C3  OXE d   1      -1.210   0.410   0.809  0.00  0.00     0.003 A 
ATOM      6  C4  OXE d   1      -1.586   0.689   2.129  0.00  0.00    -0.002 A 
ATOM      7  C5  OXE d   1      -0.670   0.540   3.175  0.00  0.00    -0.002 A 
ATOM      8  C6  OXE d   1       0.621   0.106   2.894  0.00  0.00     0.003 A 
ENDROOT
TORSDOF 0
ENDMDL
