MODEL 1
REMARK minimizedAffinity -3.71364331
REMARK minimizedRMSD -1
REMARK  0 active torsions:
REMARK  status: ('A' for Active; 'I' for Inactive)
ROOT
ATOM      1  C2' OXE d   1      -2.808   1.142   2.260  0.00  0.00     0.078 C 
ATOM      2  C1' OXE d   1      -2.377   0.847  -0.498  0.00  0.00     0.078 C 
ATOM      3  C1  OXE d   1      -1.222   0.562   0.429  0.00  0.00    -0.078 A 
ATOM      4  C2  OXE d   1      -1.428   0.754   1.774  0.00  0.00    -0.078 A 
ATOM      5  C3  OXE d   1      -0.413   0.452   2.677  0.00  0.00     0.003 A 
ATOM      6  C4  OXE d   1       0.863   0.103   2.218  0.00  0.00    -0.002 A 
ATOM      7  C5  OXE d   1       1.106  -0.060   0.850  0.00  0.00    -0.002 A 
ATOM      8  C6  OXE d   1       0.065   0.124  -0.053  0.00  0.00     0.003 A 
ENDROOT
TORSDOF 0
ENDMDL
