MODEL 1
REMARK minimizedAffinity -2.29532385
REMARK minimizedRMSD -1
REMARK  0 active torsions:
REMARK  status: ('A' for Active; 'I' for Inactive)
ROOT
ATOM      1  C2' OXE d   1      -2.733   1.095   2.016  0.00  0.00     0.078 C 
ATOM      2  C1' OXE d   1      -0.104   0.676   2.906  0.00  0.00     0.078 C 
ATOM      3  C1  OXE d   1      -0.365   0.597   1.423  0.00  0.00    -0.078 A 
ATOM      4  C2  OXE d   1      -1.663   0.756   1.000  0.00  0.00    -0.078 A 
ATOM      5  C3  OXE d   1      -1.950   0.747  -0.362  0.00  0.00     0.003 A 
ATOM      6  C4  OXE d   1      -0.957   0.423  -1.294  0.00  0.00    -0.002 A 
ATOM      7  C5  OXE d   1       0.364   0.217  -0.881  0.00  0.00    -0.002 A 
ATOM      8  C6  OXE d   1       0.684   0.342   0.467  0.00  0.00     0.003 A 
ENDROOT
TORSDOF 0
ENDMDL
