MODEL 1
REMARK minimizedAffinity -4.73732424
REMARK minimizedRMSD -1
REMARK  0 active torsions:
REMARK  status: ('A' for Active; 'I' for Inactive)
ROOT
ATOM      1  C2' OXE d   1       0.364  -1.039  -3.544  0.00  0.00     0.078 C 
ATOM      2  C1' OXE d   1      -0.957   0.900  -2.003  0.00  0.00     0.078 C 
ATOM      3  C1  OXE d   1       0.182   0.148  -1.361  0.00  0.00    -0.078 A 
ATOM      4  C2  OXE d   1       0.792  -0.832  -2.107  0.00  0.00    -0.078 A 
ATOM      5  C3  OXE d   1       1.884  -1.518  -1.583  0.00  0.00     0.003 A 
ATOM      6  C4  OXE d   1       2.267  -1.327  -0.250  0.00  0.00    -0.002 A 
ATOM      7  C5  OXE d   1       1.633  -0.362   0.540  0.00  0.00    -0.002 A 
ATOM      8  C6  OXE d   1       0.619   0.412  -0.013  0.00  0.00     0.003 A 
ENDROOT
TORSDOF 0
ENDMDL
