MODEL 1
REMARK minimizedAffinity -0.72799921
REMARK minimizedRMSD -1
REMARK  0 active torsions:
REMARK  status: ('A' for Active; 'I' for Inactive)
ROOT
ATOM      1  C2' OXE d   1      -0.545   0.631   2.950  0.00  0.00     0.078 C 
ATOM      2  C1' OXE d   1      -2.573   0.777   1.015  0.00  0.00     0.078 C 
ATOM      3  C1  OXE d   1      -1.170   0.485   0.544  0.00  0.00    -0.078 A 
ATOM      4  C2  OXE d   1      -0.176   0.462   1.492  0.00  0.00    -0.078 A 
ATOM      5  C3  OXE d   1       1.126   0.143   1.119  0.00  0.00     0.003 A 
ATOM      6  C4  OXE d   1       1.460  -0.003  -0.233  0.00  0.00    -0.002 A 
ATOM      7  C5  OXE d   1       0.470   0.056  -1.219  0.00  0.00    -0.002 A 
ATOM      8  C6  OXE d   1      -0.854   0.257  -0.845  0.00  0.00     0.003 A 
ENDROOT
TORSDOF 0
ENDMDL
