MODEL 1
REMARK minimizedAffinity -3.04012632
REMARK minimizedRMSD -1
REMARK  0 active torsions:
REMARK  status: ('A' for Active; 'I' for Inactive)
ROOT
ATOM      1  C2' OXE d   1       0.537  -1.219  -2.816  0.00  0.00     0.078 C 
ATOM      2  C1' OXE d   1      -0.437   1.225  -1.836  0.00  0.00     0.078 C 
ATOM      3  C1  OXE d   1       0.281   0.316  -0.871  0.00  0.00    -0.078 A 
ATOM      4  C2  OXE d   1       0.713  -0.898  -1.348  0.00  0.00    -0.078 A 
ATOM      5  C3  OXE d   1       1.430  -1.751  -0.513  0.00  0.00     0.003 A 
ATOM      6  C4  OXE d   1       1.580  -1.452   0.846  0.00  0.00    -0.002 A 
ATOM      7  C5  OXE d   1       1.112  -0.238   1.362  0.00  0.00    -0.002 A 
ATOM      8  C6  OXE d   1       0.500   0.673   0.509  0.00  0.00     0.003 A 
ENDROOT
TORSDOF 0
ENDMDL
