MODEL 1
REMARK minimizedAffinity -4.56794977
REMARK minimizedRMSD -1
REMARK  0 active torsions:
REMARK  status: ('A' for Active; 'I' for Inactive)
ROOT
ATOM      1  C2' OXE d   1      -1.346   1.087  -0.845  0.00  0.00     0.078 C 
ATOM      2  C1' OXE d   1      -2.520   0.740   1.681  0.00  0.00     0.078 C 
ATOM      3  C1  OXE d   1      -1.037   0.498   1.555  0.00  0.00    -0.078 A 
ATOM      4  C2  OXE d   1      -0.479   0.624   0.306  0.00  0.00    -0.078 A 
ATOM      5  C3  OXE d   1       0.894   0.466   0.144  0.00  0.00     0.003 A 
ATOM      6  C4  OXE d   1       1.688   0.028   1.212  0.00  0.00    -0.002 A 
ATOM      7  C5  OXE d   1       1.133  -0.145   2.484  0.00  0.00    -0.002 A 
ATOM      8  C6  OXE d   1      -0.217   0.126   2.682  0.00  0.00     0.003 A 
ENDROOT
TORSDOF 0
ENDMDL
