MODEL 1
REMARK minimizedAffinity -2.83929348
REMARK minimizedRMSD -1
REMARK  0 active torsions:
REMARK  status: ('A' for Active; 'I' for Inactive)
ROOT
ATOM      1  C2' OXE d   1      -0.655   0.328   0.790  0.00  0.00     0.078 C 
ATOM      2  C1' OXE d   1      -1.251   1.159  -1.824  0.00  0.00     0.078 C 
ATOM      3  C1  OXE d   1      -0.161   0.132  -1.644  0.00  0.00    -0.078 A 
ATOM      4  C2  OXE d   1       0.156  -0.234  -0.358  0.00  0.00    -0.078 A 
ATOM      5  C3  OXE d   1       1.116  -1.218  -0.138  0.00  0.00     0.003 A 
ATOM      6  C4  OXE d   1       1.868  -1.725  -1.204  0.00  0.00    -0.002 A 
ATOM      7  C5  OXE d   1       1.589  -1.336  -2.519  0.00  0.00    -0.002 A 
ATOM      8  C6  OXE d   1       0.551  -0.442  -2.758  0.00  0.00     0.003 A 
ENDROOT
TORSDOF 0
ENDMDL
