MODEL 1
REMARK minimizedAffinity -1.98234308
REMARK minimizedRMSD -1
REMARK  0 active torsions:
REMARK  status: ('A' for Active; 'I' for Inactive)
ROOT
ATOM      1  C2' OXE d   1       0.690   0.448  -3.392  0.00  0.00     0.078 C 
ATOM      2  C1' OXE d   1       1.356  -2.207  -2.770  0.00  0.00     0.078 C 
ATOM      3  C1  OXE d   1       1.102  -1.259  -1.625  0.00  0.00    -0.078 A 
ATOM      4  C2  OXE d   1       0.822   0.050  -1.938  0.00  0.00    -0.078 A 
ATOM      5  C3  OXE d   1       0.527   0.954  -0.921  0.00  0.00     0.003 A 
ATOM      6  C4  OXE d   1       0.661   0.580   0.421  0.00  0.00    -0.002 A 
ATOM      7  C5  OXE d   1       0.984  -0.738   0.762  0.00  0.00    -0.002 A 
ATOM      8  C6  OXE d   1       1.165  -1.678  -0.247  0.00  0.00     0.003 A 
ENDROOT
TORSDOF 0
ENDMDL
