MODEL 1
REMARK minimizedAffinity -4.69824886
REMARK minimizedRMSD -1
REMARK  0 active torsions:
REMARK  status: ('A' for Active; 'I' for Inactive)
ROOT
ATOM      1  C2' OXE d   1      -0.020   0.473   0.363  0.00  0.00     0.078 C 
ATOM      2  C1' OXE d   1       1.556  -1.834   0.634  0.00  0.00     0.078 C 
ATOM      3  C1  OXE d   1       1.238  -1.359  -0.762  0.00  0.00    -0.078 A 
ATOM      4  C2  OXE d   1       0.428  -0.256  -0.885  0.00  0.00    -0.078 A 
ATOM      5  C3  OXE d   1       0.149   0.256  -2.149  0.00  0.00     0.003 A 
ATOM      6  C4  OXE d   1       0.559  -0.431  -3.298  0.00  0.00    -0.002 A 
ATOM      7  C5  OXE d   1       1.351  -1.578  -3.195  0.00  0.00    -0.002 A 
ATOM      8  C6  OXE d   1       1.735  -2.031  -1.937  0.00  0.00     0.003 A 
ENDROOT
TORSDOF 0
ENDMDL
