MODEL 1
REMARK minimizedAffinity 1.10781622
REMARK minimizedRMSD -1
REMARK  2 active torsions:
REMARK  status: ('A' for Active; 'I' for Inactive)
REMARK    1  A    between atoms: C2'_3  and  C1'_4 
REMARK    2  A    between atoms: C1'_4  and  C1_5 
ROOT
ATOM      1  C1  I4B d   1       1.524   2.208  -0.387  0.00  0.00    -0.075 A 
ATOM      2  C2  I4B d   1       1.399   1.508   0.787  0.00  0.00     0.003 A 
ATOM      3  C3  I4B d   1       1.029   0.141   0.766  0.00  0.00     0.002 A 
ATOM      4  C4  I4B d   1       0.747  -0.468  -0.439  0.00  0.00    -0.004 A 
ATOM      5  C5  I4B d   1       0.898   0.236  -1.630  0.00  0.00     0.002 A 
ATOM      6  C6  I4B d   1       1.300   1.580  -1.605  0.00  0.00     0.003 A 
ENDROOT
BRANCH   1   7
ATOM      7  C1' I4B d   1       1.884   3.658  -0.327  0.00  0.00     0.060 C 
BRANCH   7   8
ATOM      8  C2' I4B d   1       1.594   4.153   1.076  0.00  0.00    -0.013 C 
ATOM      9  C4' I4B d   1       2.775   4.892   1.649  0.00  0.00     0.013 C 
ATOM     10  C3' I4B d   1       0.382   5.035   1.014  0.00  0.00     0.013 C 
ENDBRANCH   7   8
ENDBRANCH   1   7
TORSDOF 2
ENDMDL
