MODEL 1
REMARK minimizedAffinity 10.0987902
REMARK minimizedRMSD -1
REMARK  2 active torsions:
REMARK  status: ('A' for Active; 'I' for Inactive)
REMARK    1  A    between atoms: C2'_3  and  C1'_4 
REMARK    2  A    between atoms: C1'_4  and  C1_5 
ROOT
ATOM      1  C1  I4B d   1       0.842  -0.778   3.310  0.00  0.00    -0.075 A 
ATOM      2  C2  I4B d   1      -0.319  -1.173   2.693  0.00  0.00     0.003 A 
ATOM      3  C3  I4B d   1      -1.348  -0.233   2.444  0.00  0.00     0.002 A 
ATOM      4  C4  I4B d   1      -1.197   1.070   2.872  0.00  0.00    -0.004 A 
ATOM      5  C5  I4B d   1      -0.010   1.473   3.477  0.00  0.00     0.002 A 
ATOM      6  C6  I4B d   1       1.021   0.546   3.687  0.00  0.00     0.003 A 
ENDROOT
BRANCH   1   7
ATOM      7  C1' I4B d   1       1.895  -1.804   3.587  0.00  0.00     0.060 C 
BRANCH   7   8
ATOM      8  C2' I4B d   1       1.859  -2.122   5.068  0.00  0.00    -0.013 C 
ATOM      9  C4' I4B d   1       0.580  -2.823   5.444  0.00  0.00     0.013 C 
ATOM     10  C3' I4B d   1       3.055  -2.969   5.389  0.00  0.00     0.013 C 
ENDBRANCH   7   8
ENDBRANCH   1   7
TORSDOF 2
ENDMDL
