MODEL 1
REMARK minimizedAffinity 15.4167156
REMARK minimizedRMSD -1
REMARK  2 active torsions:
REMARK  status: ('A' for Active; 'I' for Inactive)
REMARK    1  A    between atoms: C2'_3  and  C1'_4 
REMARK    2  A    between atoms: C1'_4  and  C1_5 
ROOT
ATOM      1  C1  I4B d   1       1.148  -1.666   4.101  0.00  0.00    -0.075 A 
ATOM      2  C2  I4B d   1       0.769  -0.381   4.402  0.00  0.00     0.003 A 
ATOM      3  C3  I4B d   1       0.368   0.504   3.373  0.00  0.00     0.002 A 
ATOM      4  C4  I4B d   1       0.409   0.082   2.059  0.00  0.00    -0.004 A 
ATOM      5  C5  I4B d   1       0.772  -1.227   1.758  0.00  0.00     0.002 A 
ATOM      6  C6  I4B d   1       1.132  -2.111   2.785  0.00  0.00     0.003 A 
ENDROOT
BRANCH   1   7
ATOM      7  C1' I4B d   1       1.597  -2.564   5.209  0.00  0.00     0.060 C 
BRANCH   7   8
ATOM      8  C2' I4B d   1       3.109  -2.653   5.154  0.00  0.00    -0.013 C 
ATOM      9  C4' I4B d   1       3.748  -1.375   5.629  0.00  0.00     0.013 C 
ATOM     10  C3' I4B d   1       3.535  -3.817   5.998  0.00  0.00     0.013 C 
ENDBRANCH   7   8
ENDBRANCH   1   7
TORSDOF 2
ENDMDL
