MODEL 1
REMARK minimizedAffinity 8.26726055
REMARK minimizedRMSD -1
REMARK  2 active torsions:
REMARK  status: ('A' for Active; 'I' for Inactive)
REMARK    1  A    between atoms: C2'_3  and  C1'_4 
REMARK    2  A    between atoms: C1'_4  and  C1_5 
ROOT
ATOM      1  C1  I4B d   1       1.752   0.874   1.387  0.00  0.00    -0.075 A 
ATOM      2  C2  I4B d   1       1.860  -0.390   0.863  0.00  0.00     0.003 A 
ATOM      3  C3  I4B d   1       2.154  -0.569  -0.510  0.00  0.00     0.002 A 
ATOM      4  C4  I4B d   1       2.282   0.535  -1.328  0.00  0.00    -0.004 A 
ATOM      5  C5  I4B d   1       2.194   1.816  -0.790  0.00  0.00     0.002 A 
ATOM      6  C6  I4B d   1       1.940   1.987   0.578  0.00  0.00     0.003 A 
ENDROOT
BRANCH   1   7
ATOM      7  C1' I4B d   1       1.408   1.026   2.835  0.00  0.00     0.060 C 
BRANCH   7   8
ATOM      8  C2' I4B d   1      -0.057   1.403   2.929  0.00  0.00    -0.013 C 
ATOM      9  C4' I4B d   1      -0.926   0.182   3.075  0.00  0.00     0.013 C 
ATOM     10  C3' I4B d   1      -0.222   2.328   4.098  0.00  0.00     0.013 C 
ENDBRANCH   7   8
ENDBRANCH   1   7
TORSDOF 2
ENDMDL
