MODEL 1
REMARK minimizedAffinity -0.933255017
REMARK minimizedRMSD -1
REMARK  0 active torsions:
REMARK  status: ('A' for Active; 'I' for Inactive)
ROOT
ATOM      1  C   UNL d   1      -4.717  -0.394  -5.950  0.00  0.00     0.077 C 
ATOM      2  C1  UNL d   1      -4.871   0.851  -5.128  0.00  0.00    -0.074 A 
ATOM      3  C2  UNL d   1      -5.466   1.997  -5.664  0.00  0.00    -0.005 A 
ATOM      4  C3  UNL d   1      -5.611   3.145  -4.884  0.00  0.00     0.006 A 
ATOM      5  C4  UNL d   1      -5.163   3.158  -3.563  0.00  0.00    -0.005 A 
ATOM      6  C5  UNL d   1      -4.566   2.021  -3.009  0.00  0.00    -0.074 A 
ATOM      7  C6  UNL d   1      -4.088   2.014  -1.588  0.00  0.00     0.077 C 
ATOM      8  C7  UNL d   1      -4.430   0.869  -3.797  0.00  0.00    -0.001 A 
ENDROOT
TORSDOF 0
ENDMDL
