MODEL 1
REMARK minimizedAffinity -1.28961492
REMARK minimizedRMSD -1
REMARK  0 active torsions:
REMARK  status: ('A' for Active; 'I' for Inactive)
ROOT
ATOM      1  C   UNL d   1       0.763   6.000   1.054  0.00  0.00     0.077 C 
ATOM      2  C1  UNL d   1       0.562   4.515   0.992  0.00  0.00    -0.074 A 
ATOM      3  C2  UNL d   1       0.136   3.800   2.115  0.00  0.00    -0.005 A 
ATOM      4  C3  UNL d   1      -0.056   2.420   2.040  0.00  0.00     0.006 A 
ATOM      5  C4  UNL d   1       0.176   1.743   0.842  0.00  0.00    -0.005 A 
ATOM      6  C5  UNL d   1       0.602   2.442  -0.292  0.00  0.00    -0.074 A 
ATOM      7  C6  UNL d   1       0.847   1.731  -1.590  0.00  0.00     0.077 C 
ATOM      8  C7  UNL d   1       0.786   3.829  -0.210  0.00  0.00    -0.001 A 
ENDROOT
TORSDOF 0
ENDMDL
