MODEL 1
REMARK minimizedAffinity 3.53791833
REMARK minimizedRMSD -1
REMARK  0 active torsions:
REMARK  status: ('A' for Active; 'I' for Inactive)
ROOT
ATOM      1  C   UNL d   1      -4.020   0.369  -5.284  0.00  0.00     0.077 C 
ATOM      2  C1  UNL d   1      -4.657   1.604  -4.719  0.00  0.00    -0.074 A 
ATOM      3  C2  UNL d   1      -4.879   1.734  -3.344  0.00  0.00    -0.005 A 
ATOM      4  C3  UNL d   1      -5.464   2.892  -2.832  0.00  0.00     0.006 A 
ATOM      5  C4  UNL d   1      -5.833   3.930  -3.688  0.00  0.00    -0.005 A 
ATOM      6  C5  UNL d   1      -5.618   3.819  -5.066  0.00  0.00    -0.074 A 
ATOM      7  C6  UNL d   1      -6.000   4.929  -5.999  0.00  0.00     0.077 C 
ATOM      8  C7  UNL d   1      -5.023   2.655  -5.572  0.00  0.00    -0.001 A 
ENDROOT
TORSDOF 0
ENDMDL
