MODEL 1
REMARK minimizedAffinity 4.90359163
REMARK minimizedRMSD -1
REMARK  0 active torsions:
REMARK  status: ('A' for Active; 'I' for Inactive)
ROOT
ATOM      1  C   UNL d   1      -6.000   2.699  -5.743  0.00  0.00     0.077 C 
ATOM      2  C1  UNL d   1      -4.687   3.329  -5.384  0.00  0.00    -0.074 A 
ATOM      3  C2  UNL d   1      -4.265   4.512  -5.999  0.00  0.00    -0.005 A 
ATOM      4  C3  UNL d   1      -3.046   5.092  -5.647  0.00  0.00     0.006 A 
ATOM      5  C4  UNL d   1      -2.238   4.495  -4.679  0.00  0.00    -0.005 A 
ATOM      6  C5  UNL d   1      -2.643   3.312  -4.053  0.00  0.00    -0.074 A 
ATOM      7  C6  UNL d   1      -1.791   2.663  -3.003  0.00  0.00     0.077 C 
ATOM      8  C7  UNL d   1      -3.873   2.740  -4.406  0.00  0.00    -0.001 A 
ENDROOT
TORSDOF 0
ENDMDL
