MODEL 1
REMARK minimizedAffinity 5.43091393
REMARK minimizedRMSD -1
REMARK  0 active torsions:
REMARK  status: ('A' for Active; 'I' for Inactive)
ROOT
ATOM      1  C   UNL d   1       0.376   0.505   1.767  0.00  0.00     0.077 C 
ATOM      2  C1  UNL d   1       0.130   0.823   0.321  0.00  0.00    -0.074 A 
ATOM      3  C2  UNL d   1       1.136   0.648  -0.634  0.00  0.00    -0.005 A 
ATOM      4  C3  UNL d   1       0.890   0.938  -1.976  0.00  0.00     0.006 A 
ATOM      5  C4  UNL d   1      -0.363   1.406  -2.375  0.00  0.00    -0.005 A 
ATOM      6  C5  UNL d   1      -1.381   1.586  -1.434  0.00  0.00    -0.074 A 
ATOM      7  C6  UNL d   1      -2.736   2.078  -1.848  0.00  0.00     0.077 C 
ATOM      8  C7  UNL d   1      -1.128   1.285  -0.089  0.00  0.00    -0.001 A 
ENDROOT
TORSDOF 0
ENDMDL
