MODEL 1
REMARK minimizedAffinity 1.36657465
REMARK minimizedRMSD -1
REMARK  0 active torsions:
REMARK  status: ('A' for Active; 'I' for Inactive)
ROOT
ATOM      1  C   UNL d   1       0.002   1.756   2.083  0.00  0.00     0.077 C 
ATOM      2  C1  UNL d   1       0.115   3.237   1.876  0.00  0.00    -0.074 A 
ATOM      3  C2  UNL d   1      -0.370   4.135   2.832  0.00  0.00    -0.005 A 
ATOM      4  C3  UNL d   1      -0.249   5.510   2.631  0.00  0.00     0.006 A 
ATOM      5  C4  UNL d   1       0.356   6.000   1.473  0.00  0.00    -0.005 A 
ATOM      6  C5  UNL d   1       0.847   5.117   0.506  0.00  0.00    -0.074 A 
ATOM      7  C6  UNL d   1       1.509   5.627  -0.740  0.00  0.00     0.077 C 
ATOM      8  C7  UNL d   1       0.728   3.737   0.719  0.00  0.00    -0.001 A 
ENDROOT
TORSDOF 0
ENDMDL
