MODEL 1
REMARK minimizedAffinity 9.5340786
REMARK minimizedRMSD -1
REMARK  0 active torsions:
REMARK  status: ('A' for Active; 'I' for Inactive)
ROOT
ATOM      1  C   UNL d   1       0.885   4.673   4.541  0.00  0.00     0.077 C 
ATOM      2  C1  UNL d   1       0.685   3.404   3.766  0.00  0.00    -0.074 A 
ATOM      3  C2  UNL d   1       0.894   2.157   4.362  0.00  0.00    -0.005 A 
ATOM      4  C3  UNL d   1       0.696   0.986   3.632  0.00  0.00     0.006 A 
ATOM      5  C4  UNL d   1       0.286   1.050   2.299  0.00  0.00    -0.005 A 
ATOM      6  C5  UNL d   1       0.071   2.288   1.686  0.00  0.00    -0.074 A 
ATOM      7  C6  UNL d   1      -0.378   2.375   0.258  0.00  0.00     0.077 C 
ATOM      8  C7  UNL d   1       0.267   3.460   2.429  0.00  0.00    -0.001 A 
ENDROOT
TORSDOF 0
ENDMDL
