MODEL 1
REMARK minimizedAffinity 6.12007999
REMARK minimizedRMSD -1
REMARK  0 active torsions:
REMARK  status: ('A' for Active; 'I' for Inactive)
ROOT
ATOM      1  C   UNL d   1      -4.135   1.882  -1.101  0.00  0.00     0.077 C 
ATOM      2  C1  UNL d   1      -4.383   1.625  -2.557  0.00  0.00    -0.074 A 
ATOM      3  C2  UNL d   1      -3.979   0.427  -3.155  0.00  0.00    -0.005 A 
ATOM      4  C3  UNL d   1      -4.225   0.197  -4.508  0.00  0.00     0.006 A 
ATOM      5  C4  UNL d   1      -4.876   1.163  -5.277  0.00  0.00    -0.005 A 
ATOM      6  C5  UNL d   1      -5.289   2.366  -4.697  0.00  0.00    -0.074 A 
ATOM      7  C6  UNL d   1      -5.999   3.410  -5.507  0.00  0.00     0.077 C 
ATOM      8  C7  UNL d   1      -5.044   2.586  -3.335  0.00  0.00    -0.001 A 
ENDROOT
TORSDOF 0
ENDMDL
