MODEL 1
REMARK minimizedAffinity 3.40998268
REMARK minimizedRMSD -1
REMARK  0 active torsions:
REMARK  status: ('A' for Active; 'I' for Inactive)
ROOT
ATOM      1  C   UNL d   1       1.501   6.000   0.376  0.00  0.00     0.077 C 
ATOM      2  C1  UNL d   1       0.981   4.712   0.941  0.00  0.00    -0.074 A 
ATOM      3  C2  UNL d   1       0.728   4.578   2.310  0.00  0.00    -0.005 A 
ATOM      4  C3  UNL d   1       0.235   3.377   2.820  0.00  0.00     0.006 A 
ATOM      5  C4  UNL d   1      -0.008   2.299   1.968  0.00  0.00    -0.005 A 
ATOM      6  C5  UNL d   1       0.239   2.414   0.596  0.00  0.00    -0.074 A 
ATOM      7  C6  UNL d   1      -0.027   1.269  -0.335  0.00  0.00     0.077 C 
ATOM      8  C7  UNL d   1       0.727   3.627   0.090  0.00  0.00    -0.001 A 
ENDROOT
TORSDOF 0
ENDMDL
