MODEL 1
REMARK minimizedAffinity -0.461483538
REMARK minimizedRMSD -1
REMARK  0 active torsions:
REMARK  status: ('A' for Active; 'I' for Inactive)
ROOT
ATOM      1  C   UNL d   1      -0.108   0.271   2.139  0.00  0.00     0.077 C 
ATOM      2  C1  UNL d   1       0.088   1.507   2.965  0.00  0.00    -0.074 A 
ATOM      3  C2  UNL d   1      -0.019   1.465   4.359  0.00  0.00    -0.005 A 
ATOM      4  C3  UNL d   1       0.175   2.621   5.115  0.00  0.00     0.006 A 
ATOM      5  C4  UNL d   1       0.478   3.829   4.486  0.00  0.00    -0.005 A 
ATOM      6  C5  UNL d   1       0.591   3.891   3.094  0.00  0.00    -0.074 A 
ATOM      7  C6  UNL d   1       0.925   5.179   2.402  0.00  0.00     0.077 C 
ATOM      8  C7  UNL d   1       0.401   2.723   2.341  0.00  0.00    -0.001 A 
ENDROOT
TORSDOF 0
ENDMDL
