MODEL 1
REMARK minimizedAffinity -2.76616096
REMARK minimizedRMSD -1
REMARK  0 active torsions:
REMARK  status: ('A' for Active; 'I' for Inactive)
ROOT
ATOM      1  C   UNL d   1      -6.000   4.099  -5.999  0.00  0.00     0.077 C 
ATOM      2  C1  UNL d   1      -5.642   3.167  -4.880  0.00  0.00    -0.074 A 
ATOM      3  C2  UNL d   1      -5.884   3.518  -3.548  0.00  0.00    -0.005 A 
ATOM      4  C3  UNL d   1      -5.554   2.637  -2.518  0.00  0.00     0.006 A 
ATOM      5  C4  UNL d   1      -4.980   1.399  -2.809  0.00  0.00    -0.005 A 
ATOM      6  C5  UNL d   1      -4.732   1.031  -4.135  0.00  0.00    -0.074 A 
ATOM      7  C6  UNL d   1      -4.124  -0.300  -4.465  0.00  0.00     0.077 C 
ATOM      8  C7  UNL d   1      -5.072   1.918  -5.165  0.00  0.00    -0.001 A 
ENDROOT
TORSDOF 0
ENDMDL
