MODEL 1
REMARK minimizedAffinity 0.842576563
REMARK minimizedRMSD -1
REMARK  0 active torsions:
REMARK  status: ('A' for Active; 'I' for Inactive)
ROOT
ATOM      1  C   UNL d   1      -5.997   5.972  -5.966  0.00  0.00     0.077 C 
ATOM      2  C1  UNL d   1      -5.436   4.694  -5.418  0.00  0.00    -0.074 A 
ATOM      3  C2  UNL d   1      -4.423   4.709  -4.454  0.00  0.00    -0.005 A 
ATOM      4  C3  UNL d   1      -3.918   3.512  -3.946  0.00  0.00     0.006 A 
ATOM      5  C4  UNL d   1      -4.421   2.290  -4.396  0.00  0.00    -0.005 A 
ATOM      6  C5  UNL d   1      -5.435   2.256  -5.358  0.00  0.00    -0.074 A 
ATOM      7  C6  UNL d   1      -5.993   0.952  -5.845  0.00  0.00     0.077 C 
ATOM      8  C7  UNL d   1      -5.942   3.463  -5.859  0.00  0.00    -0.001 A 
ENDROOT
TORSDOF 0
ENDMDL
