MODEL 1
REMARK minimizedAffinity 0.305612713
REMARK minimizedRMSD -1
REMARK  0 active torsions:
REMARK  status: ('A' for Active; 'I' for Inactive)
ROOT
ATOM      1  C   UNL d   1      -6.000   5.113  -6.000  0.00  0.00     0.077 C 
ATOM      2  C1  UNL d   1      -5.743   3.813  -5.297  0.00  0.00    -0.074 A 
ATOM      3  C2  UNL d   1      -5.745   2.603  -5.999  0.00  0.00    -0.005 A 
ATOM      4  C3  UNL d   1      -5.495   1.403  -5.333  0.00  0.00     0.006 A 
ATOM      5  C4  UNL d   1      -5.240   1.401  -3.961  0.00  0.00    -0.005 A 
ATOM      6  C5  UNL d   1      -5.233   2.600  -3.243  0.00  0.00    -0.074 A 
ATOM      7  C6  UNL d   1      -4.951   2.616  -1.770  0.00  0.00     0.077 C 
ATOM      8  C7  UNL d   1      -5.478   3.803  -3.920  0.00  0.00    -0.001 A 
ENDROOT
TORSDOF 0
ENDMDL
