MODEL 1
REMARK minimizedAffinity 1.65688133
REMARK minimizedRMSD -1
REMARK  0 active torsions:
REMARK  status: ('A' for Active; 'I' for Inactive)
ROOT
ATOM      1  C   UNL d   1      -0.148  -4.344  -2.288  0.00  0.00     0.077 C 
ATOM      2  C1  UNL d   1       1.236  -4.120  -2.820  0.00  0.00    -0.074 A 
ATOM      3  C2  UNL d   1       1.455  -3.902  -4.184  0.00  0.00    -0.005 A 
ATOM      4  C3  UNL d   1       2.747  -3.686  -4.663  0.00  0.00     0.006 A 
ATOM      5  C4  UNL d   1       3.831  -3.685  -3.784  0.00  0.00    -0.005 A 
ATOM      6  C5  UNL d   1       3.631  -3.901  -2.417  0.00  0.00    -0.074 A 
ATOM      7  C6  UNL d   1       4.784  -3.894  -1.458  0.00  0.00     0.077 C 
ATOM      8  C7  UNL d   1       2.329  -4.111  -1.943  0.00  0.00    -0.001 A 
ENDROOT
TORSDOF 0
ENDMDL
