MODEL 1
REMARK minimizedAffinity -3.3688767
REMARK minimizedRMSD -1
REMARK  0 active torsions:
REMARK  status: ('A' for Active; 'I' for Inactive)
ROOT
ATOM      1  C   UNL d   1      -5.265   4.497  -5.996  0.00  0.00     0.077 C 
ATOM      2  C1  UNL d   1      -5.124   3.615  -4.790  0.00  0.00    -0.074 A 
ATOM      3  C2  UNL d   1      -4.502   2.366  -4.882  0.00  0.00    -0.005 A 
ATOM      4  C3  UNL d   1      -4.370   1.561  -3.751  0.00  0.00     0.006 A 
ATOM      5  C4  UNL d   1      -4.857   1.997  -2.518  0.00  0.00    -0.005 A 
ATOM      6  C5  UNL d   1      -5.480   3.244  -2.406  0.00  0.00    -0.074 A 
ATOM      7  C6  UNL d   1      -6.000   3.732  -1.087  0.00  0.00     0.077 C 
ATOM      8  C7  UNL d   1      -5.603   4.049  -3.546  0.00  0.00    -0.001 A 
ENDROOT
TORSDOF 0
ENDMDL
