MODEL 1
REMARK minimizedAffinity 6.38996935
REMARK minimizedRMSD -1
REMARK  0 active torsions:
REMARK  status: ('A' for Active; 'I' for Inactive)
ROOT
ATOM      1  C   UNL d   1      -6.000   4.833  -5.624  0.00  0.00     0.077 C 
ATOM      2  C1  UNL d   1      -5.216   3.783  -4.894  0.00  0.00    -0.074 A 
ATOM      3  C2  UNL d   1      -4.143   4.132  -4.068  0.00  0.00    -0.005 A 
ATOM      4  C3  UNL d   1      -3.429   3.145  -3.388  0.00  0.00     0.006 A 
ATOM      5  C4  UNL d   1      -3.781   1.802  -3.527  0.00  0.00    -0.005 A 
ATOM      6  C5  UNL d   1      -4.852   1.434  -4.348  0.00  0.00    -0.074 A 
ATOM      7  C6  UNL d   1      -5.249  -0.004  -4.500  0.00  0.00     0.077 C 
ATOM      8  C7  UNL d   1      -5.568   2.432  -5.022  0.00  0.00    -0.001 A 
ENDROOT
TORSDOF 0
ENDMDL
