MODEL 1
REMARK minimizedAffinity 4.45517254
REMARK minimizedRMSD -1
REMARK  0 active torsions:
REMARK  status: ('A' for Active; 'I' for Inactive)
ROOT
ATOM      1  C   UNL d   1      -2.365   1.418  -1.957  0.00  0.00     0.077 C 
ATOM      2  C1  UNL d   1      -1.271   1.087  -0.986  0.00  0.00    -0.074 A 
ATOM      3  C2  UNL d   1       0.040   0.875  -1.426  0.00  0.00    -0.005 A 
ATOM      4  C3  UNL d   1       1.049   0.577  -0.510  0.00  0.00     0.006 A 
ATOM      5  C4  UNL d   1       0.758   0.489   0.852  0.00  0.00    -0.005 A 
ATOM      6  C5  UNL d   1      -0.546   0.699   1.310  0.00  0.00    -0.074 A 
ATOM      7  C6  UNL d   1      -0.874   0.618   2.771  0.00  0.00     0.077 C 
ATOM      8  C7  UNL d   1      -1.554   1.005   0.384  0.00  0.00    -0.001 A 
ENDROOT
TORSDOF 0
ENDMDL
