MODEL 1
REMARK minimizedAffinity -2.63270283
REMARK minimizedRMSD -1
REMARK  0 active torsions:
REMARK  status: ('A' for Active; 'I' for Inactive)
ROOT
ATOM      1  N1  IND d   1      -0.525  -0.537  -1.203  0.00  0.00    -0.196 N 
ATOM      2  C2  IND d   1       0.769  -0.938  -1.020  0.00  0.00     0.054 A 
ATOM      3  C3  IND d   1       1.252  -0.450   0.144  0.00  0.00    -0.031 A 
ATOM      4  C4  IND d   1       0.064   0.946   1.952  0.00  0.00     0.051 A 
ATOM      5  C5  IND d   1      -1.112   1.590   2.215  0.00  0.00    -0.031 A 
ATOM      6  C6  IND d   1      -2.176   1.554   1.337  0.00  0.00     0.015 A 
ATOM      7  C7  IND d   1      -2.106   0.861   0.161  0.00  0.00    -0.016 A 
ATOM      8  C8  IND d   1      -0.910   0.213  -0.113  0.00  0.00    -0.047 A 
ATOM      9  C9  IND d   1       0.187   0.280   0.755  0.00  0.00    -0.096 A 
ATOM     10  HN1 IND d   1      -1.016  -0.721  -1.885  0.00  0.00     0.298 HD
ENDROOT
TORSDOF 0
ENDMDL
