MODEL 1
REMARK minimizedAffinity -3.55720568
REMARK minimizedRMSD -1
REMARK  0 active torsions:
REMARK  status: ('A' for Active; 'I' for Inactive)
ROOT
ATOM      1  N1  IND d   1       0.843   0.535  -0.529  0.00  0.00    -0.196 N 
ATOM      2  C2  IND d   1       0.464  -0.750  -0.260  0.00  0.00     0.054 A 
ATOM      3  C3  IND d   1      -0.764  -0.770   0.305  0.00  0.00    -0.031 A 
ATOM      4  C4  IND d   1      -2.375   1.180   0.785  0.00  0.00     0.051 A 
ATOM      5  C5  IND d   1      -2.457   2.544   0.745  0.00  0.00    -0.031 A 
ATOM      6  C6  IND d   1      -1.424   3.323   0.267  0.00  0.00     0.015 A 
ATOM      7  C7  IND d   1      -0.269   2.765  -0.203  0.00  0.00    -0.016 A 
ATOM      8  C8  IND d   1      -0.179   1.381  -0.158  0.00  0.00    -0.047 A 
ATOM      9  C9  IND d   1      -1.207   0.587   0.366  0.00  0.00    -0.096 A 
ATOM     10  HN1 IND d   1       1.594   0.775  -0.873  0.00  0.00     0.298 HD
ENDROOT
TORSDOF 0
ENDMDL
