MODEL 1
REMARK minimizedAffinity -3.68258381
REMARK minimizedRMSD -1
REMARK  0 active torsions:
REMARK  status: ('A' for Active; 'I' for Inactive)
ROOT
ATOM      1  N1  IND d   1       0.538   0.395  -0.830  0.00  0.00    -0.196 N 
ATOM      2  C2  IND d   1       0.268  -0.856  -0.347  0.00  0.00     0.054 A 
ATOM      3  C3  IND d   1      -0.592  -0.783   0.693  0.00  0.00    -0.031 A 
ATOM      4  C4  IND d   1      -1.762   1.275   1.706  0.00  0.00     0.051 A 
ATOM      5  C5  IND d   1      -1.805   2.638   1.626  0.00  0.00    -0.031 A 
ATOM      6  C6  IND d   1      -1.055   3.338   0.702  0.00  0.00     0.015 A 
ATOM      7  C7  IND d   1      -0.241   2.696  -0.187  0.00  0.00    -0.016 A 
ATOM      8  C8  IND d   1      -0.190   1.311  -0.104  0.00  0.00    -0.047 A 
ATOM      9  C9  IND d   1      -0.915   0.599   0.860  0.00  0.00    -0.096 A 
ATOM     10  HN1 IND d   1       1.072   0.578  -1.478  0.00  0.00     0.298 HD
ENDROOT
TORSDOF 0
ENDMDL
