MODEL 1
REMARK minimizedAffinity -5.78181171
REMARK minimizedRMSD -1
REMARK  0 active torsions:
REMARK  status: ('A' for Active; 'I' for Inactive)
ROOT
ATOM      1  N1  IND d   1       0.885   0.178  -0.850  0.00  0.00    -0.196 N 
ATOM      2  C2  IND d   1       0.741  -0.850   0.040  0.00  0.00     0.054 A 
ATOM      3  C3  IND d   1      -0.046  -0.472   1.072  0.00  0.00    -0.031 A 
ATOM      4  C4  IND d   1      -1.289   1.750   1.453  0.00  0.00     0.051 A 
ATOM      5  C5  IND d   1      -1.436   3.005   0.932  0.00  0.00    -0.031 A 
ATOM      6  C6  IND d   1      -0.806   3.389  -0.234  0.00  0.00     0.015 A 
ATOM      7  C7  IND d   1      -0.011   2.524  -0.932  0.00  0.00    -0.016 A 
ATOM      8  C8  IND d   1       0.146   1.251  -0.403  0.00  0.00    -0.047 A 
ATOM      9  C9  IND d   1      -0.457   0.870   0.803  0.00  0.00    -0.096 A 
ATOM     10  HN1 IND d   1       1.358   0.158  -1.567  0.00  0.00     0.298 HD
ENDROOT
TORSDOF 0
ENDMDL
