MODEL 1
REMARK minimizedAffinity -6.25313997
REMARK minimizedRMSD -1
REMARK  0 active torsions:
REMARK  status: ('A' for Active; 'I' for Inactive)
ROOT
ATOM      1  N1  IND d   1       0.760   0.253  -0.412  0.00  0.00    -0.196 N 
ATOM      2  C2  IND d   1       0.532  -0.771   0.465  0.00  0.00     0.054 A 
ATOM      3  C3  IND d   1      -0.387  -0.405   1.387  0.00  0.00    -0.031 A 
ATOM      4  C4  IND d   1      -1.719   1.789   1.586  0.00  0.00     0.051 A 
ATOM      5  C5  IND d   1      -1.830   3.035   1.037  0.00  0.00    -0.031 A 
ATOM      6  C6  IND d   1      -1.071   3.425  -0.047  0.00  0.00     0.015 A 
ATOM      7  C7  IND d   1      -0.175   2.575  -0.632  0.00  0.00    -0.016 A 
ATOM      8  C8  IND d   1      -0.055   1.311  -0.072  0.00  0.00    -0.047 A 
ATOM      9  C9  IND d   1      -0.792   0.924   1.054  0.00  0.00    -0.096 A 
ATOM     10  HN1 IND d   1       1.318   0.238  -1.066  0.00  0.00     0.298 HD
ENDROOT
TORSDOF 0
ENDMDL
