MODEL 1
REMARK minimizedAffinity -3.41933656
REMARK minimizedRMSD -1
REMARK  0 active torsions:
REMARK  status: ('A' for Active; 'I' for Inactive)
ROOT
ATOM      1  N1  IND d   1      -0.625  -0.772   0.113  0.00  0.00    -0.196 N 
ATOM      2  C2  IND d   1      -0.244   0.446  -0.377  0.00  0.00     0.054 A 
ATOM      3  C3  IND d   1       0.220   0.319  -1.641  0.00  0.00    -0.031 A 
ATOM      4  C4  IND d   1       0.348  -1.774  -3.134  0.00  0.00     0.051 A 
ATOM      5  C5  IND d   1       0.150  -3.126  -3.113  0.00  0.00    -0.031 A 
ATOM      6  C6  IND d   1      -0.330  -3.775  -1.994  0.00  0.00     0.015 A 
ATOM      7  C7  IND d   1      -0.641  -3.092  -0.853  0.00  0.00    -0.016 A 
ATOM      8  C8  IND d   1      -0.433  -1.720  -0.868  0.00  0.00    -0.047 A 
ATOM      9  C9  IND d   1       0.093  -1.061  -1.986  0.00  0.00    -0.096 A 
ATOM     10  HN1 IND d   1      -0.933  -0.921   0.902  0.00  0.00     0.298 HD
ENDROOT
TORSDOF 0
ENDMDL
