MODEL 1
REMARK minimizedAffinity -4.0605607
REMARK minimizedRMSD -1
REMARK  0 active torsions:
REMARK  status: ('A' for Active; 'I' for Inactive)
ROOT
ATOM      1  N1  IND d   1       0.884   1.804  -1.561  0.00  0.00    -0.196 N 
ATOM      2  C2  IND d   1       1.201   0.486  -1.737  0.00  0.00     0.054 A 
ATOM      3  C3  IND d   1       0.749  -0.250  -0.696  0.00  0.00    -0.031 A 
ATOM      4  C4  IND d   1      -0.622   0.487   1.354  0.00  0.00     0.051 A 
ATOM      5  C5  IND d   1      -1.123   1.598   1.973  0.00  0.00    -0.031 A 
ATOM      6  C6  IND d   1      -0.979   2.860   1.433  0.00  0.00     0.015 A 
ATOM      7  C7  IND d   1      -0.337   3.057   0.243  0.00  0.00    -0.016 A 
ATOM      8  C8  IND d   1       0.179   1.932  -0.384  0.00  0.00    -0.047 A 
ATOM      9  C9  IND d   1       0.073   0.654   0.180  0.00  0.00    -0.096 A 
ATOM     10  HN1 IND d   1       1.091   2.445  -2.095  0.00  0.00     0.298 HD
ENDROOT
TORSDOF 0
ENDMDL
