MODEL 1
REMARK minimizedAffinity -3.67374158
REMARK minimizedRMSD -1
REMARK  0 active torsions:
REMARK  status: ('A' for Active; 'I' for Inactive)
ROOT
ATOM      1  N1  IND d   1      -0.236   2.984  -1.113  0.00  0.00    -0.196 N 
ATOM      2  C2  IND d   1      -0.859   4.054  -0.535  0.00  0.00     0.054 A 
ATOM      3  C3  IND d   1      -1.492   3.674   0.598  0.00  0.00    -0.031 A 
ATOM      4  C4  IND d   1      -1.552   1.369   1.743  0.00  0.00     0.051 A 
ATOM      5  C5  IND d   1      -1.161   0.070   1.572  0.00  0.00    -0.031 A 
ATOM      6  C6  IND d   1      -0.425  -0.331   0.476  0.00  0.00     0.015 A 
ATOM      7  C7  IND d   1      -0.040   0.558  -0.488  0.00  0.00    -0.016 A 
ATOM      8  C8  IND d   1      -0.441   1.876  -0.321  0.00  0.00    -0.047 A 
ATOM      9  C9  IND d   1      -1.225   2.281   0.767  0.00  0.00    -0.096 A 
ATOM     10  HN1 IND d   1       0.210   3.000  -1.849  0.00  0.00     0.298 HD
ENDROOT
TORSDOF 0
ENDMDL
