MODEL 1
REMARK minimizedAffinity -4.50273275
REMARK minimizedRMSD -1
REMARK  0 active torsions:
REMARK  status: ('A' for Active; 'I' for Inactive)
ROOT
ATOM      1  N1  IND d   1       1.041  -0.098   1.257  0.00  0.00    -0.196 N 
ATOM      2  C2  IND d   1       1.568  -0.343   0.019  0.00  0.00     0.054 A 
ATOM      3  C3  IND d   1       0.890   0.347  -0.925  0.00  0.00    -0.031 A 
ATOM      4  C4  IND d   1      -1.051   2.016  -0.654  0.00  0.00     0.051 A 
ATOM      5  C5  IND d   1      -1.899   2.539   0.282  0.00  0.00    -0.031 A 
ATOM      6  C6  IND d   1      -1.807   2.205   1.617  0.00  0.00     0.015 A 
ATOM      7  C7  IND d   1      -0.852   1.340   2.071  0.00  0.00    -0.016 A 
ATOM      8  C8  IND d   1       0.007   0.802   1.123  0.00  0.00    -0.047 A 
ATOM      9  C9  IND d   1      -0.109   1.105  -0.240  0.00  0.00    -0.096 A 
ATOM     10  HN1 IND d   1       1.311  -0.448   1.995  0.00  0.00     0.298 HD
ENDROOT
TORSDOF 0
ENDMDL
