MODEL 1
REMARK minimizedAffinity -4.44424105
REMARK minimizedRMSD -1
REMARK  0 active torsions:
REMARK  status: ('A' for Active; 'I' for Inactive)
ROOT
ATOM      1  N1  IND d   1       0.865   2.216  -0.966  0.00  0.00    -0.196 N 
ATOM      2  C2  IND d   1       0.476   3.500  -0.702  0.00  0.00     0.054 A 
ATOM      3  C3  IND d   1      -0.375   3.526   0.349  0.00  0.00    -0.031 A 
ATOM      4  C4  IND d   1      -1.183   1.596   1.848  0.00  0.00     0.051 A 
ATOM      5  C5  IND d   1      -1.128   0.236   1.977  0.00  0.00    -0.031 A 
ATOM      6  C6  IND d   1      -0.388  -0.548   1.116  0.00  0.00     0.015 A 
ATOM      7  C7  IND d   1       0.336   0.001   0.096  0.00  0.00    -0.016 A 
ATOM      8  C8  IND d   1       0.277   1.381  -0.042  0.00  0.00    -0.047 A 
ATOM      9  C9  IND d   1      -0.506   2.178   0.803  0.00  0.00    -0.096 A 
ATOM     10  HN1 IND d   1       1.390   1.972  -1.602  0.00  0.00     0.298 HD
ENDROOT
TORSDOF 0
ENDMDL
