MODEL 1
REMARK minimizedAffinity -5.67796659
REMARK minimizedRMSD -1
REMARK  0 active torsions:
REMARK  status: ('A' for Active; 'I' for Inactive)
ROOT
ATOM      1  N1  IND d   1       0.690  -0.221  -1.458  0.00  0.00    -0.196 N 
ATOM      2  C2  IND d   1       0.674   0.082  -0.125  0.00  0.00     0.054 A 
ATOM      3  C3  IND d   1       0.487  -1.038   0.609  0.00  0.00    -0.031 A 
ATOM      4  C4  IND d   1       0.288  -3.486  -0.163  0.00  0.00     0.051 A 
ATOM      5  C5  IND d   1       0.208  -4.257  -1.288  0.00  0.00    -0.031 A 
ATOM      6  C6  IND d   1       0.290  -3.712  -2.553  0.00  0.00     0.015 A 
ATOM      7  C7  IND d   1       0.466  -2.371  -2.740  0.00  0.00    -0.016 A 
ATOM      8  C8  IND d   1       0.540  -1.583  -1.600  0.00  0.00    -0.047 A 
ATOM      9  C9  IND d   1       0.415  -2.125  -0.315  0.00  0.00    -0.096 A 
ATOM     10  HN1 IND d   1       0.780   0.344  -2.100  0.00  0.00     0.298 HD
ENDROOT
TORSDOF 0
ENDMDL
