MODEL 1
REMARK minimizedAffinity -4.57600355
REMARK minimizedRMSD -1
REMARK  0 active torsions:
REMARK  status: ('A' for Active; 'I' for Inactive)
ROOT
ATOM      1  N1  IND d   1       1.047  -0.098   0.351  0.00  0.00    -0.196 N 
ATOM      2  C2  IND d   1       1.611   0.473  -0.756  0.00  0.00     0.054 A 
ATOM      3  C3  IND d   1       0.827   1.471  -1.220  0.00  0.00    -0.031 A 
ATOM      4  C4  IND d   1      -1.372   2.406  -0.261  0.00  0.00     0.051 A 
ATOM      5  C5  IND d   1      -2.299   2.186   0.718  0.00  0.00    -0.031 A 
ATOM      6  C6  IND d   1      -2.154   1.174   1.646  0.00  0.00     0.015 A 
ATOM      7  C7  IND d   1      -1.066   0.349   1.635  0.00  0.00    -0.016 A 
ATOM      8  C8  IND d   1      -0.126   0.565   0.638  0.00  0.00    -0.047 A 
ATOM      9  C9  IND d   1      -0.288   1.563  -0.332  0.00  0.00    -0.096 A 
ATOM     10  HN1 IND d   1       1.371  -0.761   0.794  0.00  0.00     0.298 HD
ENDROOT
TORSDOF 0
ENDMDL
