MODEL 1
REMARK minimizedAffinity -4.38696718
REMARK minimizedRMSD -1
REMARK  0 active torsions:
REMARK  status: ('A' for Active; 'I' for Inactive)
ROOT
ATOM      1  N1  IND d   1      -0.187  -0.224  -1.282  0.00  0.00    -0.196 N 
ATOM      2  C2  IND d   1       0.116   0.289  -0.051  0.00  0.00     0.054 A 
ATOM      3  C3  IND d   1       0.707  -0.652   0.718  0.00  0.00    -0.031 A 
ATOM      4  C4  IND d   1       1.366  -3.070   0.128  0.00  0.00     0.051 A 
ATOM      5  C5  IND d   1       1.262  -4.003  -0.866  0.00  0.00    -0.031 A 
ATOM      6  C6  IND d   1       0.659  -3.717  -2.074  0.00  0.00     0.015 A 
ATOM      7  C7  IND d   1       0.147  -2.479  -2.339  0.00  0.00    -0.016 A 
ATOM      8  C8  IND d   1       0.245  -1.531  -1.330  0.00  0.00    -0.047 A 
ATOM      9  C9  IND d   1       0.817  -1.828  -0.086  0.00  0.00    -0.096 A 
ATOM     10  HN1 IND d   1      -0.581   0.199  -1.918  0.00  0.00     0.298 HD
ENDROOT
TORSDOF 0
ENDMDL
