MODEL 1
REMARK minimizedAffinity -4.96893835
REMARK minimizedRMSD -1
REMARK  0 active torsions:
REMARK  status: ('A' for Active; 'I' for Inactive)
ROOT
ATOM      1  N1  IND d   1       0.659   0.262  -0.593  0.00  0.00    -0.196 N 
ATOM      2  C2  IND d   1       0.737  -0.660   0.414  0.00  0.00     0.054 A 
ATOM      3  C3  IND d   1      -0.081  -0.314   1.433  0.00  0.00    -0.031 A 
ATOM      4  C4  IND d   1      -1.714   1.667   1.619  0.00  0.00     0.051 A 
ATOM      5  C5  IND d   1      -2.112   2.801   0.967  0.00  0.00    -0.031 A 
ATOM      6  C6  IND d   1      -1.597   3.152  -0.265  0.00  0.00     0.015 A 
ATOM      7  C7  IND d   1      -0.671   2.372  -0.898  0.00  0.00    -0.016 A 
ATOM      8  C8  IND d   1      -0.260   1.224  -0.235  0.00  0.00    -0.047 A 
ATOM      9  C9  IND d   1      -0.747   0.885   1.034  0.00  0.00    -0.096 A 
ATOM     10  HN1 IND d   1       1.108   0.244  -1.326  0.00  0.00     0.298 HD
ENDROOT
TORSDOF 0
ENDMDL
