MODEL 1
REMARK minimizedAffinity -4.67920589
REMARK minimizedRMSD -1
REMARK  0 active torsions:
REMARK  status: ('A' for Active; 'I' for Inactive)
ROOT
ATOM      1  N1  IND d   1       0.060  -0.401   0.624  0.00  0.00    -0.196 N 
ATOM      2  C2  IND d   1       0.896  -0.442  -0.456  0.00  0.00     0.054 A 
ATOM      3  C3  IND d   1       0.755   0.676  -1.203  0.00  0.00    -0.031 A 
ATOM      4  C4  IND d   1      -0.714   2.749  -0.783  0.00  0.00     0.051 A 
ATOM      5  C5  IND d   1      -1.678   3.234   0.055  0.00  0.00    -0.031 A 
ATOM      6  C6  IND d   1      -2.119   2.519   1.150  0.00  0.00     0.015 A 
ATOM      7  C7  IND d   1      -1.602   1.292   1.455  0.00  0.00    -0.016 A 
ATOM      8  C8  IND d   1      -0.628   0.793   0.601  0.00  0.00    -0.047 A 
ATOM      9  C9  IND d   1      -0.207   1.495  -0.535  0.00  0.00    -0.096 A 
ATOM     10  HN1 IND d   1      -0.023  -1.017   1.218  0.00  0.00     0.298 HD
ENDROOT
TORSDOF 0
ENDMDL
