MODEL 1
REMARK minimizedAffinity -3.26423168
REMARK minimizedRMSD -1
REMARK  0 active torsions:
REMARK  status: ('A' for Active; 'I' for Inactive)
ROOT
ATOM      1  N1  IND d   1      -1.139   1.454   1.701  0.00  0.00    -0.196 N 
ATOM      2  C2  IND d   1      -1.499   2.699   1.266  0.00  0.00     0.054 A 
ATOM      3  C3  IND d   1      -1.069   2.898   0.000  0.00  0.00    -0.031 A 
ATOM      4  C4  IND d   1       0.155   1.281  -1.585  0.00  0.00     0.051 A 
ATOM      5  C5  IND d   1       0.731   0.042  -1.626  0.00  0.00    -0.031 A 
ATOM      6  C6  IND d   1       0.711  -0.807  -0.538  0.00  0.00     0.015 A 
ATOM      7  C7  IND d   1       0.101  -0.452   0.632  0.00  0.00    -0.016 A 
ATOM      8  C8  IND d   1      -0.479   0.807   0.679  0.00  0.00    -0.047 A 
ATOM      9  C9  IND d   1      -0.425   1.690  -0.407  0.00  0.00    -0.096 A 
ATOM     10  HN1 IND d   1      -1.297   1.130   2.481  0.00  0.00     0.298 HD
ENDROOT
TORSDOF 0
ENDMDL
