MODEL 1
REMARK minimizedAffinity -1.81521165
REMARK minimizedRMSD -1
REMARK  0 active torsions:
REMARK  status: ('A' for Active; 'I' for Inactive)
ROOT
ATOM      1  N1  IND d   1       0.547   2.654  -0.982  0.00  0.00    -0.196 N 
ATOM      2  C2  IND d   1       0.183   3.875  -0.487  0.00  0.00     0.054 A 
ATOM      3  C3  IND d   1      -0.480   3.730   0.682  0.00  0.00    -0.031 A 
ATOM      4  C4  IND d   1      -0.989   1.591   2.020  0.00  0.00     0.051 A 
ATOM      5  C5  IND d   1      -0.887   0.229   1.954  0.00  0.00    -0.031 A 
ATOM      6  C6  IND d   1      -0.287  -0.406   0.886  0.00  0.00     0.015 A 
ATOM      7  C7  IND d   1       0.245   0.300  -0.155  0.00  0.00    -0.016 A 
ATOM      8  C8  IND d   1       0.137   1.682  -0.095  0.00  0.00    -0.047 A 
ATOM      9  C9  IND d   1      -0.508   2.330   0.966  0.00  0.00    -0.096 A 
ATOM     10  HN1 IND d   1       0.962   2.515  -1.722  0.00  0.00     0.298 HD
ENDROOT
TORSDOF 0
ENDMDL
