MODEL 1
REMARK minimizedAffinity 0.822963715
REMARK minimizedRMSD -1
REMARK  0 active torsions:
REMARK  status: ('A' for Active; 'I' for Inactive)
ROOT
ATOM      1  C   UNL d   1      -1.015   2.710  -2.848  0.00  0.00     0.172 C 
ATOM      2  N   UNL d   1      -0.491   3.054  -1.547  0.00  0.00    -0.070 N 
ATOM      3  C1  UNL d   1       0.177   4.208  -1.235  0.00  0.00    -0.004 A 
ATOM      4  C2  UNL d   1       0.509   4.155   0.101  0.00  0.00    -0.047 A 
ATOM      5  C3  UNL d   1       0.024   2.926   0.610  0.00  0.00    -0.047 A 
ATOM      6  C4  UNL d   1      -0.591   2.264  -0.432  0.00  0.00    -0.004 A 
ENDROOT
TORSDOF 0
ENDMDL
