MODEL 1
REMARK minimizedAffinity 2.88874698
REMARK minimizedRMSD -1
REMARK  0 active torsions:
REMARK  status: ('A' for Active; 'I' for Inactive)
ROOT
ATOM      1  C   UNL d   1      -0.127   2.480  -0.400  0.00  0.00     0.172 C 
ATOM      2  N   UNL d   1      -0.377   2.298   1.010  0.00  0.00    -0.070 N 
ATOM      3  C1  UNL d   1      -1.594   2.027   1.577  0.00  0.00    -0.004 A 
ATOM      4  C2  UNL d   1      -1.411   1.926   2.939  0.00  0.00    -0.047 A 
ATOM      5  C3  UNL d   1      -0.038   2.146   3.200  0.00  0.00    -0.047 A 
ATOM      6  C4  UNL d   1       0.579   2.373   1.988  0.00  0.00    -0.004 A 
ENDROOT
TORSDOF 0
ENDMDL
