MODEL 1
REMARK minimizedAffinity 6.59879589
REMARK minimizedRMSD -1
REMARK  0 active torsions:
REMARK  status: ('A' for Active; 'I' for Inactive)
ROOT
ATOM      1  C   UNL d   1      -0.787   1.526   0.968  0.00  0.00     0.172 C 
ATOM      2  N   UNL d   1      -0.157   2.491   0.098  0.00  0.00    -0.070 N 
ATOM      3  C1  UNL d   1      -0.455   2.688  -1.224  0.00  0.00    -0.004 A 
ATOM      4  C2  UNL d   1       0.362   3.693  -1.695  0.00  0.00    -0.047 A 
ATOM      5  C3  UNL d   1       1.179   4.114  -0.620  0.00  0.00    -0.047 A 
ATOM      6  C4  UNL d   1       0.837   3.354   0.478  0.00  0.00    -0.004 A 
ENDROOT
TORSDOF 0
ENDMDL
