MODEL 1
REMARK minimizedAffinity 1.7240169
REMARK minimizedRMSD -1
REMARK  0 active torsions:
REMARK  status: ('A' for Active; 'I' for Inactive)
ROOT
ATOM      1  C   UNL d   1      -2.815   5.381   0.623  0.00  0.00     0.172 C 
ATOM      2  N   UNL d   1      -1.644   4.550   0.464  0.00  0.00    -0.070 N 
ATOM      3  C1  UNL d   1      -1.574   3.210   0.734  0.00  0.00    -0.004 A 
ATOM      4  C2  UNL d   1      -0.292   2.790   0.453  0.00  0.00    -0.047 A 
ATOM      5  C3  UNL d   1       0.434   3.917  -0.000  0.00  0.00    -0.047 A 
ATOM      6  C4  UNL d   1      -0.428   4.993   0.016  0.00  0.00    -0.004 A 
ENDROOT
TORSDOF 0
ENDMDL
