MODEL 1
REMARK minimizedAffinity 8.00896168
REMARK minimizedRMSD -1
REMARK  0 active torsions:
REMARK  status: ('A' for Active; 'I' for Inactive)
ROOT
ATOM      1  C   UNL d   1      -0.987   3.704  -2.997  0.00  0.00     0.172 C 
ATOM      2  N   UNL d   1      -0.405   3.467  -1.697  0.00  0.00    -0.070 N 
ATOM      3  C1  UNL d   1      -0.949   2.694  -0.707  0.00  0.00    -0.004 A 
ATOM      4  C2  UNL d   1      -0.091   2.722   0.371  0.00  0.00    -0.047 A 
ATOM      5  C3  UNL d   1       1.007   3.542   0.017  0.00  0.00    -0.047 A 
ATOM      6  C4  UNL d   1       0.787   3.990  -1.268  0.00  0.00    -0.004 A 
ENDROOT
TORSDOF 0
ENDMDL
