MODEL 1
REMARK minimizedAffinity 11.1083727
REMARK minimizedRMSD -1
REMARK  0 active torsions:
REMARK  status: ('A' for Active; 'I' for Inactive)
ROOT
ATOM      1  C   UNL d   1      -4.860   5.998   2.813  0.00  0.00     0.172 C 
ATOM      2  N   UNL d   1      -4.609   5.771   1.409  0.00  0.00    -0.070 N 
ATOM      3  C1  UNL d   1      -3.441   5.299   0.873  0.00  0.00    -0.004 A 
ATOM      4  C2  UNL d   1      -3.603   5.224  -0.493  0.00  0.00    -0.047 A 
ATOM      5  C3  UNL d   1      -4.914   5.667  -0.789  0.00  0.00    -0.047 A 
ATOM      6  C4  UNL d   1      -5.514   6.000   0.407  0.00  0.00    -0.004 A 
ENDROOT
TORSDOF 0
ENDMDL
