MODEL 1
REMARK minimizedAffinity 2.45021677
REMARK minimizedRMSD -1
REMARK  0 active torsions:
REMARK  status: ('A' for Active; 'I' for Inactive)
ROOT
ATOM      1  C   UNL d   1      -1.757  -0.063   3.436  0.00  0.00     0.172 C 
ATOM      2  N   UNL d   1      -1.386  -1.459   3.463  0.00  0.00    -0.070 N 
ATOM      3  C1  UNL d   1      -0.212  -1.982   2.991  0.00  0.00    -0.004 A 
ATOM      4  C2  UNL d   1      -0.242  -3.344   3.201  0.00  0.00    -0.047 A 
ATOM      5  C3  UNL d   1      -1.478  -3.650   3.819  0.00  0.00    -0.047 A 
ATOM      6  C4  UNL d   1      -2.166  -2.464   3.970  0.00  0.00    -0.004 A 
ENDROOT
TORSDOF 0
ENDMDL
