MODEL 1
REMARK minimizedAffinity 7.28867817
REMARK minimizedRMSD -1
REMARK  0 active torsions:
REMARK  status: ('A' for Active; 'I' for Inactive)
ROOT
ATOM      1  C   UNL d   1      -0.372  -3.481  -5.948  0.00  0.00     0.172 C 
ATOM      2  N   UNL d   1       0.774  -2.602  -5.968  0.00  0.00    -0.070 N 
ATOM      3  C1  UNL d   1       2.084  -3.000  -5.975  0.00  0.00    -0.004 A 
ATOM      4  C2  UNL d   1       2.869  -1.867  -5.995  0.00  0.00    -0.047 A 
ATOM      5  C3  UNL d   1       2.000  -0.750  -5.999  0.00  0.00    -0.047 A 
ATOM      6  C4  UNL d   1       0.709  -1.234  -5.982  0.00  0.00    -0.004 A 
ENDROOT
TORSDOF 0
ENDMDL
