MODEL 1
REMARK minimizedAffinity -0.959689379
REMARK minimizedRMSD -1
REMARK  0 active torsions:
REMARK  status: ('A' for Active; 'I' for Inactive)
ROOT
ATOM      1  C   UNL d   1       0.133   3.432  -0.892  0.00  0.00     0.172 C 
ATOM      2  N   UNL d   1      -0.317   2.901   0.373  0.00  0.00    -0.070 N 
ATOM      3  C1  UNL d   1      -0.165   3.505   1.593  0.00  0.00    -0.004 A 
ATOM      4  C2  UNL d   1      -0.726   2.681   2.545  0.00  0.00    -0.047 A 
ATOM      5  C3  UNL d   1      -1.231   1.542   1.874  0.00  0.00    -0.047 A 
ATOM      6  C4  UNL d   1      -0.965   1.704   0.531  0.00  0.00    -0.004 A 
ENDROOT
TORSDOF 0
ENDMDL
