MODEL 1
REMARK minimizedAffinity -0.133321226
REMARK minimizedRMSD -1
REMARK  0 active torsions:
REMARK  status: ('A' for Active; 'I' for Inactive)
ROOT
ATOM      1  C   UNL d   1      -2.126   0.159   3.104  0.00  0.00     0.172 C 
ATOM      2  N   UNL d   1      -1.553   1.177   2.256  0.00  0.00    -0.070 N 
ATOM      3  C1  UNL d   1      -0.453   1.024   1.455  0.00  0.00    -0.004 A 
ATOM      4  C2  UNL d   1      -0.230   2.221   0.810  0.00  0.00    -0.047 A 
ATOM      5  C3  UNL d   1      -1.230   3.126   1.239  0.00  0.00    -0.047 A 
ATOM      6  C4  UNL d   1      -2.036   2.454   2.134  0.00  0.00    -0.004 A 
ENDROOT
TORSDOF 0
ENDMDL
