MODEL 1
REMARK minimizedAffinity -3.3328886
REMARK minimizedRMSD -1
REMARK  0 active torsions:
REMARK  status: ('A' for Active; 'I' for Inactive)
ROOT
ATOM      1  C   UNL d   1       0.396   4.104   0.007  0.00  0.00     0.172 C 
ATOM      2  N   UNL d   1       0.006   3.201   1.065  0.00  0.00    -0.070 N 
ATOM      3  C1  UNL d   1       0.544   3.165   2.323  0.00  0.00    -0.004 A 
ATOM      4  C2  UNL d   1      -0.096   2.170   3.028  0.00  0.00    -0.047 A 
ATOM      5  C3  UNL d   1      -1.053   1.586   2.163  0.00  0.00    -0.047 A 
ATOM      6  C4  UNL d   1      -0.968   2.244   0.954  0.00  0.00    -0.004 A 
ENDROOT
TORSDOF 0
ENDMDL
