MODEL 1
REMARK minimizedAffinity 1.38587487
REMARK minimizedRMSD -1
REMARK  0 active torsions:
REMARK  status: ('A' for Active; 'I' for Inactive)
ROOT
ATOM      1  C   UNL d   1      -2.235  -1.492   4.749  0.00  0.00     0.172 C 
ATOM      2  N   UNL d   1      -2.035  -0.458   3.761  0.00  0.00    -0.070 N 
ATOM      3  C1  UNL d   1      -2.922  -0.111   2.777  0.00  0.00    -0.004 A 
ATOM      4  C2  UNL d   1      -2.362   0.914   2.046  0.00  0.00    -0.047 A 
ATOM      5  C3  UNL d   1      -1.094   1.193   2.609  0.00  0.00    -0.047 A 
ATOM      6  C4  UNL d   1      -0.917   0.329   3.669  0.00  0.00    -0.004 A 
ENDROOT
TORSDOF 0
ENDMDL
