MODEL 1
REMARK minimizedAffinity -1.06904233
REMARK minimizedRMSD -1
REMARK  0 active torsions:
REMARK  status: ('A' for Active; 'I' for Inactive)
ROOT
ATOM      1  C   UNL d   1       0.400   2.663  -0.316  0.00  0.00     0.172 C 
ATOM      2  N   UNL d   1       0.074   2.375   1.061  0.00  0.00    -0.070 N 
ATOM      3  C1  UNL d   1       0.267   3.220   2.121  0.00  0.00    -0.004 A 
ATOM      4  C2  UNL d   1      -0.172   2.577   3.258  0.00  0.00    -0.047 A 
ATOM      5  C3  UNL d   1      -0.645   1.302   2.868  0.00  0.00    -0.047 A 
ATOM      6  C4  UNL d   1      -0.481   1.203   1.503  0.00  0.00    -0.004 A 
ENDROOT
TORSDOF 0
ENDMDL
