MODEL 1
REMARK minimizedAffinity -2.28248501
REMARK minimizedRMSD -1
REMARK  0 active torsions:
REMARK  status: ('A' for Active; 'I' for Inactive)
ROOT
ATOM      1  C   UNL d   1      -1.456   0.822   2.546  0.00  0.00     0.172 C 
ATOM      2  N   UNL d   1      -0.835   1.794   1.678  0.00  0.00    -0.070 N 
ATOM      3  C1  UNL d   1      -0.546   3.091   2.008  0.00  0.00    -0.004 A 
ATOM      4  C2  UNL d   1       0.040   3.685   0.912  0.00  0.00    -0.047 A 
ATOM      5  C3  UNL d   1       0.106   2.712  -0.113  0.00  0.00    -0.047 A 
ATOM      6  C4  UNL d   1      -0.443   1.550   0.388  0.00  0.00    -0.004 A 
ENDROOT
TORSDOF 0
ENDMDL
