MODEL 1
REMARK minimizedAffinity -4.44292736
REMARK minimizedRMSD -1
REMARK  0 active torsions:
REMARK  status: ('A' for Active; 'I' for Inactive)
ROOT
ATOM      1  C4' PXY d   1      -1.559   0.373   1.919  0.00  0.00     0.077 C 
ATOM      2  C1' PXY d   1       0.282  -0.966  -3.395  0.00  0.00     0.077 C 
ATOM      3  C1  PXY d   1      -0.212  -0.611  -2.006  0.00  0.00    -0.082 A 
ATOM      4  C2  PXY d   1       0.662  -0.356  -1.046  0.00  0.00     0.003 A 
ATOM      5  C3  PXY d   1       0.232  -0.064   0.223  0.00  0.00     0.003 A 
ATOM      6  C4  PXY d   1      -1.106   0.019   0.500  0.00  0.00    -0.082 A 
ATOM      7  C5  PXY d   1      -2.004  -0.229  -0.477  0.00  0.00     0.003 A 
ATOM      8  C6  PXY d   1      -1.548  -0.564  -1.749  0.00  0.00     0.003 A 
ENDROOT
TORSDOF 0
ENDMDL
