MODEL 1
REMARK minimizedAffinity -1.42570615
REMARK minimizedRMSD -1
REMARK  0 active torsions:
REMARK  status: ('A' for Active; 'I' for Inactive)
ROOT
ATOM      1  C4' PXY d   1       0.893  -0.712  -2.188  0.00  0.00     0.077 C 
ATOM      2  C1' PXY d   1      -1.400   0.655   2.940  0.00  0.00     0.077 C 
ATOM      3  C1  PXY d   1      -0.786   0.299   1.600  0.00  0.00    -0.082 A 
ATOM      4  C2  PXY d   1      -1.523   0.373   0.503  0.00  0.00     0.003 A 
ATOM      5  C3  PXY d   1      -0.994   0.024  -0.713  0.00  0.00     0.003 A 
ATOM      6  C4  PXY d   1       0.318  -0.353  -0.814  0.00  0.00    -0.082 A 
ATOM      7  C5  PXY d   1       1.079  -0.421   0.298  0.00  0.00     0.003 A 
ATOM      8  C6  PXY d   1       0.512  -0.103   1.529  0.00  0.00     0.003 A 
ENDROOT
TORSDOF 0
ENDMDL
