MODEL 1
REMARK minimizedAffinity 2.40061378
REMARK minimizedRMSD -1
REMARK  0 active torsions:
REMARK  status: ('A' for Active; 'I' for Inactive)
ROOT
ATOM      1  C4' PXY d   1      -3.023  -2.408  -6.000  0.00  0.00     0.077 C 
ATOM      2  C1' PXY d   1       1.191   1.058  -4.092  0.00  0.00     0.077 C 
ATOM      3  C1  PXY d   1       0.093   0.139  -4.588  0.00  0.00    -0.082 A 
ATOM      4  C2  PXY d   1      -0.708   0.542  -5.561  0.00  0.00     0.003 A 
ATOM      5  C3  PXY d   1      -1.727  -0.264  -6.000  0.00  0.00     0.003 A 
ATOM      6  C4  PXY d   1      -1.894  -1.517  -5.474  0.00  0.00    -0.082 A 
ATOM      7  C5  PXY d   1      -1.075  -1.940  -4.488  0.00  0.00     0.003 A 
ATOM      8  C6  PXY d   1      -0.073  -1.090  -4.028  0.00  0.00     0.003 A 
ENDROOT
TORSDOF 0
ENDMDL
