MODEL 1
REMARK minimizedAffinity 9.91120148
REMARK minimizedRMSD -1
REMARK  1 active torsions:
REMARK  status: ('A' for Active; 'I' for Inactive)
REMARK    1  A    between atoms: N_2  and  C1_3 
ROOT
ATOM      1  C1  UNL d   1      -5.063  -0.865   4.267  0.00  0.00     0.143 A 
ATOM      2  C2  UNL d   1      -4.835   0.144   3.326  0.00  0.00    -0.057 A 
ATOM      3  C3  UNL d   1      -5.152   1.480   3.602  0.00  0.00     0.033 A 
ATOM      4  C4  UNL d   1      -5.733   1.826   4.817  0.00  0.00    -0.042 A 
ATOM      5  C5  UNL d   1      -5.992   0.836   5.758  0.00  0.00     0.033 A 
ATOM      6  C6  UNL d   1      -5.666  -0.495   5.479  0.00  0.00    -0.057 A 
ENDROOT
BRANCH   1   7
ATOM      7  N   UNL d   1      -4.860  -2.224   4.015  0.00  0.00    -0.732 N 
ATOM      8  C   UNL d   1      -5.985  -3.118   3.841  0.00  0.00     0.284 C 
ATOM      9  H3  UNL d   1      -4.094  -2.388   3.365  0.00  0.00     0.395 HD
ENDBRANCH   1   7
TORSDOF 1
ENDMDL
