MODEL 1
REMARK minimizedAffinity 10.6253357
REMARK minimizedRMSD -1
REMARK  1 active torsions:
REMARK  status: ('A' for Active; 'I' for Inactive)
REMARK    1  A    between atoms: N_2  and  C1_3 
ROOT
ATOM      1  C1  UNL d   1       0.236   4.396  -0.022  0.00  0.00     0.143 A 
ATOM      2  C2  UNL d   1       0.844   3.301   0.603  0.00  0.00    -0.057 A 
ATOM      3  C3  UNL d   1       0.198   2.600   1.628  0.00  0.00     0.033 A 
ATOM      4  C4  UNL d   1      -1.060   2.999   2.067  0.00  0.00    -0.042 A 
ATOM      5  C5  UNL d   1      -1.672   4.099   1.478  0.00  0.00     0.033 A 
ATOM      6  C6  UNL d   1      -1.025   4.792   0.450  0.00  0.00    -0.057 A 
ENDROOT
BRANCH   1   7
ATOM      7  N   UNL d   1       0.868   5.194  -0.978  0.00  0.00    -0.732 N 
ATOM      8  C   UNL d   1       0.091   5.937  -1.947  0.00  0.00     0.284 C 
ATOM      9  H3  UNL d   1       1.656   5.710  -0.594  0.00  0.00     0.395 HD
ENDBRANCH   1   7
TORSDOF 1
ENDMDL
