MODEL 1
REMARK minimizedAffinity 7.89785147
REMARK minimizedRMSD -1
REMARK  1 active torsions:
REMARK  status: ('A' for Active; 'I' for Inactive)
REMARK    1  A    between atoms: N_2  and  C1_3 
ROOT
ATOM      1  C1  UNL d   1      -4.355   5.119  -3.760  0.00  0.00     0.143 A 
ATOM      2  C2  UNL d   1      -5.177   3.988  -3.801  0.00  0.00    -0.057 A 
ATOM      3  C3  UNL d   1      -5.981   3.714  -4.913  0.00  0.00     0.033 A 
ATOM      4  C4  UNL d   1      -6.000   4.586  -5.997  0.00  0.00    -0.042 A 
ATOM      5  C5  UNL d   1      -5.210   5.730  -5.968  0.00  0.00     0.033 A 
ATOM      6  C6  UNL d   1      -4.404   5.994  -4.857  0.00  0.00    -0.057 A 
ENDROOT
BRANCH   1   7
ATOM      7  N   UNL d   1      -3.607   5.497  -2.642  0.00  0.00    -0.732 N 
ATOM      8  C   UNL d   1      -2.170   5.331  -2.626  0.00  0.00     0.284 C 
ATOM      9  H3  UNL d   1      -3.929   6.374  -2.239  0.00  0.00     0.395 HD
ENDBRANCH   1   7
TORSDOF 1
ENDMDL
