MODEL 1
REMARK minimizedAffinity 7.43482351
REMARK minimizedRMSD -1
REMARK  1 active torsions:
REMARK  status: ('A' for Active; 'I' for Inactive)
REMARK    1  A    between atoms: N_2  and  C1_3 
ROOT
ATOM      1  C1  UNL d   1      -0.455   3.740   1.136  0.00  0.00     0.143 A 
ATOM      2  C2  UNL d   1      -1.295   4.841   1.336  0.00  0.00    -0.057 A 
ATOM      3  C3  UNL d   1      -1.246   5.955   0.490  0.00  0.00     0.033 A 
ATOM      4  C4  UNL d   1      -0.334   5.999  -0.559  0.00  0.00    -0.042 A 
ATOM      5  C5  UNL d   1       0.528   4.927  -0.762  0.00  0.00     0.033 A 
ATOM      6  C6  UNL d   1       0.470   3.815   0.083  0.00  0.00    -0.057 A 
ENDROOT
BRANCH   1   7
ATOM      7  N   UNL d   1      -0.387   2.645   2.001  0.00  0.00    -0.732 N 
ATOM      8  C   UNL d   1       0.844   2.327   2.692  0.00  0.00     0.284 C 
ATOM      9  H3  UNL d   1      -1.222   2.552   2.575  0.00  0.00     0.395 HD
ENDBRANCH   1   7
TORSDOF 1
ENDMDL
