MODEL 1
REMARK minimizedAffinity 3.55980468
REMARK minimizedRMSD -1
REMARK  1 active torsions:
REMARK  status: ('A' for Active; 'I' for Inactive)
REMARK    1  A    between atoms: N_2  and  C1_3 
ROOT
ATOM      1  C1  UNL d   1      -6.000  -2.292   5.275  0.00  0.00     0.143 A 
ATOM      2  C2  UNL d   1      -5.960  -1.040   5.898  0.00  0.00    -0.057 A 
ATOM      3  C3  UNL d   1      -5.956   0.144   5.150  0.00  0.00     0.033 A 
ATOM      4  C4  UNL d   1      -5.961   0.095   3.760  0.00  0.00    -0.042 A 
ATOM      5  C5  UNL d   1      -5.975  -1.139   3.119  0.00  0.00     0.033 A 
ATOM      6  C6  UNL d   1      -5.986  -2.317   3.872  0.00  0.00    -0.057 A 
ENDROOT
BRANCH   1   7
ATOM      7  N   UNL d   1      -5.907  -3.505   5.961  0.00  0.00    -0.732 N 
ATOM      8  C   UNL d   1      -5.999  -4.763   5.251  0.00  0.00     0.284 C 
ATOM      9  H3  UNL d   1      -5.192  -3.489   6.685  0.00  0.00     0.395 HD
ENDBRANCH   1   7
TORSDOF 1
ENDMDL
