MODEL 1
REMARK minimizedAffinity 5.26653576
REMARK minimizedRMSD -1
REMARK  1 active torsions:
REMARK  status: ('A' for Active; 'I' for Inactive)
REMARK    1  A    between atoms: N_2  and  C1_3 
ROOT
ATOM      1  C1  UNL d   1      -3.673   0.163   2.698  0.00  0.00     0.143 A 
ATOM      2  C2  UNL d   1      -3.381  -0.963   3.475  0.00  0.00    -0.057 A 
ATOM      3  C3  UNL d   1      -4.380  -1.622   4.202  0.00  0.00     0.033 A 
ATOM      4  C4  UNL d   1      -5.687  -1.148   4.188  0.00  0.00    -0.042 A 
ATOM      5  C5  UNL d   1      -5.995  -0.015   3.443  0.00  0.00     0.033 A 
ATOM      6  C6  UNL d   1      -4.995   0.635   2.714  0.00  0.00    -0.057 A 
ENDROOT
BRANCH   1   7
ATOM      7  N   UNL d   1      -2.706   0.920   2.032  0.00  0.00    -0.732 N 
ATOM      8  C   UNL d   1      -1.697   0.276   1.219  0.00  0.00     0.284 C 
ATOM      9  H3  UNL d   1      -3.091   1.768   1.623  0.00  0.00     0.395 HD
ENDBRANCH   1   7
TORSDOF 1
ENDMDL
