MODEL 1
REMARK minimizedAffinity 1.47839928
REMARK minimizedRMSD -1
REMARK  0 active torsions:
REMARK  status: ('A' for Active; 'I' for Inactive)
ROOT
ATOM      1  C   UNL d   1       1.852  -5.828  -5.027  0.00  0.00     0.077 C 
ATOM      2  C1  UNL d   1       3.301  -5.440  -5.043  0.00  0.00    -0.074 A 
ATOM      3  C2  UNL d   1       4.183  -5.994  -5.976  0.00  0.00    -0.005 A 
ATOM      4  C3  UNL d   1       5.526  -5.616  -5.985  0.00  0.00     0.006 A 
ATOM      5  C4  UNL d   1       5.999  -4.682  -5.062  0.00  0.00    -0.005 A 
ATOM      6  C5  UNL d   1       5.131  -4.116  -4.123  0.00  0.00    -0.074 A 
ATOM      7  C6  UNL d   1       5.621  -3.103  -3.131  0.00  0.00     0.077 C 
ATOM      8  C7  UNL d   1       3.782  -4.496  -4.125  0.00  0.00    -0.001 A 
ENDROOT
TORSDOF 0
ENDMDL
