MODEL 1
REMARK minimizedAffinity 6.86300087
REMARK minimizedRMSD -1
REMARK  0 active torsions:
REMARK  status: ('A' for Active; 'I' for Inactive)
ROOT
ATOM      1  C   UNL d   1       6.000   1.686   3.987  0.00  0.00     0.077 C 
ATOM      2  C1  UNL d   1       5.030   1.852   2.855  0.00  0.00    -0.074 A 
ATOM      3  C2  UNL d   1       3.657   1.667   3.052  0.00  0.00    -0.005 A 
ATOM      4  C3  UNL d   1       2.766   1.835   1.993  0.00  0.00     0.006 A 
ATOM      5  C4  UNL d   1       3.237   2.188   0.727  0.00  0.00    -0.005 A 
ATOM      6  C5  UNL d   1       4.606   2.378   0.512  0.00  0.00    -0.074 A 
ATOM      7  C6  UNL d   1       5.128   2.767  -0.839  0.00  0.00     0.077 C 
ATOM      8  C7  UNL d   1       5.494   2.214   1.583  0.00  0.00    -0.001 A 
ENDROOT
TORSDOF 0
ENDMDL
