MODEL 1
REMARK minimizedAffinity 9.74832439
REMARK minimizedRMSD -1
REMARK  0 active torsions:
REMARK  status: ('A' for Active; 'I' for Inactive)
ROOT
ATOM      1  C   UNL d   1       1.803  -5.294  -4.667  0.00  0.00     0.077 C 
ATOM      2  C1  UNL d   1       3.267  -5.084  -4.918  0.00  0.00    -0.074 A 
ATOM      3  C2  UNL d   1       4.005  -5.997  -5.678  0.00  0.00    -0.005 A 
ATOM      4  C3  UNL d   1       5.363  -5.783  -5.911  0.00  0.00     0.006 A 
ATOM      5  C4  UNL d   1       5.997  -4.655  -5.387  0.00  0.00    -0.005 A 
ATOM      6  C5  UNL d   1       5.275  -3.731  -4.625  0.00  0.00    -0.074 A 
ATOM      7  C6  UNL d   1       5.938  -2.509  -4.063  0.00  0.00     0.077 C 
ATOM      8  C7  UNL d   1       3.909  -3.949  -4.402  0.00  0.00    -0.001 A 
ENDROOT
TORSDOF 0
ENDMDL
