MODEL 1
REMARK minimizedAffinity 9.99511528
REMARK minimizedRMSD -1
REMARK  0 active torsions:
REMARK  status: ('A' for Active; 'I' for Inactive)
ROOT
ATOM      1  C   UNL d   1       0.881  -4.703  -2.473  0.00  0.00     0.077 C 
ATOM      2  C1  UNL d   1       1.611  -5.160  -3.701  0.00  0.00    -0.074 A 
ATOM      3  C2  UNL d   1       0.913  -5.584  -4.836  0.00  0.00    -0.005 A 
ATOM      4  C3  UNL d   1       1.605  -5.998  -5.974  0.00  0.00     0.006 A 
ATOM      5  C4  UNL d   1       3.000  -5.991  -5.988  0.00  0.00    -0.005 A 
ATOM      6  C5  UNL d   1       3.716  -5.570  -4.863  0.00  0.00    -0.074 A 
ATOM      7  C6  UNL d   1       5.215  -5.547  -4.865  0.00  0.00     0.077 C 
ATOM      8  C7  UNL d   1       3.013  -5.149  -3.726  0.00  0.00    -0.001 A 
ENDROOT
TORSDOF 0
ENDMDL
