MODEL 1
REMARK minimizedAffinity 4.37864208
REMARK minimizedRMSD -1
REMARK  0 active torsions:
REMARK  status: ('A' for Active; 'I' for Inactive)
ROOT
ATOM      1  C   UNL d   1       2.586   1.844   1.503  0.00  0.00     0.077 C 
ATOM      2  C1  UNL d   1       1.138   2.207   1.356  0.00  0.00    -0.074 A 
ATOM      3  C2  UNL d   1       0.609   2.562   0.111  0.00  0.00    -0.005 A 
ATOM      4  C3  UNL d   1      -0.741   2.889  -0.013  0.00  0.00     0.006 A 
ATOM      5  C4  UNL d   1      -1.575   2.864   1.106  0.00  0.00    -0.005 A 
ATOM      6  C5  UNL d   1      -1.064   2.511   2.359  0.00  0.00    -0.074 A 
ATOM      7  C6  UNL d   1      -1.949   2.470   3.569  0.00  0.00     0.077 C 
ATOM      8  C7  UNL d   1       0.292   2.177   2.473  0.00  0.00    -0.001 A 
ENDROOT
TORSDOF 0
ENDMDL
