MODEL 1
REMARK minimizedAffinity 8.19256306
REMARK minimizedRMSD -1
REMARK  0 active torsions:
REMARK  status: ('A' for Active; 'I' for Inactive)
ROOT
ATOM      1  C   UNL d   1      -1.271   3.367   0.363  0.00  0.00     0.077 C 
ATOM      2  C1  UNL d   1       0.006   2.905   1.000  0.00  0.00    -0.074 A 
ATOM      3  C2  UNL d   1       0.034   2.492   2.336  0.00  0.00    -0.005 A 
ATOM      4  C3  UNL d   1       1.227   2.056   2.912  0.00  0.00     0.006 A 
ATOM      5  C4  UNL d   1       2.402   2.027   2.159  0.00  0.00    -0.005 A 
ATOM      6  C5  UNL d   1       2.392   2.435   0.822  0.00  0.00    -0.074 A 
ATOM      7  C6  UNL d   1       3.644   2.401  -0.004  0.00  0.00     0.077 C 
ATOM      8  C7  UNL d   1       1.188   2.866   0.248  0.00  0.00    -0.001 A 
ENDROOT
TORSDOF 0
ENDMDL
