MODEL 1
REMARK minimizedAffinity 4.73790455
REMARK minimizedRMSD -1
REMARK  0 active torsions:
REMARK  status: ('A' for Active; 'I' for Inactive)
ROOT
ATOM      1  C   UNL d   1      -0.618   3.620  -0.901  0.00  0.00     0.077 C 
ATOM      2  C1  UNL d   1       0.536   3.069  -0.117  0.00  0.00    -0.074 A 
ATOM      3  C2  UNL d   1       0.351   2.566   1.175  0.00  0.00    -0.005 A 
ATOM      4  C3  UNL d   1       1.432   2.048   1.889  0.00  0.00     0.006 A 
ATOM      5  C4  UNL d   1       2.705   2.028   1.320  0.00  0.00    -0.005 A 
ATOM      6  C5  UNL d   1       2.909   2.526   0.029  0.00  0.00    -0.074 A 
ATOM      7  C6  UNL d   1       4.270   2.503  -0.602  0.00  0.00     0.077 C 
ATOM      8  C7  UNL d   1       1.817   3.038  -0.685  0.00  0.00    -0.001 A 
ENDROOT
TORSDOF 0
ENDMDL
