MODEL 1
REMARK minimizedAffinity 14.3347006
REMARK minimizedRMSD -1
REMARK  0 active torsions:
REMARK  status: ('A' for Active; 'I' for Inactive)
ROOT
ATOM      1  C   UNL d   1       1.869   5.985   0.027  0.00  0.00     0.077 C 
ATOM      2  C1  UNL d   1       1.623   4.562   0.429  0.00  0.00    -0.074 A 
ATOM      3  C2  UNL d   1       0.367   3.971   0.252  0.00  0.00    -0.005 A 
ATOM      4  C3  UNL d   1       0.156   2.643   0.622  0.00  0.00     0.006 A 
ATOM      5  C4  UNL d   1       1.196   1.893   1.172  0.00  0.00    -0.005 A 
ATOM      6  C5  UNL d   1       2.458   2.466   1.356  0.00  0.00    -0.074 A 
ATOM      7  C6  UNL d   1       3.589   1.671   1.937  0.00  0.00     0.077 C 
ATOM      8  C7  UNL d   1       2.664   3.799   0.976  0.00  0.00    -0.001 A 
ENDROOT
TORSDOF 0
ENDMDL
