MODEL 1
REMARK minimizedAffinity 6.99583244
REMARK minimizedRMSD -1
REMARK  0 active torsions:
REMARK  status: ('A' for Active; 'I' for Inactive)
ROOT
ATOM      1  C   UNL d   1       5.028   1.403   3.636  0.00  0.00     0.077 C 
ATOM      2  C1  UNL d   1       3.865   1.395   2.690  0.00  0.00    -0.074 A 
ATOM      3  C2  UNL d   1       2.562   1.612   3.149  0.00  0.00    -0.005 A 
ATOM      4  C3  UNL d   1       1.491   1.611   2.255  0.00  0.00     0.006 A 
ATOM      5  C4  UNL d   1       1.712   1.393   0.895  0.00  0.00    -0.005 A 
ATOM      6  C5  UNL d   1       3.008   1.174   0.417  0.00  0.00    -0.074 A 
ATOM      7  C6  UNL d   1       3.263   0.948  -1.044  0.00  0.00     0.077 C 
ATOM      8  C7  UNL d   1       4.079   1.184   1.320  0.00  0.00    -0.001 A 
ENDROOT
TORSDOF 0
ENDMDL
