MODEL 1
REMARK minimizedAffinity 10.0923719
REMARK minimizedRMSD -1
REMARK  0 active torsions:
REMARK  status: ('A' for Active; 'I' for Inactive)
ROOT
ATOM      1  C   UNL d   1       4.535   1.576   4.799  0.00  0.00     0.077 C 
ATOM      2  C1  UNL d   1       3.330   1.375   3.929  0.00  0.00    -0.074 A 
ATOM      3  C2  UNL d   1       2.059   1.209   4.488  0.00  0.00    -0.005 A 
ATOM      4  C3  UNL d   1       0.946   1.033   3.666  0.00  0.00     0.006 A 
ATOM      5  C4  UNL d   1       1.093   1.020   2.278  0.00  0.00    -0.005 A 
ATOM      6  C5  UNL d   1       2.356   1.185   1.701  0.00  0.00    -0.074 A 
ATOM      7  C6  UNL d   1       2.529   1.183   0.211  0.00  0.00     0.077 C 
ATOM      8  C7  UNL d   1       3.468   1.369   2.533  0.00  0.00    -0.001 A 
ENDROOT
TORSDOF 0
ENDMDL
