MODEL 1
REMARK minimizedAffinity 2.1225698
REMARK minimizedRMSD -1
REMARK  0 active torsions:
REMARK  status: ('A' for Active; 'I' for Inactive)
ROOT
ATOM      1  C   UNL d   1       4.100   1.281   4.130  0.00  0.00     0.077 C 
ATOM      2  C1  UNL d   1       4.562   2.673   4.446  0.00  0.00    -0.074 A 
ATOM      3  C2  UNL d   1       5.026   3.003   5.723  0.00  0.00    -0.005 A 
ATOM      4  C3  UNL d   1       5.461   4.299   6.000  0.00  0.00     0.006 A 
ATOM      5  C4  UNL d   1       5.436   5.276   5.004  0.00  0.00    -0.005 A 
ATOM      6  C5  UNL d   1       4.976   4.964   3.721  0.00  0.00    -0.074 A 
ATOM      7  C6  UNL d   1       4.952   6.000   2.636  0.00  0.00     0.077 C 
ATOM      8  C7  UNL d   1       4.547   3.658   3.449  0.00  0.00    -0.001 A 
ENDROOT
TORSDOF 0
ENDMDL
