MODEL 1
REMARK minimizedAffinity -2.48963618
REMARK minimizedRMSD -1
REMARK  0 active torsions:
REMARK  status: ('A' for Active; 'I' for Inactive)
ROOT
ATOM      1  C   UNL d   1       0.440   2.287  -5.990  0.00  0.00     0.077 C 
ATOM      2  C1  UNL d   1       1.688   2.624  -5.230  0.00  0.00    -0.074 A 
ATOM      3  C2  UNL d   1       1.702   2.619  -3.832  0.00  0.00    -0.005 A 
ATOM      4  C3  UNL d   1       2.874   2.926  -3.139  0.00  0.00     0.006 A 
ATOM      5  C4  UNL d   1       4.041   3.239  -3.836  0.00  0.00    -0.005 A 
ATOM      6  C5  UNL d   1       4.046   3.248  -5.235  0.00  0.00    -0.074 A 
ATOM      7  C6  UNL d   1       5.295   3.573  -6.000  0.00  0.00     0.077 C 
ATOM      8  C7  UNL d   1       2.867   2.932  -5.924  0.00  0.00    -0.001 A 
ENDROOT
TORSDOF 0
ENDMDL
