MODEL 1
REMARK minimizedAffinity 0.962515593
REMARK minimizedRMSD -1
REMARK  0 active torsions:
REMARK  status: ('A' for Active; 'I' for Inactive)
ROOT
ATOM      1  C   UNL d   1       1.702  -4.994  -5.404  0.00  0.00     0.077 C 
ATOM      2  C1  UNL d   1       3.200  -5.010  -5.332  0.00  0.00    -0.074 A 
ATOM      3  C2  UNL d   1       3.941  -6.000  -5.986  0.00  0.00    -0.005 A 
ATOM      4  C3  UNL d   1       5.334  -5.996  -5.918  0.00  0.00     0.006 A 
ATOM      5  C4  UNL d   1       6.000  -5.005  -5.196  0.00  0.00    -0.005 A 
ATOM      6  C5  UNL d   1       5.276  -4.007  -4.536  0.00  0.00    -0.074 A 
ATOM      7  C6  UNL d   1       5.977  -2.928  -3.764  0.00  0.00     0.077 C 
ATOM      8  C7  UNL d   1       3.877  -4.013  -4.615  0.00  0.00    -0.001 A 
ENDROOT
TORSDOF 0
ENDMDL
