MODEL 1
REMARK minimizedAffinity 3.18357515
REMARK minimizedRMSD -1
REMARK  0 active torsions:
REMARK  status: ('A' for Active; 'I' for Inactive)
ROOT
ATOM      1  C   UNL d   1       4.736   5.979   5.149  0.00  0.00     0.077 C 
ATOM      2  C1  UNL d   1       4.767   5.985   3.650  0.00  0.00    -0.074 A 
ATOM      3  C2  UNL d   1       5.981   5.969   2.955  0.00  0.00    -0.005 A 
ATOM      4  C3  UNL d   1       5.993   5.965   1.561  0.00  0.00     0.006 A 
ATOM      5  C4  UNL d   1       4.794   5.978   0.847  0.00  0.00    -0.005 A 
ATOM      6  C5  UNL d   1       3.570   5.994   1.525  0.00  0.00    -0.074 A 
ATOM      7  C6  UNL d   1       2.272   5.997   0.773  0.00  0.00     0.077 C 
ATOM      8  C7  UNL d   1       3.566   5.990   2.926  0.00  0.00    -0.001 A 
ENDROOT
TORSDOF 0
ENDMDL
