MODEL 1
REMARK minimizedAffinity 1.37882316
REMARK minimizedRMSD -1
REMARK  0 active torsions:
REMARK  status: ('A' for Active; 'I' for Inactive)
ROOT
ATOM      1  C   UNL d   1       4.617   5.967   3.488  0.00  0.00     0.077 C 
ATOM      2  C1  UNL d   1       4.283   5.680   2.055  0.00  0.00    -0.074 A 
ATOM      3  C2  UNL d   1       3.026   6.000   1.532  0.00  0.00    -0.005 A 
ATOM      4  C3  UNL d   1       2.732   5.735   0.194  0.00  0.00     0.006 A 
ATOM      5  C4  UNL d   1       3.691   5.149  -0.633  0.00  0.00    -0.005 A 
ATOM      6  C5  UNL d   1       4.954   4.823  -0.128  0.00  0.00    -0.074 A 
ATOM      7  C6  UNL d   1       5.999   4.202  -1.006  0.00  0.00     0.077 C 
ATOM      8  C7  UNL d   1       5.243   5.098   1.215  0.00  0.00    -0.001 A 
ENDROOT
TORSDOF 0
ENDMDL
