MODEL 1
REMARK minimizedAffinity 9.88036919
REMARK minimizedRMSD -1
REMARK  0 active torsions:
REMARK  status: ('A' for Active; 'I' for Inactive)
ROOT
ATOM      1  C   UNL d   1      -1.805   2.082   3.519  0.00  0.00     0.077 C 
ATOM      2  C1  UNL d   1      -0.967   2.223   2.283  0.00  0.00    -0.074 A 
ATOM      3  C2  UNL d   1      -1.471   2.855   1.142  0.00  0.00    -0.005 A 
ATOM      4  C3  UNL d   1      -0.677   2.987   0.002  0.00  0.00     0.006 A 
ATOM      5  C4  UNL d   1       0.627   2.489  -0.007  0.00  0.00    -0.005 A 
ATOM      6  C5  UNL d   1       1.148   1.855   1.125  0.00  0.00    -0.074 A 
ATOM      7  C6  UNL d   1       2.550   1.323   1.135  0.00  0.00     0.077 C 
ATOM      8  C7  UNL d   1       0.346   1.732   2.268  0.00  0.00    -0.001 A 
ENDROOT
TORSDOF 0
ENDMDL
