MODEL 1
REMARK minimizedAffinity 8.62977505
REMARK minimizedRMSD -1
REMARK  0 active torsions:
REMARK  status: ('A' for Active; 'I' for Inactive)
ROOT
ATOM      1  C   UNL d   1       3.626   5.999   2.274  0.00  0.00     0.077 C 
ATOM      2  C1  UNL d   1       3.063   4.671   1.864  0.00  0.00    -0.074 A 
ATOM      3  C2  UNL d   1       3.855   3.518   1.881  0.00  0.00    -0.005 A 
ATOM      4  C3  UNL d   1       3.315   2.289   1.506  0.00  0.00     0.006 A 
ATOM      5  C4  UNL d   1       1.980   2.199   1.110  0.00  0.00    -0.005 A 
ATOM      6  C5  UNL d   1       1.173   3.341   1.087  0.00  0.00    -0.074 A 
ATOM      7  C6  UNL d   1      -0.267   3.260   0.674  0.00  0.00     0.077 C 
ATOM      8  C7  UNL d   1       1.721   4.572   1.473  0.00  0.00    -0.001 A 
ENDROOT
TORSDOF 0
ENDMDL
