MODEL 1
REMARK minimizedAffinity 10.6634493
REMARK minimizedRMSD -1
REMARK  1 active torsions:
REMARK  status: ('A' for Active; 'I' for Inactive)
REMARK    1  A    between atoms: C1_2  and  C2_3 
ROOT
ATOM      1  C2  UNL d   1      -0.890  -4.056  -3.402  0.00  0.00    -0.081 A 
ATOM      2  C3  UNL d   1      -2.143  -4.027  -2.779  0.00  0.00     0.006 A 
ATOM      3  C4  UNL d   1      -3.306  -3.858  -3.534  0.00  0.00     0.002 A 
ATOM      4  C5  UNL d   1      -3.237  -3.724  -4.924  0.00  0.00    -0.080 A 
ATOM      5  C6  UNL d   1      -4.480  -3.573  -5.750  0.00  0.00     0.076 C 
ATOM      6  C7  UNL d   1      -1.983  -3.735  -5.546  0.00  0.00     0.002 A 
ATOM      7  C8  UNL d   1      -0.820  -3.903  -4.791  0.00  0.00     0.006 A 
ENDROOT
BRANCH   1   8
ATOM      8  C1  UNL d   1       0.361  -4.302  -2.598  0.00  0.00     0.054 C 
ATOM      9  C   UNL d   1       0.940  -3.000  -2.063  0.00  0.00     0.018 C 
ENDBRANCH   1   8
TORSDOF 1
ENDMDL
