MODEL 1
REMARK minimizedAffinity 5.0284338
REMARK minimizedRMSD -1
REMARK  1 active torsions:
REMARK  status: ('A' for Active; 'I' for Inactive)
REMARK    1  A    between atoms: C1_2  and  C2_3 
ROOT
ATOM      1  C2  UNL d   1      -2.804  -4.124  -5.072  0.00  0.00    -0.081 A 
ATOM      2  C3  UNL d   1      -1.503  -3.846  -5.510  0.00  0.00     0.006 A 
ATOM      3  C4  UNL d   1      -0.410  -4.071  -4.669  0.00  0.00     0.002 A 
ATOM      4  C5  UNL d   1      -0.599  -4.584  -3.382  0.00  0.00    -0.080 A 
ATOM      5  C6  UNL d   1       0.568  -4.858  -2.480  0.00  0.00     0.076 C 
ATOM      6  C7  UNL d   1      -1.900  -4.845  -2.938  0.00  0.00     0.002 A 
ATOM      7  C8  UNL d   1      -2.993  -4.619  -3.778  0.00  0.00     0.006 A 
ENDROOT
BRANCH   1   8
ATOM      8  C1  UNL d   1      -3.979  -3.943  -5.999  0.00  0.00     0.054 C 
ATOM      9  C   UNL d   1      -4.471  -2.503  -5.996  0.00  0.00     0.018 C 
ENDBRANCH   1   8
TORSDOF 1
ENDMDL
