MODEL 1
REMARK minimizedAffinity 14.3611403
REMARK minimizedRMSD -1
REMARK  1 active torsions:
REMARK  status: ('A' for Active; 'I' for Inactive)
REMARK    1  A    between atoms: C1_2  and  C2_3 
ROOT
ATOM      1  C2  UNL d   1      -2.566  -4.262  -3.876  0.00  0.00    -0.081 A 
ATOM      2  C3  UNL d   1      -3.560  -5.108  -4.384  0.00  0.00     0.006 A 
ATOM      3  C4  UNL d   1      -4.664  -4.578  -5.058  0.00  0.00     0.002 A 
ATOM      4  C5  UNL d   1      -4.787  -3.197  -5.242  0.00  0.00    -0.080 A 
ATOM      5  C6  UNL d   1      -5.951  -2.618  -5.989  0.00  0.00     0.076 C 
ATOM      6  C7  UNL d   1      -3.803  -2.351  -4.719  0.00  0.00     0.002 A 
ATOM      7  C8  UNL d   1      -2.700  -2.880  -4.044  0.00  0.00     0.006 A 
ENDROOT
BRANCH   1   8
ATOM      8  C1  UNL d   1      -1.343  -4.834  -3.206  0.00  0.00     0.054 C 
ATOM      9  C   UNL d   1      -1.722  -5.829  -2.118  0.00  0.00     0.018 C 
ENDBRANCH   1   8
TORSDOF 1
ENDMDL
