MODEL 1
REMARK minimizedAffinity 13.5468273
REMARK minimizedRMSD -1
REMARK  1 active torsions:
REMARK  status: ('A' for Active; 'I' for Inactive)
REMARK    1  A    between atoms: C1_2  and  C2_3 
ROOT
ATOM      1  C2  UNL d   1      -3.905   1.927   4.010  0.00  0.00    -0.081 A 
ATOM      2  C3  UNL d   1      -3.821   0.656   3.429  0.00  0.00     0.006 A 
ATOM      3  C4  UNL d   1      -2.639   0.235   2.815  0.00  0.00     0.002 A 
ATOM      4  C5  UNL d   1      -1.520   1.074   2.778  0.00  0.00    -0.080 A 
ATOM      5  C6  UNL d   1      -0.236   0.623   2.149  0.00  0.00     0.076 C 
ATOM      6  C7  UNL d   1      -1.610   2.351   3.343  0.00  0.00     0.002 A 
ATOM      7  C8  UNL d   1      -2.792   2.773   3.956  0.00  0.00     0.006 A 
ENDROOT
BRANCH   1   8
ATOM      8  C1  UNL d   1      -5.157   2.359   4.730  0.00  0.00     0.054 C 
ATOM      9  C   UNL d   1      -4.827   3.135   5.997  0.00  0.00     0.018 C 
ENDBRANCH   1   8
TORSDOF 1
ENDMDL
