MODEL 1
REMARK minimizedAffinity 9.49751854
REMARK minimizedRMSD -1
REMARK  1 active torsions:
REMARK  status: ('A' for Active; 'I' for Inactive)
REMARK    1  A    between atoms: C1_2  and  C2_3 
ROOT
ATOM      1  C2  UNL d   1       1.334  -3.091  -2.287  0.00  0.00    -0.081 A 
ATOM      2  C3  UNL d   1       1.980  -3.015  -1.046  0.00  0.00     0.006 A 
ATOM      3  C4  UNL d   1       2.528  -1.808  -0.606  0.00  0.00     0.002 A 
ATOM      4  C5  UNL d   1       2.432  -0.656  -1.394  0.00  0.00    -0.080 A 
ATOM      5  C6  UNL d   1       2.990   0.653  -0.920  0.00  0.00     0.076 C 
ATOM      6  C7  UNL d   1       1.803  -0.736  -2.641  0.00  0.00     0.002 A 
ATOM      7  C8  UNL d   1       1.256  -1.943  -3.082  0.00  0.00     0.006 A 
ENDROOT
BRANCH   1   8
ATOM      8  C1  UNL d   1       0.686  -4.376  -2.735  0.00  0.00     0.054 C 
ATOM      9  C   UNL d   1      -0.832  -4.271  -2.700  0.00  0.00     0.018 C 
ENDBRANCH   1   8
TORSDOF 1
ENDMDL
