MODEL 1
REMARK minimizedAffinity 17.0232544
REMARK minimizedRMSD -1
REMARK  1 active torsions:
REMARK  status: ('A' for Active; 'I' for Inactive)
REMARK    1  A    between atoms: C1_2  and  C2_3 
ROOT
ATOM      1  C2  UNL d   1      -1.710   0.673   3.056  0.00  0.00    -0.081 A 
ATOM      2  C3  UNL d   1      -2.002   2.024   2.837  0.00  0.00     0.006 A 
ATOM      3  C4  UNL d   1      -3.238   2.553   3.215  0.00  0.00     0.002 A 
ATOM      4  C5  UNL d   1      -4.200   1.741   3.826  0.00  0.00    -0.080 A 
ATOM      5  C6  UNL d   1      -5.520   2.303   4.265  0.00  0.00     0.076 C 
ATOM      6  C7  UNL d   1      -3.916   0.386   4.029  0.00  0.00     0.002 A 
ATOM      7  C8  UNL d   1      -2.680  -0.143   3.651  0.00  0.00     0.006 A 
ENDROOT
BRANCH   1   8
ATOM      8  C1  UNL d   1      -0.354   0.115   2.708  0.00  0.00     0.054 C 
ATOM      9  C   UNL d   1       0.690   0.514   3.742  0.00  0.00     0.018 C 
ENDBRANCH   1   8
TORSDOF 1
ENDMDL
