MODEL 1
REMARK minimizedAffinity 13.3634892
REMARK minimizedRMSD -1
REMARK  1 active torsions:
REMARK  status: ('A' for Active; 'I' for Inactive)
REMARK    1  A    between atoms: C1_2  and  C2_3 
ROOT
ATOM      1  C2  UNL d   1       2.434  -0.950  -3.015  0.00  0.00    -0.081 A 
ATOM      2  C3  UNL d   1       2.436   0.450  -2.982  0.00  0.00     0.006 A 
ATOM      3  C4  UNL d   1       2.730   1.130  -1.798  0.00  0.00     0.002 A 
ATOM      4  C5  UNL d   1       3.036   0.422  -0.630  0.00  0.00    -0.080 A 
ATOM      5  C6  UNL d   1       3.384   1.140   0.640  0.00  0.00     0.076 C 
ATOM      6  C7  UNL d   1       3.018  -0.977  -0.659  0.00  0.00     0.002 A 
ATOM      7  C8  UNL d   1       2.722  -1.657  -1.843  0.00  0.00     0.006 A 
ENDROOT
BRANCH   1   8
ATOM      8  C1  UNL d   1       2.180  -1.685  -4.306  0.00  0.00     0.054 C 
ATOM      9  C   UNL d   1       3.327  -1.491  -5.288  0.00  0.00     0.018 C 
ENDBRANCH   1   8
TORSDOF 1
ENDMDL
