MODEL 1
REMARK minimizedAffinity 18.5342751
REMARK minimizedRMSD -1
REMARK  1 active torsions:
REMARK  status: ('A' for Active; 'I' for Inactive)
REMARK    1  A    between atoms: C1_2  and  C2_3 
ROOT
ATOM      1  C2  UNL d   1       0.480  -1.768  -3.295  0.00  0.00    -0.081 A 
ATOM      2  C3  UNL d   1       1.293  -0.745  -2.791  0.00  0.00     0.006 A 
ATOM      3  C4  UNL d   1       2.323  -0.212  -3.568  0.00  0.00     0.002 A 
ATOM      4  C5  UNL d   1       2.553  -0.686  -4.864  0.00  0.00    -0.080 A 
ATOM      5  C6  UNL d   1       3.637  -0.101  -5.720  0.00  0.00     0.076 C 
ATOM      6  C7  UNL d   1       1.752  -1.720  -5.361  0.00  0.00     0.002 A 
ATOM      7  C8  UNL d   1       0.722  -2.254  -4.584  0.00  0.00     0.006 A 
ENDROOT
BRANCH   1   8
ATOM      8  C1  UNL d   1      -0.674  -2.301  -2.483  0.00  0.00     0.054 C 
ATOM      9  C   UNL d   1      -0.679  -3.823  -2.462  0.00  0.00     0.018 C 
ENDBRANCH   1   8
TORSDOF 1
ENDMDL
