MODEL 1
REMARK minimizedAffinity 19.8156948
REMARK minimizedRMSD -1
REMARK  1 active torsions:
REMARK  status: ('A' for Active; 'I' for Inactive)
REMARK    1  A    between atoms: C1_2  and  C2_3 
ROOT
ATOM      1  C2  UNL d   1      -3.111   1.528   4.051  0.00  0.00    -0.081 A 
ATOM      2  C3  UNL d   1      -2.071   1.507   4.989  0.00  0.00     0.006 A 
ATOM      3  C4  UNL d   1      -0.756   1.265   4.584  0.00  0.00     0.002 A 
ATOM      4  C5  UNL d   1      -0.458   1.047   3.235  0.00  0.00    -0.080 A 
ATOM      5  C6  UNL d   1       0.953   0.816   2.782  0.00  0.00     0.076 C 
ATOM      6  C7  UNL d   1      -1.499   1.051   2.300  0.00  0.00     0.002 A 
ATOM      7  C8  UNL d   1      -2.814   1.292   2.704  0.00  0.00     0.006 A 
ENDROOT
BRANCH   1   8
ATOM      8  C1  UNL d   1      -4.520   1.853   4.476  0.00  0.00     0.054 C 
ATOM      9  C   UNL d   1      -4.538   2.625   5.788  0.00  0.00     0.018 C 
ENDBRANCH   1   8
TORSDOF 1
ENDMDL
