MODEL 1
REMARK minimizedAffinity 5.68944263
REMARK minimizedRMSD -1
REMARK  1 active torsions:
REMARK  status: ('A' for Active; 'I' for Inactive)
REMARK    1  A    between atoms: C1_2  and  C2_3 
ROOT
ATOM      1  C2  UNL d   1      -1.677  -3.827  -4.126  0.00  0.00    -0.081 A 
ATOM      2  C3  UNL d   1      -2.537  -4.875  -3.773  0.00  0.00     0.006 A 
ATOM      3  C4  UNL d   1      -3.795  -4.990  -4.368  0.00  0.00     0.002 A 
ATOM      4  C5  UNL d   1      -4.212  -4.065  -5.331  0.00  0.00    -0.080 A 
ATOM      5  C6  UNL d   1      -5.548  -4.194  -6.000  0.00  0.00     0.076 C 
ATOM      6  C7  UNL d   1      -3.360  -3.008  -5.671  0.00  0.00     0.002 A 
ATOM      7  C8  UNL d   1      -2.102  -2.892  -5.076  0.00  0.00     0.006 A 
ENDROOT
BRANCH   1   8
ATOM      8  C1  UNL d   1      -0.294  -3.738  -3.533  0.00  0.00     0.054 C 
ATOM      9  C   UNL d   1      -0.002  -4.926  -2.627  0.00  0.00     0.018 C 
ENDBRANCH   1   8
TORSDOF 1
ENDMDL
