MODEL 1
REMARK minimizedAffinity -2.49038315
REMARK minimizedRMSD -1
REMARK  1 active torsions:
REMARK  status: ('A' for Active; 'I' for Inactive)
REMARK    1  A    between atoms: C1_2  and  C2_3 
ROOT
ATOM      1  C2  UNL d   1       2.472  -2.974  -1.605  0.00  0.00    -0.081 A 
ATOM      2  C3  UNL d   1       2.893  -3.722  -2.711  0.00  0.00     0.006 A 
ATOM      3  C4  UNL d   1       2.942  -3.141  -3.981  0.00  0.00     0.002 A 
ATOM      4  C5  UNL d   1       2.580  -1.803  -4.164  0.00  0.00    -0.080 A 
ATOM      5  C6  UNL d   1       2.657  -1.159  -5.517  0.00  0.00     0.076 C 
ATOM      6  C7  UNL d   1       2.142  -1.061  -3.062  0.00  0.00     0.002 A 
ATOM      7  C8  UNL d   1       2.092  -1.640  -1.792  0.00  0.00     0.006 A 
ENDROOT
BRANCH   1   8
ATOM      8  C1  UNL d   1       2.479  -3.578  -0.224  0.00  0.00     0.054 C 
ATOM      9  C   UNL d   1       3.017  -5.002  -0.246  0.00  0.00     0.018 C 
ENDBRANCH   1   8
TORSDOF 1
ENDMDL
