MODEL 1
REMARK minimizedAffinity 12.1578226
REMARK minimizedRMSD -1
REMARK  1 active torsions:
REMARK  status: ('A' for Active; 'I' for Inactive)
REMARK    1  A    between atoms: C1_2  and  C2_3 
ROOT
ATOM      1  C2  UNL d   1       1.142   2.143   2.770  0.00  0.00    -0.081 A 
ATOM      2  C3  UNL d   1       0.217   3.126   2.397  0.00  0.00     0.006 A 
ATOM      3  C4  UNL d   1       0.481   3.975   1.320  0.00  0.00     0.002 A 
ATOM      4  C5  UNL d   1       1.670   3.851   0.593  0.00  0.00    -0.080 A 
ATOM      5  C6  UNL d   1       1.952   4.737  -0.584  0.00  0.00     0.076 C 
ATOM      6  C7  UNL d   1       2.602   2.882   0.977  0.00  0.00     0.002 A 
ATOM      7  C8  UNL d   1       2.339   2.033   2.054  0.00  0.00     0.006 A 
ENDROOT
BRANCH   1   8
ATOM      8  C1  UNL d   1       0.832   1.184   3.890  0.00  0.00     0.054 C 
ATOM      9  C   UNL d   1       1.790   1.369   5.058  0.00  0.00     0.018 C 
ENDBRANCH   1   8
TORSDOF 1
ENDMDL
