MODEL 1
REMARK minimizedAffinity 23.9229755
REMARK minimizedRMSD -1
REMARK  1 active torsions:
REMARK  status: ('A' for Active; 'I' for Inactive)
REMARK    1  A    between atoms: C1_2  and  C2_3 
ROOT
ATOM      1  C2  UNL d   1      -3.495  -0.585   4.912  0.00  0.00    -0.081 A 
ATOM      2  C3  UNL d   1      -3.630   0.291   5.996  0.00  0.00     0.006 A 
ATOM      3  C4  UNL d   1      -4.091   1.595   5.799  0.00  0.00     0.002 A 
ATOM      4  C5  UNL d   1      -4.431   2.042   4.518  0.00  0.00    -0.080 A 
ATOM      5  C6  UNL d   1      -4.956   3.429   4.298  0.00  0.00     0.076 C 
ATOM      6  C7  UNL d   1      -4.279   1.172   3.433  0.00  0.00     0.002 A 
ATOM      7  C8  UNL d   1      -3.818  -0.131   3.629  0.00  0.00     0.006 A 
ENDROOT
BRANCH   1   8
ATOM      8  C1  UNL d   1      -3.060  -2.012   5.129  0.00  0.00     0.054 C 
ATOM      9  C   UNL d   1      -4.191  -2.986   4.835  0.00  0.00     0.018 C 
ENDBRANCH   1   8
TORSDOF 1
ENDMDL
