MODEL 1
REMARK minimizedAffinity 9.12537289
REMARK minimizedRMSD -1
REMARK  1 active torsions:
REMARK  status: ('A' for Active; 'I' for Inactive)
REMARK    1  A    between atoms: C1_2  and  C2_3 
ROOT
ATOM      1  C2  UNL d   1       1.813  -2.716  -1.887  0.00  0.00    -0.081 A 
ATOM      2  C3  UNL d   1       2.366  -2.879  -0.610  0.00  0.00     0.006 A 
ATOM      3  C4  UNL d   1       2.778  -1.769   0.130  0.00  0.00     0.002 A 
ATOM      4  C5  UNL d   1       2.638  -0.478  -0.390  0.00  0.00    -0.080 A 
ATOM      5  C6  UNL d   1       3.049   0.725   0.407  0.00  0.00     0.076 C 
ATOM      6  C7  UNL d   1       2.103  -0.316  -1.672  0.00  0.00     0.002 A 
ATOM      7  C8  UNL d   1       1.690  -1.426  -2.413  0.00  0.00     0.006 A 
ENDROOT
BRANCH   1   8
ATOM      8  C1  UNL d   1       1.308  -3.907  -2.661  0.00  0.00     0.054 C 
ATOM      9  C   UNL d   1       1.655  -3.794  -4.138  0.00  0.00     0.018 C 
ENDBRANCH   1   8
TORSDOF 1
ENDMDL
