MODEL 1
REMARK minimizedAffinity -0.786226094
REMARK minimizedRMSD -1
REMARK  0 active torsions:
REMARK  status: ('A' for Active; 'I' for Inactive)
ROOT
ATOM      1  C   UNL d   1       0.929   0.003  -0.695  0.00  0.00     0.124 A 
ATOM      2  C1  UNL d   1       0.236  -0.615   0.337  0.00  0.00     0.062 A 
ATOM      3  C2  UNL d   1      -0.891  -0.008   0.886  0.00  0.00     0.162 A 
ATOM      4  C3  UNL d   1      -1.332   1.224   0.403  0.00  0.00    -0.034 A 
ATOM      5  C4  UNL d   1      -0.630   1.840  -0.635  0.00  0.00     0.162 A 
ATOM      6  C5  UNL d   1       0.495   1.229  -1.180  0.00  0.00     0.062 A 
ATOM      7  F   UNL d   1       1.163   1.828  -2.176  0.00  0.00    -0.097 F 
ATOM      8  F1  UNL d   1      -1.027   3.024  -1.123  0.00  0.00    -0.096 F 
ATOM      9  I   UNL d   1      -3.016   2.134   1.220  0.00  0.00    -0.060 I 
ATOM     10  F2  UNL d   1      -1.541  -0.628   1.882  0.00  0.00    -0.096 F 
ATOM     11  F3  UNL d   1       0.653  -1.799   0.808  0.00  0.00    -0.097 F 
ATOM     12  F4  UNL d   1       2.013  -0.582  -1.220  0.00  0.00    -0.092 F 
ENDROOT
TORSDOF 0
ENDMDL
