MODEL 1
REMARK minimizedAffinity 2.59573603
REMARK minimizedRMSD -1
REMARK  0 active torsions:
REMARK  status: ('A' for Active; 'I' for Inactive)
ROOT
ATOM      1  C   UNL d   1      -0.145  -2.264  -1.230  0.00  0.00     0.124 A 
ATOM      2  C1  UNL d   1       0.031  -1.045  -1.871  0.00  0.00     0.062 A 
ATOM      3  C2  UNL d   1       0.425   0.076  -1.147  0.00  0.00     0.162 A 
ATOM      4  C3  UNL d   1       0.646  -0.016   0.227  0.00  0.00    -0.034 A 
ATOM      5  C4  UNL d   1       0.467  -1.244   0.865  0.00  0.00     0.162 A 
ATOM      6  C5  UNL d   1       0.073  -2.362   0.137  0.00  0.00     0.062 A 
ATOM      7  F   UNL d   1      -0.096  -3.539   0.758  0.00  0.00    -0.097 F 
ATOM      8  F1  UNL d   1       0.671  -1.368   2.185  0.00  0.00    -0.096 F 
ATOM      9  I   UNL d   1       1.235   1.659   1.314  0.00  0.00    -0.060 I 
ATOM     10  F2  UNL d   1       0.587   1.241  -1.792  0.00  0.00    -0.096 F 
ATOM     11  F3  UNL d   1      -0.179  -0.947  -3.192  0.00  0.00    -0.097 F 
ATOM     12  F4  UNL d   1      -0.524  -3.341  -1.929  0.00  0.00    -0.092 F 
ENDROOT
TORSDOF 0
ENDMDL
