MODEL 1
REMARK minimizedAffinity -0.47498551
REMARK minimizedRMSD -1
REMARK  0 active torsions:
REMARK  status: ('A' for Active; 'I' for Inactive)
ROOT
ATOM      1  C   UNL d   1       2.923   0.738  -1.301  0.00  0.00     0.124 A 
ATOM      2  C1  UNL d   1       1.800   0.164  -1.881  0.00  0.00     0.062 A 
ATOM      3  C2  UNL d   1       0.638  -0.010  -1.135  0.00  0.00     0.162 A 
ATOM      4  C3  UNL d   1       0.592   0.391   0.201  0.00  0.00    -0.034 A 
ATOM      5  C4  UNL d   1       1.726   0.966   0.778  0.00  0.00     0.162 A 
ATOM      6  C5  UNL d   1       2.885   1.138   0.027  0.00  0.00     0.062 A 
ATOM      7  F   UNL d   1       3.969   1.693   0.590  0.00  0.00    -0.097 F 
ATOM      8  F1  UNL d   1       1.717   1.363   2.059  0.00  0.00    -0.096 F 
ATOM      9  I   UNL d   1      -1.143   0.132   1.320  0.00  0.00    -0.060 I 
ATOM     10  F2  UNL d   1      -0.432  -0.567  -1.721  0.00  0.00    -0.096 F 
ATOM     11  F3  UNL d   1       1.834  -0.224  -3.164  0.00  0.00    -0.097 F 
ATOM     12  F4  UNL d   1       4.040   0.904  -2.021  0.00  0.00    -0.092 F 
ENDROOT
TORSDOF 0
ENDMDL
