MODEL 1
REMARK minimizedAffinity -1.82094347
REMARK minimizedRMSD -1
REMARK  0 active torsions:
REMARK  status: ('A' for Active; 'I' for Inactive)
ROOT
ATOM      1  C   UNL d   1       2.127  -1.131  -1.786  0.00  0.00     0.124 A 
ATOM      2  C1  UNL d   1       1.514  -2.143  -1.060  0.00  0.00     0.062 A 
ATOM      3  C2  UNL d   1       0.560  -1.832  -0.094  0.00  0.00     0.162 A 
ATOM      4  C3  UNL d   1       0.213  -0.504   0.150  0.00  0.00    -0.034 A 
ATOM      5  C4  UNL d   1       0.834   0.508  -0.584  0.00  0.00     0.162 A 
ATOM      6  C5  UNL d   1       1.786   0.193  -1.548  0.00  0.00     0.062 A 
ATOM      7  F   UNL d   1       2.377   1.172  -2.249  0.00  0.00    -0.097 F 
ATOM      8  F1  UNL d   1       0.523   1.796  -0.375  0.00  0.00    -0.096 F 
ATOM      9  I   UNL d   1      -1.213  -0.036   1.592  0.00  0.00    -0.060 I 
ATOM     10  F2  UNL d   1      -0.016  -2.830   0.593  0.00  0.00    -0.096 F 
ATOM     11  F3  UNL d   1       1.842  -3.423  -1.287  0.00  0.00    -0.097 F 
ATOM     12  F4  UNL d   1       3.044  -1.432  -2.714  0.00  0.00    -0.092 F 
ENDROOT
TORSDOF 0
ENDMDL
