MODEL 1
REMARK minimizedAffinity 0.838126302
REMARK minimizedRMSD -1
REMARK  0 active torsions:
REMARK  status: ('A' for Active; 'I' for Inactive)
ROOT
ATOM      1  C   UNL d   1      -3.180   0.549   1.801  0.00  0.00     0.124 A 
ATOM      2  C1  UNL d   1      -3.359   0.161   0.480  0.00  0.00     0.062 A 
ATOM      3  C2  UNL d   1      -2.259  -0.147  -0.314  0.00  0.00     0.162 A 
ATOM      4  C3  UNL d   1      -0.968  -0.070   0.210  0.00  0.00    -0.034 A 
ATOM      5  C4  UNL d   1      -0.796   0.321   1.539  0.00  0.00     0.162 A 
ATOM      6  C5  UNL d   1      -1.899   0.628   2.329  0.00  0.00     0.062 A 
ATOM      7  F   UNL d   1      -1.724   1.002   3.605  0.00  0.00    -0.097 F 
ATOM      8  F1  UNL d   1       0.431   0.405   2.075  0.00  0.00    -0.096 F 
ATOM      9  I   UNL d   1       0.680  -0.531  -0.975  0.00  0.00    -0.060 I 
ATOM     10  F2  UNL d   1      -2.461  -0.518  -1.587  0.00  0.00    -0.096 F 
ATOM     11  F3  UNL d   1      -4.595   0.085  -0.033  0.00  0.00    -0.097 F 
ATOM     12  F4  UNL d   1      -4.240   0.846   2.563  0.00  0.00    -0.092 F 
ENDROOT
TORSDOF 0
ENDMDL
