MODEL 1
REMARK minimizedAffinity -1.61186743
REMARK minimizedRMSD -1
REMARK  0 active torsions:
REMARK  status: ('A' for Active; 'I' for Inactive)
ROOT
ATOM      1  C   UNL d   1       1.868   1.247  -1.489  0.00  0.00     0.124 A 
ATOM      2  C1  UNL d   1       1.574   0.001  -2.024  0.00  0.00     0.062 A 
ATOM      3  C2  UNL d   1       0.692  -0.852  -1.367  0.00  0.00     0.162 A 
ATOM      4  C3  UNL d   1       0.097  -0.461  -0.167  0.00  0.00    -0.034 A 
ATOM      5  C4  UNL d   1       0.399   0.793   0.365  0.00  0.00     0.162 A 
ATOM      6  C5  UNL d   1       1.281   1.642  -0.295  0.00  0.00     0.062 A 
ATOM      7  F   UNL d   1       1.565   2.846   0.223  0.00  0.00    -0.097 F 
ATOM      8  F1  UNL d   1      -0.155   1.201   1.517  0.00  0.00    -0.096 F 
ATOM      9  I   UNL d   1      -1.222  -1.734   0.819  0.00  0.00    -0.060 I 
ATOM     10  F2  UNL d   1       0.425  -2.051  -1.907  0.00  0.00    -0.096 F 
ATOM     11  F3  UNL d   1       2.141  -0.384  -3.177  0.00  0.00    -0.097 F 
ATOM     12  F4  UNL d   1       2.718   2.066  -2.123  0.00  0.00    -0.092 F 
ENDROOT
TORSDOF 0
ENDMDL
