MODEL 1
REMARK minimizedAffinity -3.2759943
REMARK minimizedRMSD -1
REMARK  0 active torsions:
REMARK  status: ('A' for Active; 'I' for Inactive)
ROOT
ATOM      1  C   UNL d   1       2.294  -0.864  -2.041  0.00  0.00     0.124 A 
ATOM      2  C1  UNL d   1       2.136   0.400  -1.490  0.00  0.00     0.062 A 
ATOM      3  C2  UNL d   1       1.155   0.628  -0.530  0.00  0.00     0.162 A 
ATOM      4  C3  UNL d   1       0.323  -0.412  -0.113  0.00  0.00    -0.034 A 
ATOM      5  C4  UNL d   1       0.487  -1.680  -0.673  0.00  0.00     0.162 A 
ATOM      6  C5  UNL d   1       1.469  -1.902  -1.632  0.00  0.00     0.062 A 
ATOM      7  F   UNL d   1       1.620  -3.124  -2.164  0.00  0.00    -0.097 F 
ATOM      8  F1  UNL d   1      -0.296  -2.702  -0.295  0.00  0.00    -0.096 F 
ATOM      9  I   UNL d   1      -1.146  -0.076   1.322  0.00  0.00    -0.060 I 
ATOM     10  F2  UNL d   1       1.025   1.859  -0.014  0.00  0.00    -0.096 F 
ATOM     11  F3  UNL d   1       2.931   1.406  -1.884  0.00  0.00    -0.097 F 
ATOM     12  F4  UNL d   1       3.238  -1.080  -2.966  0.00  0.00    -0.092 F 
ENDROOT
TORSDOF 0
ENDMDL
