MODEL 1
REMARK minimizedAffinity -2.12037134
REMARK minimizedRMSD -1
REMARK  0 active torsions:
REMARK  status: ('A' for Active; 'I' for Inactive)
ROOT
ATOM      1  C   UNL d   1       1.697  -0.192  -1.789  0.00  0.00     0.124 A 
ATOM      2  C1  UNL d   1       0.731  -1.068  -1.312  0.00  0.00     0.062 A 
ATOM      3  C2  UNL d   1      -0.107  -0.685  -0.269  0.00  0.00     0.162 A 
ATOM      4  C3  UNL d   1       0.016   0.581   0.304  0.00  0.00    -0.034 A 
ATOM      5  C4  UNL d   1       0.990   1.455  -0.180  0.00  0.00     0.162 A 
ATOM      6  C5  UNL d   1       1.826   1.068  -1.222  0.00  0.00     0.062 A 
ATOM      7  F   UNL d   1       2.758   1.915  -1.682  0.00  0.00    -0.097 F 
ATOM      8  F1  UNL d   1       1.136   2.680   0.348  0.00  0.00    -0.096 F 
ATOM      9  I   UNL d   1      -1.236   1.157   1.864  0.00  0.00    -0.060 I 
ATOM     10  F2  UNL d   1      -1.031  -1.551   0.172  0.00  0.00    -0.096 F 
ATOM     11  F3  UNL d   1       0.606  -2.287  -1.857  0.00  0.00    -0.097 F 
ATOM     12  F4  UNL d   1       2.503  -0.564  -2.792  0.00  0.00    -0.092 F 
ENDROOT
TORSDOF 0
ENDMDL
