MODEL 1
REMARK minimizedAffinity -2.63262773
REMARK minimizedRMSD -1
REMARK  0 active torsions:
REMARK  status: ('A' for Active; 'I' for Inactive)
ROOT
ATOM      1  C   UNL d   1       1.777   0.015  -1.880  0.00  0.00     0.124 A 
ATOM      2  C1  UNL d   1       1.727   1.153  -1.087  0.00  0.00     0.062 A 
ATOM      3  C2  UNL d   1       0.780   1.258  -0.073  0.00  0.00     0.162 A 
ATOM      4  C3  UNL d   1      -0.126   0.221   0.154  0.00  0.00    -0.034 A 
ATOM      5  C4  UNL d   1      -0.070  -0.920  -0.648  0.00  0.00     0.162 A 
ATOM      6  C5  UNL d   1       0.879  -1.020  -1.661  0.00  0.00     0.062 A 
ATOM      7  F   UNL d   1       0.926  -2.120  -2.426  0.00  0.00    -0.097 F 
ATOM      8  F1  UNL d   1      -0.925  -1.935  -0.457  0.00  0.00    -0.096 F 
ATOM      9  I   UNL d   1      -1.544   0.374   1.670  0.00  0.00    -0.060 I 
ATOM     10  F2  UNL d   1       0.754   2.369   0.679  0.00  0.00    -0.096 F 
ATOM     11  F3  UNL d   1       2.594   2.154  -1.298  0.00  0.00    -0.097 F 
ATOM     12  F4  UNL d   1       2.690  -0.083  -2.856  0.00  0.00    -0.092 F 
ENDROOT
TORSDOF 0
ENDMDL
