MODEL 1
REMARK minimizedAffinity 1.93313444
REMARK minimizedRMSD -1
REMARK  0 active torsions:
REMARK  status: ('A' for Active; 'I' for Inactive)
ROOT
ATOM      1  C   UNL d   1       1.653  -0.672  -1.183  0.00  0.00     0.124 A 
ATOM      2  C1  UNL d   1       1.291   0.647  -0.943  0.00  0.00     0.062 A 
ATOM      3  C2  UNL d   1       0.239   0.938  -0.080  0.00  0.00     0.162 A 
ATOM      4  C3  UNL d   1      -0.459  -0.092   0.551  0.00  0.00    -0.034 A 
ATOM      5  C4  UNL d   1      -0.090  -1.415   0.305  0.00  0.00     0.162 A 
ATOM      6  C5  UNL d   1       0.963  -1.701  -0.559  0.00  0.00     0.062 A 
ATOM      7  F   UNL d   1       1.312  -2.975  -0.789  0.00  0.00    -0.097 F 
ATOM      8  F1  UNL d   1      -0.739  -2.430   0.895  0.00  0.00    -0.096 F 
ATOM      9  I   UNL d   1      -2.033   0.339   1.842  0.00  0.00    -0.060 I 
ATOM     10  F2  UNL d   1      -0.090   2.221   0.132  0.00  0.00    -0.096 F 
ATOM     11  F3  UNL d   1       1.956   1.643  -1.546  0.00  0.00    -0.097 F 
ATOM     12  F4  UNL d   1       2.666  -0.949  -2.015  0.00  0.00    -0.092 F 
ENDROOT
TORSDOF 0
ENDMDL
