MODEL 1
REMARK minimizedAffinity 4.09118891
REMARK minimizedRMSD -1
REMARK  0 active torsions:
REMARK  status: ('A' for Active; 'I' for Inactive)
ROOT
ATOM      1  C   UNL d   1       1.895   1.054  -0.632  0.00  0.00     0.124 A 
ATOM      2  C1  UNL d   1       1.415   0.010  -1.410  0.00  0.00     0.062 A 
ATOM      3  C2  UNL d   1       0.274  -0.686  -1.021  0.00  0.00     0.162 A 
ATOM      4  C3  UNL d   1      -0.396  -0.339   0.152  0.00  0.00    -0.034 A 
ATOM      5  C4  UNL d   1       0.094   0.712   0.930  0.00  0.00     0.162 A 
ATOM      6  C5  UNL d   1       1.234   1.405   0.536  0.00  0.00     0.062 A 
ATOM      7  F   UNL d   1       1.696   2.414   1.289  0.00  0.00    -0.097 F 
ATOM      8  F1  UNL d   1      -0.526   1.073   2.063  0.00  0.00    -0.096 F 
ATOM      9  I   UNL d   1      -2.102  -1.377   0.738  0.00  0.00    -0.060 I 
ATOM     10  F2  UNL d   1      -0.167  -1.691  -1.792  0.00  0.00    -0.096 F 
ATOM     11  F3  UNL d   1       2.053  -0.331  -2.539  0.00  0.00    -0.097 F 
ATOM     12  F4  UNL d   1       2.994   1.721  -1.009  0.00  0.00    -0.092 F 
ENDROOT
TORSDOF 0
ENDMDL
