MODEL 1
REMARK minimizedAffinity 0.459944755
REMARK minimizedRMSD -1
REMARK  0 active torsions:
REMARK  status: ('A' for Active; 'I' for Inactive)
ROOT
ATOM      1  C   UNL d   1       2.326  -0.608  -1.476  0.00  0.00     0.124 A 
ATOM      2  C1  UNL d   1       1.956   0.710  -1.246  0.00  0.00     0.062 A 
ATOM      3  C2  UNL d   1       0.888   1.001  -0.404  0.00  0.00     0.162 A 
ATOM      4  C3  UNL d   1       0.180  -0.029   0.217  0.00  0.00    -0.034 A 
ATOM      5  C4  UNL d   1       0.557  -1.352  -0.019  0.00  0.00     0.162 A 
ATOM      6  C5  UNL d   1       1.626  -1.638  -0.862  0.00  0.00     0.062 A 
ATOM      7  F   UNL d   1       1.981  -2.912  -1.083  0.00  0.00    -0.097 F 
ATOM      8  F1  UNL d   1      -0.101  -2.366   0.561  0.00  0.00    -0.096 F 
ATOM      9  I   UNL d   1      -1.418   0.402   1.478  0.00  0.00    -0.060 I 
ATOM     10  F2  UNL d   1       0.553   2.284  -0.200  0.00  0.00    -0.096 F 
ATOM     11  F3  UNL d   1       2.630   1.706  -1.839  0.00  0.00    -0.097 F 
ATOM     12  F4  UNL d   1       3.354  -0.885  -2.288  0.00  0.00    -0.092 F 
ENDROOT
TORSDOF 0
ENDMDL
