MODEL 1
REMARK minimizedAffinity 3.36919975
REMARK minimizedRMSD -1
REMARK  0 active torsions:
REMARK  status: ('A' for Active; 'I' for Inactive)
ROOT
ATOM      1  C   UNL d   1       0.980   1.400  -0.670  0.00  0.00     0.124 A 
ATOM      2  C1  UNL d   1       1.931   0.822  -1.499  0.00  0.00     0.062 A 
ATOM      3  C2  UNL d   1       1.905  -0.548  -1.745  0.00  0.00     0.162 A 
ATOM      4  C3  UNL d   1       0.923  -1.349  -1.162  0.00  0.00    -0.034 A 
ATOM      5  C4  UNL d   1      -0.029  -0.760  -0.328  0.00  0.00     0.162 A 
ATOM      6  C5  UNL d   1       0.002   0.609  -0.085  0.00  0.00     0.062 A 
ATOM      7  F   UNL d   1      -0.918   1.166   0.717  0.00  0.00    -0.097 F 
ATOM      8  F1  UNL d   1      -0.986  -1.501   0.249  0.00  0.00    -0.096 F 
ATOM      9  I   UNL d   1       0.881  -3.398  -1.527  0.00  0.00    -0.060 I 
ATOM     10  F2  UNL d   1       2.836  -1.080  -2.551  0.00  0.00    -0.096 F 
ATOM     11  F3  UNL d   1       2.878   1.584  -2.065  0.00  0.00    -0.097 F 
ATOM     12  F4  UNL d   1       1.008   2.718  -0.434  0.00  0.00    -0.092 F 
ENDROOT
TORSDOF 0
ENDMDL
