MODEL 1
REMARK minimizedAffinity -1.11412835
REMARK minimizedRMSD -1
REMARK  0 active torsions:
REMARK  status: ('A' for Active; 'I' for Inactive)
ROOT
ATOM      1  C   UNL d   1       1.540   0.738  -2.318  0.00  0.00     0.124 A 
ATOM      2  C1  UNL d   1       1.116  -0.572  -2.490  0.00  0.00     0.062 A 
ATOM      3  C2  UNL d   1       0.402  -1.215  -1.483  0.00  0.00     0.162 A 
ATOM      4  C3  UNL d   1       0.107  -0.547  -0.294  0.00  0.00    -0.034 A 
ATOM      5  C4  UNL d   1       0.538   0.770  -0.128  0.00  0.00     0.162 A 
ATOM      6  C5  UNL d   1       1.251   1.408  -1.138  0.00  0.00     0.062 A 
ATOM      7  F   UNL d   1       1.660   2.674  -0.970  0.00  0.00    -0.097 F 
ATOM      8  F1  UNL d   1       0.271   1.442   1.002  0.00  0.00    -0.096 F 
ATOM      9  I   UNL d   1      -0.960  -1.504   1.215  0.00  0.00    -0.060 I 
ATOM     10  F2  UNL d   1       0.005  -2.481  -1.676  0.00  0.00    -0.096 F 
ATOM     11  F3  UNL d   1       1.395  -1.222  -3.629  0.00  0.00    -0.097 F 
ATOM     12  F4  UNL d   1       2.228   1.354  -3.289  0.00  0.00    -0.092 F 
ENDROOT
TORSDOF 0
ENDMDL
