MODEL 1
REMARK minimizedAffinity -2.13321567
REMARK minimizedRMSD -1
REMARK  0 active torsions:
REMARK  status: ('A' for Active; 'I' for Inactive)
ROOT
ATOM      1  C2' OXE d   1      -5.546   2.240  -0.824  0.00  0.00     0.078 C 
ATOM      2  C1' OXE d   1      -2.837   1.938  -1.493  0.00  0.00     0.078 C 
ATOM      3  C1  OXE d   1      -3.771   2.452  -2.559  0.00  0.00    -0.078 A 
ATOM      4  C2  OXE d   1      -5.104   2.552  -2.237  0.00  0.00    -0.078 A 
ATOM      5  C3  OXE d   1      -6.000   3.073  -3.166  0.00  0.00     0.003 A 
ATOM      6  C4  OXE d   1      -5.584   3.350  -4.474  0.00  0.00    -0.002 A 
ATOM      7  C5  OXE d   1      -4.239   3.217  -4.835  0.00  0.00    -0.002 A 
ATOM      8  C6  OXE d   1      -3.314   2.811  -3.879  0.00  0.00     0.003 A 
ENDROOT
TORSDOF 0
ENDMDL
