MODEL 1
REMARK minimizedAffinity 4.85552216
REMARK minimizedRMSD -1
REMARK  0 active torsions:
REMARK  status: ('A' for Active; 'I' for Inactive)
ROOT
ATOM      1  C2' OXE d   1       2.686   4.182   3.012  0.00  0.00     0.078 C 
ATOM      2  C1' OXE d   1       0.575   2.378   2.595  0.00  0.00     0.078 C 
ATOM      3  C1  OXE d   1       0.898   3.350   1.488  0.00  0.00    -0.078 A 
ATOM      4  C2  OXE d   1       1.902   4.260   1.719  0.00  0.00    -0.078 A 
ATOM      5  C3  OXE d   1       2.276   5.144   0.711  0.00  0.00     0.003 A 
ATOM      6  C4  OXE d   1       1.540   5.217  -0.477  0.00  0.00    -0.002 A 
ATOM      7  C5  OXE d   1       0.488   4.326  -0.717  0.00  0.00    -0.002 A 
ATOM      8  C6  OXE d   1       0.183   3.360   0.236  0.00  0.00     0.003 A 
ENDROOT
TORSDOF 0
ENDMDL
