MODEL 1
REMARK minimizedAffinity 1.49458241
REMARK minimizedRMSD -1
REMARK  0 active torsions:
REMARK  status: ('A' for Active; 'I' for Inactive)
ROOT
ATOM      1  C2' OXE d   1      -1.092  -1.988  -1.498  0.00  0.00     0.078 C 
ATOM      2  C1' OXE d   1      -2.683  -0.308   0.091  0.00  0.00     0.078 C 
ATOM      3  C1  OXE d   1      -1.602   0.331  -0.744  0.00  0.00    -0.078 A 
ATOM      4  C2  OXE d   1      -0.798  -0.504  -1.483  0.00  0.00    -0.078 A 
ATOM      5  C3  OXE d   1       0.180   0.038  -2.313  0.00  0.00     0.003 A 
ATOM      6  C4  OXE d   1       0.452   1.411  -2.285  0.00  0.00    -0.002 A 
ATOM      7  C5  OXE d   1      -0.329   2.274  -1.509  0.00  0.00    -0.002 A 
ATOM      8  C6  OXE d   1      -1.385   1.756  -0.768  0.00  0.00     0.003 A 
ENDROOT
TORSDOF 0
ENDMDL
