MODEL 1
REMARK minimizedAffinity -0.41083166
REMARK minimizedRMSD -1
REMARK  0 active torsions:
REMARK  status: ('A' for Active; 'I' for Inactive)
ROOT
ATOM      1  C2' OXE d   1      -5.994   2.292  -2.275  0.00  0.00     0.078 C 
ATOM      2  C1' OXE d   1      -3.450   3.306  -2.893  0.00  0.00     0.078 C 
ATOM      3  C1  OXE d   1      -4.104   2.388  -3.895  0.00  0.00    -0.078 A 
ATOM      4  C2  OXE d   1      -5.328   1.859  -3.563  0.00  0.00    -0.078 A 
ATOM      5  C3  OXE d   1      -6.000   1.050  -4.475  0.00  0.00     0.003 A 
ATOM      6  C4  OXE d   1      -5.373   0.646  -5.660  0.00  0.00    -0.002 A 
ATOM      7  C5  OXE d   1      -4.110   1.141  -5.999  0.00  0.00    -0.002 A 
ATOM      8  C6  OXE d   1      -3.481   2.044  -5.149  0.00  0.00     0.003 A 
ENDROOT
TORSDOF 0
ENDMDL
