MODEL 1
REMARK minimizedAffinity -4.57987309
REMARK minimizedRMSD -1
REMARK  0 active torsions:
REMARK  status: ('A' for Active; 'I' for Inactive)
ROOT
ATOM      1  C2' OXE d   1      -5.329   0.330  -5.617  0.00  0.00     0.078 C 
ATOM      2  C1' OXE d   1      -3.857   2.689  -6.000  0.00  0.00     0.078 C 
ATOM      3  C1  OXE d   1      -4.584   2.519  -4.689  0.00  0.00    -0.078 A 
ATOM      4  C2  OXE d   1      -5.340   1.382  -4.529  0.00  0.00    -0.078 A 
ATOM      5  C3  OXE d   1      -5.987   1.150  -3.319  0.00  0.00     0.003 A 
ATOM      6  C4  OXE d   1      -6.000   2.132  -2.322  0.00  0.00    -0.002 A 
ATOM      7  C5  OXE d   1      -5.269   3.314  -2.480  0.00  0.00    -0.002 A 
ATOM      8  C6  OXE d   1      -4.522   3.504  -3.638  0.00  0.00     0.003 A 
ENDROOT
TORSDOF 0
ENDMDL
