MODEL 1
REMARK minimizedAffinity 9.99019909
REMARK minimizedRMSD -1
REMARK  0 active torsions:
REMARK  status: ('A' for Active; 'I' for Inactive)
ROOT
ATOM      1  C2' OXE d   1       0.375  -6.000  -0.745  0.00  0.00     0.078 C 
ATOM      2  C1' OXE d   1      -1.322  -3.994  -1.733  0.00  0.00     0.078 C 
ATOM      3  C1  OXE d   1       0.017  -3.573  -1.180  0.00  0.00    -0.078 A 
ATOM      4  C2  OXE d   1       0.821  -4.556  -0.656  0.00  0.00    -0.078 A 
ATOM      5  C3  OXE d   1       2.089  -4.230  -0.182  0.00  0.00     0.003 A 
ATOM      6  C4  OXE d   1       2.490  -2.891  -0.094  0.00  0.00    -0.002 A 
ATOM      7  C5  OXE d   1       1.669  -1.870  -0.586  0.00  0.00    -0.002 A 
ATOM      8  C6  OXE d   1       0.450  -2.198  -1.169  0.00  0.00     0.003 A 
ENDROOT
TORSDOF 0
ENDMDL
