MODEL 1
REMARK minimizedAffinity 5.87787199
REMARK minimizedRMSD -1
REMARK  0 active torsions:
REMARK  status: ('A' for Active; 'I' for Inactive)
ROOT
ATOM      1  C2' OXE d   1      -1.424   4.097  -1.247  0.00  0.00     0.078 C 
ATOM      2  C1' OXE d   1       1.158   5.134  -1.616  0.00  0.00     0.078 C 
ATOM      3  C1  OXE d   1       0.914   4.266  -0.406  0.00  0.00    -0.078 A 
ATOM      4  C2  OXE d   1      -0.364   3.802  -0.209  0.00  0.00    -0.078 A 
ATOM      5  C3  OXE d   1      -0.631   2.952   0.861  0.00  0.00     0.003 A 
ATOM      6  C4  OXE d   1       0.353   2.692   1.823  0.00  0.00    -0.002 A 
ATOM      7  C5  OXE d   1       1.651   3.188   1.662  0.00  0.00    -0.002 A 
ATOM      8  C6  OXE d   1       1.959   3.940   0.533  0.00  0.00     0.003 A 
ENDROOT
TORSDOF 0
ENDMDL
