MODEL 1
REMARK minimizedAffinity 2.70993733
REMARK minimizedRMSD -1
REMARK  0 active torsions:
REMARK  status: ('A' for Active; 'I' for Inactive)
ROOT
ATOM      1  C2' OXE d   1       0.022   3.503   0.260  0.00  0.00     0.078 C 
ATOM      2  C1' OXE d   1       1.528   2.277   2.287  0.00  0.00     0.078 C 
ATOM      3  C1  OXE d   1       1.424   1.567   0.960  0.00  0.00    -0.078 A 
ATOM      4  C2  OXE d   1       0.647   2.151  -0.011  0.00  0.00    -0.078 A 
ATOM      5  C3  OXE d   1       0.561   1.566  -1.270  0.00  0.00     0.003 A 
ATOM      6  C4  OXE d   1       1.134   0.310  -1.509  0.00  0.00    -0.002 A 
ATOM      7  C5  OXE d   1       1.897  -0.321  -0.521  0.00  0.00    -0.002 A 
ATOM      8  C6  OXE d   1       2.087   0.312   0.702  0.00  0.00     0.003 A 
ENDROOT
TORSDOF 0
ENDMDL
