MODEL 1
REMARK minimizedAffinity 5.31071186
REMARK minimizedRMSD -1
REMARK  0 active torsions:
REMARK  status: ('A' for Active; 'I' for Inactive)
ROOT
ATOM      1  C2' OXE d   1      -5.993   3.605  -2.136  0.00  0.00     0.078 C 
ATOM      2  C1' OXE d   1      -3.310   2.807  -2.347  0.00  0.00     0.078 C 
ATOM      3  C1  OXE d   1      -4.002   3.285  -3.599  0.00  0.00    -0.078 A 
ATOM      4  C2  OXE d   1      -5.329   3.629  -3.496  0.00  0.00    -0.078 A 
ATOM      5  C3  OXE d   1      -6.000   4.128  -4.608  0.00  0.00     0.003 A 
ATOM      6  C4  OXE d   1      -5.381   4.138  -5.864  0.00  0.00    -0.002 A 
ATOM      7  C5  OXE d   1      -4.043   3.754  -5.999  0.00  0.00    -0.002 A 
ATOM      8  C6  OXE d   1      -3.328   3.366  -4.871  0.00  0.00     0.003 A 
ENDROOT
TORSDOF 0
ENDMDL
