MODEL 1
REMARK minimizedAffinity 5.85960436
REMARK minimizedRMSD -1
REMARK  0 active torsions:
REMARK  status: ('A' for Active; 'I' for Inactive)
ROOT
ATOM      1  C   UNL d   1       3.561  -1.292  -2.639  0.00  0.00     0.078 C 
ATOM      2  C1  UNL d   1       4.144  -0.563  -3.813  0.00  0.00    -0.077 A 
ATOM      3  C2  UNL d   1       5.468  -0.781  -4.213  0.00  0.00    -0.001 A 
ATOM      4  C3  UNL d   1       6.000  -0.088  -5.301  0.00  0.00     0.003 A 
ATOM      5  C4  UNL d   1       5.215   0.828  -5.999  0.00  0.00    -0.005 A 
ATOM      6  C5  UNL d   1       3.897   1.053  -5.607  0.00  0.00     0.003 A 
ATOM      7  C6  UNL d   1       3.363   0.361  -4.519  0.00  0.00    -0.001 A 
ENDROOT
TORSDOF 0
ENDMDL
