MODEL 1
REMARK minimizedAffinity 7.17089701
REMARK minimizedRMSD -1
REMARK  0 active torsions:
REMARK  status: ('A' for Active; 'I' for Inactive)
ROOT
ATOM      1  C   UNL d   1       2.924   4.768  -1.757  0.00  0.00     0.078 C 
ATOM      2  C1  UNL d   1       3.866   5.136  -2.864  0.00  0.00    -0.077 A 
ATOM      3  C2  UNL d   1       5.137   5.652  -2.587  0.00  0.00    -0.001 A 
ATOM      4  C3  UNL d   1       6.000   6.000  -3.628  0.00  0.00     0.003 A 
ATOM      5  C4  UNL d   1       5.599   5.836  -4.953  0.00  0.00    -0.005 A 
ATOM      6  C5  UNL d   1       4.335   5.324  -5.238  0.00  0.00     0.003 A 
ATOM      7  C6  UNL d   1       3.471   4.976  -4.198  0.00  0.00    -0.001 A 
ENDROOT
TORSDOF 0
ENDMDL
