MODEL 1
REMARK minimizedAffinity 2.14789963
REMARK minimizedRMSD -1
REMARK  0 active torsions:
REMARK  status: ('A' for Active; 'I' for Inactive)
ROOT
ATOM      1  C   UNL d   1      -4.471  -4.885  -2.071  0.00  0.00     0.078 C 
ATOM      2  C1  UNL d   1      -4.892  -4.435  -3.438  0.00  0.00    -0.077 A 
ATOM      3  C2  UNL d   1      -5.260  -3.106  -3.679  0.00  0.00    -0.001 A 
ATOM      4  C3  UNL d   1      -5.660  -2.704  -4.954  0.00  0.00     0.003 A 
ATOM      5  C4  UNL d   1      -5.696  -3.625  -5.999  0.00  0.00    -0.005 A 
ATOM      6  C5  UNL d   1      -5.334  -4.951  -5.769  0.00  0.00     0.003 A 
ATOM      7  C6  UNL d   1      -4.935  -5.355  -4.494  0.00  0.00    -0.001 A 
ENDROOT
TORSDOF 0
ENDMDL
