MODEL 1
REMARK minimizedAffinity 0.205352485
REMARK minimizedRMSD -1
REMARK  0 active torsions:
REMARK  status: ('A' for Active; 'I' for Inactive)
ROOT
ATOM      1  C   UNL d   1      -5.197  -1.895  -5.915  0.00  0.00     0.078 C 
ATOM      2  C1  UNL d   1      -5.212  -3.300  -5.391  0.00  0.00    -0.077 A 
ATOM      3  C2  UNL d   1      -6.000  -3.650  -4.287  0.00  0.00    -0.001 A 
ATOM      4  C3  UNL d   1      -5.996  -4.959  -3.804  0.00  0.00     0.003 A 
ATOM      5  C4  UNL d   1      -5.206  -5.929  -4.418  0.00  0.00    -0.005 A 
ATOM      6  C5  UNL d   1      -4.418  -5.590  -5.516  0.00  0.00     0.003 A 
ATOM      7  C6  UNL d   1      -4.420  -4.281  -6.000  0.00  0.00    -0.001 A 
ENDROOT
TORSDOF 0
ENDMDL
