MODEL 1
REMARK minimizedAffinity 6.30169964
REMARK minimizedRMSD -1
REMARK  0 active torsions:
REMARK  status: ('A' for Active; 'I' for Inactive)
ROOT
ATOM      1  C   UNL d   1       2.917   3.407  -0.556  0.00  0.00     0.078 C 
ATOM      2  C1  UNL d   1       2.838   2.147   0.253  0.00  0.00    -0.077 A 
ATOM      3  C2  UNL d   1       3.789   1.131   0.101  0.00  0.00    -0.001 A 
ATOM      4  C3  UNL d   1       3.697  -0.041   0.853  0.00  0.00     0.003 A 
ATOM      5  C4  UNL d   1       2.655  -0.208   1.762  0.00  0.00    -0.005 A 
ATOM      6  C5  UNL d   1       1.702   0.796   1.919  0.00  0.00     0.003 A 
ATOM      7  C6  UNL d   1       1.792   1.969   1.168  0.00  0.00    -0.001 A 
ENDROOT
TORSDOF 0
ENDMDL
