MODEL 1
REMARK minimizedAffinity -0.418172538
REMARK minimizedRMSD -1
REMARK  0 active torsions:
REMARK  status: ('A' for Active; 'I' for Inactive)
ROOT
ATOM      1  C   UNL d   1       1.696  -2.508   2.661  0.00  0.00     0.078 C 
ATOM      2  C1  UNL d   1       1.527  -1.209   1.932  0.00  0.00    -0.077 A 
ATOM      3  C2  UNL d   1       2.627  -0.386   1.659  0.00  0.00    -0.001 A 
ATOM      4  C3  UNL d   1       2.453   0.826   0.989  0.00  0.00     0.003 A 
ATOM      5  C4  UNL d   1       1.181   1.226   0.585  0.00  0.00    -0.005 A 
ATOM      6  C5  UNL d   1       0.080   0.415   0.854  0.00  0.00     0.003 A 
ATOM      7  C6  UNL d   1       0.252  -0.797   1.524  0.00  0.00    -0.001 A 
ENDROOT
TORSDOF 0
ENDMDL
