MODEL 1
REMARK minimizedAffinity 3.28805137
REMARK minimizedRMSD -1
REMARK  0 active torsions:
REMARK  status: ('A' for Active; 'I' for Inactive)
ROOT
ATOM      1  C   UNL d   1       3.004   2.873   0.548  0.00  0.00     0.078 C 
ATOM      2  C1  UNL d   1       2.952   1.424   0.930  0.00  0.00    -0.077 A 
ATOM      3  C2  UNL d   1       3.902   0.516   0.445  0.00  0.00    -0.001 A 
ATOM      4  C3  UNL d   1       3.836  -0.832   0.801  0.00  0.00     0.003 A 
ATOM      5  C4  UNL d   1       2.821  -1.284   1.642  0.00  0.00    -0.005 A 
ATOM      6  C5  UNL d   1       1.870  -0.389   2.127  0.00  0.00     0.003 A 
ATOM      7  C6  UNL d   1       1.935   0.959   1.772  0.00  0.00    -0.001 A 
ENDROOT
TORSDOF 0
ENDMDL
