MODEL 1
REMARK minimizedAffinity -3.00685692
REMARK minimizedRMSD -1
REMARK  0 active torsions:
REMARK  status: ('A' for Active; 'I' for Inactive)
ROOT
ATOM      1  C   UNL d   1       1.108  -2.665   5.940  0.00  0.00     0.078 C 
ATOM      2  C1  UNL d   1       1.429  -1.840   4.729  0.00  0.00    -0.077 A 
ATOM      3  C2  UNL d   1       2.173  -2.373   3.670  0.00  0.00    -0.001 A 
ATOM      4  C3  UNL d   1       2.472  -1.591   2.553  0.00  0.00     0.003 A 
ATOM      5  C4  UNL d   1       2.031  -0.271   2.486  0.00  0.00    -0.005 A 
ATOM      6  C5  UNL d   1       1.292   0.269   3.536  0.00  0.00     0.003 A 
ATOM      7  C6  UNL d   1       0.992  -0.512   4.653  0.00  0.00    -0.001 A 
ENDROOT
TORSDOF 0
ENDMDL
