MODEL 1
REMARK minimizedAffinity -0.544680476
REMARK minimizedRMSD -1
REMARK  0 active torsions:
REMARK  status: ('A' for Active; 'I' for Inactive)
ROOT
ATOM      1  C   UNL d   1      -5.994  -1.681  -5.272  0.00  0.00     0.078 C 
ATOM      2  C1  UNL d   1      -5.450  -0.319  -4.960  0.00  0.00    -0.077 A 
ATOM      3  C2  UNL d   1      -5.224   0.082  -3.638  0.00  0.00    -0.001 A 
ATOM      4  C3  UNL d   1      -4.726   1.357  -3.362  0.00  0.00     0.003 A 
ATOM      5  C4  UNL d   1      -4.451   2.241  -4.403  0.00  0.00    -0.005 A 
ATOM      6  C5  UNL d   1      -4.675   1.852  -5.722  0.00  0.00     0.003 A 
ATOM      7  C6  UNL d   1      -5.173   0.578  -6.000  0.00  0.00    -0.001 A 
ENDROOT
TORSDOF 0
ENDMDL
