MODEL 1
REMARK minimizedAffinity -0.189571038
REMARK minimizedRMSD -1
REMARK  0 active torsions:
REMARK  status: ('A' for Active; 'I' for Inactive)
ROOT
ATOM      1  C   UNL d   1       0.372  -2.876  -2.874  0.00  0.00     0.077 C 
ATOM      2  C1  UNL d   1       0.214  -2.070  -1.619  0.00  0.00    -0.074 A 
ATOM      3  C2  UNL d   1      -0.367  -2.628  -0.476  0.00  0.00    -0.005 A 
ATOM      4  C3  UNL d   1      -0.499  -1.869   0.687  0.00  0.00     0.006 A 
ATOM      5  C4  UNL d   1      -0.051  -0.548   0.719  0.00  0.00    -0.005 A 
ATOM      6  C5  UNL d   1       0.533   0.026  -0.414  0.00  0.00    -0.074 A 
ATOM      7  C6  UNL d   1       1.028   1.442  -0.395  0.00  0.00     0.077 C 
ATOM      8  C7  UNL d   1       0.668  -0.745  -1.577  0.00  0.00    -0.001 A 
ENDROOT
TORSDOF 0
ENDMDL
