MODEL 1
REMARK minimizedAffinity -4.76634455
REMARK minimizedRMSD -1
REMARK  0 active torsions:
REMARK  status: ('A' for Active; 'I' for Inactive)
ROOT
ATOM      1  C   UNL d   1       2.637  -0.578   0.398  0.00  0.00     0.077 C 
ATOM      2  C1  UNL d   1       1.386   0.248   0.394  0.00  0.00    -0.074 A 
ATOM      3  C2  UNL d   1       0.161  -0.299   0.792  0.00  0.00    -0.005 A 
ATOM      4  C3  UNL d   1      -0.992   0.485   0.792  0.00  0.00     0.006 A 
ATOM      5  C4  UNL d   1      -0.934   1.821   0.394  0.00  0.00    -0.005 A 
ATOM      6  C5  UNL d   1       0.281   2.385  -0.007  0.00  0.00    -0.074 A 
ATOM      7  C6  UNL d   1       0.363   3.822  -0.429  0.00  0.00     0.077 C 
ATOM      8  C7  UNL d   1       1.437   1.593   0.003  0.00  0.00    -0.001 A 
ENDROOT
TORSDOF 0
ENDMDL
