MODEL 1
REMARK minimizedAffinity -1.73127019
REMARK minimizedRMSD -1
REMARK  0 active torsions:
REMARK  status: ('A' for Active; 'I' for Inactive)
ROOT
ATOM      1  C   UNL d   1      -0.780  -1.828  -0.715  0.00  0.00     0.077 C 
ATOM      2  C1  UNL d   1       0.396  -0.936  -0.451  0.00  0.00    -0.074 A 
ATOM      3  C2  UNL d   1       1.572  -1.443   0.110  0.00  0.00    -0.005 A 
ATOM      4  C3  UNL d   1       2.661  -0.602   0.341  0.00  0.00     0.006 A 
ATOM      5  C4  UNL d   1       2.585   0.752   0.012  0.00  0.00    -0.005 A 
ATOM      6  C5  UNL d   1       1.418   1.277  -0.551  0.00  0.00    -0.074 A 
ATOM      7  C6  UNL d   1       1.323   2.728  -0.919  0.00  0.00     0.077 C 
ATOM      8  C7  UNL d   1       0.330   0.424  -0.786  0.00  0.00    -0.001 A 
ENDROOT
TORSDOF 0
ENDMDL
