MODEL 1
REMARK minimizedAffinity 0.425289154
REMARK minimizedRMSD -1
REMARK  0 active torsions:
REMARK  status: ('A' for Active; 'I' for Inactive)
ROOT
ATOM      1  C   UNL d   1      -2.847  -4.234  -1.433  0.00  0.00     0.077 C 
ATOM      2  C1  UNL d   1      -1.455  -3.714  -1.634  0.00  0.00    -0.074 A 
ATOM      3  C2  UNL d   1      -0.708  -4.074  -2.761  0.00  0.00    -0.005 A 
ATOM      4  C3  UNL d   1       0.582  -3.576  -2.938  0.00  0.00     0.006 A 
ATOM      5  C4  UNL d   1       1.139  -2.713  -1.992  0.00  0.00    -0.005 A 
ATOM      6  C5  UNL d   1       0.407  -2.341  -0.860  0.00  0.00    -0.074 A 
ATOM      7  C6  UNL d   1       0.986  -1.408   0.161  0.00  0.00     0.077 C 
ATOM      8  C7  UNL d   1      -0.892  -2.841  -0.692  0.00  0.00    -0.001 A 
ENDROOT
TORSDOF 0
ENDMDL
