MODEL 1
REMARK minimizedAffinity -1.78057981
REMARK minimizedRMSD -1
REMARK  0 active torsions:
REMARK  status: ('A' for Active; 'I' for Inactive)
ROOT
ATOM      1  C   UNL d   1       1.299  -0.776   0.083  0.00  0.00     0.077 C 
ATOM      2  C1  UNL d   1       0.567  -1.841  -0.679  0.00  0.00    -0.074 A 
ATOM      3  C2  UNL d   1       0.984  -2.225  -1.958  0.00  0.00    -0.005 A 
ATOM      4  C3  UNL d   1       0.299  -3.223  -2.651  0.00  0.00     0.006 A 
ATOM      5  C4  UNL d   1      -0.808  -3.847  -2.073  0.00  0.00    -0.005 A 
ATOM      6  C5  UNL d   1      -1.238  -3.477  -0.795  0.00  0.00    -0.074 A 
ATOM      7  C6  UNL d   1      -2.420  -4.143  -0.155  0.00  0.00     0.077 C 
ATOM      8  C7  UNL d   1      -0.540  -2.478  -0.102  0.00  0.00    -0.001 A 
ENDROOT
TORSDOF 0
ENDMDL
