MODEL 1
REMARK minimizedAffinity -5.42169666
REMARK minimizedRMSD -1
REMARK  0 active torsions:
REMARK  status: ('A' for Active; 'I' for Inactive)
ROOT
ATOM      1  C   UNL d   1       2.161   0.411  -0.009  0.00  0.00     0.077 C 
ATOM      2  C1  UNL d   1       0.965   1.282   0.237  0.00  0.00    -0.074 A 
ATOM      3  C2  UNL d   1       1.067   2.676   0.182  0.00  0.00    -0.005 A 
ATOM      4  C3  UNL d   1      -0.056   3.473   0.404  0.00  0.00     0.006 A 
ATOM      5  C4  UNL d   1      -1.290   2.886   0.683  0.00  0.00    -0.005 A 
ATOM      6  C5  UNL d   1      -1.412   1.494   0.742  0.00  0.00    -0.074 A 
ATOM      7  C6  UNL d   1      -2.734   0.846   1.031  0.00  0.00     0.077 C 
ATOM      8  C7  UNL d   1      -0.281   0.699   0.511  0.00  0.00    -0.001 A 
ENDROOT
TORSDOF 0
ENDMDL
