MODEL 1
REMARK minimizedAffinity -0.330336034
REMARK minimizedRMSD -1
REMARK  0 active torsions:
REMARK  status: ('A' for Active; 'I' for Inactive)
ROOT
ATOM      1  C   UNL d   1      -0.679  -4.326  -2.221  0.00  0.00     0.077 C 
ATOM      2  C1  UNL d   1      -0.653  -2.860  -1.906  0.00  0.00    -0.074 A 
ATOM      3  C2  UNL d   1      -0.777  -1.905  -2.920  0.00  0.00    -0.005 A 
ATOM      4  C3  UNL d   1      -0.761  -0.545  -2.611  0.00  0.00     0.006 A 
ATOM      5  C4  UNL d   1      -0.620  -0.127  -1.287  0.00  0.00    -0.005 A 
ATOM      6  C5  UNL d   1      -0.495  -1.068  -0.260  0.00  0.00    -0.074 A 
ATOM      7  C6  UNL d   1      -0.353  -0.635   1.169  0.00  0.00     0.077 C 
ATOM      8  C7  UNL d   1      -0.520  -2.432  -0.578  0.00  0.00    -0.001 A 
ENDROOT
TORSDOF 0
ENDMDL
