MODEL 1
REMARK minimizedAffinity -5.05808783
REMARK minimizedRMSD -1
REMARK  0 active torsions:
REMARK  status: ('A' for Active; 'I' for Inactive)
ROOT
ATOM      1  C   UNL d   1       0.697  -1.652   0.509  0.00  0.00     0.077 C 
ATOM      2  C1  UNL d   1      -0.201  -2.347  -0.471  0.00  0.00    -0.074 A 
ATOM      3  C2  UNL d   1       0.240  -2.645  -1.764  0.00  0.00    -0.005 A 
ATOM      4  C3  UNL d   1      -0.603  -3.300  -2.661  0.00  0.00     0.006 A 
ATOM      5  C4  UNL d   1      -1.894  -3.663  -2.275  0.00  0.00    -0.005 A 
ATOM      6  C5  UNL d   1      -2.352  -3.374  -0.986  0.00  0.00    -0.074 A 
ATOM      7  C6  UNL d   1      -3.733  -3.766  -0.552  0.00  0.00     0.077 C 
ATOM      8  C7  UNL d   1      -1.496  -2.722  -0.088  0.00  0.00    -0.001 A 
ENDROOT
TORSDOF 0
ENDMDL
