MODEL 1
REMARK minimizedAffinity -4.80917072
REMARK minimizedRMSD -1
REMARK  0 active torsions:
REMARK  status: ('A' for Active; 'I' for Inactive)
ROOT
ATOM      1  C   UNL d   1       1.511   2.951  -1.134  0.00  0.00     0.077 C 
ATOM      2  C1  UNL d   1       0.496   2.246  -0.284  0.00  0.00    -0.074 A 
ATOM      3  C2  UNL d   1       0.061   0.956  -0.605  0.00  0.00    -0.005 A 
ATOM      4  C3  UNL d   1      -0.876   0.309   0.201  0.00  0.00     0.006 A 
ATOM      5  C4  UNL d   1      -1.387   0.944   1.333  0.00  0.00    -0.005 A 
ATOM      6  C5  UNL d   1      -0.963   2.233   1.671  0.00  0.00    -0.074 A 
ATOM      7  C6  UNL d   1      -1.494   2.926   2.890  0.00  0.00     0.077 C 
ATOM      8  C7  UNL d   1      -0.016   2.874   0.860  0.00  0.00    -0.001 A 
ENDROOT
TORSDOF 0
ENDMDL
