MODEL 1
REMARK minimizedAffinity -5.42960024
REMARK minimizedRMSD -1
REMARK  0 active torsions:
REMARK  status: ('A' for Active; 'I' for Inactive)
ROOT
ATOM      1  C   UNL d   1       0.803   3.467  -0.002  0.00  0.00     0.077 C 
ATOM      2  C1  UNL d   1       0.113   2.136   0.045  0.00  0.00    -0.074 A 
ATOM      3  C2  UNL d   1       0.772   0.971  -0.360  0.00  0.00    -0.005 A 
ATOM      4  C3  UNL d   1       0.121  -0.261  -0.302  0.00  0.00     0.006 A 
ATOM      5  C4  UNL d   1      -1.194  -0.340   0.160  0.00  0.00    -0.005 A 
ATOM      6  C5  UNL d   1      -1.868   0.815   0.569  0.00  0.00    -0.074 A 
ATOM      7  C6  UNL d   1      -3.278   0.746   1.077  0.00  0.00     0.077 C 
ATOM      8  C7  UNL d   1      -1.205   2.048   0.514  0.00  0.00    -0.001 A 
ENDROOT
TORSDOF 0
ENDMDL
