MODEL 1
REMARK minimizedAffinity -0.838354588
REMARK minimizedRMSD -1
REMARK  0 active torsions:
REMARK  status: ('A' for Active; 'I' for Inactive)
ROOT
ATOM      1  C   UNL d   1      -0.678   1.530   0.074  0.00  0.00     0.077 C 
ATOM      2  C1  UNL d   1      -0.056   0.166   0.021  0.00  0.00    -0.074 A 
ATOM      3  C2  UNL d   1       1.202  -0.073   0.583  0.00  0.00    -0.005 A 
ATOM      4  C3  UNL d   1       1.763  -1.348   0.534  0.00  0.00     0.006 A 
ATOM      5  C4  UNL d   1       1.074  -2.397  -0.077  0.00  0.00    -0.005 A 
ATOM      6  C5  UNL d   1      -0.186  -2.177  -0.643  0.00  0.00    -0.074 A 
ATOM      7  C6  UNL d   1      -0.945  -3.295  -1.294  0.00  0.00     0.077 C 
ATOM      8  C7  UNL d   1      -0.746  -0.894  -0.584  0.00  0.00    -0.001 A 
ENDROOT
TORSDOF 0
ENDMDL
