MODEL 1
REMARK minimizedAffinity -4.11320448
REMARK minimizedRMSD -1
REMARK  0 active torsions:
REMARK  status: ('A' for Active; 'I' for Inactive)
ROOT
ATOM      1  C   UNL d   1      -2.515  -3.820   0.448  0.00  0.00     0.077 C 
ATOM      2  C1  UNL d   1      -1.510  -3.084  -0.388  0.00  0.00    -0.074 A 
ATOM      3  C2  UNL d   1      -1.180  -3.527  -1.672  0.00  0.00    -0.005 A 
ATOM      4  C3  UNL d   1      -0.251  -2.827  -2.441  0.00  0.00     0.006 A 
ATOM      5  C4  UNL d   1       0.357  -1.677  -1.934  0.00  0.00    -0.005 A 
ATOM      6  C5  UNL d   1       0.038  -1.218  -0.652  0.00  0.00    -0.074 A 
ATOM      7  C6  UNL d   1       0.675   0.021  -0.096  0.00  0.00     0.077 C 
ATOM      8  C7  UNL d   1      -0.902  -1.924   0.112  0.00  0.00    -0.001 A 
ENDROOT
TORSDOF 0
ENDMDL
