MODEL 1
REMARK minimizedAffinity -1.63244581
REMARK minimizedRMSD -1
REMARK  0 active torsions:
REMARK  status: ('A' for Active; 'I' for Inactive)
ROOT
ATOM      1  C   UNL d   1       0.773   3.573   0.177  0.00  0.00     0.077 C 
ATOM      2  C1  UNL d   1      -0.052   2.369   0.522  0.00  0.00    -0.074 A 
ATOM      3  C2  UNL d   1      -1.202   2.487   1.309  0.00  0.00    -0.005 A 
ATOM      4  C3  UNL d   1      -1.965   1.359   1.613  0.00  0.00     0.006 A 
ATOM      5  C4  UNL d   1      -1.586   0.104   1.135  0.00  0.00    -0.005 A 
ATOM      6  C5  UNL d   1      -0.439  -0.033   0.346  0.00  0.00    -0.074 A 
ATOM      7  C6  UNL d   1      -0.023  -1.373  -0.185  0.00  0.00     0.077 C 
ATOM      8  C7  UNL d   1       0.318   1.106   0.038  0.00  0.00    -0.001 A 
ENDROOT
TORSDOF 0
ENDMDL
