MODEL 1
REMARK minimizedAffinity -4.17822123
REMARK minimizedRMSD -1
REMARK  0 active torsions:
REMARK  status: ('A' for Active; 'I' for Inactive)
ROOT
ATOM      1  C   UNL d   1      -1.854   3.179   1.609  0.00  0.00     0.077 C 
ATOM      2  C1  UNL d   1      -0.892   2.326   0.836  0.00  0.00    -0.074 A 
ATOM      3  C2  UNL d   1       0.241   2.883   0.235  0.00  0.00    -0.005 A 
ATOM      4  C3  UNL d   1       1.131   2.075  -0.472  0.00  0.00     0.006 A 
ATOM      5  C4  UNL d   1       0.897   0.704  -0.586  0.00  0.00    -0.005 A 
ATOM      6  C5  UNL d   1      -0.230   0.129   0.008  0.00  0.00    -0.074 A 
ATOM      7  C6  UNL d   1      -0.492  -1.344  -0.097  0.00  0.00     0.077 C 
ATOM      8  C7  UNL d   1      -1.116   0.946   0.723  0.00  0.00    -0.001 A 
ENDROOT
TORSDOF 0
ENDMDL
