MODEL 1
REMARK minimizedAffinity -0.721227288
REMARK minimizedRMSD -1
REMARK  0 active torsions:
REMARK  status: ('A' for Active; 'I' for Inactive)
ROOT
ATOM      1  C   UNL d   1       0.761  -1.857   0.561  0.00  0.00     0.077 C 
ATOM      2  C1  UNL d   1      -0.118  -2.392  -0.531  0.00  0.00    -0.074 A 
ATOM      3  C2  UNL d   1       0.303  -2.376  -1.865  0.00  0.00    -0.005 A 
ATOM      4  C3  UNL d   1      -0.522  -2.886  -2.868  0.00  0.00     0.006 A 
ATOM      5  C4  UNL d   1      -1.773  -3.415  -2.549  0.00  0.00    -0.005 A 
ATOM      6  C5  UNL d   1      -2.210  -3.440  -1.221  0.00  0.00    -0.074 A 
ATOM      7  C6  UNL d   1      -3.547  -4.014  -0.859  0.00  0.00     0.077 C 
ATOM      8  C7  UNL d   1      -1.373  -2.932  -0.217  0.00  0.00    -0.001 A 
ENDROOT
TORSDOF 0
ENDMDL
