MODEL 1
REMARK minimizedAffinity -2.88625216
REMARK minimizedRMSD -1
REMARK  0 active torsions:
REMARK  status: ('A' for Active; 'I' for Inactive)
ROOT
ATOM      1  C   UNL d   1      -0.829  -0.837   0.137  0.00  0.00     0.077 C 
ATOM      2  C1  UNL d   1      -0.566   0.603   0.463  0.00  0.00    -0.074 A 
ATOM      3  C2  UNL d   1       0.136   1.424  -0.426  0.00  0.00    -0.005 A 
ATOM      4  C3  UNL d   1       0.365   2.764  -0.114  0.00  0.00     0.006 A 
ATOM      5  C4  UNL d   1      -0.105   3.296   1.088  0.00  0.00    -0.005 A 
ATOM      6  C5  UNL d   1      -0.811   2.491   1.988  0.00  0.00    -0.074 A 
ATOM      7  C6  UNL d   1      -1.332   3.049   3.278  0.00  0.00     0.077 C 
ATOM      8  C7  UNL d   1      -1.043   1.147   1.664  0.00  0.00    -0.001 A 
ENDROOT
TORSDOF 0
ENDMDL
