MODEL 1
REMARK minimizedAffinity -5.03632545
REMARK minimizedRMSD -1
REMARK  0 active torsions:
REMARK  status: ('A' for Active; 'I' for Inactive)
ROOT
ATOM      1  C   UNL d   1       2.675   2.961   1.786  0.00  0.00     0.077 C 
ATOM      2  C1  UNL d   1       1.593   2.030   1.326  0.00  0.00    -0.074 A 
ATOM      3  C2  UNL d   1       1.893   0.729   0.909  0.00  0.00    -0.005 A 
ATOM      4  C3  UNL d   1       0.875  -0.129   0.493  0.00  0.00     0.006 A 
ATOM      5  C4  UNL d   1      -0.452   0.305   0.489  0.00  0.00    -0.005 A 
ATOM      6  C5  UNL d   1      -0.771   1.602   0.903  0.00  0.00    -0.074 A 
ATOM      7  C6  UNL d   1      -2.192   2.081   0.914  0.00  0.00     0.077 C 
ATOM      8  C7  UNL d   1       0.257   2.455   1.326  0.00  0.00    -0.001 A 
ENDROOT
TORSDOF 0
ENDMDL
