MODEL 1
REMARK minimizedAffinity -5.38873434
REMARK minimizedRMSD -1
REMARK  0 active torsions:
REMARK  status: ('A' for Active; 'I' for Inactive)
ROOT
ATOM      1  C   UNL d   1      -0.274  -1.437  -0.127  0.00  0.00     0.077 C 
ATOM      2  C1  UNL d   1      -0.061  -0.009   0.279  0.00  0.00    -0.074 A 
ATOM      3  C2  UNL d   1      -1.140   0.873   0.397  0.00  0.00    -0.005 A 
ATOM      4  C3  UNL d   1      -0.927   2.196   0.785  0.00  0.00     0.006 A 
ATOM      5  C4  UNL d   1       0.364   2.650   1.057  0.00  0.00    -0.005 A 
ATOM      6  C5  UNL d   1       1.455   1.782   0.944  0.00  0.00    -0.074 A 
ATOM      7  C6  UNL d   1       2.848   2.251   1.242  0.00  0.00     0.077 C 
ATOM      8  C7  UNL d   1       1.232   0.452   0.561  0.00  0.00    -0.001 A 
ENDROOT
TORSDOF 0
ENDMDL
