MODEL 1
REMARK minimizedAffinity -4.58743238
REMARK minimizedRMSD -1
REMARK  0 active torsions:
REMARK  status: ('A' for Active; 'I' for Inactive)
ROOT
ATOM      1  C   UNL d   1      -0.149  -0.576  -0.015  0.00  0.00     0.077 C 
ATOM      2  C1  UNL d   1      -0.442  -1.941  -0.564  0.00  0.00    -0.074 A 
ATOM      3  C2  UNL d   1       0.486  -2.604  -1.374  0.00  0.00    -0.005 A 
ATOM      4  C3  UNL d   1       0.204  -3.877  -1.870  0.00  0.00     0.006 A 
ATOM      5  C4  UNL d   1      -1.007  -4.498  -1.562  0.00  0.00    -0.005 A 
ATOM      6  C5  UNL d   1      -1.946  -3.851  -0.753  0.00  0.00    -0.074 A 
ATOM      7  C6  UNL d   1      -3.248  -4.509  -0.404  0.00  0.00     0.077 C 
ATOM      8  C7  UNL d   1      -1.653  -2.575  -0.253  0.00  0.00    -0.001 A 
ENDROOT
TORSDOF 0
ENDMDL
