MODEL 1
REMARK minimizedAffinity -5.51590633
REMARK minimizedRMSD -1
REMARK  0 active torsions:
REMARK  status: ('A' for Active; 'I' for Inactive)
ROOT
ATOM      1  C   UNL d   1      -0.701  -2.245  -1.126  0.00  0.00     0.077 C 
ATOM      2  C1  UNL d   1      -0.022  -0.998  -0.641  0.00  0.00    -0.074 A 
ATOM      3  C2  UNL d   1       1.244  -1.053  -0.049  0.00  0.00    -0.005 A 
ATOM      4  C3  UNL d   1       1.867   0.116   0.389  0.00  0.00     0.006 A 
ATOM      5  C4  UNL d   1       1.231   1.349   0.240  0.00  0.00    -0.005 A 
ATOM      6  C5  UNL d   1      -0.034   1.423  -0.350  0.00  0.00    -0.074 A 
ATOM      7  C6  UNL d   1      -0.727   2.742  -0.527  0.00  0.00     0.077 C 
ATOM      8  C7  UNL d   1      -0.651   0.245  -0.794  0.00  0.00    -0.001 A 
ENDROOT
TORSDOF 0
ENDMDL
