MODEL 1
REMARK minimizedAffinity -1.21377027
REMARK minimizedRMSD -1
REMARK  0 active torsions:
REMARK  status: ('A' for Active; 'I' for Inactive)
ROOT
ATOM      1  N1  IND d   1      -1.553   2.079  -0.073  0.00  0.00    -0.196 N 
ATOM      2  C2  IND d   1      -2.329   2.216   1.044  0.00  0.00     0.054 A 
ATOM      3  C3  IND d   1      -2.022   1.262   1.951  0.00  0.00    -0.031 A 
ATOM      4  C4  IND d   1      -0.209  -0.563   1.853  0.00  0.00     0.051 A 
ATOM      5  C5  IND d   1       0.727  -1.108   1.020  0.00  0.00    -0.031 A 
ATOM      6  C6  IND d   1       0.958  -0.607  -0.244  0.00  0.00     0.015 A 
ATOM      7  C7  IND d   1       0.266   0.471  -0.721  0.00  0.00    -0.016 A 
ATOM      8  C8  IND d   1      -0.691   1.022   0.120  0.00  0.00    -0.047 A 
ATOM      9  C9  IND d   1      -0.959   0.491   1.388  0.00  0.00    -0.096 A 
ATOM     10  HN1 IND d   1      -1.596   2.570  -0.777  0.00  0.00     0.298 HD
ENDROOT
TORSDOF 0
ENDMDL
