MODEL 1
REMARK minimizedAffinity -4.37135601
REMARK minimizedRMSD -1
REMARK  0 active torsions:
REMARK  status: ('A' for Active; 'I' for Inactive)
ROOT
ATOM      1  N1  IND d   1       1.107  -0.077  -1.002  0.00  0.00    -0.196 N 
ATOM      2  C2  IND d   1       1.476  -1.271  -0.446  0.00  0.00     0.054 A 
ATOM      3  C3  IND d   1       0.845  -1.454   0.735  0.00  0.00    -0.031 A 
ATOM      4  C4  IND d   1      -0.911   0.026   1.898  0.00  0.00     0.051 A 
ATOM      5  C5  IND d   1      -1.543   1.233   1.793  0.00  0.00    -0.031 A 
ATOM      6  C6  IND d   1      -1.321   2.081   0.727  0.00  0.00     0.015 A 
ATOM      7  C7  IND d   1      -0.463   1.747  -0.283  0.00  0.00    -0.016 A 
ATOM      8  C8  IND d   1       0.185   0.525  -0.175  0.00  0.00    -0.047 A 
ATOM      9  C9  IND d   1      -0.004  -0.321   0.925  0.00  0.00    -0.096 A 
ATOM     10  HN1 IND d   1       1.402   0.243  -1.744  0.00  0.00     0.298 HD
ENDROOT
TORSDOF 0
ENDMDL
