MODEL 1
REMARK minimizedAffinity -5.50031281
REMARK minimizedRMSD -1
REMARK  0 active torsions:
REMARK  status: ('A' for Active; 'I' for Inactive)
ROOT
ATOM      1  N1  IND d   1       0.567   2.037  -0.946  0.00  0.00    -0.196 N 
ATOM      2  C2  IND d   1       1.363   1.003  -1.354  0.00  0.00     0.054 A 
ATOM      3  C3  IND d   1       1.176  -0.076  -0.562  0.00  0.00    -0.031 A 
ATOM      4  C4  IND d   1      -0.460  -0.402   1.399  0.00  0.00     0.051 A 
ATOM      5  C5  IND d   1      -1.367   0.271   2.168  0.00  0.00    -0.031 A 
ATOM      6  C6  IND d   1      -1.685   1.593   1.932  0.00  0.00     0.015 A 
ATOM      7  C7  IND d   1      -1.113   2.291   0.906  0.00  0.00    -0.016 A 
ATOM      8  C8  IND d   1      -0.185   1.613   0.128  0.00  0.00    -0.047 A 
ATOM      9  C9  IND d   1       0.172   0.284   0.389  0.00  0.00    -0.096 A 
ATOM     10  HN1 IND d   1       0.541   2.820  -1.299  0.00  0.00     0.298 HD
ENDROOT
TORSDOF 0
ENDMDL
