MODEL 1
REMARK minimizedAffinity -2.94346809
REMARK minimizedRMSD -1
REMARK  0 active torsions:
REMARK  status: ('A' for Active; 'I' for Inactive)
ROOT
ATOM      1  N1  IND d   1      -0.174  -0.294  -0.555  0.00  0.00    -0.196 N 
ATOM      2  C2  IND d   1       0.699  -0.899   0.307  0.00  0.00     0.054 A 
ATOM      3  C3  IND d   1       0.634  -0.319   1.526  0.00  0.00    -0.031 A 
ATOM      4  C4  IND d   1      -0.903   1.570   2.359  0.00  0.00     0.051 A 
ATOM      5  C5  IND d   1      -1.844   2.463   1.928  0.00  0.00    -0.031 A 
ATOM      6  C6  IND d   1      -2.286   2.482   0.621  0.00  0.00     0.015 A 
ATOM      7  C7  IND d   1      -1.811   1.596  -0.305  0.00  0.00    -0.016 A 
ATOM      8  C8  IND d   1      -0.851   0.692   0.128  0.00  0.00    -0.047 A 
ATOM      9  C9  IND d   1      -0.367   0.697   1.443  0.00  0.00    -0.096 A 
ATOM     10  HN1 IND d   1      -0.281  -0.496  -1.383  0.00  0.00     0.298 HD
ENDROOT
TORSDOF 0
ENDMDL
