MODEL 1
REMARK minimizedAffinity -2.43681455
REMARK minimizedRMSD -1
REMARK  0 active torsions:
REMARK  status: ('A' for Active; 'I' for Inactive)
ROOT
ATOM      1  N1  IND d   1       0.939   0.204  -0.945  0.00  0.00    -0.196 N 
ATOM      2  C2  IND d   1       1.335  -0.916  -0.268  0.00  0.00     0.054 A 
ATOM      3  C3  IND d   1       0.647  -1.033   0.890  0.00  0.00    -0.031 A 
ATOM      4  C4  IND d   1      -1.245   0.442   1.825  0.00  0.00     0.051 A 
ATOM      5  C5  IND d   1      -1.929   1.600   1.582  0.00  0.00    -0.031 A 
ATOM      6  C6  IND d   1      -1.688   2.366   0.460  0.00  0.00     0.015 A 
ATOM      7  C7  IND d   1      -0.759   1.995  -0.471  0.00  0.00    -0.016 A 
ATOM      8  C8  IND d   1      -0.058   0.823  -0.223  0.00  0.00    -0.047 A 
ATOM      9  C9  IND d   1      -0.268   0.064   0.935  0.00  0.00    -0.096 A 
ATOM     10  HN1 IND d   1       1.259   0.477  -1.695  0.00  0.00     0.298 HD
ENDROOT
TORSDOF 0
ENDMDL
