MODEL 1
REMARK minimizedAffinity -4.58033276
REMARK minimizedRMSD -1
REMARK  0 active torsions:
REMARK  status: ('A' for Active; 'I' for Inactive)
ROOT
ATOM      1  N1  IND d   1       0.069  -0.041  -1.324  0.00  0.00    -0.196 N 
ATOM      2  C2  IND d   1       1.036  -0.928  -0.941  0.00  0.00     0.054 A 
ATOM      3  C3  IND d   1       1.127  -0.973   0.407  0.00  0.00    -0.031 A 
ATOM      4  C4  IND d   1      -0.281   0.249   2.183  0.00  0.00     0.051 A 
ATOM      5  C5  IND d   1      -1.259   1.193   2.319  0.00  0.00    -0.031 A 
ATOM      6  C6  IND d   1      -1.859   1.784   1.226  0.00  0.00     0.015 A 
ATOM      7  C7  IND d   1      -1.509   1.443  -0.050  0.00  0.00    -0.016 A 
ATOM      8  C8  IND d   1      -0.511   0.490  -0.192  0.00  0.00    -0.047 A 
ATOM      9  C9  IND d   1       0.131  -0.082   0.913  0.00  0.00    -0.096 A 
ATOM     10  HN1 IND d   1      -0.142   0.154  -2.134  0.00  0.00     0.298 HD
ENDROOT
TORSDOF 0
ENDMDL
