MODEL 1
REMARK minimizedAffinity -2.90308356
REMARK minimizedRMSD -1
REMARK  0 active torsions:
REMARK  status: ('A' for Active; 'I' for Inactive)
ROOT
ATOM      1  N1  IND d   1       1.813  -1.736  -0.724  0.00  0.00    -0.196 N 
ATOM      2  C2  IND d   1       1.076  -1.032  -1.634  0.00  0.00     0.054 A 
ATOM      3  C3  IND d   1       0.425  -1.875  -2.466  0.00  0.00    -0.031 A 
ATOM      4  C4  IND d   1       0.344  -4.448  -2.452  0.00  0.00     0.051 A 
ATOM      5  C5  IND d   1       0.885  -5.540  -1.831  0.00  0.00    -0.031 A 
ATOM      6  C6  IND d   1       1.778  -5.416  -0.787  0.00  0.00     0.015 A 
ATOM      7  C7  IND d   1       2.157  -4.191  -0.315  0.00  0.00    -0.016 A 
ATOM      8  C8  IND d   1       1.616  -3.081  -0.947  0.00  0.00    -0.047 A 
ATOM      9  C9  IND d   1       0.742  -3.200  -2.035  0.00  0.00    -0.096 A 
ATOM     10  HN1 IND d   1       2.315  -1.396  -0.115  0.00  0.00     0.298 HD
ENDROOT
TORSDOF 0
ENDMDL
