MODEL 1
REMARK minimizedAffinity -3.290905
REMARK minimizedRMSD -1
REMARK  0 active torsions:
REMARK  status: ('A' for Active; 'I' for Inactive)
ROOT
ATOM      1  N1  IND d   1       2.039  -0.591  -1.921  0.00  0.00    -0.196 N 
ATOM      2  C2  IND d   1       1.362  -0.119  -0.831  0.00  0.00     0.054 A 
ATOM      3  C3  IND d   1       0.511  -1.060  -0.363  0.00  0.00    -0.031 A 
ATOM      4  C4  IND d   1       0.140  -3.476  -1.169  0.00  0.00     0.051 A 
ATOM      5  C5  IND d   1       0.502  -4.351  -2.155  0.00  0.00    -0.031 A 
ATOM      6  C6  IND d   1       1.416  -4.010  -3.132  0.00  0.00     0.015 A 
ATOM      7  C7  IND d   1       2.012  -2.782  -3.152  0.00  0.00    -0.016 A 
ATOM      8  C8  IND d   1       1.642  -1.889  -2.156  0.00  0.00    -0.047 A 
ATOM      9  C9  IND d   1       0.683  -2.214  -1.188  0.00  0.00    -0.096 A 
ATOM     10  HN1 IND d   1       2.616  -0.151  -2.382  0.00  0.00     0.298 HD
ENDROOT
TORSDOF 0
ENDMDL
