MODEL 1
REMARK minimizedAffinity -3.76456308
REMARK minimizedRMSD -1
REMARK  0 active torsions:
REMARK  status: ('A' for Active; 'I' for Inactive)
ROOT
ATOM      1  N1  IND d   1       0.564   0.487  -1.108  0.00  0.00    -0.196 N 
ATOM      2  C2  IND d   1       1.316  -0.576  -0.692  0.00  0.00     0.054 A 
ATOM      3  C3  IND d   1       1.069  -0.846   0.610  0.00  0.00    -0.031 A 
ATOM      4  C4  IND d   1      -0.603   0.265   2.221  0.00  0.00     0.051 A 
ATOM      5  C5  IND d   1      -1.488   1.303   2.309  0.00  0.00    -0.031 A 
ATOM      6  C6  IND d   1      -1.741   2.137   1.239  0.00  0.00     0.015 A 
ATOM      7  C7  IND d   1      -1.124   1.956   0.034  0.00  0.00    -0.016 A 
ATOM      8  C8  IND d   1      -0.220   0.908  -0.057  0.00  0.00    -0.047 A 
ATOM      9  C9  IND d   1       0.072   0.084   1.038  0.00  0.00    -0.096 A 
ATOM     10  HN1 IND d   1       0.578   0.834  -1.895  0.00  0.00     0.298 HD
ENDROOT
TORSDOF 0
ENDMDL
