MODEL 1
REMARK minimizedAffinity -3.08819532
REMARK minimizedRMSD -1
REMARK  0 active torsions:
REMARK  status: ('A' for Active; 'I' for Inactive)
ROOT
ATOM      1  N1  IND d   1       0.064   2.690  -0.761  0.00  0.00    -0.196 N 
ATOM      2  C2  IND d   1      -0.448   3.849  -0.248  0.00  0.00     0.054 A 
ATOM      3  C3  IND d   1      -1.112   3.601   0.904  0.00  0.00    -0.031 A 
ATOM      4  C4  IND d   1      -1.397   1.385   2.182  0.00  0.00     0.051 A 
ATOM      5  C5  IND d   1      -1.138   0.046   2.089  0.00  0.00    -0.031 A 
ATOM      6  C6  IND d   1      -0.449  -0.490   1.020  0.00  0.00     0.015 A 
ATOM      7  C7  IND d   1       0.019   0.297   0.007  0.00  0.00    -0.016 A 
ATOM      8  C8  IND d   1      -0.248   1.656   0.095  0.00  0.00    -0.047 A 
ATOM      9  C9  IND d   1      -0.984   2.200   1.155  0.00  0.00    -0.096 A 
ATOM     10  HN1 IND d   1       0.507   2.618  -1.494  0.00  0.00     0.298 HD
ENDROOT
TORSDOF 0
ENDMDL
