MODEL 1
REMARK minimizedAffinity -4.61641502
REMARK minimizedRMSD -1
REMARK  0 active torsions:
REMARK  status: ('A' for Active; 'I' for Inactive)
ROOT
ATOM      1  N1  IND d   1      -0.307   0.272   0.270  0.00  0.00    -0.196 N 
ATOM      2  C2  IND d   1      -1.030  -0.220   1.321  0.00  0.00     0.054 A 
ATOM      3  C3  IND d   1      -1.644   0.787   1.982  0.00  0.00    -0.031 A 
ATOM      4  C4  IND d   1      -1.685   3.306   1.452  0.00  0.00     0.051 A 
ATOM      5  C5  IND d   1      -1.145   4.239   0.612  0.00  0.00    -0.031 A 
ATOM      6  C6  IND d   1      -0.283   3.889  -0.408  0.00  0.00     0.015 A 
ATOM      7  C7  IND d   1       0.064   2.587  -0.633  0.00  0.00    -0.016 A 
ATOM      8  C8  IND d   1      -0.477   1.638   0.223  0.00  0.00    -0.047 A 
ATOM      9  C9  IND d   1      -1.319   1.991   1.286  0.00  0.00    -0.096 A 
ATOM     10  HN1 IND d   1       0.172  -0.194  -0.271  0.00  0.00     0.298 HD
ENDROOT
TORSDOF 0
ENDMDL
