MODEL 1
REMARK minimizedAffinity -0.860957921
REMARK minimizedRMSD -1
REMARK  0 active torsions:
REMARK  status: ('A' for Active; 'I' for Inactive)
ROOT
ATOM      1  N1  IND d   1      -0.643  -0.055   1.241  0.00  0.00    -0.196 N 
ATOM      2  C2  IND d   1      -1.329   0.381   2.340  0.00  0.00     0.054 A 
ATOM      3  C3  IND d   1      -1.506   1.720   2.283  0.00  0.00    -0.031 A 
ATOM      4  C4  IND d   1      -0.842   3.380   0.431  0.00  0.00     0.051 A 
ATOM      5  C5  IND d   1      -0.163   3.459  -0.752  0.00  0.00    -0.031 A 
ATOM      6  C6  IND d   1       0.400   2.348  -1.345  0.00  0.00     0.015 A 
ATOM      7  C7  IND d   1       0.294   1.108  -0.780  0.00  0.00    -0.016 A 
ATOM      8  C8  IND d   1      -0.389   1.026   0.425  0.00  0.00    -0.047 A 
ATOM      9  C9  IND d   1      -0.925   2.157   1.053  0.00  0.00    -0.096 A 
ATOM     10  HN1 IND d   1      -0.410  -0.868   1.085  0.00  0.00     0.298 HD
ENDROOT
TORSDOF 0
ENDMDL
