MODEL 1
REMARK minimizedAffinity -6.15149927
REMARK minimizedRMSD -1
REMARK  0 active torsions:
REMARK  status: ('A' for Active; 'I' for Inactive)
ROOT
ATOM      1  N1  IND d   1       1.669   0.476  -0.633  0.00  0.00    -0.196 N 
ATOM      2  C2  IND d   1       1.513   1.592  -1.407  0.00  0.00     0.054 A 
ATOM      3  C3  IND d   1       0.421   2.286  -1.016  0.00  0.00    -0.031 A 
ATOM      4  C4  IND d   1      -1.198   1.828   0.932  0.00  0.00     0.051 A 
ATOM      5  C5  IND d   1      -1.486   0.906   1.900  0.00  0.00    -0.031 A 
ATOM      6  C6  IND d   1      -0.719  -0.228   2.078  0.00  0.00     0.015 A 
ATOM      7  C7  IND d   1       0.375  -0.477   1.298  0.00  0.00    -0.016 A 
ATOM      8  C8  IND d   1       0.666   0.453   0.310  0.00  0.00    -0.047 A 
ATOM      9  C9  IND d   1      -0.133   1.584   0.098  0.00  0.00    -0.096 A 
ATOM     10  HN1 IND d   1       2.289  -0.113  -0.722  0.00  0.00     0.298 HD
ENDROOT
TORSDOF 0
ENDMDL
