MODEL 1
REMARK minimizedAffinity -1.75693858
REMARK minimizedRMSD -1
REMARK  0 active torsions:
REMARK  status: ('A' for Active; 'I' for Inactive)
ROOT
ATOM      1  N1  IND d   1       1.499  -2.902  -0.326  0.00  0.00    -0.196 N 
ATOM      2  C2  IND d   1       1.521  -3.420  -1.591  0.00  0.00     0.054 A 
ATOM      3  C3  IND d   1       1.002  -2.535  -2.471  0.00  0.00    -0.031 A 
ATOM      4  C4  IND d   1       0.149  -0.139  -2.071  0.00  0.00     0.051 A 
ATOM      5  C5  IND d   1      -0.104   0.762  -1.075  0.00  0.00    -0.031 A 
ATOM      6  C6  IND d   1       0.172   0.483   0.248  0.00  0.00     0.015 A 
ATOM      7  C7  IND d   1       0.725  -0.708   0.624  0.00  0.00    -0.016 A 
ATOM      8  C8  IND d   1       0.977  -1.628  -0.383  0.00  0.00    -0.047 A 
ATOM      9  C9  IND d   1       0.659  -1.367  -1.723  0.00  0.00    -0.096 A 
ATOM     10  HN1 IND d   1       1.767  -3.303   0.386  0.00  0.00     0.298 HD
ENDROOT
TORSDOF 0
ENDMDL
