MODEL 1
REMARK minimizedAffinity -2.38082743
REMARK minimizedRMSD -1
REMARK  0 active torsions:
REMARK  status: ('A' for Active; 'I' for Inactive)
ROOT
ATOM      1  N1  IND d   1       1.120  -5.921  -1.941  0.00  0.00    -0.196 N 
ATOM      2  C2  IND d   1       1.684  -6.000  -0.698  0.00  0.00     0.054 A 
ATOM      3  C3  IND d   1       1.869  -4.762  -0.186  0.00  0.00    -0.031 A 
ATOM      4  C4  IND d   1       1.227  -2.472  -1.172  0.00  0.00     0.051 A 
ATOM      5  C5  IND d   1       0.722  -1.888  -2.299  0.00  0.00    -0.031 A 
ATOM      6  C6  IND d   1       0.312  -2.634  -3.386  0.00  0.00     0.015 A 
ATOM      7  C7  IND d   1       0.383  -3.999  -3.381  0.00  0.00    -0.016 A 
ATOM      8  C8  IND d   1       0.903  -4.595  -2.240  0.00  0.00    -0.047 A 
ATOM      9  C9  IND d   1       1.359  -3.841  -1.151  0.00  0.00    -0.096 A 
ATOM     10  HN1 IND d   1       0.934  -6.589  -2.450  0.00  0.00     0.298 HD
ENDROOT
TORSDOF 0
ENDMDL
