MODEL 1
REMARK minimizedAffinity -2.34774613
REMARK minimizedRMSD -1
REMARK  0 active torsions:
REMARK  status: ('A' for Active; 'I' for Inactive)
ROOT
ATOM      1  N1  IND d   1       0.720  -5.832  -1.125  0.00  0.00    -0.196 N 
ATOM      2  C2  IND d   1       1.736  -5.893  -0.212  0.00  0.00     0.054 A 
ATOM      3  C3  IND d   1       2.271  -4.666  -0.023  0.00  0.00    -0.031 A 
ATOM      4  C4  IND d   1       1.569  -2.402  -1.028  0.00  0.00     0.051 A 
ATOM      5  C5  IND d   1       0.717  -1.846  -1.940  0.00  0.00    -0.031 A 
ATOM      6  C6  IND d   1      -0.198  -2.606  -2.640  0.00  0.00     0.015 A 
ATOM      7  C7  IND d   1      -0.303  -3.954  -2.444  0.00  0.00    -0.016 A 
ATOM      8  C8  IND d   1       0.565  -4.523  -1.523  0.00  0.00    -0.047 A 
ATOM      9  C9  IND d   1       1.525  -3.763  -0.841  0.00  0.00    -0.096 A 
ATOM     10  HN1 IND d   1       0.256  -6.500  -1.404  0.00  0.00     0.298 HD
ENDROOT
TORSDOF 0
ENDMDL
