MODEL 1
REMARK minimizedAffinity -1.86629784
REMARK minimizedRMSD -1
REMARK  0 active torsions:
REMARK  status: ('A' for Active; 'I' for Inactive)
ROOT
ATOM      1  N1  IND d   1      -0.412  -0.603  -1.466  0.00  0.00    -0.196 N 
ATOM      2  C2  IND d   1       0.690  -1.388  -1.271  0.00  0.00     0.054 A 
ATOM      3  C3  IND d   1       1.196  -1.189  -0.033  0.00  0.00    -0.031 A 
ATOM      4  C4  IND d   1       0.314   0.298   1.875  0.00  0.00     0.051 A 
ATOM      5  C5  IND d   1      -0.644   1.229   2.159  0.00  0.00    -0.031 A 
ATOM      6  C6  IND d   1      -1.595   1.603   1.232  0.00  0.00     0.015 A 
ATOM      7  C7  IND d   1      -1.630   1.048  -0.016  0.00  0.00    -0.016 A 
ATOM      8  C8  IND d   1      -0.654   0.107  -0.311  0.00  0.00    -0.047 A 
ATOM      9  C9  IND d   1       0.339  -0.245   0.612  0.00  0.00    -0.096 A 
ATOM     10  HN1 IND d   1      -0.877  -0.561  -2.188  0.00  0.00     0.298 HD
ENDROOT
TORSDOF 0
ENDMDL
