MODEL 1
REMARK minimizedAffinity 11.4370928
REMARK minimizedRMSD -1
REMARK  0 active torsions:
REMARK  status: ('A' for Active; 'I' for Inactive)
ROOT
ATOM      1  C1  DEN d   1       2.063  -0.135  -0.022  0.00  0.00     0.130 A 
ATOM      2  C2  DEN d   1       2.126   1.316  -0.176  0.00  0.00    -0.031 A 
ATOM      3  C3  DEN d   1       1.362   1.681  -1.386  0.00  0.00     0.027 A 
ATOM      4  C4  DEN d   1       0.089   0.149  -3.024  0.00  0.00     0.027 A 
ATOM      5  C5  DEN d   1      -0.240  -1.156  -3.315  0.00  0.00    -0.003 A 
ATOM      6  C6  DEN d   1       0.199  -2.207  -2.554  0.00  0.00     0.001 A 
ATOM      7  C7  DEN d   1       0.957  -1.967  -1.438  0.00  0.00     0.017 A 
ATOM      8  C8  DEN d   1       1.299  -0.654  -1.143  0.00  0.00    -0.094 A 
ATOM      9  C9  DEN d   1       0.835   0.396  -1.917  0.00  0.00    -0.072 A 
ENDROOT
TORSDOF 0
ENDMDL
