MODEL 1
REMARK minimizedAffinity 12.7633724
REMARK minimizedRMSD -1
REMARK  0 active torsions:
REMARK  status: ('A' for Active; 'I' for Inactive)
ROOT
ATOM      1  C1  DEN d   1       4.063  -0.479  -0.644  0.00  0.00     0.130 A 
ATOM      2  C2  DEN d   1       3.675   0.884  -0.291  0.00  0.00    -0.031 A 
ATOM      3  C3  DEN d   1       2.201   0.935  -0.220  0.00  0.00     0.027 A 
ATOM      4  C4  DEN d   1       0.491  -0.955  -0.617  0.00  0.00     0.027 A 
ATOM      5  C5  DEN d   1       0.343  -2.282  -0.952  0.00  0.00    -0.003 A 
ATOM      6  C6  DEN d   1       1.414  -3.087  -1.239  0.00  0.00     0.001 A 
ATOM      7  C7  DEN d   1       2.685  -2.582  -1.152  0.00  0.00     0.017 A 
ATOM      8  C8  DEN d   1       2.841  -1.242  -0.822  0.00  0.00    -0.094 A 
ATOM      9  C9  DEN d   1       1.747  -0.449  -0.524  0.00  0.00    -0.072 A 
ENDROOT
TORSDOF 0
ENDMDL
