MODEL 1
REMARK minimizedAffinity -2.15238023
REMARK minimizedRMSD -1
REMARK  0 active torsions:
REMARK  status: ('A' for Active; 'I' for Inactive)
ROOT
ATOM      1  C1  DEN d   1       0.163   1.212   0.456  0.00  0.00     0.130 A 
ATOM      2  C2  DEN d   1       1.528   1.711   0.317  0.00  0.00    -0.031 A 
ATOM      3  C3  DEN d   1       2.104   1.131  -0.913  0.00  0.00     0.027 A 
ATOM      4  C4  DEN d   1       1.017  -0.480  -2.609  0.00  0.00     0.027 A 
ATOM      5  C5  DEN d   1      -0.123  -1.193  -2.909  0.00  0.00    -0.003 A 
ATOM      6  C6  DEN d   1      -1.226  -1.180  -2.098  0.00  0.00     0.001 A 
ATOM      7  C7  DEN d   1      -1.230  -0.405  -0.968  0.00  0.00     0.017 A 
ATOM      8  C8  DEN d   1      -0.082   0.310  -0.655  0.00  0.00    -0.094 A 
ATOM      9  C9  DEN d   1       1.019   0.294  -1.495  0.00  0.00    -0.072 A 
ENDROOT
TORSDOF 0
ENDMDL
