MODEL 1
REMARK minimizedAffinity -0.378407359
REMARK minimizedRMSD -1
REMARK  0 active torsions:
REMARK  status: ('A' for Active; 'I' for Inactive)
ROOT
ATOM      1  C1  DEN d   1       2.278   1.211  -1.531  0.00  0.00     0.130 A 
ATOM      2  C2  DEN d   1       2.441   2.515  -0.895  0.00  0.00    -0.031 A 
ATOM      3  C3  DEN d   1       1.692   2.499   0.378  0.00  0.00     0.027 A 
ATOM      4  C4  DEN d   1       0.308   0.590   1.422  0.00  0.00     0.027 A 
ATOM      5  C5  DEN d   1      -0.132  -0.704   1.246  0.00  0.00    -0.003 A 
ATOM      6  C6  DEN d   1       0.169  -1.432   0.126  0.00  0.00     0.001 A 
ATOM      7  C7  DEN d   1       0.971  -0.887  -0.843  0.00  0.00     0.017 A 
ATOM      8  C8  DEN d   1       1.412   0.419  -0.676  0.00  0.00    -0.094 A 
ATOM      9  C9  DEN d   1       1.107   1.135   0.470  0.00  0.00    -0.072 A 
ENDROOT
TORSDOF 0
ENDMDL
