MODEL 1
REMARK minimizedAffinity 21.6053905
REMARK minimizedRMSD -1
REMARK  0 active torsions:
REMARK  status: ('A' for Active; 'I' for Inactive)
ROOT
ATOM      1  C1  DEN d   1       4.230  -0.526  -0.035  0.00  0.00     0.130 A 
ATOM      2  C2  DEN d   1       4.324   0.918  -0.234  0.00  0.00    -0.031 A 
ATOM      3  C3  DEN d   1       3.008   1.401  -0.698  0.00  0.00     0.027 A 
ATOM      4  C4  DEN d   1       0.844   0.063  -1.119  0.00  0.00     0.027 A 
ATOM      5  C5  DEN d   1       0.279  -1.193  -1.099  0.00  0.00    -0.003 A 
ATOM      6  C6  DEN d   1       0.995  -2.310  -0.759  0.00  0.00     0.001 A 
ATOM      7  C7  DEN d   1       2.306  -2.188  -0.380  0.00  0.00     0.017 A 
ATOM      8  C8  DEN d   1       2.884  -0.925  -0.405  0.00  0.00    -0.094 A 
ATOM      9  C9  DEN d   1       2.141   0.193  -0.740  0.00  0.00    -0.072 A 
ENDROOT
TORSDOF 0
ENDMDL
