MODEL 1
REMARK minimizedAffinity 11.8438101
REMARK minimizedRMSD -1
REMARK  0 active torsions:
REMARK  status: ('A' for Active; 'I' for Inactive)
ROOT
ATOM      1  C1  DEN d   1       0.559  -5.487  -3.813  0.00  0.00     0.130 A 
ATOM      2  C2  DEN d   1      -0.731  -4.833  -4.015  0.00  0.00    -0.031 A 
ATOM      3  C3  DEN d   1      -0.851  -3.744  -3.026  0.00  0.00     0.027 A 
ATOM      4  C4  DEN d   1       0.829  -3.005  -1.213  0.00  0.00     0.027 A 
ATOM      5  C5  DEN d   1       2.059  -3.266  -0.649  0.00  0.00    -0.003 A 
ATOM      6  C6  DEN d   1       2.853  -4.298  -1.074  0.00  0.00     0.001 A 
ATOM      7  C7  DEN d   1       2.447  -5.080  -2.123  0.00  0.00     0.017 A 
ATOM      8  C8  DEN d   1       1.205  -4.828  -2.692  0.00  0.00    -0.094 A 
ATOM      9  C9  DEN d   1       0.422  -3.772  -2.256  0.00  0.00    -0.072 A 
ENDROOT
TORSDOF 0
ENDMDL
