MODEL 1
REMARK minimizedAffinity 6.20221853
REMARK minimizedRMSD -1
REMARK  0 active torsions:
REMARK  status: ('A' for Active; 'I' for Inactive)
ROOT
ATOM      1  C1  DEN d   1       1.504   2.255  -1.249  0.00  0.00     0.130 A 
ATOM      2  C2  DEN d   1       1.460   1.398  -0.067  0.00  0.00    -0.031 A 
ATOM      3  C3  DEN d   1       1.331   2.266   1.121  0.00  0.00     0.027 A 
ATOM      4  C4  DEN d   1       1.191   4.838   1.244  0.00  0.00     0.027 A 
ATOM      5  C5  DEN d   1       1.199   6.000   0.504  0.00  0.00    -0.003 A 
ATOM      6  C6  DEN d   1       1.342   5.996  -0.859  0.00  0.00     0.001 A 
ATOM      7  C7  DEN d   1       1.438   4.804  -1.528  0.00  0.00     0.017 A 
ATOM      8  C8  DEN d   1       1.438   3.630  -0.787  0.00  0.00    -0.094 A 
ATOM      9  C9  DEN d   1       1.280   3.654   0.588  0.00  0.00    -0.072 A 
ENDROOT
TORSDOF 0
ENDMDL
