MODEL 1
REMARK minimizedAffinity 9.46164227
REMARK minimizedRMSD -1
REMARK  0 active torsions:
REMARK  status: ('A' for Active; 'I' for Inactive)
ROOT
ATOM      1  C1  DEN d   1       1.122  -3.751  -3.290  0.00  0.00     0.130 A 
ATOM      2  C2  DEN d   1       2.110  -4.505  -2.523  0.00  0.00    -0.031 A 
ATOM      3  C3  DEN d   1       2.507  -3.685  -1.361  0.00  0.00     0.027 A 
ATOM      4  C4  DEN d   1       1.690  -1.335  -0.677  0.00  0.00     0.027 A 
ATOM      5  C5  DEN d   1       0.864  -0.289  -1.024  0.00  0.00    -0.003 A 
ATOM      6  C6  DEN d   1       0.098  -0.309  -2.159  0.00  0.00     0.001 A 
ATOM      7  C7  DEN d   1       0.108  -1.417  -2.966  0.00  0.00     0.017 A 
ATOM      8  C8  DEN d   1       0.944  -2.472  -2.626  0.00  0.00    -0.094 A 
ATOM      9  C9  DEN d   1       1.702  -2.438  -1.468  0.00  0.00    -0.072 A 
ENDROOT
TORSDOF 0
ENDMDL
