MODEL 1
REMARK minimizedAffinity -0.386706084
REMARK minimizedRMSD -1
REMARK  0 active torsions:
REMARK  status: ('A' for Active; 'I' for Inactive)
ROOT
ATOM      1  C1  DEN d   1       0.696   1.036   0.536  0.00  0.00     0.130 A 
ATOM      2  C2  DEN d   1      -0.093   0.012   1.215  0.00  0.00    -0.031 A 
ATOM      3  C3  DEN d   1      -0.502  -0.990   0.209  0.00  0.00     0.027 A 
ATOM      4  C4  DEN d   1       0.013  -1.057  -2.317  0.00  0.00     0.027 A 
ATOM      5  C5  DEN d   1       0.638  -0.399  -3.353  0.00  0.00    -0.003 A 
ATOM      6  C6  DEN d   1       1.292   0.791  -3.173  0.00  0.00     0.001 A 
ATOM      7  C7  DEN d   1       1.374   1.338  -1.920  0.00  0.00     0.017 A 
ATOM      8  C8  DEN d   1       0.740   0.684  -0.872  0.00  0.00    -0.094 A 
ATOM      9  C9  DEN d   1       0.095  -0.525  -1.071  0.00  0.00    -0.072 A 
ENDROOT
TORSDOF 0
ENDMDL
