MODEL 1
REMARK minimizedAffinity -3.33332276
REMARK minimizedRMSD -1
REMARK  1 active torsions:
REMARK  status: ('A' for Active; 'I' for Inactive)
REMARK    1  A    between atoms: N_2  and  C1_3 
ROOT
ATOM      1  C1  UNL d   1       0.712   0.069  -0.115  0.00  0.00     0.143 A 
ATOM      2  C2  UNL d   1       1.616  -0.993  -0.225  0.00  0.00    -0.057 A 
ATOM      3  C3  UNL d   1       2.901  -0.913   0.326  0.00  0.00     0.033 A 
ATOM      4  C4  UNL d   1       3.315   0.246   0.972  0.00  0.00    -0.042 A 
ATOM      5  C5  UNL d   1       2.442   1.324   1.071  0.00  0.00     0.033 A 
ATOM      6  C6  UNL d   1       1.158   1.235   0.526  0.00  0.00    -0.057 A 
ENDROOT
BRANCH   1   7
ATOM      7  N   UNL d   1      -0.544   0.087  -0.726  0.00  0.00    -0.732 N 
ATOM      8  C   UNL d   1      -1.716   0.513   0.009  0.00  0.00     0.284 C 
ATOM      9  H3  UNL d   1      -0.506   0.432  -1.683  0.00  0.00     0.395 HD
ENDBRANCH   1   7
TORSDOF 1
ENDMDL
