MODEL 1
REMARK minimizedAffinity -4.8256216
REMARK minimizedRMSD -1
REMARK  1 active torsions:
REMARK  status: ('A' for Active; 'I' for Inactive)
REMARK    1  A    between atoms: N_2  and  C1_3 
ROOT
ATOM      1  C1  UNL d   1       0.519   0.272   0.085  0.00  0.00     0.143 A 
ATOM      2  C2  UNL d   1       0.882  -1.074   0.199  0.00  0.00    -0.057 A 
ATOM      3  C3  UNL d   1       2.198  -1.449   0.494  0.00  0.00     0.033 A 
ATOM      4  C4  UNL d   1       3.185  -0.480   0.651  0.00  0.00    -0.042 A 
ATOM      5  C5  UNL d   1       2.852   0.863   0.518  0.00  0.00     0.033 A 
ATOM      6  C6  UNL d   1       1.534   1.231   0.230  0.00  0.00    -0.057 A 
ENDROOT
BRANCH   1   7
ATOM      7  N   UNL d   1      -0.752   0.705  -0.303  0.00  0.00    -0.732 N 
ATOM      8  C   UNL d   1      -1.853   0.695   0.637  0.00  0.00     0.284 C 
ATOM      9  H3  UNL d   1      -0.716   1.533  -0.893  0.00  0.00     0.395 HD
ENDBRANCH   1   7
TORSDOF 1
ENDMDL
