MODEL 1
REMARK minimizedAffinity -5.04477119
REMARK minimizedRMSD -1
REMARK  1 active torsions:
REMARK  status: ('A' for Active; 'I' for Inactive)
REMARK    1  A    between atoms: N_2  and  C1_3 
ROOT
ATOM      1  C1  UNL d   1       1.871  -0.405   0.081  0.00  0.00     0.143 A 
ATOM      2  C2  UNL d   1       1.009   0.696   0.127  0.00  0.00    -0.057 A 
ATOM      3  C3  UNL d   1      -0.260   0.650  -0.464  0.00  0.00     0.033 A 
ATOM      4  C4  UNL d   1      -0.678  -0.491  -1.139  0.00  0.00    -0.042 A 
ATOM      5  C5  UNL d   1       0.171  -1.589  -1.219  0.00  0.00     0.033 A 
ATOM      6  C6  UNL d   1       1.434  -1.539  -0.621  0.00  0.00    -0.057 A 
ENDROOT
BRANCH   1   7
ATOM      7  N   UNL d   1       3.181  -0.387   0.564  0.00  0.00    -0.732 N 
ATOM      8  C   UNL d   1       4.088   0.679   0.197  0.00  0.00     0.284 C 
ATOM      9  H3  UNL d   1       3.239  -0.664   1.541  0.00  0.00     0.395 HD
ENDBRANCH   1   7
TORSDOF 1
ENDMDL
