MODEL 1
REMARK minimizedAffinity -4.70926142
REMARK minimizedRMSD -1
REMARK  1 active torsions:
REMARK  status: ('A' for Active; 'I' for Inactive)
REMARK    1  A    between atoms: N_2  and  C1_3 
ROOT
ATOM      1  C1  UNL d   1       0.701  -0.062  -0.053  0.00  0.00     0.143 A 
ATOM      2  C2  UNL d   1       1.203  -1.309  -0.441  0.00  0.00    -0.057 A 
ATOM      3  C3  UNL d   1       2.496  -1.712  -0.086  0.00  0.00     0.033 A 
ATOM      4  C4  UNL d   1       3.322  -0.861   0.641  0.00  0.00    -0.042 A 
ATOM      5  C5  UNL d   1       2.852   0.392   1.015  0.00  0.00     0.033 A 
ATOM      6  C6  UNL d   1       1.558   0.787   0.664  0.00  0.00    -0.057 A 
ENDROOT
BRANCH   1   7
ATOM      7  N   UNL d   1      -0.540   0.437  -0.459  0.00  0.00    -0.732 N 
ATOM      8  C   UNL d   1      -1.690   0.353   0.416  0.00  0.00     0.284 C 
ATOM      9  H3  UNL d   1      -0.459   1.321  -0.956  0.00  0.00     0.395 HD
ENDBRANCH   1   7
TORSDOF 1
ENDMDL
