MODEL 1
REMARK minimizedAffinity -6.11483097
REMARK minimizedRMSD -1
REMARK  0 active torsions:
REMARK  status: ('A' for Active; 'I' for Inactive)
ROOT
ATOM      1  N1  IND d   1      -0.339   3.886   1.279  0.00  0.00    -0.196 N 
ATOM      2  C2  IND d   1      -0.197   4.981   2.085  0.00  0.00     0.054 A 
ATOM      3  C3  IND d   1      -1.010   5.978   1.670  0.00  0.00    -0.031 A 
ATOM      4  C4  IND d   1      -2.730   5.996  -0.245  0.00  0.00     0.051 A 
ATOM      5  C5  IND d   1      -3.193   5.239  -1.285  0.00  0.00    -0.031 A 
ATOM      6  C6  IND d   1      -2.721   3.965  -1.526  0.00  0.00     0.015 A 
ATOM      7  C7  IND d   1      -1.772   3.394  -0.726  0.00  0.00    -0.016 A 
ATOM      8  C8  IND d   1      -1.294   4.163   0.326  0.00  0.00    -0.047 A 
ATOM      9  C9  IND d   1      -1.739   5.472   0.550  0.00  0.00    -0.096 A 
ATOM     10  HN1 IND d   1       0.096   3.148   1.355  0.00  0.00     0.298 HD
ENDROOT
TORSDOF 0
ENDMDL
