MODEL 1
REMARK minimizedAffinity -5.69473219
REMARK minimizedRMSD -1
REMARK  0 active torsions:
REMARK  status: ('A' for Active; 'I' for Inactive)
ROOT
ATOM      1  N1  IND d   1       1.991  -2.529   2.098  0.00  0.00    -0.196 N 
ATOM      2  C2  IND d   1       2.496  -1.404   2.690  0.00  0.00     0.054 A 
ATOM      3  C3  IND d   1       1.779  -0.318   2.324  0.00  0.00    -0.031 A 
ATOM      4  C4  IND d   1      -0.322  -0.168   0.844  0.00  0.00     0.051 A 
ATOM      5  C5  IND d   1      -1.136  -0.925   0.048  0.00  0.00    -0.031 A 
ATOM      6  C6  IND d   1      -0.946  -2.283  -0.106  0.00  0.00     0.015 A 
ATOM      7  C7  IND d   1       0.062  -2.939   0.541  0.00  0.00    -0.016 A 
ATOM      8  C8  IND d   1       0.894  -2.173   1.345  0.00  0.00    -0.047 A 
ATOM      9  C9  IND d   1       0.732  -0.787   1.472  0.00  0.00    -0.096 A 
ATOM     10  HN1 IND d   1       2.307  -3.324   2.181  0.00  0.00     0.298 HD
ENDROOT
TORSDOF 0
ENDMDL
