MODEL 1
REMARK minimizedAffinity -2.54061866
REMARK minimizedRMSD -1
REMARK  0 active torsions:
REMARK  status: ('A' for Active; 'I' for Inactive)
ROOT
ATOM      1  N1  IND d   1       1.910   2.293   1.444  0.00  0.00    -0.196 N 
ATOM      2  C2  IND d   1       2.038   3.457   0.739  0.00  0.00     0.054 A 
ATOM      3  C3  IND d   1       1.340   3.387  -0.417  0.00  0.00    -0.031 A 
ATOM      4  C4  IND d   1      -0.166   1.498  -1.306  0.00  0.00     0.051 A 
ATOM      5  C5  IND d   1      -0.566   0.220  -1.032  0.00  0.00    -0.031 A 
ATOM      6  C6  IND d   1      -0.156  -0.444   0.106  0.00  0.00     0.015 A 
ATOM      7  C7  IND d   1       0.665   0.151   1.022  0.00  0.00    -0.016 A 
ATOM      8  C8  IND d   1       1.079   1.446   0.743  0.00  0.00    -0.047 A 
ATOM      9  C9  IND d   1       0.700   2.110  -0.431  0.00  0.00    -0.096 A 
ATOM     10  HN1 IND d   1       2.285   2.119   2.197  0.00  0.00     0.298 HD
ENDROOT
TORSDOF 0
ENDMDL
