MODEL 1
REMARK minimizedAffinity -3.98249888
REMARK minimizedRMSD -1
REMARK  0 active torsions:
REMARK  status: ('A' for Active; 'I' for Inactive)
ROOT
ATOM      1  N1  IND d   1       0.480   0.095  -0.409  0.00  0.00    -0.196 N 
ATOM      2  C2  IND d   1      -0.650  -0.565  -0.013  0.00  0.00     0.054 A 
ATOM      3  C3  IND d   1      -1.549   0.306   0.498  0.00  0.00    -0.031 A 
ATOM      4  C4  IND d   1      -1.417   2.870   0.687  0.00  0.00     0.051 A 
ATOM      5  C5  IND d   1      -0.567   3.922   0.491  0.00  0.00    -0.031 A 
ATOM      6  C6  IND d   1       0.700   3.749  -0.028  0.00  0.00     0.015 A 
ATOM      7  C7  IND d   1       1.162   2.513  -0.383  0.00  0.00    -0.016 A 
ATOM      8  C8  IND d   1       0.304   1.441  -0.179  0.00  0.00    -0.047 A 
ATOM      9  C9  IND d   1      -0.967   1.606   0.387  0.00  0.00    -0.096 A 
ATOM     10  HN1 IND d   1       1.182  -0.270  -0.746  0.00  0.00     0.298 HD
ENDROOT
TORSDOF 0
ENDMDL
