MODEL 1
REMARK minimizedAffinity -4.22056246
REMARK minimizedRMSD -1
REMARK  0 active torsions:
REMARK  status: ('A' for Active; 'I' for Inactive)
ROOT
ATOM      1  N1  IND d   1      -1.056  -0.520  -0.071  0.00  0.00    -0.196 N 
ATOM      2  C2  IND d   1      -0.034  -1.039  -0.816  0.00  0.00     0.054 A 
ATOM      3  C3  IND d   1       0.624  -0.052  -1.465  0.00  0.00    -0.031 A 
ATOM      4  C4  IND d   1       0.258   2.495  -1.368  0.00  0.00     0.051 A 
ATOM      5  C5  IND d   1      -0.580   3.444  -0.853  0.00  0.00    -0.031 A 
ATOM      6  C6  IND d   1      -1.639   3.114  -0.032  0.00  0.00     0.015 A 
ATOM      7  C7  IND d   1      -1.894   1.818   0.315  0.00  0.00    -0.016 A 
ATOM      8  C8  IND d   1      -1.050   0.850  -0.212  0.00  0.00    -0.047 A 
ATOM      9  C9  IND d   1       0.001   1.175  -1.080  0.00  0.00    -0.096 A 
ATOM     10  HN1 IND d   1      -1.610  -0.973   0.405  0.00  0.00     0.298 HD
ENDROOT
TORSDOF 0
ENDMDL
