MODEL 1
REMARK minimizedAffinity -0.5392012
REMARK minimizedRMSD -1
REMARK  0 active torsions:
REMARK  status: ('A' for Active; 'I' for Inactive)
ROOT
ATOM      1  N1  IND d   1       0.019   5.231   2.462  0.00  0.00    -0.196 N 
ATOM      2  C2  IND d   1      -1.160   4.554   2.325  0.00  0.00     0.054 A 
ATOM      3  C3  IND d   1      -1.004   3.504   1.487  0.00  0.00    -0.031 A 
ATOM      4  C4  IND d   1       1.121   2.650   0.312  0.00  0.00     0.051 A 
ATOM      5  C5  IND d   1       2.436   2.961   0.104  0.00  0.00    -0.031 A 
ATOM      6  C6  IND d   1       3.025   4.065   0.686  0.00  0.00     0.015 A 
ATOM      7  C7  IND d   1       2.320   4.897   1.510  0.00  0.00    -0.016 A 
ATOM      8  C8  IND d   1       0.984   4.589   1.717  0.00  0.00    -0.047 A 
ATOM      9  C9  IND d   1       0.370   3.493   1.096  0.00  0.00    -0.096 A 
ATOM     10  HN1 IND d   1       0.139   5.939   2.935  0.00  0.00     0.298 HD
ENDROOT
TORSDOF 0
ENDMDL
