MODEL 1
REMARK minimizedAffinity 0.846897304
REMARK minimizedRMSD -1
REMARK  0 active torsions:
REMARK  status: ('A' for Active; 'I' for Inactive)
ROOT
ATOM      1  N1  IND d   1      -1.161   1.679   1.065  0.00  0.00    -0.196 N 
ATOM      2  C2  IND d   1      -0.882   2.794   0.324  0.00  0.00     0.054 A 
ATOM      3  C3  IND d   1      -0.313   2.447  -0.852  0.00  0.00    -0.031 A 
ATOM      4  C4  IND d   1       0.161   0.106  -1.812  0.00  0.00     0.051 A 
ATOM      5  C5  IND d   1       0.113  -1.221  -1.489  0.00  0.00    -0.031 A 
ATOM      6  C6  IND d   1      -0.374  -1.658  -0.274  0.00  0.00     0.015 A 
ATOM      7  C7  IND d   1      -0.844  -0.781   0.662  0.00  0.00    -0.016 A 
ATOM      8  C8  IND d   1      -0.791   0.567   0.340  0.00  0.00    -0.047 A 
ATOM      9  C9  IND d   1      -0.258   1.019  -0.874  0.00  0.00    -0.096 A 
ATOM     10  HN1 IND d   1      -1.509   1.673   1.851  0.00  0.00     0.298 HD
ENDROOT
TORSDOF 0
ENDMDL
