MODEL 1
REMARK minimizedAffinity -2.48425746
REMARK minimizedRMSD -1
REMARK  0 active torsions:
REMARK  status: ('A' for Active; 'I' for Inactive)
ROOT
ATOM      1  N1  IND d   1       0.172   1.468  -2.007  0.00  0.00    -0.196 N 
ATOM      2  C2  IND d   1       0.815   0.319  -2.373  0.00  0.00     0.054 A 
ATOM      3  C3  IND d   1       0.442  -0.704  -1.572  0.00  0.00    -0.031 A 
ATOM      4  C4  IND d   1      -1.286  -0.742   0.336  0.00  0.00     0.051 A 
ATOM      5  C5  IND d   1      -2.106   0.075   1.063  0.00  0.00    -0.031 A 
ATOM      6  C6  IND d   1      -2.212   1.425   0.797  0.00  0.00     0.015 A 
ATOM      7  C7  IND d   1      -1.508   2.009  -0.218  0.00  0.00    -0.016 A 
ATOM      8  C8  IND d   1      -0.670   1.184  -0.954  0.00  0.00    -0.047 A 
ATOM      9  C9  IND d   1      -0.525  -0.179  -0.661  0.00  0.00    -0.096 A 
ATOM     10  HN1 IND d   1       0.276   2.240  -2.372  0.00  0.00     0.298 HD
ENDROOT
TORSDOF 0
ENDMDL
