MODEL 1
REMARK minimizedAffinity -3.51223683
REMARK minimizedRMSD -1
REMARK  0 active torsions:
REMARK  status: ('A' for Active; 'I' for Inactive)
ROOT
ATOM      1  N1  IND d   1       0.097   1.716  -1.591  0.00  0.00    -0.196 N 
ATOM      2  C2  IND d   1      -0.326   2.753  -0.807  0.00  0.00     0.054 A 
ATOM      3  C3  IND d   1      -0.909   2.284   0.319  0.00  0.00    -0.031 A 
ATOM      4  C4  IND d   1      -1.187  -0.144   1.128  0.00  0.00     0.051 A 
ATOM      5  C5  IND d   1      -0.991  -1.439   0.737  0.00  0.00    -0.031 A 
ATOM      6  C6  IND d   1      -0.408  -1.755  -0.474  0.00  0.00     0.015 A 
ATOM      7  C7  IND d   1       0.013  -0.783  -1.337  0.00  0.00    -0.016 A 
ATOM      8  C8  IND d   1      -0.191   0.533  -0.946  0.00  0.00    -0.047 A 
ATOM      9  C9  IND d   1      -0.820   0.859   0.262  0.00  0.00    -0.096 A 
ATOM     10  HN1 IND d   1       0.478   1.790  -2.358  0.00  0.00     0.298 HD
ENDROOT
TORSDOF 0
ENDMDL
