MODEL 1
REMARK minimizedAffinity -4.77486658
REMARK minimizedRMSD -1
REMARK  0 active torsions:
REMARK  status: ('A' for Active; 'I' for Inactive)
ROOT
ATOM      1  N1  IND d   1       0.330   1.824  -1.312  0.00  0.00    -0.196 N 
ATOM      2  C2  IND d   1      -0.192   2.789  -0.497  0.00  0.00     0.054 A 
ATOM      3  C3  IND d   1      -1.015   2.235   0.421  0.00  0.00    -0.031 A 
ATOM      4  C4  IND d   1      -1.571  -0.245   0.834  0.00  0.00     0.051 A 
ATOM      5  C5  IND d   1      -1.363  -1.495   0.321  0.00  0.00    -0.031 A 
ATOM      6  C6  IND d   1      -0.562  -1.707  -0.782  0.00  0.00     0.015 A 
ATOM      7  C7  IND d   1       0.073  -0.673  -1.410  0.00  0.00    -0.016 A 
ATOM      8  C8  IND d   1      -0.141   0.598  -0.897  0.00  0.00    -0.047 A 
ATOM      9  C9  IND d   1      -0.987   0.824   0.196  0.00  0.00    -0.096 A 
ATOM     10  HN1 IND d   1       0.863   1.960  -1.973  0.00  0.00     0.298 HD
ENDROOT
TORSDOF 0
ENDMDL
