MODEL 1
REMARK minimizedAffinity -2.97251892
REMARK minimizedRMSD -1
REMARK  0 active torsions:
REMARK  status: ('A' for Active; 'I' for Inactive)
ROOT
ATOM      1  N1  IND d   1       0.482   1.716  -0.248  0.00  0.00    -0.196 N 
ATOM      2  C2  IND d   1      -0.809   1.289  -0.385  0.00  0.00     0.054 A 
ATOM      3  C3  IND d   1      -1.659   2.168   0.192  0.00  0.00    -0.031 A 
ATOM      4  C4  IND d   1      -1.157   4.423   1.327  0.00  0.00     0.051 A 
ATOM      5  C5  IND d   1      -0.122   5.223   1.724  0.00  0.00    -0.031 A 
ATOM      6  C6  IND d   1       1.194   4.888   1.477  0.00  0.00     0.015 A 
ATOM      7  C7  IND d   1       1.524   3.743   0.810  0.00  0.00    -0.016 A 
ATOM      8  C8  IND d   1       0.476   2.925   0.411  0.00  0.00    -0.047 A 
ATOM      9  C9  IND d   1      -0.859   3.238   0.697  0.00  0.00    -0.096 A 
ATOM     10  HN1 IND d   1       1.181   1.299  -0.528  0.00  0.00     0.298 HD
ENDROOT
TORSDOF 0
ENDMDL
