MODEL 1
REMARK minimizedAffinity -3.35801482
REMARK minimizedRMSD -1
REMARK  0 active torsions:
REMARK  status: ('A' for Active; 'I' for Inactive)
ROOT
ATOM      1  N1  IND d   1      -1.970  -1.954   0.858  0.00  0.00    -0.196 N 
ATOM      2  C2  IND d   1      -1.021  -2.784   0.330  0.00  0.00     0.054 A 
ATOM      3  C3  IND d   1       0.035  -2.068  -0.116  0.00  0.00    -0.031 A 
ATOM      4  C4  IND d   1       0.463   0.468   0.012  0.00  0.00     0.051 A 
ATOM      5  C5  IND d   1      -0.132   1.644   0.375  0.00  0.00    -0.031 A 
ATOM      6  C6  IND d   1      -1.394   1.681   0.932  0.00  0.00     0.015 A 
ATOM      7  C7  IND d   1      -2.107   0.537   1.157  0.00  0.00    -0.016 A 
ATOM      8  C8  IND d   1      -1.509  -0.658   0.783  0.00  0.00    -0.047 A 
ATOM      9  C9  IND d   1      -0.246  -0.698   0.178  0.00  0.00    -0.096 A 
ATOM     10  HN1 IND d   1      -2.727  -2.200   1.182  0.00  0.00     0.298 HD
ENDROOT
TORSDOF 0
ENDMDL
