MODEL 1
REMARK minimizedAffinity -4.29493093
REMARK minimizedRMSD -1
REMARK  0 active torsions:
REMARK  status: ('A' for Active; 'I' for Inactive)
ROOT
ATOM      1  N1  IND d   1       0.655   1.983  -0.917  0.00  0.00    -0.196 N 
ATOM      2  C2  IND d   1      -0.607   1.505  -1.137  0.00  0.00     0.054 A 
ATOM      3  C3  IND d   1      -1.500   2.160  -0.361  0.00  0.00    -0.031 A 
ATOM      4  C4  IND d   1      -1.125   4.117   1.268  0.00  0.00     0.051 A 
ATOM      5  C5  IND d   1      -0.137   4.875   1.833  0.00  0.00    -0.031 A 
ATOM      6  C6  IND d   1       1.191   4.706   1.500  0.00  0.00     0.015 A 
ATOM      7  C7  IND d   1       1.582   3.776   0.579  0.00  0.00    -0.016 A 
ATOM      8  C8  IND d   1       0.583   3.000   0.009  0.00  0.00    -0.047 A 
ATOM      9  C9  IND d   1      -0.763   3.138   0.374  0.00  0.00    -0.096 A 
ATOM     10  HN1 IND d   1       1.372   1.696  -1.293  0.00  0.00     0.298 HD
ENDROOT
TORSDOF 0
ENDMDL
