MODEL 1
REMARK minimizedAffinity -3.83181477
REMARK minimizedRMSD -1
REMARK  0 active torsions:
REMARK  status: ('A' for Active; 'I' for Inactive)
ROOT
ATOM      1  N1  IND d   1       1.630   2.808  -0.052  0.00  0.00    -0.196 N 
ATOM      2  C2  IND d   1       2.821   3.194   0.498  0.00  0.00     0.054 A 
ATOM      3  C3  IND d   1       2.610   4.066   1.510  0.00  0.00    -0.031 A 
ATOM      4  C4  IND d   1       0.392   4.919   2.499  0.00  0.00     0.051 A 
ATOM      5  C5  IND d   1      -0.960   4.876   2.307  0.00  0.00    -0.031 A 
ATOM      6  C6  IND d   1      -1.530   4.123   1.300  0.00  0.00     0.015 A 
ATOM      7  C7  IND d   1      -0.766   3.374   0.451  0.00  0.00    -0.016 A 
ATOM      8  C8  IND d   1       0.608   3.421   0.639  0.00  0.00    -0.047 A 
ATOM      9  C9  IND d   1       1.195   4.216   1.632  0.00  0.00    -0.096 A 
ATOM     10  HN1 IND d   1       1.536   2.272  -0.717  0.00  0.00     0.298 HD
ENDROOT
TORSDOF 0
ENDMDL
