MODEL 1
REMARK minimizedAffinity -1.98645043
REMARK minimizedRMSD -1
REMARK  0 active torsions:
REMARK  status: ('A' for Active; 'I' for Inactive)
ROOT
ATOM      1  N1  IND d   1      -0.666   1.263  -1.520  0.00  0.00    -0.196 N 
ATOM      2  C2  IND d   1       0.079   0.558  -2.423  0.00  0.00     0.054 A 
ATOM      3  C3  IND d   1       0.277  -0.706  -1.985  0.00  0.00    -0.031 A 
ATOM      4  C4  IND d   1      -0.614  -1.860   0.136  0.00  0.00     0.051 A 
ATOM      5  C5  IND d   1      -1.310  -1.612   1.286  0.00  0.00    -0.031 A 
ATOM      6  C6  IND d   1      -1.839  -0.369   1.564  0.00  0.00     0.015 A 
ATOM      7  C7  IND d   1      -1.702   0.675   0.693  0.00  0.00    -0.016 A 
ATOM      8  C8  IND d   1      -0.991   0.428  -0.473  0.00  0.00    -0.047 A 
ATOM      9  C9  IND d   1      -0.414  -0.820  -0.740  0.00  0.00    -0.096 A 
ATOM     10  HN1 IND d   1      -0.894   2.089  -1.593  0.00  0.00     0.298 HD
ENDROOT
TORSDOF 0
ENDMDL
