MODEL 1
REMARK minimizedAffinity -2.79108429
REMARK minimizedRMSD -1
REMARK  0 active torsions:
REMARK  status: ('A' for Active; 'I' for Inactive)
ROOT
ATOM      1  N1  IND d   1       1.435   2.154  -1.975  0.00  0.00    -0.196 N 
ATOM      2  C2  IND d   1       1.187   0.906  -1.475  0.00  0.00     0.054 A 
ATOM      3  C3  IND d   1       1.898   0.703  -0.343  0.00  0.00    -0.031 A 
ATOM      4  C4  IND d   1       3.451   2.318   0.924  0.00  0.00     0.051 A 
ATOM      5  C5  IND d   1       4.019   3.559   0.836  0.00  0.00    -0.031 A 
ATOM      6  C6  IND d   1       3.746   4.412  -0.213  0.00  0.00     0.015 A 
ATOM      7  C7  IND d   1       2.883   4.060  -1.212  0.00  0.00    -0.016 A 
ATOM      8  C8  IND d   1       2.311   2.799  -1.130  0.00  0.00    -0.047 A 
ATOM      9  C9  IND d   1       2.616   1.912  -0.090  0.00  0.00    -0.096 A 
ATOM     10  HN1 IND d   1       1.100   2.481  -2.696  0.00  0.00     0.298 HD
ENDROOT
TORSDOF 0
ENDMDL
