MODEL 1
REMARK minimizedAffinity -2.82162428
REMARK minimizedRMSD -1
REMARK  0 active torsions:
REMARK  status: ('A' for Active; 'I' for Inactive)
ROOT
ATOM      1  N1  IND d   1      -0.989  -0.642  -0.132  0.00  0.00    -0.196 N 
ATOM      2  C2  IND d   1      -0.780  -1.058   1.153  0.00  0.00     0.054 A 
ATOM      3  C3  IND d   1      -0.062  -0.138   1.835  0.00  0.00    -0.031 A 
ATOM      4  C4  IND d   1       0.788   2.168   1.069  0.00  0.00     0.051 A 
ATOM      5  C5  IND d   1       0.873   2.974  -0.032  0.00  0.00    -0.031 A 
ATOM      6  C6  IND d   1       0.329   2.609  -1.246  0.00  0.00     0.015 A 
ATOM      7  C7  IND d   1      -0.334   1.425  -1.403  0.00  0.00    -0.016 A 
ATOM      8  C8  IND d   1      -0.417   0.601  -0.289  0.00  0.00    -0.047 A 
ATOM      9  C9  IND d   1       0.170   0.947   0.935  0.00  0.00    -0.096 A 
ATOM     10  HN1 IND d   1      -1.408  -1.082  -0.741  0.00  0.00     0.298 HD
ENDROOT
TORSDOF 0
ENDMDL
