MODEL 1
REMARK minimizedAffinity 2.21975613
REMARK minimizedRMSD -1
REMARK  0 active torsions:
REMARK  status: ('A' for Active; 'I' for Inactive)
ROOT
ATOM      1  C   UNL d   1       0.538   2.335   0.017  0.00  0.00     0.172 C 
ATOM      2  N   UNL d   1       0.708   3.651  -0.553  0.00  0.00    -0.070 N 
ATOM      3  C1  UNL d   1       1.891   4.334  -0.645  0.00  0.00    -0.004 A 
ATOM      4  C2  UNL d   1       1.632   5.546  -1.248  0.00  0.00    -0.047 A 
ATOM      5  C3  UNL d   1       0.245   5.594  -1.525  0.00  0.00    -0.047 A 
ATOM      6  C4  UNL d   1      -0.303   4.407  -1.085  0.00  0.00    -0.004 A 
ENDROOT
TORSDOF 0
ENDMDL
