MODEL 1
REMARK minimizedAffinity 0.667661667
REMARK minimizedRMSD -1
REMARK  0 active torsions:
REMARK  status: ('A' for Active; 'I' for Inactive)
ROOT
ATOM      1  C   UNL d   1       1.684  -6.000  -2.428  0.00  0.00     0.172 C 
ATOM      2  N   UNL d   1       0.878  -4.809  -2.562  0.00  0.00    -0.070 N 
ATOM      3  C1  UNL d   1       1.292  -3.531  -2.296  0.00  0.00    -0.004 A 
ATOM      4  C2  UNL d   1       0.235  -2.684  -2.547  0.00  0.00    -0.047 A 
ATOM      5  C3  UNL d   1      -0.852  -3.480  -2.979  0.00  0.00    -0.047 A 
ATOM      6  C4  UNL d   1      -0.426  -4.792  -2.979  0.00  0.00    -0.004 A 
ENDROOT
TORSDOF 0
ENDMDL
