MODEL 1
REMARK minimizedAffinity 0.237260878
REMARK minimizedRMSD -1
REMARK  0 active torsions:
REMARK  status: ('A' for Active; 'I' for Inactive)
ROOT
ATOM      1  C   UNL d   1       5.642  -2.634  -1.035  0.00  0.00     0.172 C 
ATOM      2  N   UNL d   1       4.380  -2.314  -0.410  0.00  0.00    -0.070 N 
ATOM      3  C1  UNL d   1       3.515  -3.216   0.150  0.00  0.00    -0.004 A 
ATOM      4  C2  UNL d   1       2.433  -2.516   0.638  0.00  0.00    -0.047 A 
ATOM      5  C3  UNL d   1       2.655  -1.146   0.361  0.00  0.00    -0.047 A 
ATOM      6  C4  UNL d   1       3.867  -1.050  -0.288  0.00  0.00    -0.004 A 
ENDROOT
TORSDOF 0
ENDMDL
