MODEL 1
REMARK minimizedAffinity 3.92027521
REMARK minimizedRMSD -1
REMARK  0 active torsions:
REMARK  status: ('A' for Active; 'I' for Inactive)
ROOT
ATOM      1  C   UNL d   1      -5.998   2.138  -3.135  0.00  0.00     0.172 C 
ATOM      2  N   UNL d   1      -5.351   3.382  -3.479  0.00  0.00    -0.070 N 
ATOM      3  C1  UNL d   1      -4.011   3.641  -3.372  0.00  0.00    -0.004 A 
ATOM      4  C2  UNL d   1      -3.795   4.933  -3.798  0.00  0.00    -0.047 A 
ATOM      5  C3  UNL d   1      -5.050   5.471  -4.172  0.00  0.00    -0.047 A 
ATOM      6  C4  UNL d   1      -5.995   4.489  -3.965  0.00  0.00    -0.004 A 
ENDROOT
TORSDOF 0
ENDMDL
