MODEL 1
REMARK minimizedAffinity -2.14991045
REMARK minimizedRMSD -1
REMARK  0 active torsions:
REMARK  status: ('A' for Active; 'I' for Inactive)
ROOT
ATOM      1  C   UNL d   1      -5.993   4.971  -6.000  0.00  0.00     0.172 C 
ATOM      2  N   UNL d   1      -5.078   4.024  -5.408  0.00  0.00    -0.070 N 
ATOM      3  C1  UNL d   1      -4.627   2.873  -5.998  0.00  0.00    -0.004 A 
ATOM      4  C2  UNL d   1      -3.775   2.250  -5.113  0.00  0.00    -0.047 A 
ATOM      5  C3  UNL d   1      -3.712   3.054  -3.949  0.00  0.00    -0.047 A 
ATOM      6  C4  UNL d   1      -4.528   4.145  -4.159  0.00  0.00    -0.004 A 
ENDROOT
TORSDOF 0
ENDMDL
