MODEL 1
REMARK minimizedAffinity 7.31204367
REMARK minimizedRMSD -1
REMARK  0 active torsions:
REMARK  status: ('A' for Active; 'I' for Inactive)
ROOT
ATOM      1  C   UNL d   1      -0.623   4.155  -1.242  0.00  0.00     0.023 A 
ATOM      2  C1  UNL d   1      -0.792   2.773  -1.153  0.00  0.00     0.003 A 
ATOM      3  C2  UNL d   1      -0.534   2.113   0.049  0.00  0.00     0.048 A 
ATOM      4  C3  UNL d   1      -0.108   2.840   1.160  0.00  0.00     0.023 A 
ATOM      5  C4  UNL d   1       0.063   4.223   1.076  0.00  0.00     0.048 A 
ATOM      6  C5  UNL d   1      -0.196   4.879  -0.129  0.00  0.00     0.003 A 
ATOM      7  I   UNL d   1       0.277   1.859   2.952  0.00  0.00    -0.146 I 
ENDROOT
TORSDOF 0
ENDMDL
