MODEL 1
REMARK minimizedAffinity 6.45054102
REMARK minimizedRMSD -1
REMARK  0 active torsions:
REMARK  status: ('A' for Active; 'I' for Inactive)
ROOT
ATOM      1  C   UNL d   1       3.156  -3.088   0.063  0.00  0.00     0.023 A 
ATOM      2  C1  UNL d   1       2.095  -3.919  -0.295  0.00  0.00     0.003 A 
ATOM      3  C2  UNL d   1       1.022  -3.408  -1.029  0.00  0.00     0.048 A 
ATOM      4  C3  UNL d   1       1.017  -2.064  -1.401  0.00  0.00     0.023 A 
ATOM      5  C4  UNL d   1       2.077  -1.229  -1.045  0.00  0.00     0.048 A 
ATOM      6  C5  UNL d   1       3.147  -1.744  -0.311  0.00  0.00     0.003 A 
ATOM      7  I   UNL d   1      -0.578  -1.301  -2.493  0.00  0.00    -0.146 I 
ENDROOT
TORSDOF 0
ENDMDL
