MODEL 1
REMARK minimizedAffinity 10.0105972
REMARK minimizedRMSD -1
REMARK  0 active torsions:
REMARK  status: ('A' for Active; 'I' for Inactive)
ROOT
ATOM      1  C   UNL d   1      -0.010  -1.795  -3.676  0.00  0.00     0.023 A 
ATOM      2  C1  UNL d   1      -1.365  -1.813  -4.009  0.00  0.00     0.003 A 
ATOM      3  C2  UNL d   1      -2.315  -1.347  -3.098  0.00  0.00     0.048 A 
ATOM      4  C3  UNL d   1      -1.904  -0.864  -1.856  0.00  0.00     0.023 A 
ATOM      5  C4  UNL d   1      -0.550  -0.844  -1.519  0.00  0.00     0.048 A 
ATOM      6  C5  UNL d   1       0.396  -1.311  -2.432  0.00  0.00     0.003 A 
ATOM      7  I   UNL d   1      -3.317  -0.170  -0.498  0.00  0.00    -0.146 I 
ENDROOT
TORSDOF 0
ENDMDL
