MODEL 1
REMARK minimizedAffinity 10.727191
REMARK minimizedRMSD -1
REMARK  0 active torsions:
REMARK  status: ('A' for Active; 'I' for Inactive)
ROOT
ATOM      1  C   UNL d   1      -1.077  -1.705  -2.605  0.00  0.00     0.023 A 
ATOM      2  C1  UNL d   1      -2.179  -1.041  -2.067  0.00  0.00     0.003 A 
ATOM      3  C2  UNL d   1      -2.008   0.176  -1.404  0.00  0.00     0.048 A 
ATOM      4  C3  UNL d   1      -0.732   0.725  -1.284  0.00  0.00     0.023 A 
ATOM      5  C4  UNL d   1       0.374   0.065  -1.822  0.00  0.00     0.048 A 
ATOM      6  C5  UNL d   1       0.198  -1.153  -2.482  0.00  0.00     0.003 A 
ATOM      7  I   UNL d   1      -0.475   2.537  -0.299  0.00  0.00    -0.146 I 
ENDROOT
TORSDOF 0
ENDMDL
