MODEL 1
REMARK minimizedAffinity 9.54744816
REMARK minimizedRMSD -1
REMARK  0 active torsions:
REMARK  status: ('A' for Active; 'I' for Inactive)
ROOT
ATOM      1  C   UNL d   1      -0.974   4.286  -0.913  0.00  0.00     0.023 A 
ATOM      2  C1  UNL d   1      -0.549   4.854   0.288  0.00  0.00     0.003 A 
ATOM      3  C2  UNL d   1      -0.290   4.041   1.394  0.00  0.00     0.048 A 
ATOM      4  C3  UNL d   1      -0.459   2.660   1.291  0.00  0.00     0.023 A 
ATOM      5  C4  UNL d   1      -0.883   2.087   0.091  0.00  0.00     0.048 A 
ATOM      6  C5  UNL d   1      -1.141   2.904  -1.011  0.00  0.00     0.003 A 
ATOM      7  I   UNL d   1      -0.075   1.448   2.935  0.00  0.00    -0.146 I 
ENDROOT
TORSDOF 0
ENDMDL
