MODEL 1
REMARK minimizedAffinity 5.47075224
REMARK minimizedRMSD -1
REMARK  0 active torsions:
REMARK  status: ('A' for Active; 'I' for Inactive)
ROOT
ATOM      1  C   UNL d   1       4.541  -2.158  -0.171  0.00  0.00     0.023 A 
ATOM      2  C1  UNL d   1       5.279  -1.387  -1.069  0.00  0.00     0.003 A 
ATOM      3  C2  UNL d   1       5.479  -1.836  -2.376  0.00  0.00     0.048 A 
ATOM      4  C3  UNL d   1       4.937  -3.057  -2.778  0.00  0.00     0.023 A 
ATOM      5  C4  UNL d   1       4.198  -3.831  -1.883  0.00  0.00     0.048 A 
ATOM      6  C5  UNL d   1       4.001  -3.378  -0.577  0.00  0.00     0.003 A 
ATOM      7  I   UNL d   1       5.233  -3.727  -4.723  0.00  0.00    -0.146 I 
ENDROOT
TORSDOF 0
ENDMDL
