MODEL 1
REMARK minimizedAffinity 10.162508
REMARK minimizedRMSD -1
REMARK  0 active torsions:
REMARK  status: ('A' for Active; 'I' for Inactive)
ROOT
ATOM      1  C   UNL d   1      -2.691  -1.461  -1.465  0.00  0.00     0.023 A 
ATOM      2  C1  UNL d   1      -1.301  -1.456  -1.579  0.00  0.00     0.003 A 
ATOM      3  C2  UNL d   1      -0.584  -0.282  -1.338  0.00  0.00     0.048 A 
ATOM      4  C3  UNL d   1      -1.263   0.882  -0.982  0.00  0.00     0.023 A 
ATOM      5  C4  UNL d   1      -2.654   0.881  -0.865  0.00  0.00     0.048 A 
ATOM      6  C5  UNL d   1      -3.367  -0.294  -1.109  0.00  0.00     0.003 A 
ATOM      7  I   UNL d   1      -0.198   2.630  -0.621  0.00  0.00    -0.146 I 
ENDROOT
TORSDOF 0
ENDMDL
