MODEL 1
REMARK minimizedAffinity -2.5793891
REMARK minimizedRMSD -1
REMARK  1 active torsions:
REMARK  status: ('A' for Active; 'I' for Inactive)
REMARK    1  A    between atoms: C3_4  and  O_7 
ROOT
ATOM      1  C   UNL d   1       0.993  -1.578   1.215  0.00  0.00    -0.033 A 
ATOM      2  C1  UNL d   1      -0.045  -0.758   1.663  0.00  0.00     0.039 A 
ATOM      3  C2  UNL d   1      -0.517   0.278   0.855  0.00  0.00    -0.080 A 
ATOM      4  C3  UNL d   1       0.056   0.484  -0.397  0.00  0.00     0.150 A 
ATOM      5  C4  UNL d   1       1.087  -0.331  -0.851  0.00  0.00    -0.007 A 
ATOM      6  C5  UNL d   1       1.558  -1.365  -0.043  0.00  0.00     0.039 A 
ENDROOT
BRANCH   4   7
ATOM      7  O   UNL d   1      -0.368   1.486  -1.218  0.00  0.00    -0.526 OA
ATOM      8  H5  UNL d   1      -1.066   1.984  -0.761  0.00  0.00     0.418 HD
ENDBRANCH   4   7
TORSDOF 1
ENDMDL
