MODEL 1
REMARK minimizedAffinity -1.51243877
REMARK minimizedRMSD -1
REMARK  1 active torsions:
REMARK  status: ('A' for Active; 'I' for Inactive)
REMARK    1  A    between atoms: C3_4  and  O_7 
ROOT
ATOM      1  C   UNL d   1       4.296  -4.849  -3.249  0.00  0.00    -0.033 A 
ATOM      2  C1  UNL d   1       4.855  -4.890  -1.970  0.00  0.00     0.039 A 
ATOM      3  C2  UNL d   1       4.702  -3.805  -1.104  0.00  0.00    -0.080 A 
ATOM      4  C3  UNL d   1       3.988  -2.688  -1.529  0.00  0.00     0.150 A 
ATOM      5  C4  UNL d   1       3.425  -2.642  -2.800  0.00  0.00    -0.007 A 
ATOM      6  C5  UNL d   1       3.580  -3.726  -3.663  0.00  0.00     0.039 A 
ENDROOT
BRANCH   4   7
ATOM      7  O   UNL d   1       3.816  -1.603  -0.721  0.00  0.00    -0.526 OA
ATOM      8  H5  UNL d   1       4.283  -1.765   0.115  0.00  0.00     0.418 HD
ENDBRANCH   4   7
TORSDOF 1
ENDMDL
