MODEL 1
REMARK minimizedAffinity 9.14354134
REMARK minimizedRMSD -1
REMARK  1 active torsions:
REMARK  status: ('A' for Active; 'I' for Inactive)
REMARK    1  A    between atoms: C3_4  and  O_7 
ROOT
ATOM      1  C   UNL d   1       4.385  -5.757  -2.884  0.00  0.00    -0.033 A 
ATOM      2  C1  UNL d   1       3.593  -5.222  -1.866  0.00  0.00     0.039 A 
ATOM      3  C2  UNL d   1       3.290  -3.859  -1.859  0.00  0.00    -0.080 A 
ATOM      4  C3  UNL d   1       3.782  -3.044  -2.875  0.00  0.00     0.150 A 
ATOM      5  C4  UNL d   1       4.567  -3.572  -3.895  0.00  0.00    -0.007 A 
ATOM      6  C5  UNL d   1       4.870  -4.933  -3.899  0.00  0.00     0.039 A 
ENDROOT
BRANCH   4   7
ATOM      7  O   UNL d   1       3.516  -1.707  -2.908  0.00  0.00    -0.526 OA
ATOM      8  H5  UNL d   1       2.987  -1.479  -2.126  0.00  0.00     0.418 HD
ENDBRANCH   4   7
TORSDOF 1
ENDMDL
