MODEL 1
REMARK minimizedAffinity 0.722192705
REMARK minimizedRMSD -1
REMARK  1 active torsions:
REMARK  status: ('A' for Active; 'I' for Inactive)
REMARK    1  A    between atoms: C3_4  and  O_7 
ROOT
ATOM      1  C   UNL d   1       4.535  -5.893  -2.978  0.00  0.00    -0.033 A 
ATOM      2  C1  UNL d   1       5.251  -5.332  -1.919  0.00  0.00     0.039 A 
ATOM      3  C2  UNL d   1       5.024  -4.006  -1.544  0.00  0.00    -0.080 A 
ATOM      4  C3  UNL d   1       4.078  -3.254  -2.235  0.00  0.00     0.150 A 
ATOM      5  C4  UNL d   1       3.358  -3.807  -3.288  0.00  0.00    -0.007 A 
ATOM      6  C5  UNL d   1       3.587  -5.131  -3.662  0.00  0.00     0.039 A 
ENDROOT
BRANCH   4   7
ATOM      7  O   UNL d   1       3.824  -1.955  -1.908  0.00  0.00    -0.526 OA
ATOM      8  H5  UNL d   1       4.416  -1.699  -1.181  0.00  0.00     0.418 HD
ENDBRANCH   4   7
TORSDOF 1
ENDMDL
