MODEL 1
REMARK minimizedAffinity -1.2193259
REMARK minimizedRMSD -1
REMARK  1 active torsions:
REMARK  status: ('A' for Active; 'I' for Inactive)
REMARK    1  A    between atoms: C3_4  and  O_7 
ROOT
ATOM      1  C   UNL d   1       3.876  -5.322  -2.625  0.00  0.00    -0.033 A 
ATOM      2  C1  UNL d   1       4.018  -5.284  -1.236  0.00  0.00     0.039 A 
ATOM      3  C2  UNL d   1       4.412  -4.102  -0.605  0.00  0.00    -0.080 A 
ATOM      4  C3  UNL d   1       4.658  -2.967  -1.372  0.00  0.00     0.150 A 
ATOM      5  C4  UNL d   1       4.513  -2.996  -2.755  0.00  0.00    -0.007 A 
ATOM      6  C5  UNL d   1       4.122  -4.177  -3.384  0.00  0.00     0.039 A 
ENDROOT
BRANCH   4   7
ATOM      7  O   UNL d   1       5.048  -1.792  -0.801  0.00  0.00    -0.526 OA
ATOM      8  H5  UNL d   1       5.134  -1.929   0.157  0.00  0.00     0.418 HD
ENDBRANCH   4   7
TORSDOF 1
ENDMDL
