MODEL 1
REMARK minimizedAffinity -2.22059274
REMARK minimizedRMSD -1
REMARK  1 active torsions:
REMARK  status: ('A' for Active; 'I' for Inactive)
REMARK    1  A    between atoms: C3_4  and  O_7 
ROOT
ATOM      1  C   UNL d   1       4.855  -5.973  -2.155  0.00  0.00    -0.033 A 
ATOM      2  C1  UNL d   1       4.028  -5.247  -3.014  0.00  0.00     0.039 A 
ATOM      3  C2  UNL d   1       3.816  -3.884  -2.797  0.00  0.00    -0.080 A 
ATOM      4  C3  UNL d   1       4.437  -3.260  -1.718  0.00  0.00     0.150 A 
ATOM      5  C4  UNL d   1       5.265  -3.976  -0.860  0.00  0.00    -0.007 A 
ATOM      6  C5  UNL d   1       5.475  -5.337  -1.079  0.00  0.00     0.039 A 
ENDROOT
BRANCH   4   7
ATOM      7  O   UNL d   1       4.257  -1.933  -1.463  0.00  0.00    -0.526 OA
ATOM      8  H5  UNL d   1       3.638  -1.575  -2.120  0.00  0.00     0.418 HD
ENDBRANCH   4   7
TORSDOF 1
ENDMDL
