MODEL 1
REMARK minimizedAffinity -4.84110308
REMARK minimizedRMSD -1
REMARK  1 active torsions:
REMARK  status: ('A' for Active; 'I' for Inactive)
REMARK    1  A    between atoms: C3_4  and  O_7 
ROOT
ATOM      1  C   UNL d   1       3.712  -4.394  -2.898  0.00  0.00    -0.033 A 
ATOM      2  C1  UNL d   1       4.402  -4.780  -1.746  0.00  0.00     0.039 A 
ATOM      3  C2  UNL d   1       4.809  -3.818  -0.820  0.00  0.00    -0.080 A 
ATOM      4  C3  UNL d   1       4.520  -2.477  -1.055  0.00  0.00     0.150 A 
ATOM      5  C4  UNL d   1       3.829  -2.086  -2.198  0.00  0.00    -0.007 A 
ATOM      6  C5  UNL d   1       3.424  -3.048  -3.122  0.00  0.00     0.039 A 
ENDROOT
BRANCH   4   7
ATOM      7  O   UNL d   1       4.901  -1.501  -0.182  0.00  0.00    -0.526 OA
ATOM      8  H5  UNL d   1       5.394  -1.916   0.546  0.00  0.00     0.418 HD
ENDBRANCH   4   7
TORSDOF 1
ENDMDL
