MODEL 1
REMARK minimizedAffinity -2.80923772
REMARK minimizedRMSD -1
REMARK  0 active torsions:
REMARK  status: ('A' for Active; 'I' for Inactive)
ROOT
ATOM      1  C1  DEN d   1      -0.904  -2.390   0.127  0.00  0.00     0.130 A 
ATOM      2  C2  DEN d   1      -1.008  -2.052   1.544  0.00  0.00    -0.031 A 
ATOM      3  C3  DEN d   1      -0.526  -0.667   1.719  0.00  0.00     0.027 A 
ATOM      4  C4  DEN d   1       0.363   0.978  -0.057  0.00  0.00     0.027 A 
ATOM      5  C5  DEN d   1       0.651   1.139  -1.394  0.00  0.00    -0.003 A 
ATOM      6  C6  DEN d   1       0.473   0.132  -2.305  0.00  0.00     0.001 A 
ATOM      7  C7  DEN d   1      -0.047  -1.068  -1.898  0.00  0.00     0.017 A 
ATOM      8  C8  DEN d   1      -0.332  -1.240  -0.550  0.00  0.00    -0.094 A 
ATOM      9  C9  DEN d   1      -0.158  -0.205   0.354  0.00  0.00    -0.072 A 
ENDROOT
TORSDOF 0
ENDMDL
