MODEL 1
REMARK minimizedAffinity -2.6445322
REMARK minimizedRMSD -1
REMARK  0 active torsions:
REMARK  status: ('A' for Active; 'I' for Inactive)
ROOT
ATOM      1  C1  DEN d   1       2.718   2.729   0.416  0.00  0.00     0.130 A 
ATOM      2  C2  DEN d   1       2.386   3.748   1.408  0.00  0.00    -0.031 A 
ATOM      3  C3  DEN d   1       0.989   3.533   1.834  0.00  0.00     0.027 A 
ATOM      4  C4  DEN d   1      -0.683   1.726   1.061  0.00  0.00     0.027 A 
ATOM      5  C5  DEN d   1      -0.861   0.646   0.225  0.00  0.00    -0.003 A 
ATOM      6  C6  DEN d   1       0.121   0.209  -0.624  0.00  0.00     0.001 A 
ATOM      7  C7  DEN d   1       1.343   0.828  -0.622  0.00  0.00     0.017 A 
ATOM      8  C8  DEN d   1       1.529   1.922   0.212  0.00  0.00    -0.094 A 
ATOM      9  C9  DEN d   1       0.527   2.341   1.072  0.00  0.00    -0.072 A 
ENDROOT
TORSDOF 0
ENDMDL
