MODEL 1
REMARK minimizedAffinity 2.19302487
REMARK minimizedRMSD -1
REMARK  0 active torsions:
REMARK  status: ('A' for Active; 'I' for Inactive)
ROOT
ATOM      1  C1  DEN d   1      -0.133   0.853  -1.471  0.00  0.00     0.130 A 
ATOM      2  C2  DEN d   1       0.237  -0.093  -2.520  0.00  0.00    -0.031 A 
ATOM      3  C3  DEN d   1      -0.094  -1.452  -2.047  0.00  0.00     0.027 A 
ATOM      4  C4  DEN d   1      -1.144  -2.180   0.193  0.00  0.00     0.027 A 
ATOM      5  C5  DEN d   1      -1.621  -1.735   1.407  0.00  0.00    -0.003 A 
ATOM      6  C6  DEN d   1      -1.604  -0.411   1.757  0.00  0.00     0.001 A 
ATOM      7  C7  DEN d   1      -1.142   0.521   0.865  0.00  0.00     0.017 A 
ATOM      8  C8  DEN d   1      -0.652   0.079  -0.357  0.00  0.00    -0.094 A 
ATOM      9  C9  DEN d   1      -0.689  -1.262  -0.697  0.00  0.00    -0.072 A 
ENDROOT
TORSDOF 0
ENDMDL
