MODEL 1
REMARK minimizedAffinity 0.0704955757
REMARK minimizedRMSD -1
REMARK  0 active torsions:
REMARK  status: ('A' for Active; 'I' for Inactive)
ROOT
ATOM      1  C1  DEN d   1      -1.996   0.557   0.051  0.00  0.00     0.130 A 
ATOM      2  C2  DEN d   1      -2.188   0.375   1.487  0.00  0.00    -0.031 A 
ATOM      3  C3  DEN d   1      -0.933  -0.164   2.050  0.00  0.00     0.027 A 
ATOM      4  C4  DEN d   1       1.276  -0.726   0.844  0.00  0.00     0.027 A 
ATOM      5  C5  DEN d   1       1.915  -0.750  -0.376  0.00  0.00    -0.003 A 
ATOM      6  C6  DEN d   1       1.289  -0.375  -1.535  0.00  0.00     0.001 A 
ATOM      7  C7  DEN d   1      -0.002   0.083  -1.492  0.00  0.00     0.017 A 
ATOM      8  C8  DEN d   1      -0.654   0.103  -0.266  0.00  0.00    -0.094 A 
ATOM      9  C9  DEN d   1      -0.000  -0.269   0.896  0.00  0.00    -0.072 A 
ENDROOT
TORSDOF 0
ENDMDL
