MODEL 1
REMARK minimizedAffinity 7.87940884
REMARK minimizedRMSD -1
REMARK  0 active torsions:
REMARK  status: ('A' for Active; 'I' for Inactive)
ROOT
ATOM      1  C1  DEN d   1      -0.054   1.170  -0.893  0.00  0.00     0.130 A 
ATOM      2  C2  DEN d   1       1.054   0.302  -1.281  0.00  0.00    -0.031 A 
ATOM      3  C3  DEN d   1       0.955  -0.944  -0.493  0.00  0.00     0.027 A 
ATOM      4  C4  DEN d   1      -0.800  -1.609   1.276  0.00  0.00     0.027 A 
ATOM      5  C5  DEN d   1      -1.927  -1.194   1.951  0.00  0.00    -0.003 A 
ATOM      6  C6  DEN d   1      -2.483   0.042   1.752  0.00  0.00     0.001 A 
ATOM      7  C7  DEN d   1      -1.941   0.889   0.822  0.00  0.00     0.017 A 
ATOM      8  C8  DEN d   1      -0.801   0.480   0.143  0.00  0.00    -0.094 A 
ATOM      9  C9  DEN d   1      -0.260  -0.778   0.349  0.00  0.00    -0.072 A 
ENDROOT
TORSDOF 0
ENDMDL
