MODEL 1
REMARK minimizedAffinity -5.65199518
REMARK minimizedRMSD -1
REMARK  0 active torsions:
REMARK  status: ('A' for Active; 'I' for Inactive)
ROOT
ATOM      1  C1  DEN d   1       0.114  -1.750  -2.827  0.00  0.00     0.130 A 
ATOM      2  C2  DEN d   1       0.023  -3.207  -2.826  0.00  0.00    -0.031 A 
ATOM      3  C3  DEN d   1      -0.450  -3.634  -1.494  0.00  0.00     0.027 A 
ATOM      4  C4  DEN d   1      -1.051  -2.187   0.555  0.00  0.00     0.027 A 
ATOM      5  C5  DEN d   1      -1.121  -0.899   1.038  0.00  0.00    -0.003 A 
ATOM      6  C6  DEN d   1      -0.755   0.184   0.284  0.00  0.00     0.001 A 
ATOM      7  C7  DEN d   1      -0.345   0.003  -1.011  0.00  0.00     0.017 A 
ATOM      8  C8  DEN d   1      -0.264  -1.293  -1.502  0.00  0.00    -0.094 A 
ATOM      9  C9  DEN d   1      -0.650  -2.375  -0.728  0.00  0.00    -0.072 A 
ENDROOT
TORSDOF 0
ENDMDL
