MODEL 1
REMARK minimizedAffinity 0.908843815
REMARK minimizedRMSD -1
REMARK  0 active torsions:
REMARK  status: ('A' for Active; 'I' for Inactive)
ROOT
ATOM      1  C1  DEN d   1       2.029   3.145   1.044  0.00  0.00     0.130 A 
ATOM      2  C2  DEN d   1       0.912   3.934   1.558  0.00  0.00    -0.031 A 
ATOM      3  C3  DEN d   1      -0.341   3.327   1.065  0.00  0.00     0.027 A 
ATOM      4  C4  DEN d   1      -0.659   1.251  -0.433  0.00  0.00     0.027 A 
ATOM      5  C5  DEN d   1      -0.005   0.258  -1.128  0.00  0.00    -0.003 A 
ATOM      6  C6  DEN d   1       1.362   0.178  -1.175  0.00  0.00     0.001 A 
ATOM      7  C7  DEN d   1       2.119   1.081  -0.478  0.00  0.00     0.017 A 
ATOM      8  C8  DEN d   1       1.467   2.090   0.219  0.00  0.00    -0.094 A 
ATOM      9  C9  DEN d   1       0.085   2.147   0.265  0.00  0.00    -0.072 A 
ENDROOT
TORSDOF 0
ENDMDL
