MODEL 1
REMARK minimizedAffinity -2.62073112
REMARK minimizedRMSD -1
REMARK  0 active torsions:
REMARK  status: ('A' for Active; 'I' for Inactive)
ROOT
ATOM      1  C1  DEN d   1       1.112  -0.026  -0.209  0.00  0.00     0.130 A 
ATOM      2  C2  DEN d   1      -0.216  -0.453   0.222  0.00  0.00    -0.031 A 
ATOM      3  C3  DEN d   1      -0.970   0.747   0.636  0.00  0.00     0.027 A 
ATOM      4  C4  DEN d   1      -0.215   3.213   0.646  0.00  0.00     0.027 A 
ATOM      5  C5  DEN d   1       0.832   4.068   0.379  0.00  0.00    -0.003 A 
ATOM      6  C6  DEN d   1       2.046   3.618  -0.068  0.00  0.00     0.001 A 
ATOM      7  C7  DEN d   1       2.230   2.281  -0.303  0.00  0.00     0.017 A 
ATOM      8  C8  DEN d   1       1.182   1.413  -0.029  0.00  0.00    -0.094 A 
ATOM      9  C9  DEN d   1      -0.042   1.888   0.410  0.00  0.00    -0.072 A 
ENDROOT
TORSDOF 0
ENDMDL
