MODEL 1
REMARK minimizedAffinity 6.07702208
REMARK minimizedRMSD -1
REMARK  0 active torsions:
REMARK  status: ('A' for Active; 'I' for Inactive)
ROOT
ATOM      1  C1  DEN d   1      -0.647   0.201  -1.322  0.00  0.00     0.130 A 
ATOM      2  C2  DEN d   1       0.772  -0.083  -1.519  0.00  0.00    -0.031 A 
ATOM      3  C3  DEN d   1       1.352  -0.441  -0.209  0.00  0.00     0.027 A 
ATOM      4  C4  DEN d   1       0.195  -0.587   2.092  0.00  0.00     0.027 A 
ATOM      5  C5  DEN d   1      -0.997  -0.424   2.761  0.00  0.00    -0.003 A 
ATOM      6  C6  DEN d   1      -2.140  -0.011   2.128  0.00  0.00     0.001 A 
ATOM      7  C7  DEN d   1      -2.124   0.209   0.776  0.00  0.00     0.017 A 
ATOM      8  C8  DEN d   1      -0.924   0.053   0.095  0.00  0.00    -0.094 A 
ATOM      9  C9  DEN d   1       0.217  -0.376   0.752  0.00  0.00    -0.072 A 
ENDROOT
TORSDOF 0
ENDMDL
