MODEL 1
REMARK minimizedAffinity -4.57807446
REMARK minimizedRMSD -1
REMARK  0 active torsions:
REMARK  status: ('A' for Active; 'I' for Inactive)
ROOT
ATOM      1  C1  DEN d   1      -1.518  -0.194   2.353  0.00  0.00     0.130 A 
ATOM      2  C2  DEN d   1      -1.331  -1.619   2.094  0.00  0.00    -0.031 A 
ATOM      3  C3  DEN d   1      -0.637  -1.759   0.798  0.00  0.00     0.027 A 
ATOM      4  C4  DEN d   1       0.167   0.081  -0.820  0.00  0.00     0.027 A 
ATOM      5  C5  DEN d   1       0.223   1.440  -1.036  0.00  0.00    -0.003 A 
ATOM      6  C6  DEN d   1      -0.323   2.341  -0.161  0.00  0.00     0.001 A 
ATOM      7  C7  DEN d   1      -0.910   1.896   0.994  0.00  0.00     0.017 A 
ATOM      8  C8  DEN d   1      -0.977   0.526   1.215  0.00  0.00    -0.094 A 
ATOM      9  C9  DEN d   1      -0.408  -0.368   0.324  0.00  0.00    -0.072 A 
ENDROOT
TORSDOF 0
ENDMDL
