MODEL 1
REMARK minimizedAffinity -1.34181714
REMARK minimizedRMSD -1
REMARK  0 active torsions:
REMARK  status: ('A' for Active; 'I' for Inactive)
ROOT
ATOM      1  C1  DEN d   1       0.499   0.165  -0.443  0.00  0.00     0.130 A 
ATOM      2  C2  DEN d   1      -0.758  -0.077   0.260  0.00  0.00    -0.031 A 
ATOM      3  C3  DEN d   1      -0.975   1.037   1.204  0.00  0.00     0.027 A 
ATOM      4  C4  DEN d   1       0.503   3.105   1.640  0.00  0.00     0.027 A 
ATOM      5  C5  DEN d   1       1.674   3.741   1.293  0.00  0.00    -0.003 A 
ATOM      6  C6  DEN d   1       2.545   3.217   0.375  0.00  0.00     0.001 A 
ATOM      7  C7  DEN d   1       2.236   2.044  -0.261  0.00  0.00     0.017 A 
ATOM      8  C8  DEN d   1       1.061   1.393   0.090  0.00  0.00    -0.094 A 
ATOM      9  C9  DEN d   1       0.187   1.945   1.011  0.00  0.00    -0.072 A 
ENDROOT
TORSDOF 0
ENDMDL
