MODEL 1
REMARK minimizedAffinity -0.913727045
REMARK minimizedRMSD -1
REMARK  0 active torsions:
REMARK  status: ('A' for Active; 'I' for Inactive)
ROOT
ATOM      1  C1  DEN d   1      -2.020  -0.190   0.093  0.00  0.00     0.130 A 
ATOM      2  C2  DEN d   1      -1.803   0.123   1.503  0.00  0.00    -0.031 A 
ATOM      3  C3  DEN d   1      -0.400   0.554   1.665  0.00  0.00     0.027 A 
ATOM      4  C4  DEN d   1       1.447   0.770  -0.122  0.00  0.00     0.027 A 
ATOM      5  C5  DEN d   1       1.742   0.605  -1.457  0.00  0.00    -0.003 A 
ATOM      6  C6  DEN d   1       0.821   0.135  -2.356  0.00  0.00     0.001 A 
ATOM      7  C7  DEN d   1      -0.454  -0.144  -1.938  0.00  0.00     0.017 A 
ATOM      8  C8  DEN d   1      -0.756   0.013  -0.592  0.00  0.00    -0.094 A 
ATOM      9  C9  DEN d   1       0.185   0.501   0.298  0.00  0.00    -0.072 A 
ENDROOT
TORSDOF 0
ENDMDL
