MODEL 1
REMARK minimizedAffinity -5.01136732
REMARK minimizedRMSD -1
REMARK  0 active torsions:
REMARK  status: ('A' for Active; 'I' for Inactive)
ROOT
ATOM      1  C1  DEN d   1      -0.984  -2.224   0.470  0.00  0.00     0.130 A 
ATOM      2  C2  DEN d   1      -0.921  -3.119  -0.682  0.00  0.00    -0.031 A 
ATOM      3  C3  DEN d   1      -0.455  -2.335  -1.844  0.00  0.00     0.027 A 
ATOM      4  C4  DEN d   1       0.177   0.162  -1.969  0.00  0.00     0.027 A 
ATOM      5  C5  DEN d   1       0.272   1.333  -1.250  0.00  0.00    -0.003 A 
ATOM      6  C6  DEN d   1      -0.074   1.408   0.073  0.00  0.00     0.001 A 
ATOM      7  C7  DEN d   1      -0.490   0.280   0.731  0.00  0.00     0.017 A 
ATOM      8  C8  DEN d   1      -0.595  -0.902   0.011  0.00  0.00    -0.094 A 
ATOM      9  C9  DEN d   1      -0.229  -0.960  -1.323  0.00  0.00    -0.072 A 
ENDROOT
TORSDOF 0
ENDMDL
