MODEL 1
REMARK minimizedAffinity -6.07689428
REMARK minimizedRMSD -1
REMARK  0 active torsions:
REMARK  status: ('A' for Active; 'I' for Inactive)
ROOT
ATOM      1  C1  DEN d   1      -0.309   0.173   0.979  0.00  0.00     0.130 A 
ATOM      2  C2  DEN d   1      -0.127   1.198  -0.045  0.00  0.00    -0.031 A 
ATOM      3  C3  DEN d   1       0.129   0.519  -1.331  0.00  0.00     0.027 A 
ATOM      4  C4  DEN d   1       0.256  -2.007  -1.834  0.00  0.00     0.027 A 
ATOM      5  C5  DEN d   1       0.179  -3.267  -1.282  0.00  0.00    -0.003 A 
ATOM      6  C6  DEN d   1      -0.030  -3.467   0.057  0.00  0.00     0.001 A 
ATOM      7  C7  DEN d   1      -0.215  -2.389   0.882  0.00  0.00     0.017 A 
ATOM      8  C8  DEN d   1      -0.131  -1.116   0.335  0.00  0.00    -0.094 A 
ATOM      9  C9  DEN d   1       0.069  -0.935  -1.023  0.00  0.00    -0.072 A 
ENDROOT
TORSDOF 0
ENDMDL
