MODEL 1
REMARK minimizedAffinity -5.01797819
REMARK minimizedRMSD -1
REMARK  0 active torsions:
REMARK  status: ('A' for Active; 'I' for Inactive)
ROOT
ATOM      1  C1  DEN d   1       2.031   2.322   0.064  0.00  0.00     0.130 A 
ATOM      2  C2  DEN d   1       1.425   3.645   0.188  0.00  0.00    -0.031 A 
ATOM      3  C3  DEN d   1      -0.010   3.463   0.486  0.00  0.00     0.027 A 
ATOM      4  C4  DEN d   1      -1.343   1.274   0.771  0.00  0.00     0.027 A 
ATOM      5  C5  DEN d   1      -1.263  -0.101   0.745  0.00  0.00    -0.003 A 
ATOM      6  C6  DEN d   1      -0.096  -0.759   0.459  0.00  0.00     0.001 A 
ATOM      7  C7  DEN d   1       1.049  -0.042   0.232  0.00  0.00     0.017 A 
ATOM      8  C8  DEN d   1       0.974   1.344   0.249  0.00  0.00    -0.094 A 
ATOM      9  C9  DEN d   1      -0.212   1.991   0.552  0.00  0.00    -0.072 A 
ENDROOT
TORSDOF 0
ENDMDL
