MODEL 1
REMARK minimizedAffinity -1.81079996
REMARK minimizedRMSD -1
REMARK  0 active torsions:
REMARK  status: ('A' for Active; 'I' for Inactive)
ROOT
ATOM      1  C1  DEN d   1      -0.249  -2.134  -2.424  0.00  0.00     0.130 A 
ATOM      2  C2  DEN d   1      -0.644  -3.460  -1.956  0.00  0.00    -0.031 A 
ATOM      3  C3  DEN d   1      -1.030  -3.346  -0.535  0.00  0.00     0.027 A 
ATOM      4  C4  DEN d   1      -1.059  -1.257   0.976  0.00  0.00     0.027 A 
ATOM      5  C5  DEN d   1      -0.796   0.094   1.028  0.00  0.00    -0.003 A 
ATOM      6  C6  DEN d   1      -0.305   0.785  -0.048  0.00  0.00     0.001 A 
ATOM      7  C7  DEN d   1      -0.103   0.135  -1.236  0.00  0.00     0.017 A 
ATOM      8  C8  DEN d   1      -0.358  -1.229  -1.295  0.00  0.00    -0.094 A 
ATOM      9  C9  DEN d   1      -0.866  -1.906  -0.200  0.00  0.00    -0.072 A 
ENDROOT
TORSDOF 0
ENDMDL
