MODEL 1
REMARK minimizedAffinity 5.42489052
REMARK minimizedRMSD -1
REMARK  0 active torsions:
REMARK  status: ('A' for Active; 'I' for Inactive)
ROOT
ATOM      1  C   UNL d   1       5.953   2.697  -0.944  0.00  0.00     0.077 C 
ATOM      2  C1  UNL d   1       4.638   2.081  -0.570  0.00  0.00    -0.074 A 
ATOM      3  C2  UNL d   1       3.676   2.812   0.133  0.00  0.00    -0.005 A 
ATOM      4  C3  UNL d   1       2.453   2.228   0.466  0.00  0.00     0.006 A 
ATOM      5  C4  UNL d   1       2.181   0.910   0.099  0.00  0.00    -0.005 A 
ATOM      6  C5  UNL d   1       3.131   0.163  -0.605  0.00  0.00    -0.074 A 
ATOM      7  C6  UNL d   1       2.851  -1.252  -1.016  0.00  0.00     0.077 C 
ATOM      8  C7  UNL d   1       4.355   0.759  -0.942  0.00  0.00    -0.001 A 
ENDROOT
TORSDOF 0
ENDMDL
