MODEL 1
REMARK minimizedAffinity 2.47054935
REMARK minimizedRMSD -1
REMARK  0 active torsions:
REMARK  status: ('A' for Active; 'I' for Inactive)
ROOT
ATOM      1  C   UNL d   1      -0.246   2.055   0.312  0.00  0.00     0.077 C 
ATOM      2  C1  UNL d   1       0.565   1.923   1.567  0.00  0.00    -0.074 A 
ATOM      3  C2  UNL d   1       0.175   1.048   2.586  0.00  0.00    -0.005 A 
ATOM      4  C3  UNL d   1       0.944   0.928   3.743  0.00  0.00     0.006 A 
ATOM      5  C4  UNL d   1       2.110   1.680   3.893  0.00  0.00    -0.005 A 
ATOM      6  C5  UNL d   1       2.517   2.559   2.884  0.00  0.00    -0.074 A 
ATOM      7  C6  UNL d   1       3.773   3.368   3.024  0.00  0.00     0.077 C 
ATOM      8  C7  UNL d   1       1.742   2.669   1.721  0.00  0.00    -0.001 A 
ENDROOT
TORSDOF 0
ENDMDL
