MODEL 1
REMARK minimizedAffinity 11.6916161
REMARK minimizedRMSD -1
REMARK  0 active torsions:
REMARK  status: ('A' for Active; 'I' for Inactive)
ROOT
ATOM      1  C   UNL d   1       0.306  -2.635  -2.177  0.00  0.00     0.077 C 
ATOM      2  C1  UNL d   1      -0.588  -3.813  -1.921  0.00  0.00    -0.074 A 
ATOM      3  C2  UNL d   1      -0.508  -4.528  -0.722  0.00  0.00    -0.005 A 
ATOM      4  C3  UNL d   1      -1.352  -5.615  -0.495  0.00  0.00     0.006 A 
ATOM      5  C4  UNL d   1      -2.283  -5.997  -1.462  0.00  0.00    -0.005 A 
ATOM      6  C5  UNL d   1      -2.377  -5.293  -2.666  0.00  0.00    -0.074 A 
ATOM      7  C6  UNL d   1      -3.379  -5.683  -3.712  0.00  0.00     0.077 C 
ATOM      8  C7  UNL d   1      -1.531  -4.197  -2.885  0.00  0.00    -0.001 A 
ENDROOT
TORSDOF 0
ENDMDL
