MODEL 1
REMARK minimizedAffinity -1.94482136
REMARK minimizedRMSD -1
REMARK  0 active torsions:
REMARK  status: ('A' for Active; 'I' for Inactive)
ROOT
ATOM      1  C   UNL d   1       4.261   1.220  -1.086  0.00  0.00     0.077 C 
ATOM      2  C1  UNL d   1       3.169   0.222  -0.837  0.00  0.00    -0.074 A 
ATOM      3  C2  UNL d   1       3.413  -1.151  -0.942  0.00  0.00    -0.005 A 
ATOM      4  C3  UNL d   1       2.391  -2.068  -0.698  0.00  0.00     0.006 A 
ATOM      5  C4  UNL d   1       1.116  -1.621  -0.346  0.00  0.00    -0.005 A 
ATOM      6  C5  UNL d   1       0.854  -0.252  -0.234  0.00  0.00    -0.074 A 
ATOM      7  C6  UNL d   1      -0.507   0.244   0.153  0.00  0.00     0.077 C 
ATOM      8  C7  UNL d   1       1.889   0.662  -0.475  0.00  0.00    -0.001 A 
ENDROOT
TORSDOF 0
ENDMDL
