MODEL 1
REMARK minimizedAffinity 8.47235584
REMARK minimizedRMSD -1
REMARK  0 active torsions:
REMARK  status: ('A' for Active; 'I' for Inactive)
ROOT
ATOM      1  C   UNL d   1      -0.584   0.425  -1.164  0.00  0.00     0.077 C 
ATOM      2  C1  UNL d   1      -0.730  -1.057  -1.348  0.00  0.00    -0.074 A 
ATOM      3  C2  UNL d   1      -0.391  -1.946  -0.323  0.00  0.00    -0.005 A 
ATOM      4  C3  UNL d   1      -0.541  -3.320  -0.506  0.00  0.00     0.006 A 
ATOM      5  C4  UNL d   1      -1.032  -3.819  -1.714  0.00  0.00    -0.005 A 
ATOM      6  C5  UNL d   1      -1.377  -2.945  -2.750  0.00  0.00    -0.074 A 
ATOM      7  C6  UNL d   1      -1.915  -3.464  -4.050  0.00  0.00     0.077 C 
ATOM      8  C7  UNL d   1      -1.230  -1.565  -2.556  0.00  0.00    -0.001 A 
ENDROOT
TORSDOF 0
ENDMDL
