MODEL 1
REMARK minimizedAffinity 0.670724869
REMARK minimizedRMSD -1
REMARK  0 active torsions:
REMARK  status: ('A' for Active; 'I' for Inactive)
ROOT
ATOM      1  C   UNL d   1       0.623  -2.675  -0.304  0.00  0.00     0.077 C 
ATOM      2  C1  UNL d   1       1.838  -2.074  -0.945  0.00  0.00    -0.074 A 
ATOM      3  C2  UNL d   1       2.513  -2.740  -1.973  0.00  0.00    -0.005 A 
ATOM      4  C3  UNL d   1       3.636  -2.164  -2.567  0.00  0.00     0.006 A 
ATOM      5  C4  UNL d   1       4.095  -0.918  -2.139  0.00  0.00    -0.005 A 
ATOM      6  C5  UNL d   1       3.433  -0.236  -1.113  0.00  0.00    -0.074 A 
ATOM      7  C6  UNL d   1       3.907   1.109  -0.649  0.00  0.00     0.077 C 
ATOM      8  C7  UNL d   1       2.301  -0.818  -0.527  0.00  0.00    -0.001 A 
ENDROOT
TORSDOF 0
ENDMDL
