MODEL 1
REMARK minimizedAffinity -2.77131033
REMARK minimizedRMSD -1
REMARK  0 active torsions:
REMARK  status: ('A' for Active; 'I' for Inactive)
ROOT
ATOM      1  C1  DEN d   1       2.567  -1.203  -0.307  0.00  0.00     0.130 A 
ATOM      2  C2  DEN d   1       1.913  -2.464  -0.645  0.00  0.00    -0.031 A 
ATOM      3  C3  DEN d   1       0.485  -2.185  -0.896  0.00  0.00     0.027 A 
ATOM      4  C4  DEN d   1      -0.770   0.067  -0.799  0.00  0.00     0.027 A 
ATOM      5  C5  DEN d   1      -0.640   1.414  -0.545  0.00  0.00    -0.003 A 
ATOM      6  C6  DEN d   1       0.551   1.974  -0.163  0.00  0.00     0.001 A 
ATOM      7  C7  DEN d   1       1.670   1.189  -0.069  0.00  0.00     0.017 A 
ATOM      8  C8  DEN d   1       1.545  -0.171  -0.317  0.00  0.00    -0.094 A 
ATOM      9  C9  DEN d   1       0.336  -0.716  -0.713  0.00  0.00    -0.072 A 
ENDROOT
TORSDOF 0
ENDMDL
