MODEL 1
REMARK minimizedAffinity -4.99614382
REMARK minimizedRMSD -1
REMARK  0 active torsions:
REMARK  status: ('A' for Active; 'I' for Inactive)
ROOT
ATOM      1  C1  DEN d   1      -0.144   0.979   1.149  0.00  0.00     0.130 A 
ATOM      2  C2  DEN d   1      -1.440   0.864   0.487  0.00  0.00    -0.031 A 
ATOM      3  C3  DEN d   1      -1.374  -0.275  -0.451  0.00  0.00     0.027 A 
ATOM      4  C4  DEN d   1       0.597  -1.866  -0.936  0.00  0.00     0.027 A 
ATOM      5  C5  DEN d   1       1.907  -2.156  -0.627  0.00  0.00    -0.003 A 
ATOM      6  C6  DEN d   1       2.631  -1.407   0.263  0.00  0.00     0.001 A 
ATOM      7  C7  DEN d   1       2.034  -0.357   0.910  0.00  0.00     0.017 A 
ATOM      8  C8  DEN d   1       0.715  -0.054   0.598  0.00  0.00    -0.094 A 
ATOM      9  C9  DEN d   1      -0.003  -0.831  -0.296  0.00  0.00    -0.072 A 
ENDROOT
TORSDOF 0
ENDMDL
