MODEL 1
REMARK minimizedAffinity -5.05197763
REMARK minimizedRMSD -1
REMARK  0 active torsions:
REMARK  status: ('A' for Active; 'I' for Inactive)
ROOT
ATOM      1  C1  DEN d   1      -0.418  -1.573  -1.233  0.00  0.00     0.130 A 
ATOM      2  C2  DEN d   1       0.166  -2.689  -1.971  0.00  0.00    -0.031 A 
ATOM      3  C3  DEN d   1       1.531  -2.913  -1.455  0.00  0.00     0.027 A 
ATOM      4  C4  DEN d   1       2.789  -1.650   0.409  0.00  0.00     0.027 A 
ATOM      5  C5  DEN d   1       2.707  -0.619   1.319  0.00  0.00    -0.003 A 
ATOM      6  C6  DEN d   1       1.600   0.182   1.417  0.00  0.00     0.001 A 
ATOM      7  C7  DEN d   1       0.511  -0.064   0.623  0.00  0.00     0.017 A 
ATOM      8  C8  DEN d   1       0.589  -1.098  -0.302  0.00  0.00    -0.094 A 
ATOM      9  C9  DEN d   1       1.713  -1.903  -0.378  0.00  0.00    -0.072 A 
ENDROOT
TORSDOF 0
ENDMDL
