MODEL 1
REMARK minimizedAffinity -2.5755775
REMARK minimizedRMSD -1
REMARK  0 active torsions:
REMARK  status: ('A' for Active; 'I' for Inactive)
ROOT
ATOM      1  C1  DEN d   1       1.270   1.828   0.371  0.00  0.00     0.130 A 
ATOM      2  C2  DEN d   1       0.028   2.249  -0.272  0.00  0.00    -0.031 A 
ATOM      3  C3  DEN d   1      -0.731   1.035  -0.636  0.00  0.00     0.027 A 
ATOM      4  C4  DEN d   1      -0.109  -1.440  -0.264  0.00  0.00     0.027 A 
ATOM      5  C5  DEN d   1       0.852  -2.294   0.231  0.00  0.00    -0.003 A 
ATOM      6  C6  DEN d   1       2.024  -1.838   0.773  0.00  0.00     0.001 A 
ATOM      7  C7  DEN d   1       2.247  -0.490   0.873  0.00  0.00     0.017 A 
ATOM      8  C8  DEN d   1       1.287   0.377   0.369  0.00  0.00    -0.094 A 
ATOM      9  C9  DEN d   1       0.102  -0.103  -0.164  0.00  0.00    -0.072 A 
ENDROOT
TORSDOF 0
ENDMDL
