MODEL 1
REMARK minimizedAffinity -3.79530454
REMARK minimizedRMSD -1
REMARK  0 active torsions:
REMARK  status: ('A' for Active; 'I' for Inactive)
ROOT
ATOM      1  C1  DEN d   1       1.085  -1.079   0.721  0.00  0.00     0.130 A 
ATOM      2  C2  DEN d   1       2.320  -0.300   0.750  0.00  0.00    -0.031 A 
ATOM      3  C3  DEN d   1       2.004   1.075   0.313  0.00  0.00     0.027 A 
ATOM      4  C4  DEN d   1      -0.268   2.068  -0.398  0.00  0.00     0.027 A 
ATOM      5  C5  DEN d   1      -1.602   1.790  -0.595  0.00  0.00    -0.003 A 
ATOM      6  C6  DEN d   1      -2.124   0.538  -0.401  0.00  0.00     0.001 A 
ATOM      7  C7  DEN d   1      -1.314  -0.472   0.046  0.00  0.00     0.017 A 
ATOM      8  C8  DEN d   1       0.034  -0.202   0.239  0.00  0.00    -0.094 A 
ATOM      9  C9  DEN d   1       0.539   1.073   0.049  0.00  0.00    -0.072 A 
ENDROOT
TORSDOF 0
ENDMDL
