MODEL 1
REMARK minimizedAffinity 10.821394
REMARK minimizedRMSD -1
REMARK  0 active torsions:
REMARK  status: ('A' for Active; 'I' for Inactive)
ROOT
ATOM      1  C   UNL d   1       0.484   0.621   0.351  0.00  0.00     0.020 A 
ATOM      2  C1  UNL d   1       0.168   1.547   1.344  0.00  0.00     0.020 A 
ATOM      3  C2  UNL d   1      -0.863   1.278   2.246  0.00  0.00     0.034 A 
ATOM      4  C3  UNL d   1      -1.583   0.081   2.157  0.00  0.00     0.017 A 
ATOM      5  C4  UNL d   1      -1.266  -0.847   1.159  0.00  0.00     0.017 A 
ATOM      6  C5  UNL d   1      -0.232  -0.574   0.258  0.00  0.00     0.034 A 
ATOM      7 Cl   UNL d   1      -2.109  -2.346   0.985  0.00  0.00    -0.070 Cl
ATOM      8 Cl1  UNL d   1      -2.846  -0.185   3.306  0.00  0.00    -0.070 Cl
ENDROOT
TORSDOF 0
ENDMDL
