MODEL 1
REMARK minimizedAffinity 8.71689796
REMARK minimizedRMSD -1
REMARK  0 active torsions:
REMARK  status: ('A' for Active; 'I' for Inactive)
ROOT
ATOM      1  C   UNL d   1       1.379  -5.971   5.819  0.00  0.00     0.020 A 
ATOM      2  C1  UNL d   1      -0.004  -5.987   5.999  0.00  0.00     0.020 A 
ATOM      3  C2  UNL d   1      -0.852  -5.995   4.890  0.00  0.00     0.034 A 
ATOM      4  C3  UNL d   1      -0.318  -5.988   3.596  0.00  0.00     0.017 A 
ATOM      5  C4  UNL d   1       1.070  -5.972   3.416  0.00  0.00     0.017 A 
ATOM      6  C5  UNL d   1       1.914  -5.963   4.531  0.00  0.00     0.034 A 
ATOM      7 Cl   UNL d   1       1.802  -5.962   1.851  0.00  0.00    -0.070 Cl
ATOM      8 Cl1  UNL d   1      -1.426  -5.999   2.270  0.00  0.00    -0.070 Cl
ENDROOT
TORSDOF 0
ENDMDL
