MODEL 1
REMARK minimizedAffinity 3.38861942
REMARK minimizedRMSD -1
REMARK  0 active torsions:
REMARK  status: ('A' for Active; 'I' for Inactive)
ROOT
ATOM      1  C   UNL d   1       2.398   0.936   1.625  0.00  0.00     0.020 A 
ATOM      2  C1  UNL d   1       2.468  -0.454   1.527  0.00  0.00     0.020 A 
ATOM      3  C2  UNL d   1       1.309  -1.222   1.651  0.00  0.00     0.034 A 
ATOM      4  C3  UNL d   1       0.074  -0.602   1.874  0.00  0.00     0.017 A 
ATOM      5  C4  UNL d   1       0.004   0.792   1.973  0.00  0.00     0.017 A 
ATOM      6  C5  UNL d   1       1.168   1.557   1.847  0.00  0.00     0.034 A 
ATOM      7 Cl   UNL d   1      -1.483   1.628   2.247  0.00  0.00    -0.070 Cl
ATOM      8 Cl1  UNL d   1      -1.319  -1.615   2.018  0.00  0.00    -0.070 Cl
ENDROOT
TORSDOF 0
ENDMDL
