MODEL 1
REMARK minimizedAffinity 7.08241558
REMARK minimizedRMSD -1
REMARK  0 active torsions:
REMARK  status: ('A' for Active; 'I' for Inactive)
ROOT
ATOM      1  C   UNL d   1      -1.464  -0.675   2.173  0.00  0.00     0.020 A 
ATOM      2  C1  UNL d   1      -1.251   0.354   3.090  0.00  0.00     0.020 A 
ATOM      3  C2  UNL d   1      -0.140   1.189   2.956  0.00  0.00     0.034 A 
ATOM      4  C3  UNL d   1       0.762   0.998   1.904  0.00  0.00     0.017 A 
ATOM      5  C4  UNL d   1       0.548  -0.035   0.984  0.00  0.00     0.017 A 
ATOM      6  C5  UNL d   1      -0.566  -0.869   1.122  0.00  0.00     0.034 A 
ATOM      7 Cl   UNL d   1       1.618  -0.334  -0.340  0.00  0.00    -0.070 Cl
ATOM      8 Cl1  UNL d   1       2.114   2.069   1.800  0.00  0.00    -0.070 Cl
ENDROOT
TORSDOF 0
ENDMDL
