MODEL 1
REMARK minimizedAffinity 10.0745792
REMARK minimizedRMSD -1
REMARK  0 active torsions:
REMARK  status: ('A' for Active; 'I' for Inactive)
ROOT
ATOM      1  C   UNL d   1       0.810   0.828   0.530  0.00  0.00     0.020 A 
ATOM      2  C1  UNL d   1       1.846   0.932   1.458  0.00  0.00     0.020 A 
ATOM      3  C2  UNL d   1       2.841   1.897   1.289  0.00  0.00     0.034 A 
ATOM      4  C3  UNL d   1       2.802   2.763   0.190  0.00  0.00     0.017 A 
ATOM      5  C4  UNL d   1       1.762   2.658  -0.740  0.00  0.00     0.017 A 
ATOM      6  C5  UNL d   1       0.769   1.690  -0.567  0.00  0.00     0.034 A 
ATOM      7 Cl   UNL d   1       1.647   3.691  -2.122  0.00  0.00    -0.070 Cl
ATOM      8 Cl1  UNL d   1       4.065   3.933   0.045  0.00  0.00    -0.070 Cl
ENDROOT
TORSDOF 0
ENDMDL
