MODEL 1
REMARK minimizedAffinity -1.90227795
REMARK minimizedRMSD -1
REMARK  0 active torsions:
REMARK  status: ('A' for Active; 'I' for Inactive)
ROOT
ATOM      1  C   UNL d   1      -1.169  -6.000   3.031  0.00  0.00     0.020 A 
ATOM      2  C1  UNL d   1      -0.567  -6.000   1.773  0.00  0.00     0.020 A 
ATOM      3  C2  UNL d   1       0.825  -5.998   1.666  0.00  0.00     0.034 A 
ATOM      4  C3  UNL d   1       1.620  -5.996   2.818  0.00  0.00     0.017 A 
ATOM      5  C4  UNL d   1       1.015  -5.996   4.080  0.00  0.00     0.017 A 
ATOM      6  C5  UNL d   1      -0.380  -5.998   4.181  0.00  0.00     0.034 A 
ATOM      7 Cl   UNL d   1       1.929  -5.993   5.546  0.00  0.00    -0.070 Cl
ATOM      8 Cl1  UNL d   1       3.336  -5.994   2.611  0.00  0.00    -0.070 Cl
ENDROOT
TORSDOF 0
ENDMDL
