MODEL 1
REMARK minimizedAffinity 1.91250622
REMARK minimizedRMSD -1
REMARK  0 active torsions:
REMARK  status: ('A' for Active; 'I' for Inactive)
ROOT
ATOM      1  C   UNL d   1      -1.485  -6.000   2.484  0.00  0.00     0.020 A 
ATOM      2  C1  UNL d   1      -0.663  -6.000   1.358  0.00  0.00     0.020 A 
ATOM      3  C2  UNL d   1       0.726  -5.998   1.508  0.00  0.00     0.034 A 
ATOM      4  C3  UNL d   1       1.296  -5.997   2.786  0.00  0.00     0.017 A 
ATOM      5  C4  UNL d   1       0.469  -5.997   3.916  0.00  0.00     0.017 A 
ATOM      6  C5  UNL d   1      -0.920  -5.999   3.760  0.00  0.00     0.034 A 
ATOM      7 Cl   UNL d   1       1.099  -5.996   5.525  0.00  0.00    -0.070 Cl
ATOM      8 Cl1  UNL d   1       3.020  -5.995   2.897  0.00  0.00    -0.070 Cl
ENDROOT
TORSDOF 0
ENDMDL
