MODEL 1
REMARK minimizedAffinity 6.8324523
REMARK minimizedRMSD -1
REMARK  0 active torsions:
REMARK  status: ('A' for Active; 'I' for Inactive)
ROOT
ATOM      1  C   UNL d   1       3.041  -5.969   4.090  0.00  0.00     0.020 A 
ATOM      2  C1  UNL d   1       2.068  -5.969   5.088  0.00  0.00     0.020 A 
ATOM      3  C2  UNL d   1       0.714  -5.977   4.744  0.00  0.00     0.034 A 
ATOM      4  C3  UNL d   1       0.331  -5.984   3.398  0.00  0.00     0.017 A 
ATOM      5  C4  UNL d   1       1.308  -5.985   2.397  0.00  0.00     0.017 A 
ATOM      6  C5  UNL d   1       2.662  -5.977   2.747  0.00  0.00     0.034 A 
ATOM      7 Cl   UNL d   1       0.912  -5.994   0.714  0.00  0.00    -0.070 Cl
ATOM      8 Cl1  UNL d   1      -1.361  -5.994   3.045  0.00  0.00    -0.070 Cl
ENDROOT
TORSDOF 0
ENDMDL
