MODEL 1
REMARK minimizedAffinity 2.04417109
REMARK minimizedRMSD -1
REMARK  0 active torsions:
REMARK  status: ('A' for Active; 'I' for Inactive)
ROOT
ATOM      1  C   UNL d   1       0.754  -6.000   0.752  0.00  0.00     0.020 A 
ATOM      2  C1  UNL d   1       1.821  -5.999   1.649  0.00  0.00     0.020 A 
ATOM      3  C2  UNL d   1       1.577  -5.998   3.024  0.00  0.00     0.034 A 
ATOM      4  C3  UNL d   1       0.263  -5.998   3.506  0.00  0.00     0.017 A 
ATOM      5  C4  UNL d   1      -0.807  -5.999   2.604  0.00  0.00     0.017 A 
ATOM      6  C5  UNL d   1      -0.557  -6.000   1.228  0.00  0.00     0.034 A 
ATOM      7 Cl   UNL d   1      -2.456  -5.999   3.123  0.00  0.00    -0.070 Cl
ATOM      8 Cl1  UNL d   1       0.035  -5.998   5.218  0.00  0.00    -0.070 Cl
ENDROOT
TORSDOF 0
ENDMDL
