MODEL 1
REMARK minimizedAffinity 5.99397564
REMARK minimizedRMSD -1
REMARK  0 active torsions:
REMARK  status: ('A' for Active; 'I' for Inactive)
ROOT
ATOM      1  C   UNL d   1      -1.276  -5.996   1.112  0.00  0.00     0.020 A 
ATOM      2  C1  UNL d   1      -2.038  -5.996   2.279  0.00  0.00     0.020 A 
ATOM      3  C2  UNL d   1      -1.408  -5.996   3.525  0.00  0.00     0.034 A 
ATOM      4  C3  UNL d   1      -0.011  -5.996   3.607  0.00  0.00     0.017 A 
ATOM      5  C4  UNL d   1       0.754  -5.996   2.435  0.00  0.00     0.017 A 
ATOM      6  C5  UNL d   1       0.118  -5.996   1.190  0.00  0.00     0.034 A 
ATOM      7 Cl   UNL d   1       2.482  -5.995   2.456  0.00  0.00    -0.070 Cl
ATOM      8 Cl1  UNL d   1       0.702  -5.995   5.181  0.00  0.00    -0.070 Cl
ENDROOT
TORSDOF 0
ENDMDL
