MODEL 1
REMARK minimizedAffinity 4.92077208
REMARK minimizedRMSD -1
REMARK  0 active torsions:
REMARK  status: ('A' for Active; 'I' for Inactive)
ROOT
ATOM      1  C   UNL d   1      -1.092  -5.999   2.663  0.00  0.00     0.020 A 
ATOM      2  C1  UNL d   1      -0.190  -5.999   1.600  0.00  0.00     0.020 A 
ATOM      3  C2  UNL d   1       1.184  -5.998   1.850  0.00  0.00     0.034 A 
ATOM      4  C3  UNL d   1       1.659  -5.998   3.167  0.00  0.00     0.017 A 
ATOM      5  C4  UNL d   1       0.753  -5.999   4.233  0.00  0.00     0.017 A 
ATOM      6  C5  UNL d   1      -0.622  -6.000   3.977  0.00  0.00     0.034 A 
ATOM      7 Cl   UNL d   1       1.264  -5.999   5.884  0.00  0.00    -0.070 Cl
ATOM      8 Cl1  UNL d   1       3.371  -5.998   3.403  0.00  0.00    -0.070 Cl
ENDROOT
TORSDOF 0
ENDMDL
