MODEL 1
REMARK minimizedAffinity 8.37744427
REMARK minimizedRMSD -1
REMARK  0 active torsions:
REMARK  status: ('A' for Active; 'I' for Inactive)
ROOT
ATOM      1  C   UNL d   1      -2.100  -1.605  -2.239  0.00  0.00     0.020 A 
ATOM      2  C1  UNL d   1      -2.455  -2.655  -3.085  0.00  0.00     0.020 A 
ATOM      3  C2  UNL d   1      -1.502  -3.221  -3.933  0.00  0.00     0.034 A 
ATOM      4  C3  UNL d   1      -0.188  -2.738  -3.938  0.00  0.00     0.017 A 
ATOM      5  C4  UNL d   1       0.167  -1.683  -3.089  0.00  0.00     0.017 A 
ATOM      6  C5  UNL d   1      -0.792  -1.120  -2.242  0.00  0.00     0.034 A 
ATOM      7 Cl   UNL d   1       1.768  -1.033  -3.039  0.00  0.00    -0.070 Cl
ATOM      8 Cl1  UNL d   1       0.939  -3.486  -5.013  0.00  0.00    -0.070 Cl
ENDROOT
TORSDOF 0
ENDMDL
