MODEL 1
REMARK minimizedAffinity 2.34847283
REMARK minimizedRMSD -1
REMARK  0 active torsions:
REMARK  status: ('A' for Active; 'I' for Inactive)
ROOT
ATOM      1  C   UNL d   1       0.659  -1.751  -4.143  0.00  0.00     0.020 A 
ATOM      2  C1  UNL d   1      -0.064  -0.564  -4.029  0.00  0.00     0.020 A 
ATOM      3  C2  UNL d   1      -1.436  -0.603  -3.773  0.00  0.00     0.034 A 
ATOM      4  C3  UNL d   1      -2.090  -1.832  -3.629  0.00  0.00     0.017 A 
ATOM      5  C4  UNL d   1      -1.364  -3.023  -3.743  0.00  0.00     0.017 A 
ATOM      6  C5  UNL d   1       0.010  -2.978  -4.000  0.00  0.00     0.034 A 
ATOM      7 Cl   UNL d   1      -2.102  -4.578  -3.578  0.00  0.00    -0.070 Cl
ATOM      8 Cl1  UNL d   1      -3.789  -1.806  -3.313  0.00  0.00    -0.070 Cl
ENDROOT
TORSDOF 0
ENDMDL
