MODEL 1
REMARK minimizedAffinity 2.73704457
REMARK minimizedRMSD -1
REMARK  0 active torsions:
REMARK  status: ('A' for Active; 'I' for Inactive)
ROOT
ATOM      1  C   UNL d   1      -1.659  -5.995   2.422  0.00  0.00     0.020 A 
ATOM      2  C1  UNL d   1      -0.816  -5.998   1.311  0.00  0.00     0.020 A 
ATOM      3  C2  UNL d   1       0.569  -6.000   1.486  0.00  0.00     0.034 A 
ATOM      4  C3  UNL d   1       1.116  -5.997   2.774  0.00  0.00     0.017 A 
ATOM      5  C4  UNL d   1       0.270  -5.994   3.889  0.00  0.00     0.017 A 
ATOM      6  C5  UNL d   1      -1.117  -5.993   3.708  0.00  0.00     0.034 A 
ATOM      7 Cl   UNL d   1       0.871  -5.991   5.509  0.00  0.00    -0.070 Cl
ATOM      8 Cl1  UNL d   1       2.839  -6.000   2.916  0.00  0.00    -0.070 Cl
ENDROOT
TORSDOF 0
ENDMDL
