MODEL 1
REMARK minimizedAffinity 9.47646713
REMARK minimizedRMSD -1
REMARK  0 active torsions:
REMARK  status: ('A' for Active; 'I' for Inactive)
ROOT
ATOM      1  C   UNL d   1       0.644   0.734   0.164  0.00  0.00     0.020 A 
ATOM      2  C1  UNL d   1       0.452   1.547   1.281  0.00  0.00     0.020 A 
ATOM      3  C2  UNL d   1      -0.232   1.054   2.394  0.00  0.00     0.034 A 
ATOM      4  C3  UNL d   1      -0.727  -0.255   2.393  0.00  0.00     0.017 A 
ATOM      5  C4  UNL d   1      -0.533  -1.070   1.272  0.00  0.00     0.017 A 
ATOM      6  C5  UNL d   1       0.152  -0.571   0.160  0.00  0.00     0.034 A 
ATOM      7 Cl   UNL d   1      -1.114  -2.696   1.196  0.00  0.00    -0.070 Cl
ATOM      8 Cl1  UNL d   1      -1.562  -0.800   3.804  0.00  0.00    -0.070 Cl
ENDROOT
TORSDOF 0
ENDMDL
