MODEL 1
REMARK minimizedAffinity 1.3035773
REMARK minimizedRMSD -1
REMARK  0 active torsions:
REMARK  status: ('A' for Active; 'I' for Inactive)
ROOT
ATOM      1  C   UNL d   1      -2.238  -6.000   2.745  0.00  0.00     0.020 A 
ATOM      2  C1  UNL d   1      -1.570  -6.000   1.521  0.00  0.00     0.020 A 
ATOM      3  C2  UNL d   1      -0.173  -6.000   1.488  0.00  0.00     0.034 A 
ATOM      4  C3  UNL d   1       0.559  -5.999   2.681  0.00  0.00     0.017 A 
ATOM      5  C4  UNL d   1      -0.113  -5.999   3.909  0.00  0.00     0.017 A 
ATOM      6  C5  UNL d   1      -1.511  -5.999   3.936  0.00  0.00     0.034 A 
ATOM      7 Cl   UNL d   1       0.722  -5.999   5.422  0.00  0.00    -0.070 Cl
ATOM      8 Cl1  UNL d   1       2.283  -6.000   2.565  0.00  0.00    -0.070 Cl
ENDROOT
TORSDOF 0
ENDMDL
