MODEL 1
REMARK minimizedAffinity 5.06413269
REMARK minimizedRMSD -1
REMARK  0 active torsions:
REMARK  status: ('A' for Active; 'I' for Inactive)
ROOT
ATOM      1  C   UNL d   1       0.622  -5.967   4.013  0.00  0.00     0.020 A 
ATOM      2  C1  UNL d   1       1.316  -5.965   2.804  0.00  0.00     0.020 A 
ATOM      3  C2  UNL d   1       0.614  -5.974   1.596  0.00  0.00     0.034 A 
ATOM      4  C3  UNL d   1      -0.786  -5.985   1.596  0.00  0.00     0.017 A 
ATOM      5  C4  UNL d   1      -1.481  -5.987   2.811  0.00  0.00     0.017 A 
ATOM      6  C5  UNL d   1      -0.773  -5.978   4.017  0.00  0.00     0.034 A 
ATOM      7 Cl   UNL d   1      -3.208  -6.000   2.891  0.00  0.00    -0.070 Cl
ATOM      8 Cl1  UNL d   1      -1.589  -5.995   0.066  0.00  0.00    -0.070 Cl
ENDROOT
TORSDOF 0
ENDMDL
