MODEL 1
REMARK minimizedAffinity 1.05431914
REMARK minimizedRMSD -1
REMARK  0 active torsions:
REMARK  status: ('A' for Active; 'I' for Inactive)
ROOT
ATOM      1  C   UNL d   1      -0.267  -3.422  -4.740  0.00  0.00     0.020 A 
ATOM      2  C1  UNL d   1      -1.465  -4.086  -4.477  0.00  0.00     0.020 A 
ATOM      3  C2  UNL d   1      -2.489  -3.432  -3.787  0.00  0.00     0.034 A 
ATOM      4  C3  UNL d   1      -2.316  -2.111  -3.359  0.00  0.00     0.017 A 
ATOM      5  C4  UNL d   1      -1.114  -1.446  -3.624  0.00  0.00     0.017 A 
ATOM      6  C5  UNL d   1      -0.092  -2.105  -4.314  0.00  0.00     0.034 A 
ATOM      7 Cl   UNL d   1      -0.827   0.185  -3.126  0.00  0.00    -0.070 Cl
ATOM      8 Cl1  UNL d   1      -3.624  -1.364  -2.512  0.00  0.00    -0.070 Cl
ENDROOT
TORSDOF 0
ENDMDL
