MODEL 1
REMARK minimizedAffinity -5.18600273
REMARK minimizedRMSD -1
REMARK  0 active torsions:
REMARK  status: ('A' for Active; 'I' for Inactive)
ROOT
ATOM      1  O1  BZF d   1       0.232  -0.985  -2.224  0.00  0.00    -0.204 OA
ATOM      2  C2  BZF d   1       0.076  -2.248  -2.763  0.00  0.00     0.174 A 
ATOM      3  C3  BZF d   1      -0.457  -3.092  -1.856  0.00  0.00    -0.012 A 
ATOM      4  C3A BZF d   1      -0.732  -2.286  -0.707  0.00  0.00    -0.107 A 
ATOM      5  C4  BZF d   1      -1.280  -2.550   0.516  0.00  0.00     0.055 A 
ATOM      6  C5  BZF d   1      -1.340  -1.556   1.441  0.00  0.00    -0.016 A 
ATOM      7  C6  BZF d   1      -0.857  -0.290   1.180  0.00  0.00     0.022 A 
ATOM      8  C7  BZF d   1      -0.309   0.020  -0.020  0.00  0.00     0.029 A 
ATOM      9  C7A BZF d   1      -0.277  -0.973  -0.969  0.00  0.00     0.058 A 
ENDROOT
TORSDOF 0
ENDMDL
