MODEL 1
REMARK minimizedAffinity -1.64487791
REMARK minimizedRMSD -1
REMARK  0 active torsions:
REMARK  status: ('A' for Active; 'I' for Inactive)
ROOT
ATOM      1  O1  BZF d   1       0.224  -0.278  -2.516  0.00  0.00    -0.204 OA
ATOM      2  C2  BZF d   1       0.235  -1.439  -3.265  0.00  0.00     0.174 A 
ATOM      3  C3  BZF d   1      -0.074  -2.505  -2.499  0.00  0.00    -0.012 A 
ATOM      4  C3A BZF d   1      -0.382  -1.965  -1.210  0.00  0.00    -0.107 A 
ATOM      5  C4  BZF d   1      -0.776  -2.524  -0.028  0.00  0.00     0.055 A 
ATOM      6  C5  BZF d   1      -0.923  -1.728   1.063  0.00  0.00    -0.016 A 
ATOM      7  C6  BZF d   1      -0.680  -0.371   1.009  0.00  0.00     0.022 A 
ATOM      8  C7  BZF d   1      -0.292   0.230  -0.142  0.00  0.00     0.029 A 
ATOM      9  C7A BZF d   1      -0.175  -0.567  -1.254  0.00  0.00     0.058 A 
ENDROOT
TORSDOF 0
ENDMDL
