MODEL 1
REMARK minimizedAffinity -4.99686384
REMARK minimizedRMSD -1
REMARK  0 active torsions:
REMARK  status: ('A' for Active; 'I' for Inactive)
ROOT
ATOM      1  O1  BZF d   1      -0.362  -2.565   1.149  0.00  0.00    -0.204 OA
ATOM      2  C2  BZF d   1       0.464  -3.080   0.168  0.00  0.00     0.174 A 
ATOM      3  C3  BZF d   1       0.712  -2.156  -0.782  0.00  0.00    -0.012 A 
ATOM      4  C3A BZF d   1       0.071  -0.962  -0.323  0.00  0.00    -0.107 A 
ATOM      5  C4  BZF d   1      -0.028   0.304  -0.825  0.00  0.00     0.055 A 
ATOM      6  C5  BZF d   1      -0.788   1.218  -0.168  0.00  0.00    -0.016 A 
ATOM      7  C6  BZF d   1      -1.466   0.900   0.991  0.00  0.00     0.022 A 
ATOM      8  C7  BZF d   1      -1.395  -0.341   1.531  0.00  0.00     0.029 A 
ATOM      9  C7A BZF d   1      -0.601  -1.258   0.886  0.00  0.00     0.058 A 
ENDROOT
TORSDOF 0
ENDMDL
