MODEL 1
REMARK minimizedAffinity -3.84032106
REMARK minimizedRMSD -1
REMARK  0 active torsions:
REMARK  status: ('A' for Active; 'I' for Inactive)
ROOT
ATOM      1  O1  BZF d   1      -0.403   0.109  -0.886  0.00  0.00    -0.204 OA
ATOM      2  C2  BZF d   1      -0.179  -0.825   0.107  0.00  0.00     0.174 A 
ATOM      3  C3  BZF d   1       0.540  -0.289   1.114  0.00  0.00    -0.012 A 
ATOM      4  C3A BZF d   1       0.703   1.090   0.769  0.00  0.00    -0.107 A 
ATOM      5  C4  BZF d   1       1.315   2.145   1.382  0.00  0.00     0.055 A 
ATOM      6  C5  BZF d   1       1.357   3.345   0.746  0.00  0.00    -0.016 A 
ATOM      7  C6  BZF d   1       0.803   3.523  -0.505  0.00  0.00     0.022 A 
ATOM      8  C7  BZF d   1       0.181   2.507  -1.151  0.00  0.00     0.029 A 
ATOM      9  C7A BZF d   1       0.108   1.302  -0.496  0.00  0.00     0.058 A 
ENDROOT
TORSDOF 0
ENDMDL
