MODEL 1
REMARK minimizedAffinity -4.75495052
REMARK minimizedRMSD -1
REMARK  0 active torsions:
REMARK  status: ('A' for Active; 'I' for Inactive)
ROOT
ATOM      1  O1  BZF d   1      -0.732   0.710  -0.125  0.00  0.00    -0.204 OA
ATOM      2  C2  BZF d   1      -0.136   1.183  -1.278  0.00  0.00     0.174 A 
ATOM      3  C3  BZF d   1       0.725   0.274  -1.780  0.00  0.00    -0.012 A 
ATOM      4  C3A BZF d   1       0.594  -0.873  -0.935  0.00  0.00    -0.107 A 
ATOM      5  C4  BZF d   1       1.179  -2.107  -0.931  0.00  0.00     0.055 A 
ATOM      6  C5  BZF d   1       0.888  -2.973   0.075  0.00  0.00    -0.016 A 
ATOM      7  C6  BZF d   1       0.021  -2.637   1.094  0.00  0.00     0.022 A 
ATOM      8  C7  BZF d   1      -0.587  -1.426   1.131  0.00  0.00     0.029 A 
ATOM      9  C7A BZF d   1      -0.320  -0.561   0.098  0.00  0.00     0.058 A 
ENDROOT
TORSDOF 0
ENDMDL
