MODEL 1
REMARK minimizedAffinity 0.834944189
REMARK minimizedRMSD -1
REMARK  0 active torsions:
REMARK  status: ('A' for Active; 'I' for Inactive)
ROOT
ATOM      1  O1  BZF d   1      -1.961  -1.252   1.974  0.00  0.00    -0.204 OA
ATOM      2  C2  BZF d   1      -1.799  -2.623   1.913  0.00  0.00     0.174 A 
ATOM      3  C3  BZF d   1      -0.953  -2.961   0.918  0.00  0.00    -0.012 A 
ATOM      4  C3A BZF d   1      -0.491  -1.719   0.379  0.00  0.00    -0.107 A 
ATOM      5  C4  BZF d   1       0.381  -1.396  -0.621  0.00  0.00     0.055 A 
ATOM      6  C5  BZF d   1       0.557  -0.088  -0.947  0.00  0.00    -0.016 A 
ATOM      7  C6  BZF d   1      -0.124   0.920  -0.298  0.00  0.00     0.022 A 
ATOM      8  C7  BZF d   1      -0.995   0.649   0.705  0.00  0.00     0.029 A 
ATOM      9  C7A BZF d   1      -1.151  -0.669   1.058  0.00  0.00     0.058 A 
ENDROOT
TORSDOF 0
ENDMDL
