MODEL 1
REMARK minimizedAffinity -4.3227644
REMARK minimizedRMSD -1
REMARK  0 active torsions:
REMARK  status: ('A' for Active; 'I' for Inactive)
ROOT
ATOM      1  O1  BZF d   1      -0.553  -3.298   1.065  0.00  0.00    -0.204 OA
ATOM      2  C2  BZF d   1       0.577  -3.808   0.455  0.00  0.00     0.174 A 
ATOM      3  C3  BZF d   1       1.206  -2.853  -0.260  0.00  0.00    -0.012 A 
ATOM      4  C3A BZF d   1       0.472  -1.651  -0.012  0.00  0.00    -0.107 A 
ATOM      5  C4  BZF d   1       0.617  -0.359  -0.429  0.00  0.00     0.055 A 
ATOM      6  C5  BZF d   1      -0.314   0.562  -0.064  0.00  0.00    -0.016 A 
ATOM      7  C6  BZF d   1      -1.403   0.225   0.713  0.00  0.00     0.022 A 
ATOM      8  C7  BZF d   1      -1.587  -1.043   1.155  0.00  0.00     0.029 A 
ATOM      9  C7A BZF d   1      -0.631  -1.969   0.815  0.00  0.00     0.058 A 
ENDROOT
TORSDOF 0
ENDMDL
