MODEL 1
REMARK minimizedAffinity -0.596234918
REMARK minimizedRMSD -1
REMARK  0 active torsions:
REMARK  status: ('A' for Active; 'I' for Inactive)
ROOT
ATOM      1  O1  BZF d   1       0.942   4.072   3.210  0.00  0.00    -0.204 OA
ATOM      2  C2  BZF d   1      -0.439   4.048   3.184  0.00  0.00     0.174 A 
ATOM      3  C3  BZF d   1      -0.889   3.635   1.981  0.00  0.00    -0.012 A 
ATOM      4  C3A BZF d   1       0.286   3.297   1.237  0.00  0.00    -0.107 A 
ATOM      5  C4  BZF d   1       0.491   2.810  -0.022  0.00  0.00     0.055 A 
ATOM      6  C5  BZF d   1       1.765   2.658  -0.472  0.00  0.00    -0.016 A 
ATOM      7  C6  BZF d   1       2.854   2.987   0.308  0.00  0.00     0.022 A 
ATOM      8  C7  BZF d   1       2.700   3.469   1.565  0.00  0.00     0.029 A 
ATOM      9  C7A BZF d   1       1.415   3.593   2.034  0.00  0.00     0.058 A 
ENDROOT
TORSDOF 0
ENDMDL
