MODEL 1
REMARK minimizedAffinity -4.93907595
REMARK minimizedRMSD -1
REMARK  0 active torsions:
REMARK  status: ('A' for Active; 'I' for Inactive)
ROOT
ATOM      1  O1  BZF d   1       1.211   0.087  -0.142  0.00  0.00    -0.204 OA
ATOM      2  C2  BZF d   1       0.493   1.227   0.165  0.00  0.00     0.174 A 
ATOM      3  C3  BZF d   1      -0.751   0.910   0.579  0.00  0.00    -0.012 A 
ATOM      4  C3A BZF d   1      -0.784  -0.520   0.615  0.00  0.00    -0.107 A 
ATOM      5  C4  BZF d   1      -1.743  -1.429   0.961  0.00  0.00     0.055 A 
ATOM      6  C5  BZF d   1      -1.480  -2.754   0.814  0.00  0.00    -0.016 A 
ATOM      7  C6  BZF d   1      -0.273  -3.205   0.321  0.00  0.00     0.022 A 
ATOM      8  C7  BZF d   1       0.711  -2.341  -0.031  0.00  0.00     0.029 A 
ATOM      9  C7A BZF d   1       0.460  -1.002   0.147  0.00  0.00     0.058 A 
ENDROOT
TORSDOF 0
ENDMDL
