MODEL 1
REMARK minimizedAffinity -3.85223222
REMARK minimizedRMSD -1
REMARK  0 active torsions:
REMARK  status: ('A' for Active; 'I' for Inactive)
ROOT
ATOM      1  O1  BZF d   1      -0.544  -3.102   1.186  0.00  0.00    -0.204 OA
ATOM      2  C2  BZF d   1       0.539  -3.567   0.466  0.00  0.00     0.174 A 
ATOM      3  C3  BZF d   1       1.135  -2.561  -0.206  0.00  0.00    -0.012 A 
ATOM      4  C3A BZF d   1       0.432  -1.378   0.187  0.00  0.00    -0.107 A 
ATOM      5  C4  BZF d   1       0.567  -0.057  -0.131  0.00  0.00     0.055 A 
ATOM      6  C5  BZF d   1      -0.328   0.837   0.368  0.00  0.00    -0.016 A 
ATOM      7  C6  BZF d   1      -1.370   0.444   1.181  0.00  0.00     0.022 A 
ATOM      8  C7  BZF d   1      -1.542  -0.855   1.528  0.00  0.00     0.029 A 
ATOM      9  C7A BZF d   1      -0.621  -1.756   1.052  0.00  0.00     0.058 A 
ENDROOT
TORSDOF 0
ENDMDL
