MODEL 1
REMARK minimizedAffinity -5.06759834
REMARK minimizedRMSD -1
REMARK  0 active torsions:
REMARK  status: ('A' for Active; 'I' for Inactive)
ROOT
ATOM      1  O1  BZF d   1      -0.163   0.532  -1.209  0.00  0.00    -0.204 OA
ATOM      2  C2  BZF d   1      -0.677   0.930   0.010  0.00  0.00     0.174 A 
ATOM      3  C3  BZF d   1      -1.063  -0.138   0.738  0.00  0.00    -0.012 A 
ATOM      4  C3A BZF d   1      -0.687  -1.279  -0.039  0.00  0.00    -0.107 A 
ATOM      5  C4  BZF d   1      -0.792  -2.626   0.159  0.00  0.00     0.055 A 
ATOM      6  C5  BZF d   1      -0.394  -3.472  -0.828  0.00  0.00    -0.016 A 
ATOM      7  C6  BZF d   1       0.107  -3.006  -2.025  0.00  0.00     0.022 A 
ATOM      8  C7  BZF d   1       0.236  -1.678  -2.266  0.00  0.00     0.029 A 
ATOM      9  C7A BZF d   1      -0.135  -0.821  -1.258  0.00  0.00     0.058 A 
ENDROOT
TORSDOF 0
ENDMDL
