MODEL 1
REMARK minimizedAffinity -2.2727859
REMARK minimizedRMSD -1
REMARK  0 active torsions:
REMARK  status: ('A' for Active; 'I' for Inactive)
ROOT
ATOM      1  O1  BZF d   1      -0.504   1.451  -1.314  0.00  0.00    -0.204 OA
ATOM      2  C2  BZF d   1      -0.871   1.781  -0.024  0.00  0.00     0.174 A 
ATOM      3  C3  BZF d   1      -0.787   0.706   0.787  0.00  0.00    -0.012 A 
ATOM      4  C3A BZF d   1      -0.252  -0.340  -0.030  0.00  0.00    -0.107 A 
ATOM      5  C4  BZF d   1       0.075  -1.644   0.210  0.00  0.00     0.055 A 
ATOM      6  C5  BZF d   1       0.505  -2.418  -0.821  0.00  0.00    -0.016 A 
ATOM      7  C6  BZF d   1       0.615  -1.922  -2.103  0.00  0.00     0.022 A 
ATOM      8  C7  BZF d   1       0.307  -0.634  -2.389  0.00  0.00     0.029 A 
ATOM      9  C7A BZF d   1      -0.097   0.159  -1.343  0.00  0.00     0.058 A 
ENDROOT
TORSDOF 0
ENDMDL
