MODEL 1
REMARK minimizedAffinity -3.65113807
REMARK minimizedRMSD -1
REMARK  1 active torsions:
REMARK  status: ('A' for Active; 'I' for Inactive)
REMARK    1  A    between atoms: C3_4  and  O_7 
ROOT
ATOM      1  C   UNL d   1      -2.549   1.178   3.749  0.00  0.00    -0.033 A 
ATOM      2  C1  UNL d   1      -3.014   0.101   2.993  0.00  0.00     0.039 A 
ATOM      3  C2  UNL d   1      -2.663  -0.012   1.646  0.00  0.00    -0.080 A 
ATOM      4  C3  UNL d   1      -1.846   0.957   1.069  0.00  0.00     0.150 A 
ATOM      5  C4  UNL d   1      -1.376   2.030   1.818  0.00  0.00    -0.007 A 
ATOM      6  C5  UNL d   1      -1.728   2.142   3.163  0.00  0.00     0.039 A 
ENDROOT
BRANCH   4   7
ATOM      7  O   UNL d   1      -1.481   0.892  -0.243  0.00  0.00    -0.526 OA
ATOM      8  H5  UNL d   1      -1.903   0.113  -0.641  0.00  0.00     0.418 HD
ENDBRANCH   4   7
TORSDOF 1
ENDMDL
