MODEL 1
REMARK minimizedAffinity -4.54449701
REMARK minimizedRMSD -1
REMARK  1 active torsions:
REMARK  status: ('A' for Active; 'I' for Inactive)
REMARK    1  A    between atoms: C3_4  and  O_7 
ROOT
ATOM      1  C   UNL d   1       0.226   0.567  -1.415  0.00  0.00    -0.033 A 
ATOM      2  C1  UNL d   1       1.187   0.791  -2.403  0.00  0.00     0.039 A 
ATOM      3  C2  UNL d   1       2.514   0.415  -2.186  0.00  0.00    -0.080 A 
ATOM      4  C3  UNL d   1       2.867  -0.183  -0.979  0.00  0.00     0.150 A 
ATOM      5  C4  UNL d   1       1.914  -0.412   0.008  0.00  0.00    -0.007 A 
ATOM      6  C5  UNL d   1       0.589  -0.035  -0.210  0.00  0.00     0.039 A 
ENDROOT
BRANCH   4   7
ATOM      7  O   UNL d   1       4.150  -0.562  -0.719  0.00  0.00    -0.526 OA
ATOM      8  H5  UNL d   1       4.703  -0.316  -1.479  0.00  0.00     0.418 HD
ENDBRANCH   4   7
TORSDOF 1
ENDMDL
