MODEL 1
REMARK minimizedAffinity -4.57004976
REMARK minimizedRMSD -1
REMARK  1 active torsions:
REMARK  status: ('A' for Active; 'I' for Inactive)
REMARK    1  A    between atoms: C3_4  and  O_7 
ROOT
ATOM      1  C   UNL d   1      -0.223  -0.371   0.353  0.00  0.00    -0.033 A 
ATOM      2  C1  UNL d   1       0.804  -1.020  -0.334  0.00  0.00     0.039 A 
ATOM      3  C2  UNL d   1       1.367  -0.434  -1.469  0.00  0.00    -0.080 A 
ATOM      4  C3  UNL d   1       0.895   0.801  -1.905  0.00  0.00     0.150 A 
ATOM      5  C4  UNL d   1      -0.126   1.455  -1.223  0.00  0.00    -0.007 A 
ATOM      6  C5  UNL d   1      -0.687   0.868  -0.091  0.00  0.00     0.039 A 
ENDROOT
BRANCH   4   7
ATOM      7  O   UNL d   1       1.409   1.411  -3.011  0.00  0.00    -0.526 OA
ATOM      8  H5  UNL d   1       2.087   0.830  -3.396  0.00  0.00     0.418 HD
ENDBRANCH   4   7
TORSDOF 1
ENDMDL
