MODEL 1
REMARK minimizedAffinity -3.80393076
REMARK minimizedRMSD -1
REMARK  1 active torsions:
REMARK  status: ('A' for Active; 'I' for Inactive)
REMARK    1  A    between atoms: C3_4  and  O_7 
ROOT
ATOM      1  C   UNL d   1       1.291  -1.547  -0.806  0.00  0.00    -0.033 A 
ATOM      2  C1  UNL d   1       0.183  -1.027  -0.134  0.00  0.00     0.039 A 
ATOM      3  C2  UNL d   1      -0.351   0.206  -0.514  0.00  0.00    -0.080 A 
ATOM      4  C3  UNL d   1       0.231   0.907  -1.567  0.00  0.00     0.150 A 
ATOM      5  C4  UNL d   1       1.332   0.393  -2.244  0.00  0.00    -0.007 A 
ATOM      6  C5  UNL d   1       1.864  -0.838  -1.862  0.00  0.00     0.039 A 
ENDROOT
BRANCH   4   7
ATOM      7  O   UNL d   1      -0.252   2.116  -1.972  0.00  0.00    -0.526 OA
ATOM      8  H5  UNL d   1      -0.996   2.359  -1.395  0.00  0.00     0.418 HD
ENDBRANCH   4   7
TORSDOF 1
ENDMDL
