MODEL 1
REMARK minimizedAffinity -3.57068539
REMARK minimizedRMSD -1
REMARK  1 active torsions:
REMARK  status: ('A' for Active; 'I' for Inactive)
REMARK    1  A    between atoms: C3_4  and  O_7 
ROOT
ATOM      1  C   UNL d   1      -0.324  -0.058   0.041  0.00  0.00    -0.033 A 
ATOM      2  C1  UNL d   1       0.369   0.822  -0.793  0.00  0.00     0.039 A 
ATOM      3  C2  UNL d   1       1.643   0.489  -1.257  0.00  0.00    -0.080 A 
ATOM      4  C3  UNL d   1       2.212  -0.725  -0.881  0.00  0.00     0.150 A 
ATOM      5  C4  UNL d   1       1.526  -1.608  -0.054  0.00  0.00    -0.007 A 
ATOM      6  C5  UNL d   1       0.254  -1.274   0.410  0.00  0.00     0.039 A 
ENDROOT
BRANCH   4   7
ATOM      7  O   UNL d   1       3.455  -1.090  -1.305  0.00  0.00    -0.526 OA
ATOM      8  H5  UNL d   1       3.820  -0.370  -1.845  0.00  0.00     0.418 HD
ENDBRANCH   4   7
TORSDOF 1
ENDMDL
