MODEL 1
REMARK minimizedAffinity -3.46123862
REMARK minimizedRMSD -1
REMARK  1 active torsions:
REMARK  status: ('A' for Active; 'I' for Inactive)
REMARK    1  A    between atoms: C3_4  and  O_7 
ROOT
ATOM      1  C   UNL d   1      -2.252   1.195   3.611  0.00  0.00    -0.033 A 
ATOM      2  C1  UNL d   1      -2.994   0.161   3.035  0.00  0.00     0.039 A 
ATOM      3  C2  UNL d   1      -2.601  -0.385   1.812  0.00  0.00    -0.080 A 
ATOM      4  C3  UNL d   1      -1.465   0.110   1.176  0.00  0.00     0.150 A 
ATOM      5  C4  UNL d   1      -0.720   1.137   1.746  0.00  0.00    -0.007 A 
ATOM      6  C5  UNL d   1      -1.115   1.682   2.967  0.00  0.00     0.039 A 
ENDROOT
BRANCH   4   7
ATOM      7  O   UNL d   1      -1.045  -0.388  -0.021  0.00  0.00    -0.526 OA
ATOM      8  H5  UNL d   1      -1.673  -1.073  -0.307  0.00  0.00     0.418 HD
ENDBRANCH   4   7
TORSDOF 1
ENDMDL
