MODEL 1
REMARK minimizedAffinity -5.02890921
REMARK minimizedRMSD -1
REMARK  1 active torsions:
REMARK  status: ('A' for Active; 'I' for Inactive)
REMARK    1  A    between atoms: C3_4  and  O_7 
ROOT
ATOM      1  C   UNL d   1      -0.174   0.196  -0.041  0.00  0.00    -0.033 A 
ATOM      2  C1  UNL d   1       0.237   1.299  -0.792  0.00  0.00     0.039 A 
ATOM      3  C2  UNL d   1       1.466   1.276  -1.455  0.00  0.00    -0.080 A 
ATOM      4  C3  UNL d   1       2.273   0.145  -1.359  0.00  0.00     0.150 A 
ATOM      5  C4  UNL d   1       1.868  -0.959  -0.616  0.00  0.00    -0.007 A 
ATOM      6  C5  UNL d   1       0.641  -0.934   0.046  0.00  0.00     0.039 A 
ENDROOT
BRANCH   4   7
ATOM      7  O   UNL d   1       3.482   0.078  -1.985  0.00  0.00    -0.526 OA
ATOM      8  H5  UNL d   1       3.642   0.923  -2.437  0.00  0.00     0.418 HD
ENDBRANCH   4   7
TORSDOF 1
ENDMDL
