MODEL 1
REMARK minimizedAffinity -4.44819641
REMARK minimizedRMSD -1
REMARK  1 active torsions:
REMARK  status: ('A' for Active; 'I' for Inactive)
REMARK    1  A    between atoms: C3_4  and  O_7 
ROOT
ATOM      1  C   UNL d   1       2.592   1.214  -2.756  0.00  0.00    -0.033 A 
ATOM      2  C1  UNL d   1       2.938  -0.046  -2.264  0.00  0.00     0.039 A 
ATOM      3  C2  UNL d   1       2.267  -0.574  -1.159  0.00  0.00    -0.080 A 
ATOM      4  C3  UNL d   1       1.253   0.166  -0.557  0.00  0.00     0.150 A 
ATOM      5  C4  UNL d   1       0.900   1.420  -1.045  0.00  0.00    -0.007 A 
ATOM      6  C5  UNL d   1       1.572   1.946  -2.147  0.00  0.00     0.039 A 
ENDROOT
BRANCH   4   7
ATOM      7  O   UNL d   1       0.573  -0.306   0.526  0.00  0.00    -0.526 OA
ATOM      8  H5  UNL d   1       0.943  -1.171   0.769  0.00  0.00     0.418 HD
ENDBRANCH   4   7
TORSDOF 1
ENDMDL
