MODEL 1
REMARK minimizedAffinity -3.31090832
REMARK minimizedRMSD -1
REMARK  1 active torsions:
REMARK  status: ('A' for Active; 'I' for Inactive)
REMARK    1  A    between atoms: C3_4  and  O_7 
ROOT
ATOM      1  C   UNL d   1      -0.863   0.162   0.061  0.00  0.00    -0.033 A 
ATOM      2  C1  UNL d   1      -0.603  -1.127   0.532  0.00  0.00     0.039 A 
ATOM      3  C2  UNL d   1       0.544  -1.806   0.117  0.00  0.00    -0.080 A 
ATOM      4  C3  UNL d   1       1.423  -1.185  -0.766  0.00  0.00     0.150 A 
ATOM      5  C4  UNL d   1       1.173   0.100  -1.236  0.00  0.00    -0.007 A 
ATOM      6  C5  UNL d   1       0.026   0.776  -0.822  0.00  0.00     0.039 A 
ENDROOT
BRANCH   4   7
ATOM      7  O   UNL d   1       2.554  -1.809  -1.203  0.00  0.00    -0.526 OA
ATOM      8  H5  UNL d   1       2.581  -2.701  -0.818  0.00  0.00     0.418 HD
ENDBRANCH   4   7
TORSDOF 1
ENDMDL
