MODEL 1
REMARK minimizedAffinity -1.70176673
REMARK minimizedRMSD -1
REMARK  1 active torsions:
REMARK  status: ('A' for Active; 'I' for Inactive)
REMARK    1  A    between atoms: C3_4  and  O_7 
ROOT
ATOM      1  C   UNL d   1       0.369  -0.758  -1.054  0.00  0.00    -0.033 A 
ATOM      2  C1  UNL d   1      -0.397   0.409  -1.092  0.00  0.00     0.039 A 
ATOM      3  C2  UNL d   1      -0.938   0.930   0.085  0.00  0.00    -0.080 A 
ATOM      4  C3  UNL d   1      -0.706   0.276   1.292  0.00  0.00     0.150 A 
ATOM      5  C4  UNL d   1       0.060  -0.884   1.338  0.00  0.00    -0.007 A 
ATOM      6  C5  UNL d   1       0.598  -1.404   0.162  0.00  0.00     0.039 A 
ENDROOT
BRANCH   4   7
ATOM      7  O   UNL d   1      -1.217   0.744   2.465  0.00  0.00    -0.526 OA
ATOM      8  H5  UNL d   1      -1.748   1.536   2.276  0.00  0.00     0.418 HD
ENDBRANCH   4   7
TORSDOF 1
ENDMDL
