MODEL 1
REMARK minimizedAffinity -4.43540239
REMARK minimizedRMSD -1
REMARK  1 active torsions:
REMARK  status: ('A' for Active; 'I' for Inactive)
REMARK    1  A    between atoms: C3_4  and  O_7 
ROOT
ATOM      1  C   UNL d   1       2.295  -0.703  -1.741  0.00  0.00    -0.033 A 
ATOM      2  C1  UNL d   1       1.452  -1.644  -1.147  0.00  0.00     0.039 A 
ATOM      3  C2  UNL d   1       0.451  -1.228  -0.266  0.00  0.00    -0.080 A 
ATOM      4  C3  UNL d   1       0.303   0.128   0.010  0.00  0.00     0.150 A 
ATOM      5  C4  UNL d   1       1.137   1.071  -0.582  0.00  0.00    -0.007 A 
ATOM      6  C5  UNL d   1       2.137   0.654  -1.460  0.00  0.00     0.039 A 
ENDROOT
BRANCH   4   7
ATOM      7  O   UNL d   1      -0.656   0.581   0.866  0.00  0.00    -0.526 OA
ATOM      8  H5  UNL d   1      -1.138  -0.185   1.221  0.00  0.00     0.418 HD
ENDBRANCH   4   7
TORSDOF 1
ENDMDL
