MODEL 1
REMARK minimizedAffinity -3.30494785
REMARK minimizedRMSD -1
REMARK  1 active torsions:
REMARK  status: ('A' for Active; 'I' for Inactive)
REMARK    1  A    between atoms: C3_4  and  O_7 
ROOT
ATOM      1  C   UNL d   1       5.440  -1.241   5.999  0.00  0.00    -0.033 A 
ATOM      2  C1  UNL d   1       5.632  -2.624   6.000  0.00  0.00     0.039 A 
ATOM      3  C2  UNL d   1       5.251  -3.384   4.893  0.00  0.00    -0.080 A 
ATOM      4  C3  UNL d   1       4.681  -2.750   3.792  0.00  0.00     0.150 A 
ATOM      5  C4  UNL d   1       4.491  -1.372   3.783  0.00  0.00    -0.007 A 
ATOM      6  C5  UNL d   1       4.871  -0.615   4.889  0.00  0.00     0.039 A 
ENDROOT
BRANCH   4   7
ATOM      7  O   UNL d   1       4.288  -3.451   2.690  0.00  0.00    -0.526 OA
ATOM      8  H5  UNL d   1       4.454  -4.395   2.851  0.00  0.00     0.418 HD
ENDBRANCH   4   7
TORSDOF 1
ENDMDL
