MODEL 1
REMARK minimizedAffinity -4.15670776
REMARK minimizedRMSD -1
REMARK  1 active torsions:
REMARK  status: ('A' for Active; 'I' for Inactive)
REMARK    1  A    between atoms: C3_4  and  O_7 
ROOT
ATOM      1  C   UNL d   1       5.206  -2.499   5.178  0.00  0.00    -0.033 A 
ATOM      2  C1  UNL d   1       5.110  -3.888   5.279  0.00  0.00     0.039 A 
ATOM      3  C2  UNL d   1       4.344  -4.606   4.358  0.00  0.00    -0.080 A 
ATOM      4  C3  UNL d   1       3.682  -3.924   3.341  0.00  0.00     0.150 A 
ATOM      5  C4  UNL d   1       3.776  -2.540   3.232  0.00  0.00    -0.007 A 
ATOM      6  C5  UNL d   1       4.541  -1.825   4.153  0.00  0.00     0.039 A 
ENDROOT
BRANCH   4   7
ATOM      7  O   UNL d   1       2.919  -4.581   2.422  0.00  0.00    -0.526 OA
ATOM      8  H5  UNL d   1       2.923  -5.528   2.639  0.00  0.00     0.418 HD
ENDBRANCH   4   7
TORSDOF 1
ENDMDL
