MODEL 1
REMARK minimizedAffinity -0.256008148
REMARK minimizedRMSD -1
REMARK  1 active torsions:
REMARK  status: ('A' for Active; 'I' for Inactive)
REMARK    1  A    between atoms: C3_4  and  O_7 
ROOT
ATOM      1  C   UNL d   1       1.078   1.879  -2.473  0.00  0.00    -0.033 A 
ATOM      2  C1  UNL d   1       1.975   2.337  -1.506  0.00  0.00     0.039 A 
ATOM      3  C2  UNL d   1       3.016   1.515  -1.071  0.00  0.00    -0.080 A 
ATOM      4  C3  UNL d   1       3.150   0.239  -1.612  0.00  0.00     0.150 A 
ATOM      5  C4  UNL d   1       2.262  -0.223  -2.578  0.00  0.00    -0.007 A 
ATOM      6  C5  UNL d   1       1.223   0.600  -3.010  0.00  0.00     0.039 A 
ENDROOT
BRANCH   4   7
ATOM      7  O   UNL d   1       4.147  -0.602  -1.215  0.00  0.00    -0.526 OA
ATOM      8  H5  UNL d   1       4.666  -0.160  -0.523  0.00  0.00     0.418 HD
ENDBRANCH   4   7
TORSDOF 1
ENDMDL
