MODEL 1
REMARK minimizedAffinity -4.27614307
REMARK minimizedRMSD -1
REMARK  1 active torsions:
REMARK  status: ('A' for Active; 'I' for Inactive)
REMARK    1  A    between atoms: C3_4  and  O_7 
ROOT
ATOM      1  C   UNL d   1      -1.031   0.451  -0.077  0.00  0.00    -0.033 A 
ATOM      2  C1  UNL d   1      -0.449   1.481  -0.817  0.00  0.00     0.039 A 
ATOM      3  C2  UNL d   1       0.766   1.272  -1.474  0.00  0.00    -0.080 A 
ATOM      4  C3  UNL d   1       1.385   0.028  -1.384  0.00  0.00     0.150 A 
ATOM      5  C4  UNL d   1       0.808  -1.004  -0.651  0.00  0.00    -0.007 A 
ATOM      6  C5  UNL d   1      -0.403  -0.793   0.004  0.00  0.00     0.039 A 
ENDROOT
BRANCH   4   7
ATOM      7  O   UNL d   1       2.573  -0.222  -2.003  0.00  0.00    -0.526 OA
ATOM      8  H5  UNL d   1       2.866   0.591  -2.447  0.00  0.00     0.418 HD
ENDBRANCH   4   7
TORSDOF 1
ENDMDL
