MODEL 1
REMARK minimizedAffinity -4.46227837
REMARK minimizedRMSD -1
REMARK  1 active torsions:
REMARK  status: ('A' for Active; 'I' for Inactive)
REMARK    1  A    between atoms: C3_4  and  O_7 
ROOT
ATOM      1  C   UNL d   1       1.499  -1.585  -0.979  0.00  0.00    -0.033 A 
ATOM      2  C1  UNL d   1       0.301  -1.419  -0.281  0.00  0.00     0.039 A 
ATOM      3  C2  UNL d   1      -0.340  -0.178  -0.277  0.00  0.00    -0.080 A 
ATOM      4  C3  UNL d   1       0.226   0.886  -0.974  0.00  0.00     0.150 A 
ATOM      5  C4  UNL d   1       1.417   0.726  -1.675  0.00  0.00    -0.007 A 
ATOM      6  C5  UNL d   1       2.057  -0.513  -1.677  0.00  0.00     0.039 A 
ENDROOT
BRANCH   4   7
ATOM      7  O   UNL d   1      -0.361   2.116  -0.996  0.00  0.00    -0.526 OA
ATOM      8  H5  UNL d   1      -1.161   2.085  -0.445  0.00  0.00     0.418 HD
ENDBRANCH   4   7
TORSDOF 1
ENDMDL
