MODEL 1
REMARK minimizedAffinity -5.07491779
REMARK minimizedRMSD -1
REMARK  1 active torsions:
REMARK  status: ('A' for Active; 'I' for Inactive)
REMARK    1  A    between atoms: C3_4  and  O_7 
ROOT
ATOM      1  C   UNL d   1       1.764  -0.869  -1.892  0.00  0.00    -0.033 A 
ATOM      2  C1  UNL d   1       1.616  -1.280  -0.566  0.00  0.00     0.039 A 
ATOM      3  C2  UNL d   1       1.145  -0.385   0.396  0.00  0.00    -0.080 A 
ATOM      4  C3  UNL d   1       0.826   0.917   0.020  0.00  0.00     0.150 A 
ATOM      5  C4  UNL d   1       0.966   1.333  -1.300  0.00  0.00    -0.007 A 
ATOM      6  C5  UNL d   1       1.437   0.437  -2.260  0.00  0.00     0.039 A 
ENDROOT
BRANCH   4   7
ATOM      7  O   UNL d   1       0.367   1.828   0.925  0.00  0.00    -0.526 OA
ATOM      8  H5  UNL d   1       0.348   1.408   1.801  0.00  0.00     0.418 HD
ENDBRANCH   4   7
TORSDOF 1
ENDMDL
