MODEL 1
REMARK minimizedAffinity -4.13133383
REMARK minimizedRMSD -1
REMARK  1 active torsions:
REMARK  status: ('A' for Active; 'I' for Inactive)
REMARK    1  A    between atoms: C1_2  and  C2_3 
ROOT
ATOM      1  C2  UNL d   1      -0.493  -0.787   0.141  0.00  0.00    -0.076 A 
ATOM      2  C3  UNL d   1      -1.792  -0.845   0.675  0.00  0.00     0.004 A 
ATOM      3  C4  UNL d   1      -2.193  -1.917   1.471  0.00  0.00    -0.003 A 
ATOM      4  C5  UNL d   1      -1.301  -2.947   1.746  0.00  0.00     0.000 A 
ATOM      5  C6  UNL d   1      -0.003  -2.897   1.239  0.00  0.00     0.000 A 
ATOM      6  C7  UNL d   1       0.422  -1.816   0.448  0.00  0.00    -0.073 A 
ATOM      7  C8  UNL d   1       1.832  -1.816  -0.078  0.00  0.00     0.078 C 
ENDROOT
BRANCH   1   8
ATOM      8  C1  UNL d   1      -0.123   0.387  -0.738  0.00  0.00     0.053 C 
ATOM      9  C   UNL d   1       0.405   1.569   0.060  0.00  0.00     0.018 C 
ENDBRANCH   1   8
TORSDOF 1
ENDMDL
