MODEL 1
REMARK minimizedAffinity -2.05242705
REMARK minimizedRMSD -1
REMARK  1 active torsions:
REMARK  status: ('A' for Active; 'I' for Inactive)
REMARK    1  A    between atoms: C1_2  and  C2_3 
ROOT
ATOM      1  C2  UNL d   1       0.264   0.391  -1.365  0.00  0.00    -0.076 A 
ATOM      2  C3  UNL d   1       0.454  -0.932  -1.800  0.00  0.00     0.004 A 
ATOM      3  C4  UNL d   1       0.435  -1.995  -0.898  0.00  0.00    -0.003 A 
ATOM      4  C5  UNL d   1       0.224  -1.751   0.455  0.00  0.00     0.000 A 
ATOM      5  C6  UNL d   1       0.017  -0.447   0.902  0.00  0.00     0.000 A 
ATOM      6  C7  UNL d   1       0.017   0.634   0.004  0.00  0.00    -0.073 A 
ATOM      7  C8  UNL d   1      -0.206   2.020   0.542  0.00  0.00     0.078 C 
ENDROOT
BRANCH   1   8
ATOM      8  C1  UNL d   1       0.322   1.505  -2.385  0.00  0.00     0.053 C 
ATOM      9  C   UNL d   1       1.091   1.109  -3.636  0.00  0.00     0.018 C 
ENDBRANCH   1   8
TORSDOF 1
ENDMDL
