MODEL 1
REMARK minimizedAffinity -6.29943514
REMARK minimizedRMSD -1
REMARK  1 active torsions:
REMARK  status: ('A' for Active; 'I' for Inactive)
REMARK    1  A    between atoms: C1_2  and  C2_3 
ROOT
ATOM      1  C2  UNL d   1      -0.686  -0.190   0.630  0.00  0.00    -0.076 A 
ATOM      2  C3  UNL d   1       0.049  -1.200  -0.016  0.00  0.00     0.004 A 
ATOM      3  C4  UNL d   1      -0.324  -2.539   0.092  0.00  0.00    -0.003 A 
ATOM      4  C5  UNL d   1      -1.437  -2.890   0.848  0.00  0.00     0.000 A 
ATOM      5  C6  UNL d   1      -2.188  -1.899   1.480  0.00  0.00     0.000 A 
ATOM      6  C7  UNL d   1      -1.836  -0.543   1.368  0.00  0.00    -0.073 A 
ATOM      7  C8  UNL d   1      -2.677   0.482   2.076  0.00  0.00     0.078 C 
ENDROOT
BRANCH   1   8
ATOM      8  C1  UNL d   1      -0.219   1.242   0.498  0.00  0.00     0.053 C 
ATOM      9  C   UNL d   1       0.609   1.472  -0.757  0.00  0.00     0.018 C 
ENDBRANCH   1   8
TORSDOF 1
ENDMDL
