MODEL 1
REMARK minimizedAffinity -5.81197309
REMARK minimizedRMSD -1
REMARK  1 active torsions:
REMARK  status: ('A' for Active; 'I' for Inactive)
REMARK    1  A    between atoms: C1_2  and  C2_3 
ROOT
ATOM      1  C2  UNL d   1      -0.728  -1.026   1.070  0.00  0.00    -0.076 A 
ATOM      2  C3  UNL d   1      -1.813  -0.174   1.341  0.00  0.00     0.004 A 
ATOM      3  C4  UNL d   1      -1.746   1.188   1.052  0.00  0.00    -0.003 A 
ATOM      4  C5  UNL d   1      -0.593   1.720   0.485  0.00  0.00     0.000 A 
ATOM      5  C6  UNL d   1       0.486   0.887   0.193  0.00  0.00     0.000 A 
ATOM      6  C7  UNL d   1       0.429  -0.491   0.463  0.00  0.00    -0.073 A 
ATOM      7  C8  UNL d   1       1.624  -1.342   0.133  0.00  0.00     0.078 C 
ENDROOT
BRANCH   1   8
ATOM      8  C1  UNL d   1      -0.848  -2.489   1.431  0.00  0.00     0.053 C 
ATOM      9  C   UNL d   1      -2.268  -3.013   1.276  0.00  0.00     0.018 C 
ENDBRANCH   1   8
TORSDOF 1
ENDMDL
