MODEL 1
REMARK minimizedAffinity -3.70519543
REMARK minimizedRMSD -1
REMARK  1 active torsions:
REMARK  status: ('A' for Active; 'I' for Inactive)
REMARK    1  A    between atoms: C1_2  and  C2_3 
ROOT
ATOM      1  C2  UNL d   1      -0.122  -0.072   0.067  0.00  0.00    -0.076 A 
ATOM      2  C3  UNL d   1      -1.483  -0.309  -0.188  0.00  0.00     0.004 A 
ATOM      3  C4  UNL d   1      -2.084  -1.511   0.182  0.00  0.00    -0.003 A 
ATOM      4  C5  UNL d   1      -1.332  -2.496   0.815  0.00  0.00     0.000 A 
ATOM      5  C6  UNL d   1       0.016  -2.270   1.092  0.00  0.00     0.000 A 
ATOM      6  C7  UNL d   1       0.632  -1.057   0.740  0.00  0.00    -0.073 A 
ATOM      7  C8  UNL d   1       2.091  -0.870   1.057  0.00  0.00     0.078 C 
ENDROOT
BRANCH   1   8
ATOM      8  C1  UNL d   1       0.481   1.240  -0.382  0.00  0.00     0.053 C 
ATOM      9  C   UNL d   1       0.237   1.519  -1.857  0.00  0.00     0.018 C 
ENDBRANCH   1   8
TORSDOF 1
ENDMDL
