MODEL 1
REMARK minimizedAffinity -5.78483248
REMARK minimizedRMSD -1
REMARK  1 active torsions:
REMARK  status: ('A' for Active; 'I' for Inactive)
REMARK    1  A    between atoms: C1_2  and  C2_3 
ROOT
ATOM      1  C2  UNL d   1      -0.892  -1.204   0.523  0.00  0.00    -0.076 A 
ATOM      2  C3  UNL d   1       0.467  -1.208   0.165  0.00  0.00     0.004 A 
ATOM      3  C4  UNL d   1       1.174  -0.015   0.020  0.00  0.00    -0.003 A 
ATOM      4  C5  UNL d   1       0.533   1.200   0.231  0.00  0.00     0.000 A 
ATOM      5  C6  UNL d   1      -0.810   1.222   0.604  0.00  0.00     0.000 A 
ATOM      6  C7  UNL d   1      -1.533   0.028   0.771  0.00  0.00    -0.073 A 
ATOM      7  C8  UNL d   1      -2.981   0.111   1.169  0.00  0.00     0.078 C 
ENDROOT
BRANCH   1   8
ATOM      8  C1  UNL d   1      -1.614  -2.528   0.639  0.00  0.00     0.053 C 
ATOM      9  C   UNL d   1      -1.788  -2.971   2.084  0.00  0.00     0.018 C 
ENDBRANCH   1   8
TORSDOF 1
ENDMDL
