MODEL 1
REMARK minimizedAffinity -5.71766853
REMARK minimizedRMSD -1
REMARK  1 active torsions:
REMARK  status: ('A' for Active; 'I' for Inactive)
REMARK    1  A    between atoms: C1_2  and  C2_3 
ROOT
ATOM      1  C2  UNL d   1      -0.666  -0.250   0.735  0.00  0.00    -0.076 A 
ATOM      2  C3  UNL d   1       0.002  -1.452   0.443  0.00  0.00     0.004 A 
ATOM      3  C4  UNL d   1      -0.567  -2.684   0.761  0.00  0.00    -0.003 A 
ATOM      4  C5  UNL d   1      -1.813  -2.734   1.376  0.00  0.00     0.000 A 
ATOM      5  C6  UNL d   1      -2.497  -1.552   1.657  0.00  0.00     0.000 A 
ATOM      6  C7  UNL d   1      -1.945  -0.302   1.328  0.00  0.00    -0.073 A 
ATOM      7  C8  UNL d   1      -2.724   0.941   1.660  0.00  0.00     0.078 C 
ENDROOT
BRANCH   1   8
ATOM      8  C1  UNL d   1       0.013   1.057   0.392  0.00  0.00     0.053 C 
ATOM      9  C   UNL d   1       0.394   1.147  -1.078  0.00  0.00     0.018 C 
ENDBRANCH   1   8
TORSDOF 1
ENDMDL
