MODEL 1
REMARK minimizedAffinity 0.824271917
REMARK minimizedRMSD -1
REMARK  1 active torsions:
REMARK  status: ('A' for Active; 'I' for Inactive)
REMARK    1  A    between atoms: C1_2  and  C2_3 
ROOT
ATOM      1  C2  UNL d   1      -0.043   0.116   0.374  0.00  0.00    -0.076 A 
ATOM      2  C3  UNL d   1       0.873  -0.934   0.181  0.00  0.00     0.004 A 
ATOM      3  C4  UNL d   1       0.703  -2.161   0.820  0.00  0.00    -0.003 A 
ATOM      4  C5  UNL d   1      -0.385  -2.359   1.662  0.00  0.00     0.000 A 
ATOM      5  C6  UNL d   1      -1.313  -1.335   1.852  0.00  0.00     0.000 A 
ATOM      6  C7  UNL d   1      -1.166  -0.098   1.202  0.00  0.00    -0.073 A 
ATOM      7  C8  UNL d   1      -2.193   0.973   1.448  0.00  0.00     0.078 C 
ENDROOT
BRANCH   1   8
ATOM      8  C1  UNL d   1       0.208   1.433  -0.324  0.00  0.00     0.053 C 
ATOM      9  C   UNL d   1       0.517   1.260  -1.803  0.00  0.00     0.018 C 
ENDBRANCH   1   8
TORSDOF 1
ENDMDL
