MODEL 1
REMARK minimizedAffinity -4.47699594
REMARK minimizedRMSD -1
REMARK  1 active torsions:
REMARK  status: ('A' for Active; 'I' for Inactive)
REMARK    1  A    between atoms: C1_2  and  C2_3 
ROOT
ATOM      1  C2  UNL d   1      -1.007  -0.270   0.676  0.00  0.00    -0.076 A 
ATOM      2  C3  UNL d   1      -0.171  -1.367   0.404  0.00  0.00     0.004 A 
ATOM      3  C4  UNL d   1      -0.467  -2.635   0.902  0.00  0.00    -0.003 A 
ATOM      4  C5  UNL d   1      -1.605  -2.827   1.678  0.00  0.00     0.000 A 
ATOM      5  C6  UNL d   1      -2.455  -1.753   1.943  0.00  0.00     0.000 A 
ATOM      6  C7  UNL d   1      -2.179  -0.472   1.435  0.00  0.00    -0.073 A 
ATOM      7  C8  UNL d   1      -3.127   0.651   1.757  0.00  0.00     0.078 C 
ENDROOT
BRANCH   1   8
ATOM      8  C1  UNL d   1      -0.621   1.087   0.132  0.00  0.00     0.053 C 
ATOM      9  C   UNL d   1       0.063   0.998  -1.224  0.00  0.00     0.018 C 
ENDBRANCH   1   8
TORSDOF 1
ENDMDL
