MODEL 1
REMARK minimizedAffinity -5.91284323
REMARK minimizedRMSD -1
REMARK  1 active torsions:
REMARK  status: ('A' for Active; 'I' for Inactive)
REMARK    1  A    between atoms: C1_2  and  C2_3 
ROOT
ATOM      1  C2  UNL d   1      -1.484  -0.454   0.952  0.00  0.00    -0.076 A 
ATOM      2  C3  UNL d   1      -0.864   0.736   0.533  0.00  0.00     0.004 A 
ATOM      3  C4  UNL d   1       0.471   0.747   0.134  0.00  0.00    -0.003 A 
ATOM      4  C5  UNL d   1       1.208  -0.432   0.146  0.00  0.00     0.000 A 
ATOM      5  C6  UNL d   1       0.604  -1.625   0.541  0.00  0.00     0.000 A 
ATOM      6  C7  UNL d   1      -0.746  -1.656   0.932  0.00  0.00    -0.073 A 
ATOM      7  C8  UNL d   1      -1.345  -2.970   1.354  0.00  0.00     0.078 C 
ENDROOT
BRANCH   1   8
ATOM      8  C1  UNL d   1      -2.928  -0.400   1.400  0.00  0.00     0.053 C 
ATOM      9  C   UNL d   1      -3.098   0.317   2.731  0.00  0.00     0.018 C 
ENDBRANCH   1   8
TORSDOF 1
ENDMDL
