MODEL 1
REMARK minimizedAffinity -0.901493311
REMARK minimizedRMSD -1
REMARK  1 active torsions:
REMARK  status: ('A' for Active; 'I' for Inactive)
REMARK    1  A    between atoms: C1_2  and  C2_3 
ROOT
ATOM      1  C2  UNL d   1       1.218   1.969  -1.905  0.00  0.00    -0.076 A 
ATOM      2  C3  UNL d   1       2.584   1.647  -1.985  0.00  0.00     0.004 A 
ATOM      3  C4  UNL d   1       3.254   1.660  -3.207  0.00  0.00    -0.003 A 
ATOM      4  C5  UNL d   1       2.569   1.995  -4.369  0.00  0.00     0.000 A 
ATOM      5  C6  UNL d   1       1.218   2.334  -4.307  0.00  0.00     0.000 A 
ATOM      6  C7  UNL d   1       0.531   2.342  -3.080  0.00  0.00    -0.073 A 
ATOM      7  C8  UNL d   1      -0.927   2.711  -3.072  0.00  0.00     0.078 C 
ENDROOT
BRANCH   1   8
ATOM      8  C1  UNL d   1       0.538   1.912  -0.556  0.00  0.00     0.053 C 
ATOM      9  C   UNL d   1       0.118   0.501  -0.174  0.00  0.00     0.018 C 
ENDBRANCH   1   8
TORSDOF 1
ENDMDL
