MODEL 1
REMARK minimizedAffinity -3.93018293
REMARK minimizedRMSD -1
REMARK  1 active torsions:
REMARK  status: ('A' for Active; 'I' for Inactive)
REMARK    1  A    between atoms: C1_2  and  C2_3 
ROOT
ATOM      1  C2  UNL d   1      -1.757  -0.047   1.262  0.00  0.00    -0.076 A 
ATOM      2  C3  UNL d   1      -1.114   1.119   0.812  0.00  0.00     0.004 A 
ATOM      3  C4  UNL d   1       0.053   1.047   0.053  0.00  0.00    -0.003 A 
ATOM      4  C5  UNL d   1       0.596  -0.192  -0.268  0.00  0.00     0.000 A 
ATOM      5  C6  UNL d   1      -0.039  -1.360   0.155  0.00  0.00     0.000 A 
ATOM      6  C7  UNL d   1      -1.225  -1.305   0.907  0.00  0.00    -0.073 A 
ATOM      7  C8  UNL d   1      -1.864  -2.595   1.343  0.00  0.00     0.078 C 
ENDROOT
BRANCH   1   8
ATOM      8  C1  UNL d   1      -3.005   0.094   2.105  0.00  0.00     0.053 C 
ATOM      9  C   UNL d   1      -4.219   0.499   1.284  0.00  0.00     0.018 C 
ENDBRANCH   1   8
TORSDOF 1
ENDMDL
