MODEL 1
REMARK minimizedAffinity 8.63690948
REMARK minimizedRMSD -1
REMARK  2 active torsions:
REMARK  status: ('A' for Active; 'I' for Inactive)
REMARK    1  A    between atoms: C2'_3  and  C1'_4 
REMARK    2  A    between atoms: C1'_4  and  C1_5 
ROOT
ATOM      1  C1  I4B d   1      -5.184  -5.289  -1.340  0.00  0.00    -0.075 A 
ATOM      2  C2  I4B d   1      -5.525  -5.998  -2.465  0.00  0.00     0.003 A 
ATOM      3  C3  I4B d   1      -4.983  -5.642  -3.723  0.00  0.00     0.002 A 
ATOM      4  C4  I4B d   1      -4.148  -4.547  -3.818  0.00  0.00    -0.004 A 
ATOM      5  C5  I4B d   1      -3.785  -3.844  -2.673  0.00  0.00     0.002 A 
ATOM      6  C6  I4B d   1      -4.297  -4.224  -1.424  0.00  0.00     0.003 A 
ENDROOT
BRANCH   1   7
ATOM      7  C1' I4B d   1      -5.802  -5.672  -0.032  0.00  0.00     0.060 C 
BRANCH   7   8
ATOM      8  C2' I4B d   1      -4.784  -5.409   1.059  0.00  0.00    -0.013 C 
ATOM      9  C4' I4B d   1      -4.513  -3.935   1.208  0.00  0.00     0.013 C 
ATOM     10  C3' I4B d   1      -5.312  -5.994   2.335  0.00  0.00     0.013 C 
ENDBRANCH   7   8
ENDBRANCH   1   7
TORSDOF 2
ENDMDL
