MODEL 1
REMARK minimizedAffinity 9.21370506
REMARK minimizedRMSD -1
REMARK  2 active torsions:
REMARK  status: ('A' for Active; 'I' for Inactive)
REMARK    1  A    between atoms: C2'_3  and  C1'_4 
REMARK    2  A    between atoms: C1'_4  and  C1_5 
ROOT
ATOM      1  C1  I4B d   1       2.234  -3.913  -4.280  0.00  0.00    -0.075 A 
ATOM      2  C2  I4B d   1       3.349  -3.380  -4.878  0.00  0.00     0.003 A 
ATOM      3  C3  I4B d   1       4.517  -4.165  -5.037  0.00  0.00     0.002 A 
ATOM      4  C4  I4B d   1       4.542  -5.453  -4.542  0.00  0.00    -0.004 A 
ATOM      5  C5  I4B d   1       3.404  -5.999  -3.957  0.00  0.00     0.002 A 
ATOM      6  C6  I4B d   1       2.238  -5.229  -3.836  0.00  0.00     0.003 A 
ENDROOT
BRANCH   1   7
ATOM      7  C1' I4B d   1       1.029  -3.045  -4.099  0.00  0.00     0.060 C 
BRANCH   7   8
ATOM      8  C2' I4B d   1       0.043  -3.792  -3.224  0.00  0.00    -0.013 C 
ATOM      9  C4' I4B d   1       0.233  -3.446  -1.771  0.00  0.00     0.013 C 
ATOM     10  C3' I4B d   1      -1.341  -3.447  -3.687  0.00  0.00     0.013 C 
ENDBRANCH   7   8
ENDBRANCH   1   7
TORSDOF 2
ENDMDL
