MODEL 1
REMARK minimizedAffinity 8.18444443
REMARK minimizedRMSD -1
REMARK  2 active torsions:
REMARK  status: ('A' for Active; 'I' for Inactive)
REMARK    1  A    between atoms: C2'_3  and  C1'_4 
REMARK    2  A    between atoms: C1'_4  and  C1_5 
ROOT
ATOM      1  C1  I4B d   1      -1.250   3.083  -0.907  0.00  0.00    -0.075 A 
ATOM      2  C2  I4B d   1      -2.557   3.356  -1.225  0.00  0.00     0.003 A 
ATOM      3  C3  I4B d   1      -3.610   2.716  -0.527  0.00  0.00     0.002 A 
ATOM      4  C4  I4B d   1      -3.312   1.780   0.442  0.00  0.00    -0.004 A 
ATOM      5  C5  I4B d   1      -1.986   1.522   0.780  0.00  0.00     0.002 A 
ATOM      6  C6  I4B d   1      -0.949   2.186   0.110  0.00  0.00     0.003 A 
ENDROOT
BRANCH   1   7
ATOM      7  C1' I4B d   1      -0.163   3.752  -1.687  0.00  0.00     0.060 C 
BRANCH   7   8
ATOM      8  C2' I4B d   1      -0.814   4.679  -2.694  0.00  0.00    -0.013 C 
ATOM      9  C4' I4B d   1      -0.095   6.000  -2.763  0.00  0.00     0.013 C 
ATOM     10  C3' I4B d   1      -0.811   3.990  -4.026  0.00  0.00     0.013 C 
ENDBRANCH   7   8
ENDBRANCH   1   7
TORSDOF 2
ENDMDL
