MODEL 1
REMARK minimizedAffinity 0.898523629
REMARK minimizedRMSD -1
REMARK  2 active torsions:
REMARK  status: ('A' for Active; 'I' for Inactive)
REMARK    1  A    between atoms: C2'_3  and  C1'_4 
REMARK    2  A    between atoms: C1'_4  and  C1_5 
ROOT
ATOM      1  C1  I4B d   1       1.085   2.939  -0.813  0.00  0.00    -0.075 A 
ATOM      2  C2  I4B d   1       0.009   2.233  -0.336  0.00  0.00     0.003 A 
ATOM      3  C3  I4B d   1       0.160   0.878   0.049  0.00  0.00     0.002 A 
ATOM      4  C4  I4B d   1       1.383   0.260  -0.107  0.00  0.00    -0.004 A 
ATOM      5  C5  I4B d   1       2.478   0.984  -0.570  0.00  0.00     0.002 A 
ATOM      6  C6  I4B d   1       2.332   2.336  -0.913  0.00  0.00     0.003 A 
ENDROOT
BRANCH   1   7
ATOM      7  C1' I4B d   1       0.883   4.359  -1.240  0.00  0.00     0.060 C 
BRANCH   7   8
ATOM      8  C2' I4B d   1       0.713   4.373  -2.746  0.00  0.00    -0.013 C 
ATOM      9  C4' I4B d   1      -0.602   3.761  -3.152  0.00  0.00     0.013 C 
ATOM     10  C3' I4B d   1       0.814   5.795  -3.210  0.00  0.00     0.013 C 
ENDBRANCH   7   8
ENDBRANCH   1   7
TORSDOF 2
ENDMDL
