MODEL 1
REMARK minimizedAffinity 3.94518518
REMARK minimizedRMSD -1
REMARK  2 active torsions:
REMARK  status: ('A' for Active; 'I' for Inactive)
REMARK    1  A    between atoms: C2'_3  and  C1'_4 
REMARK    2  A    between atoms: C1'_4  and  C1_5 
ROOT
ATOM      1  C1  I4B d   1       0.676   0.542   0.201  0.00  0.00    -0.075 A 
ATOM      2  C2  I4B d   1       0.040   1.707  -0.151  0.00  0.00     0.003 A 
ATOM      3  C3  I4B d   1       0.771   2.770  -0.734  0.00  0.00     0.002 A 
ATOM      4  C4  I4B d   1       2.136   2.646  -0.899  0.00  0.00    -0.004 A 
ATOM      5  C5  I4B d   1       2.775   1.456  -0.562  0.00  0.00     0.002 A 
ATOM      6  C6  I4B d   1       2.038   0.393  -0.021  0.00  0.00     0.003 A 
ENDROOT
BRANCH   1   7
ATOM      7  C1' I4B d   1      -0.122  -0.548   0.844  0.00  0.00     0.060 C 
BRANCH   7   8
ATOM      8  C2' I4B d   1      -0.015  -1.781  -0.029  0.00  0.00    -0.013 C 
ATOM      9  C4' I4B d   1       0.211  -1.411  -1.471  0.00  0.00     0.013 C 
ATOM     10  C3' I4B d   1       1.108  -2.625   0.496  0.00  0.00     0.013 C 
ENDBRANCH   7   8
ENDBRANCH   1   7
TORSDOF 2
ENDMDL
