MODEL 1
REMARK minimizedAffinity -2.79939032
REMARK minimizedRMSD -1
REMARK  2 active torsions:
REMARK  status: ('A' for Active; 'I' for Inactive)
REMARK    1  A    between atoms: C2'_3  and  C1'_4 
REMARK    2  A    between atoms: C1'_4  and  C1_5 
ROOT
ATOM      1  C1  I4B d   1      -0.997  -2.242   1.324  0.00  0.00    -0.075 A 
ATOM      2  C2  I4B d   1      -0.791  -0.892   1.183  0.00  0.00     0.003 A 
ATOM      3  C3  I4B d   1       0.361  -0.413   0.513  0.00  0.00     0.002 A 
ATOM      4  C4  I4B d   1       1.299  -1.312   0.048  0.00  0.00    -0.004 A 
ATOM      5  C5  I4B d   1       1.077  -2.680   0.172  0.00  0.00     0.002 A 
ATOM      6  C6  I4B d   1      -0.084  -3.149   0.803  0.00  0.00     0.003 A 
ENDROOT
BRANCH   1   7
ATOM      7  C1' I4B d   1      -2.208  -2.712   2.066  0.00  0.00     0.060 C 
BRANCH   7   8
ATOM      8  C2' I4B d   1      -1.741  -3.411   3.326  0.00  0.00    -0.013 C 
ATOM      9  C4' I4B d   1      -1.187  -2.427   4.322  0.00  0.00     0.013 C 
ATOM     10  C3' I4B d   1      -2.907  -4.162   3.898  0.00  0.00     0.013 C 
ENDBRANCH   7   8
ENDBRANCH   1   7
TORSDOF 2
ENDMDL
