MODEL 1
REMARK minimizedAffinity 2.05623317
REMARK minimizedRMSD -1
REMARK  2 active torsions:
REMARK  status: ('A' for Active; 'I' for Inactive)
REMARK    1  A    between atoms: C2'_3  and  C1'_4 
REMARK    2  A    between atoms: C1'_4  and  C1_5 
ROOT
ATOM      1  C1  I4B d   1       0.677  -0.618   0.326  0.00  0.00    -0.075 A 
ATOM      2  C2  I4B d   1       1.803  -1.316  -0.035  0.00  0.00     0.003 A 
ATOM      3  C3  I4B d   1       1.797  -2.732  -0.025  0.00  0.00     0.002 A 
ATOM      4  C4  I4B d   1       0.669  -3.404   0.398  0.00  0.00    -0.004 A 
ATOM      5  C5  I4B d   1      -0.479  -2.696   0.741  0.00  0.00     0.002 A 
ATOM      6  C6  I4B d   1      -0.479  -1.294   0.693  0.00  0.00     0.003 A 
ENDROOT
BRANCH   1   7
ATOM      7  C1' I4B d   1       0.728   0.877   0.336  0.00  0.00     0.060 C 
BRANCH   7   8
ATOM      8  C2' I4B d   1      -0.507   1.391  -0.376  0.00  0.00    -0.013 C 
ATOM      9  C4' I4B d   1      -1.661   1.546   0.578  0.00  0.00     0.013 C 
ATOM     10  C3' I4B d   1      -0.158   2.698  -1.023  0.00  0.00     0.013 C 
ENDBRANCH   7   8
ENDBRANCH   1   7
TORSDOF 2
ENDMDL
