MODEL 1
REMARK minimizedAffinity 15.5072937
REMARK minimizedRMSD -1
REMARK  2 active torsions:
REMARK  status: ('A' for Active; 'I' for Inactive)
REMARK    1  A    between atoms: C2'_3  and  C1'_4 
REMARK    2  A    between atoms: C1'_4  and  C1_5 
ROOT
ATOM      1  C1  I4B d   1      -2.165   3.277  -1.662  0.00  0.00    -0.075 A 
ATOM      2  C2  I4B d   1      -2.719   2.532  -2.673  0.00  0.00     0.003 A 
ATOM      3  C3  I4B d   1      -2.118   2.511  -3.955  0.00  0.00     0.002 A 
ATOM      4  C4  I4B d   1      -1.001   3.285  -4.195  0.00  0.00    -0.004 A 
ATOM      5  C5  I4B d   1      -0.428   4.022  -3.162  0.00  0.00     0.002 A 
ATOM      6  C6  I4B d   1      -1.006   4.009  -1.885  0.00  0.00     0.003 A 
ENDROOT
BRANCH   1   7
ATOM      7  C1' I4B d   1      -2.844   3.302  -0.330  0.00  0.00     0.060 C 
BRANCH   7   8
ATOM      8  C2' I4B d   1      -4.338   3.399  -0.568  0.00  0.00    -0.013 C 
ATOM      9  C4' I4B d   1      -5.107   2.618   0.465  0.00  0.00     0.013 C 
ATOM     10  C3' I4B d   1      -4.717   4.850  -0.544  0.00  0.00     0.013 C 
ENDBRANCH   7   8
ENDBRANCH   1   7
TORSDOF 2
ENDMDL
