MODEL 1
REMARK minimizedAffinity -5.09545279
REMARK minimizedRMSD -1
REMARK  0 active torsions:
REMARK  status: ('A' for Active; 'I' for Inactive)
ROOT
ATOM      1  N1  IND d   1       0.521  -1.278  -2.039  0.00  0.00    -0.196 N 
ATOM      2  C2  IND d   1       0.304  -2.561  -2.457  0.00  0.00     0.054 A 
ATOM      3  C3  IND d   1      -0.195  -3.308  -1.447  0.00  0.00    -0.031 A 
ATOM      4  C4  IND d   1      -0.829  -2.605   0.947  0.00  0.00     0.051 A 
ATOM      5  C5  IND d   1      -0.778  -1.544   1.808  0.00  0.00    -0.031 A 
ATOM      6  C6  IND d   1      -0.285  -0.315   1.421  0.00  0.00     0.015 A 
ATOM      7  C7  IND d   1       0.168  -0.096   0.151  0.00  0.00    -0.016 A 
ATOM      8  C8  IND d   1       0.125  -1.173  -0.723  0.00  0.00    -0.047 A 
ATOM      9  C9  IND d   1      -0.336  -2.435  -0.325  0.00  0.00    -0.096 A 
ATOM     10  HN1 IND d   1       0.849  -0.643  -2.516  0.00  0.00     0.298 HD
ENDROOT
TORSDOF 0
ENDMDL
