MODEL 1
REMARK minimizedAffinity -3.84578729
REMARK minimizedRMSD -1
REMARK  0 active torsions:
REMARK  status: ('A' for Active; 'I' for Inactive)
ROOT
ATOM      1  N1  IND d   1       0.850  -0.770   1.495  0.00  0.00    -0.196 N 
ATOM      2  C2  IND d   1       0.299  -1.934   1.037  0.00  0.00     0.054 A 
ATOM      3  C3  IND d   1      -0.224  -1.754  -0.196  0.00  0.00    -0.031 A 
ATOM      4  C4  IND d   1      -0.198   0.340  -1.694  0.00  0.00     0.051 A 
ATOM      5  C5  IND d   1       0.160   1.659  -1.695  0.00  0.00    -0.031 A 
ATOM      6  C6  IND d   1       0.781   2.247  -0.612  0.00  0.00     0.015 A 
ATOM      7  C7  IND d   1       1.079   1.532   0.513  0.00  0.00    -0.016 A 
ATOM      8  C8  IND d   1       0.711   0.194   0.521  0.00  0.00    -0.047 A 
ATOM      9  C9  IND d   1       0.042  -0.398  -0.559  0.00  0.00    -0.096 A 
ATOM     10  HN1 IND d   1       1.222  -0.658   2.262  0.00  0.00     0.298 HD
ENDROOT
TORSDOF 0
ENDMDL
