MODEL 1
REMARK minimizedAffinity -4.50968885
REMARK minimizedRMSD -1
REMARK  0 active torsions:
REMARK  status: ('A' for Active; 'I' for Inactive)
ROOT
ATOM      1  N1  IND d   1      -1.839   0.085   0.598  0.00  0.00    -0.196 N 
ATOM      2  C2  IND d   1      -1.160   1.157   0.091  0.00  0.00     0.054 A 
ATOM      3  C3  IND d   1       0.062   0.777  -0.345  0.00  0.00    -0.031 A 
ATOM      4  C4  IND d   1       1.115  -1.571  -0.417  0.00  0.00     0.051 A 
ATOM      5  C5  IND d   1       0.892  -2.864  -0.032  0.00  0.00    -0.031 A 
ATOM      6  C6  IND d   1      -0.277  -3.248   0.592  0.00  0.00     0.015 A 
ATOM      7  C7  IND d   1      -1.276  -2.351   0.846  0.00  0.00    -0.016 A 
ATOM      8  C8  IND d   1      -1.051  -1.037   0.464  0.00  0.00    -0.047 A 
ATOM      9  C9  IND d   1       0.151  -0.633  -0.132  0.00  0.00    -0.096 A 
ATOM     10  HN1 IND d   1      -2.626   0.107   0.943  0.00  0.00     0.298 HD
ENDROOT
TORSDOF 0
ENDMDL
