MODEL 1
REMARK minimizedAffinity -2.62588167
REMARK minimizedRMSD -1
REMARK  0 active torsions:
REMARK  status: ('A' for Active; 'I' for Inactive)
ROOT
ATOM      1  N1  IND d   1       0.592   1.122  -0.646  0.00  0.00    -0.196 N 
ATOM      2  C2  IND d   1      -0.319   1.943  -0.043  0.00  0.00     0.054 A 
ATOM      3  C3  IND d   1      -1.267   1.213   0.586  0.00  0.00    -0.031 A 
ATOM      4  C4  IND d   1      -1.461  -1.342   0.841  0.00  0.00     0.051 A 
ATOM      5  C5  IND d   1      -0.885  -2.512   0.434  0.00  0.00    -0.031 A 
ATOM      6  C6  IND d   1       0.238  -2.531  -0.368  0.00  0.00     0.015 A 
ATOM      7  C7  IND d   1       0.835  -1.375  -0.785  0.00  0.00    -0.016 A 
ATOM      8  C8  IND d   1       0.248  -0.185  -0.379  0.00  0.00    -0.047 A 
ATOM      9  C9  IND d   1      -0.916  -0.159   0.399  0.00  0.00    -0.096 A 
ATOM     10  HN1 IND d   1       1.267   1.379  -1.113  0.00  0.00     0.298 HD
ENDROOT
TORSDOF 0
ENDMDL
