MODEL 1
REMARK minimizedAffinity -3.71036649
REMARK minimizedRMSD -1
REMARK  0 active torsions:
REMARK  status: ('A' for Active; 'I' for Inactive)
ROOT
ATOM      1  N1  IND d   1       0.134   0.844  -0.412  0.00  0.00    -0.196 N 
ATOM      2  C2  IND d   1       0.847   0.443  -1.508  0.00  0.00     0.054 A 
ATOM      3  C3  IND d   1       0.851  -0.906  -1.599  0.00  0.00    -0.031 A 
ATOM      4  C4  IND d   1      -0.333  -2.649  -0.120  0.00  0.00     0.051 A 
ATOM      5  C5  IND d   1      -1.073  -2.767   1.023  0.00  0.00    -0.031 A 
ATOM      6  C6  IND d   1      -1.459  -1.666   1.759  0.00  0.00     0.015 A 
ATOM      7  C7  IND d   1      -1.127  -0.398   1.372  0.00  0.00    -0.016 A 
ATOM      8  C8  IND d   1      -0.370  -0.275   0.216  0.00  0.00    -0.047 A 
ATOM      9  C9  IND d   1       0.061  -1.391  -0.512  0.00  0.00    -0.096 A 
ATOM     10  HN1 IND d   1       0.019   1.657  -0.158  0.00  0.00     0.298 HD
ENDROOT
TORSDOF 0
ENDMDL
