MODEL 1
REMARK minimizedAffinity -3.90291309
REMARK minimizedRMSD -1
REMARK  0 active torsions:
REMARK  status: ('A' for Active; 'I' for Inactive)
ROOT
ATOM      1  N1  IND d   1       0.138  -1.336  -2.015  0.00  0.00    -0.196 N 
ATOM      2  C2  IND d   1       0.477  -0.061  -2.375  0.00  0.00     0.054 A 
ATOM      3  C3  IND d   1       0.266   0.790  -1.346  0.00  0.00    -0.031 A 
ATOM      4  C4  IND d   1      -0.535   0.292   1.050  0.00  0.00     0.051 A 
ATOM      5  C5  IND d   1      -1.003  -0.719   1.841  0.00  0.00    -0.031 A 
ATOM      6  C6  IND d   1      -1.114  -2.014   1.379  0.00  0.00     0.015 A 
ATOM      7  C7  IND d   1      -0.749  -2.350   0.106  0.00  0.00    -0.016 A 
ATOM      8  C8  IND d   1      -0.280  -1.324  -0.703  0.00  0.00    -0.047 A 
ATOM      9  C9  IND d   1      -0.205  -0.000  -0.253  0.00  0.00    -0.096 A 
ATOM     10  HN1 IND d   1       0.179  -2.028  -2.524  0.00  0.00     0.298 HD
ENDROOT
TORSDOF 0
ENDMDL
