MODEL 1
REMARK minimizedAffinity -4.48063612
REMARK minimizedRMSD -1
REMARK  0 active torsions:
REMARK  status: ('A' for Active; 'I' for Inactive)
ROOT
ATOM      1  N1  IND d   1       0.340  -0.319  -1.189  0.00  0.00    -0.196 N 
ATOM      2  C2  IND d   1       0.370   1.046  -1.118  0.00  0.00     0.054 A 
ATOM      3  C3  IND d   1      -0.104   1.466   0.076  0.00  0.00    -0.031 A 
ATOM      4  C4  IND d   1      -0.886   0.084   2.103  0.00  0.00     0.051 A 
ATOM      5  C5  IND d   1      -1.129  -1.200   2.501  0.00  0.00    -0.031 A 
ATOM      6  C6  IND d   1      -0.888  -2.279   1.675  0.00  0.00     0.015 A 
ATOM      7  C7  IND d   1      -0.381  -2.112   0.417  0.00  0.00    -0.016 A 
ATOM      8  C8  IND d   1      -0.140  -0.809   0.006  0.00  0.00    -0.047 A 
ATOM      9  C9  IND d   1      -0.422   0.291   0.825  0.00  0.00    -0.096 A 
ATOM     10  HN1 IND d   1       0.580  -0.792  -1.866  0.00  0.00     0.298 HD
ENDROOT
TORSDOF 0
ENDMDL
