MODEL 1
REMARK minimizedAffinity -5.73651648
REMARK minimizedRMSD -1
REMARK  0 active torsions:
REMARK  status: ('A' for Active; 'I' for Inactive)
ROOT
ATOM      1  N1  IND d   1       0.766  -1.132   1.766  0.00  0.00    -0.196 N 
ATOM      2  C2  IND d   1      -0.547  -1.469   1.587  0.00  0.00     0.054 A 
ATOM      3  C3  IND d   1      -1.169  -0.546   0.820  0.00  0.00    -0.031 A 
ATOM      4  C4  IND d   1      -0.203   1.543  -0.333  0.00  0.00     0.051 A 
ATOM      5  C5  IND d   1       0.940   2.287  -0.433  0.00  0.00    -0.031 A 
ATOM      6  C6  IND d   1       2.107   1.920   0.205  0.00  0.00     0.015 A 
ATOM      7  C7  IND d   1       2.178   0.785   0.962  0.00  0.00    -0.016 A 
ATOM      8  C8  IND d   1       1.018   0.031   1.072  0.00  0.00    -0.047 A 
ATOM      9  C9  IND d   1      -0.181   0.421   0.461  0.00  0.00    -0.096 A 
ATOM     10  HN1 IND d   1       1.337  -1.572   2.234  0.00  0.00     0.298 HD
ENDROOT
TORSDOF 0
ENDMDL
