MODEL 1
REMARK minimizedAffinity -1.98524618
REMARK minimizedRMSD -1
REMARK  0 active torsions:
REMARK  status: ('A' for Active; 'I' for Inactive)
ROOT
ATOM      1  N1  IND d   1       0.385  -1.368  -2.462  0.00  0.00    -0.196 N 
ATOM      2  C2  IND d   1       0.047  -2.645  -2.815  0.00  0.00     0.054 A 
ATOM      3  C3  IND d   1      -0.464  -3.307  -1.752  0.00  0.00    -0.031 A 
ATOM      4  C4  IND d   1      -0.933  -2.457   0.632  0.00  0.00     0.051 A 
ATOM      5  C5  IND d   1      -0.759  -1.370   1.442  0.00  0.00    -0.031 A 
ATOM      6  C6  IND d   1      -0.186  -0.202   0.982  0.00  0.00     0.015 A 
ATOM      7  C7  IND d   1       0.226  -0.074  -0.314  0.00  0.00    -0.016 A 
ATOM      8  C8  IND d   1       0.057  -1.178  -1.138  0.00  0.00    -0.047 A 
ATOM      9  C9  IND d   1      -0.484  -2.380  -0.665  0.00  0.00    -0.096 A 
ATOM     10  HN1 IND d   1       0.742  -0.782  -2.981  0.00  0.00     0.298 HD
ENDROOT
TORSDOF 0
ENDMDL
