MODEL 1
REMARK minimizedAffinity -5.66314268
REMARK minimizedRMSD -1
REMARK  0 active torsions:
REMARK  status: ('A' for Active; 'I' for Inactive)
ROOT
ATOM      1  N1  IND d   1      -0.510  -0.057   0.001  0.00  0.00    -0.196 N 
ATOM      2  C2  IND d   1      -1.198  -0.404   1.131  0.00  0.00     0.054 A 
ATOM      3  C3  IND d   1      -1.259  -1.749   1.249  0.00  0.00    -0.031 A 
ATOM      4  C4  IND d   1      -0.212  -3.571  -0.238  0.00  0.00     0.051 A 
ATOM      5  C5  IND d   1       0.478  -3.744  -1.405  0.00  0.00    -0.031 A 
ATOM      6  C6  IND d   1       0.884  -2.675  -2.177  0.00  0.00     0.015 A 
ATOM      7  C7  IND d   1       0.625  -1.387  -1.803  0.00  0.00    -0.016 A 
ATOM      8  C8  IND d   1      -0.082  -1.208  -0.622  0.00  0.00    -0.047 A 
ATOM      9  C9  IND d   1      -0.534  -2.290   0.144  0.00  0.00    -0.096 A 
ATOM     10  HN1 IND d   1      -0.369   0.746  -0.273  0.00  0.00     0.298 HD
ENDROOT
TORSDOF 0
ENDMDL
