MODEL 1
REMARK minimizedAffinity -4.4891305
REMARK minimizedRMSD -1
REMARK  0 active torsions:
REMARK  status: ('A' for Active; 'I' for Inactive)
ROOT
ATOM      1  N1  IND d   1      -0.245   1.310   0.938  0.00  0.00    -0.196 N 
ATOM      2  C2  IND d   1       0.163   1.639  -0.325  0.00  0.00     0.054 A 
ATOM      3  C3  IND d   1       0.305   0.525  -1.078  0.00  0.00    -0.031 A 
ATOM      4  C4  IND d   1      -0.178  -1.931  -0.474  0.00  0.00     0.051 A 
ATOM      5  C5  IND d   1      -0.535  -2.732   0.574  0.00  0.00    -0.031 A 
ATOM      6  C6  IND d   1      -0.822  -2.216   1.822  0.00  0.00     0.015 A 
ATOM      7  C7  IND d   1      -0.773  -0.873   2.065  0.00  0.00    -0.016 A 
ATOM      8  C8  IND d   1      -0.404  -0.057   1.005  0.00  0.00    -0.047 A 
ATOM      9  C9  IND d   1      -0.071  -0.578  -0.251  0.00  0.00    -0.096 A 
ATOM     10  HN1 IND d   1      -0.379   1.864   1.582  0.00  0.00     0.298 HD
ENDROOT
TORSDOF 0
ENDMDL
