MODEL 1
REMARK minimizedAffinity -0.958564341
REMARK minimizedRMSD -1
REMARK  0 active torsions:
REMARK  status: ('A' for Active; 'I' for Inactive)
ROOT
ATOM      1  N1  IND d   1       1.701   0.230   0.215  0.00  0.00    -0.196 N 
ATOM      2  C2  IND d   1       0.953   1.361   0.038  0.00  0.00     0.054 A 
ATOM      3  C3  IND d   1      -0.365   1.061   0.046  0.00  0.00    -0.031 A 
ATOM      4  C4  IND d   1      -1.522  -1.206   0.436  0.00  0.00     0.051 A 
ATOM      5  C5  IND d   1      -1.257  -2.535   0.605  0.00  0.00    -0.031 A 
ATOM      6  C6  IND d   1       0.033  -3.021   0.657  0.00  0.00     0.015 A 
ATOM      7  C7  IND d   1       1.112  -2.189   0.552  0.00  0.00    -0.016 A 
ATOM      8  C8  IND d   1       0.847  -0.839   0.373  0.00  0.00    -0.047 A 
ATOM      9  C9  IND d   1      -0.461  -0.346   0.277  0.00  0.00    -0.096 A 
ATOM     10  HN1 IND d   1       2.560   0.193   0.225  0.00  0.00     0.298 HD
ENDROOT
TORSDOF 0
ENDMDL
