MODEL 1
REMARK minimizedAffinity -2.87905622
REMARK minimizedRMSD -1
REMARK  0 active torsions:
REMARK  status: ('A' for Active; 'I' for Inactive)
ROOT
ATOM      1  N1  IND d   1      -0.496  -1.312   1.649  0.00  0.00    -0.196 N 
ATOM      2  C2  IND d   1      -0.454  -2.623   1.264  0.00  0.00     0.054 A 
ATOM      3  C3  IND d   1      -0.187  -2.716  -0.058  0.00  0.00    -0.031 A 
ATOM      4  C4  IND d   1       0.318  -0.852  -1.761  0.00  0.00     0.051 A 
ATOM      5  C5  IND d   1       0.359   0.508  -1.888  0.00  0.00    -0.031 A 
ATOM      6  C6  IND d   1       0.116   1.348  -0.820  0.00  0.00     0.015 A 
ATOM      7  C7  IND d   1      -0.168   0.857   0.422  0.00  0.00    -0.016 A 
ATOM      8  C8  IND d   1      -0.219  -0.524   0.553  0.00  0.00    -0.047 A 
ATOM      9  C9  IND d   1      -0.014  -1.381  -0.536  0.00  0.00    -0.096 A 
ATOM     10  HN1 IND d   1      -0.667  -1.027   2.442  0.00  0.00     0.298 HD
ENDROOT
TORSDOF 0
ENDMDL
