MODEL 1
REMARK minimizedAffinity -1.95868707
REMARK minimizedRMSD -1
REMARK  0 active torsions:
REMARK  status: ('A' for Active; 'I' for Inactive)
ROOT
ATOM      1  N1  IND d   1       0.827   0.384   0.210  0.00  0.00    -0.196 N 
ATOM      2  C2  IND d   1      -0.059   1.029   1.026  0.00  0.00     0.054 A 
ATOM      3  C3  IND d   1      -0.953   0.153   1.537  0.00  0.00    -0.031 A 
ATOM      4  C4  IND d   1      -1.085  -2.402   1.250  0.00  0.00     0.051 A 
ATOM      5  C5  IND d   1      -0.513  -3.441   0.569  0.00  0.00    -0.031 A 
ATOM      6  C6  IND d   1       0.558  -3.254  -0.281  0.00  0.00     0.015 A 
ATOM      7  C7  IND d   1       1.107  -2.018  -0.474  0.00  0.00    -0.016 A 
ATOM      8  C8  IND d   1       0.525  -0.960   0.210  0.00  0.00    -0.047 A 
ATOM      9  C9  IND d   1      -0.589  -1.137   1.041  0.00  0.00    -0.096 A 
ATOM     10  HN1 IND d   1       1.467   0.755  -0.229  0.00  0.00     0.298 HD
ENDROOT
TORSDOF 0
ENDMDL
