MODEL 1
REMARK minimizedAffinity -5.22497654
REMARK minimizedRMSD -1
REMARK  0 active torsions:
REMARK  status: ('A' for Active; 'I' for Inactive)
ROOT
ATOM      1  N1  IND d   1       0.573   0.473  -1.856  0.00  0.00    -0.196 N 
ATOM      2  C2  IND d   1       0.256   1.616  -1.177  0.00  0.00     0.054 A 
ATOM      3  C3  IND d   1      -0.207   1.317   0.057  0.00  0.00    -0.031 A 
ATOM      4  C4  IND d   1      -0.431  -0.974   1.209  0.00  0.00     0.051 A 
ATOM      5  C5  IND d   1      -0.300  -2.315   0.976  0.00  0.00    -0.031 A 
ATOM      6  C6  IND d   1       0.140  -2.804  -0.236  0.00  0.00     0.015 A 
ATOM      7  C7  IND d   1       0.478  -1.967  -1.262  0.00  0.00    -0.016 A 
ATOM      8  C8  IND d   1       0.340  -0.606  -1.031  0.00  0.00    -0.047 A 
ATOM      9  C9  IND d   1      -0.147  -0.105   0.183  0.00  0.00    -0.096 A 
ATOM     10  HN1 IND d   1       0.869   0.433  -2.663  0.00  0.00     0.298 HD
ENDROOT
TORSDOF 0
ENDMDL
