MODEL 1
REMARK minimizedAffinity -3.60943294
REMARK minimizedRMSD -1
REMARK  0 active torsions:
REMARK  status: ('A' for Active; 'I' for Inactive)
ROOT
ATOM      1  C   UNL d   1       2.610   0.088   0.888  0.00  0.00     0.023 A 
ATOM      2  C1  UNL d   1       1.736   1.173   0.956  0.00  0.00     0.003 A 
ATOM      3  C2  UNL d   1       0.489   1.106   0.332  0.00  0.00     0.048 A 
ATOM      4  C3  UNL d   1       0.121  -0.049  -0.357  0.00  0.00     0.023 A 
ATOM      5  C4  UNL d   1       0.993  -1.137  -0.427  0.00  0.00     0.048 A 
ATOM      6  C5  UNL d   1       2.239  -1.065   0.198  0.00  0.00     0.003 A 
ATOM      7  I   UNL d   1      -1.735  -0.151  -1.286  0.00  0.00    -0.146 I 
ENDROOT
TORSDOF 0
ENDMDL
