MODEL 1
REMARK minimizedAffinity -1.29830968
REMARK minimizedRMSD -1
REMARK  0 active torsions:
REMARK  status: ('A' for Active; 'I' for Inactive)
ROOT
ATOM      1  C   UNL d   1      -2.927  -0.262  -3.747  0.00  0.00     0.023 A 
ATOM      2  C1  UNL d   1      -3.376  -0.121  -2.434  0.00  0.00     0.003 A 
ATOM      3  C2  UNL d   1      -2.468   0.149  -1.409  0.00  0.00     0.048 A 
ATOM      4  C3  UNL d   1      -1.111   0.278  -1.703  0.00  0.00     0.023 A 
ATOM      5  C4  UNL d   1      -0.657   0.139  -3.016  0.00  0.00     0.048 A 
ATOM      6  C5  UNL d   1      -1.569  -0.132  -4.038  0.00  0.00     0.003 A 
ATOM      7  I   UNL d   1       0.244   0.680  -0.179  0.00  0.00    -0.146 I 
ENDROOT
TORSDOF 0
ENDMDL
