MODEL 1
REMARK minimizedAffinity -3.79707408
REMARK minimizedRMSD -1
REMARK  0 active torsions:
REMARK  status: ('A' for Active; 'I' for Inactive)
ROOT
ATOM      1  C   UNL d   1       2.547  -1.749   2.662  0.00  0.00     0.023 A 
ATOM      2  C1  UNL d   1       2.827  -0.555   1.996  0.00  0.00     0.003 A 
ATOM      3  C2  UNL d   1       1.865   0.027   1.169  0.00  0.00     0.048 A 
ATOM      4  C3  UNL d   1       0.624  -0.590   1.013  0.00  0.00     0.023 A 
ATOM      5  C4  UNL d   1       0.339  -1.783   1.677  0.00  0.00     0.048 A 
ATOM      6  C5  UNL d   1       1.305  -2.362   2.503  0.00  0.00     0.003 A 
ATOM      7  I   UNL d   1      -0.811   0.275  -0.218  0.00  0.00    -0.146 I 
ENDROOT
TORSDOF 0
ENDMDL
