MODEL 1
REMARK minimizedAffinity -2.24722052
REMARK minimizedRMSD -1
REMARK  0 active torsions:
REMARK  status: ('A' for Active; 'I' for Inactive)
ROOT
ATOM      1  C   UNL d   1       0.832   0.936   0.382  0.00  0.00     0.023 A 
ATOM      2  C1  UNL d   1      -0.293   0.288   0.890  0.00  0.00     0.003 A 
ATOM      3  C2  UNL d   1      -1.326  -0.098   0.032  0.00  0.00     0.048 A 
ATOM      4  C3  UNL d   1      -1.225   0.167  -1.333  0.00  0.00     0.023 A 
ATOM      5  C4  UNL d   1      -0.100   0.815  -1.846  0.00  0.00     0.048 A 
ATOM      6  C5  UNL d   1       0.928   1.200  -0.984  0.00  0.00     0.003 A 
ATOM      7  I   UNL d   1      -2.760  -0.406  -2.612  0.00  0.00    -0.146 I 
ENDROOT
TORSDOF 0
ENDMDL
