MODEL 1
REMARK minimizedAffinity -2.8987093
REMARK minimizedRMSD -1
REMARK  0 active torsions:
REMARK  status: ('A' for Active; 'I' for Inactive)
ROOT
ATOM      1  C   UNL d   1       2.731  -0.602   2.312  0.00  0.00     0.023 A 
ATOM      2  C1  UNL d   1       2.713   0.528   1.494  0.00  0.00     0.003 A 
ATOM      3  C2  UNL d   1       1.655   0.732   0.606  0.00  0.00     0.048 A 
ATOM      4  C3  UNL d   1       0.618  -0.198   0.541  0.00  0.00     0.023 A 
ATOM      5  C4  UNL d   1       0.631  -1.330   1.357  0.00  0.00     0.048 A 
ATOM      6  C5  UNL d   1       1.691  -1.530   2.243  0.00  0.00     0.003 A 
ATOM      7  I   UNL d   1      -0.958   0.104  -0.780  0.00  0.00    -0.146 I 
ENDROOT
TORSDOF 0
ENDMDL
