MODEL 1
REMARK minimizedAffinity -1.99396932
REMARK minimizedRMSD -1
REMARK  0 active torsions:
REMARK  status: ('A' for Active; 'I' for Inactive)
ROOT
ATOM      1  C   UNL d   1       2.582  -0.126   1.082  0.00  0.00     0.023 A 
ATOM      2  C1  UNL d   1       2.119   1.098   0.602  0.00  0.00     0.003 A 
ATOM      3  C2  UNL d   1       0.841   1.194   0.047  0.00  0.00     0.048 A 
ATOM      4  C3  UNL d   1       0.031   0.060  -0.023  0.00  0.00     0.023 A 
ATOM      5  C4  UNL d   1       0.491  -1.167   0.458  0.00  0.00     0.048 A 
ATOM      6  C5  UNL d   1       1.769  -1.258   1.010  0.00  0.00     0.003 A 
ATOM      7  I   UNL d   1      -1.872   0.200  -0.847  0.00  0.00    -0.146 I 
ENDROOT
TORSDOF 0
ENDMDL
