MODEL 1
REMARK minimizedAffinity -3.06949139
REMARK minimizedRMSD -1
REMARK  0 active torsions:
REMARK  status: ('A' for Active; 'I' for Inactive)
ROOT
ATOM      1  C   UNL d   1       2.409   0.659   0.830  0.00  0.00     0.023 A 
ATOM      2  C1  UNL d   1       2.009   1.533  -0.182  0.00  0.00     0.003 A 
ATOM      3  C2  UNL d   1       0.761   1.375  -0.789  0.00  0.00     0.048 A 
ATOM      4  C3  UNL d   1      -0.081   0.342  -0.379  0.00  0.00     0.023 A 
ATOM      5  C4  UNL d   1       0.315  -0.534   0.633  0.00  0.00     0.048 A 
ATOM      6  C5  UNL d   1       1.563  -0.373   1.236  0.00  0.00     0.003 A 
ATOM      7  I   UNL d   1      -1.939   0.105  -1.281  0.00  0.00    -0.146 I 
ENDROOT
TORSDOF 0
ENDMDL
