MODEL 1
REMARK minimizedAffinity -2.7532208
REMARK minimizedRMSD -1
REMARK  0 active torsions:
REMARK  status: ('A' for Active; 'I' for Inactive)
ROOT
ATOM      1  C1  BNZ d   1      -3.263   4.226  -5.999  0.00  0.00     0.000 A 
ATOM      2  C2  BNZ d   1      -4.066   5.042  -5.248  0.00  0.00     0.000 A 
ATOM      3  C3  BNZ d   1      -5.033   4.518  -4.436  0.00  0.00     0.000 A 
ATOM      4  C4  BNZ d   1      -5.223   3.183  -4.408  0.00  0.00     0.000 A 
ATOM      5  C5  BNZ d   1      -4.428   2.348  -5.167  0.00  0.00     0.000 A 
ATOM      6  C6  BNZ d   1      -3.429   2.876  -5.953  0.00  0.00     0.000 A 
ENDROOT
TORSDOF 0
ENDMDL
