MODEL 1
REMARK minimizedAffinity 2.10312819
REMARK minimizedRMSD -1
REMARK  0 active torsions:
REMARK  status: ('A' for Active; 'I' for Inactive)
ROOT
ATOM      1  C1  BNZ d   1      -1.493  -4.121  -1.502  0.00  0.00     0.000 A 
ATOM      2  C2  BNZ d   1      -0.128  -4.128  -1.611  0.00  0.00     0.000 A 
ATOM      3  C3  BNZ d   1       0.620  -5.080  -0.976  0.00  0.00     0.000 A 
ATOM      4  C4  BNZ d   1       0.006  -5.999  -0.203  0.00  0.00     0.000 A 
ATOM      5  C5  BNZ d   1      -1.369  -6.000  -0.076  0.00  0.00     0.000 A 
ATOM      6  C6  BNZ d   1      -2.121  -5.064  -0.747  0.00  0.00     0.000 A 
ENDROOT
TORSDOF 0
ENDMDL
