MODEL 1
REMARK minimizedAffinity -3.62256932
REMARK minimizedRMSD -1
REMARK  0 active torsions:
REMARK  status: ('A' for Active; 'I' for Inactive)
ROOT
ATOM      1  C1  BNZ d   1      -4.180   2.465  -3.312  0.00  0.00     0.000 A 
ATOM      2  C2  BNZ d   1      -5.161   2.498  -2.357  0.00  0.00     0.000 A 
ATOM      3  C3  BNZ d   1      -5.995   3.576  -2.248  0.00  0.00     0.000 A 
ATOM      4  C4  BNZ d   1      -5.822   4.634  -3.066  0.00  0.00     0.000 A 
ATOM      5  C5  BNZ d   1      -4.831   4.620  -4.027  0.00  0.00     0.000 A 
ATOM      6  C6  BNZ d   1      -4.019   3.517  -4.160  0.00  0.00     0.000 A 
ENDROOT
TORSDOF 0
ENDMDL
