MODEL 1
REMARK minimizedAffinity -2.09455562
REMARK minimizedRMSD -1
REMARK  0 active torsions:
REMARK  status: ('A' for Active; 'I' for Inactive)
ROOT
ATOM      1  C1  BNZ d   1      -4.856   5.999  -3.382  0.00  0.00     0.000 A 
ATOM      2  C2  BNZ d   1      -3.733   5.965  -4.164  0.00  0.00     0.000 A 
ATOM      3  C3  BNZ d   1      -3.740   5.325  -5.371  0.00  0.00     0.000 A 
ATOM      4  C4  BNZ d   1      -4.857   4.687  -5.777  0.00  0.00     0.000 A 
ATOM      5  C5  BNZ d   1      -5.995   4.705  -4.996  0.00  0.00     0.000 A 
ATOM      6  C6  BNZ d   1      -5.996   5.383  -3.798  0.00  0.00     0.000 A 
ENDROOT
TORSDOF 0
ENDMDL
