MODEL 1
REMARK minimizedAffinity 9.34009075
REMARK minimizedRMSD -1
REMARK  0 active torsions:
REMARK  status: ('A' for Active; 'I' for Inactive)
ROOT
ATOM      1  C1  BNZ d   1      -6.000  -3.359  -1.856  0.00  0.00     0.000 A 
ATOM      2  C2  BNZ d   1      -4.872  -3.141  -2.602  0.00  0.00     0.000 A 
ATOM      3  C3  BNZ d   1      -3.741  -3.879  -2.392  0.00  0.00     0.000 A 
ATOM      4  C4  BNZ d   1      -3.725  -4.804  -1.411  0.00  0.00     0.000 A 
ATOM      5  C5  BNZ d   1      -4.850  -5.028  -0.643  0.00  0.00     0.000 A 
ATOM      6  C6  BNZ d   1      -6.000  -4.311  -0.883  0.00  0.00     0.000 A 
ENDROOT
TORSDOF 0
ENDMDL
