MODEL 1
REMARK minimizedAffinity -2.13552976
REMARK minimizedRMSD -1
REMARK  0 active torsions:
REMARK  status: ('A' for Active; 'I' for Inactive)
ROOT
ATOM      1  C1  BNZ d   1       4.596   1.100  -2.985  0.00  0.00     0.000 A 
ATOM      2  C2  BNZ d   1       3.606   1.940  -3.420  0.00  0.00     0.000 A 
ATOM      3  C3  BNZ d   1       3.460   2.221  -4.750  0.00  0.00     0.000 A 
ATOM      4  C4  BNZ d   1       4.328   1.694  -5.638  0.00  0.00     0.000 A 
ATOM      5  C5  BNZ d   1       5.338   0.853  -5.214  0.00  0.00     0.000 A 
ATOM      6  C6  BNZ d   1       5.457   0.541  -3.879  0.00  0.00     0.000 A 
ENDROOT
TORSDOF 0
ENDMDL
