MODEL 1
REMARK minimizedAffinity 1.5530715
REMARK minimizedRMSD -1
REMARK  0 active torsions:
REMARK  status: ('A' for Active; 'I' for Inactive)
ROOT
ATOM      1  C1  BNZ d   1      -2.615  -1.221   0.978  0.00  0.00     0.000 A 
ATOM      2  C2  BNZ d   1      -3.365  -2.120   0.268  0.00  0.00     0.000 A 
ATOM      3  C3  BNZ d   1      -2.788  -2.920  -0.678  0.00  0.00     0.000 A 
ATOM      4  C4  BNZ d   1      -1.471  -2.792  -0.942  0.00  0.00     0.000 A 
ATOM      5  C5  BNZ d   1      -0.704  -1.883  -0.241  0.00  0.00     0.000 A 
ATOM      6  C6  BNZ d   1      -1.280  -1.107   0.738  0.00  0.00     0.000 A 
ENDROOT
TORSDOF 0
ENDMDL
