MODEL 1
REMARK minimizedAffinity -1.99417984
REMARK minimizedRMSD -1
REMARK  0 active torsions:
REMARK  status: ('A' for Active; 'I' for Inactive)
ROOT
ATOM      1  C1  BNZ d   1      -5.976   0.597  -0.009  0.00  0.00     0.000 A 
ATOM      2  C2  BNZ d   1      -5.985   1.244  -1.217  0.00  0.00     0.000 A 
ATOM      3  C3  BNZ d   1      -5.976   2.609  -1.279  0.00  0.00     0.000 A 
ATOM      4  C4  BNZ d   1      -5.999   3.326  -0.137  0.00  0.00     0.000 A 
ATOM      5  C5  BNZ d   1      -5.999   2.689   1.088  0.00  0.00     0.000 A 
ATOM      6  C6  BNZ d   1      -5.969   1.314   1.147  0.00  0.00     0.000 A 
ENDROOT
TORSDOF 0
ENDMDL
