MODEL 1
REMARK minimizedAffinity 10.4273214
REMARK minimizedRMSD -1
REMARK  0 active torsions:
REMARK  status: ('A' for Active; 'I' for Inactive)
ROOT
ATOM      1  C1  BNZ d   1       4.529   3.929   1.754  0.00  0.00     0.000 A 
ATOM      2  C2  BNZ d   1       4.140   3.947   0.441  0.00  0.00     0.000 A 
ATOM      3  C3  BNZ d   1       4.508   4.973  -0.384  0.00  0.00     0.000 A 
ATOM      4  C4  BNZ d   1       5.229   5.998   0.114  0.00  0.00     0.000 A 
ATOM      5  C5  BNZ d   1       5.622   5.999   1.437  0.00  0.00     0.000 A 
ATOM      6  C6  BNZ d   1       5.282   4.945   2.255  0.00  0.00     0.000 A 
ENDROOT
TORSDOF 0
ENDMDL
