MODEL 1
REMARK minimizedAffinity 1.69634795
REMARK minimizedRMSD -1
REMARK  0 active torsions:
REMARK  status: ('A' for Active; 'I' for Inactive)
ROOT
ATOM      1  C1  BNZ d   1      -6.000   4.543  -1.412  0.00  0.00     0.000 A 
ATOM      2  C2  BNZ d   1      -6.000   5.688  -2.164  0.00  0.00     0.000 A 
ATOM      3  C3  BNZ d   1      -6.000   5.629  -3.529  0.00  0.00     0.000 A 
ATOM      4  C4  BNZ d   1      -5.959   4.427  -4.141  0.00  0.00     0.000 A 
ATOM      5  C5  BNZ d   1      -5.949   3.264  -3.397  0.00  0.00     0.000 A 
ATOM      6  C6  BNZ d   1      -5.988   3.327  -2.023  0.00  0.00     0.000 A 
ENDROOT
TORSDOF 0
ENDMDL
