MODEL 1
REMARK minimizedAffinity 3.79117084
REMARK minimizedRMSD -1
REMARK  0 active torsions:
REMARK  status: ('A' for Active; 'I' for Inactive)
ROOT
ATOM      1  C1  BNZ d   1       0.343   4.922  -5.998  0.00  0.00     0.000 A 
ATOM      2  C2  BNZ d   1      -0.537   5.971  -5.997  0.00  0.00     0.000 A 
ATOM      3  C3  BNZ d   1      -1.591   6.000  -5.127  0.00  0.00     0.000 A 
ATOM      4  C4  BNZ d   1      -1.786   4.963  -4.287  0.00  0.00     0.000 A 
ATOM      5  C5  BNZ d   1      -0.912   3.894  -4.282  0.00  0.00     0.000 A 
ATOM      6  C6  BNZ d   1       0.169   3.886  -5.133  0.00  0.00     0.000 A 
ENDROOT
TORSDOF 0
ENDMDL
