MODEL 1
REMARK minimizedAffinity -0.447579324
REMARK minimizedRMSD -1
REMARK  0 active torsions:
REMARK  status: ('A' for Active; 'I' for Inactive)
ROOT
ATOM      1  C1  BNZ d   1       3.638   5.295  -5.997  0.00  0.00     0.000 A 
ATOM      2  C2  BNZ d   1       3.642   3.926  -5.978  0.00  0.00     0.000 A 
ATOM      3  C3  BNZ d   1       4.818   3.230  -5.944  0.00  0.00     0.000 A 
ATOM      4  C4  BNZ d   1       5.987   3.902  -5.969  0.00  0.00     0.000 A 
ATOM      5  C5  BNZ d   1       5.999   5.282  -5.998  0.00  0.00     0.000 A 
ATOM      6  C6  BNZ d   1       4.814   5.980  -5.993  0.00  0.00     0.000 A 
ENDROOT
TORSDOF 0
ENDMDL
