MODEL 1
REMARK minimizedAffinity -0.160084933
REMARK minimizedRMSD -1
REMARK  0 active torsions:
REMARK  status: ('A' for Active; 'I' for Inactive)
ROOT
ATOM      1  C1  BNZ d   1      -6.000   5.307  -4.101  0.00  0.00     0.000 A 
ATOM      2  C2  BNZ d   1      -5.936   5.670  -5.420  0.00  0.00     0.000 A 
ATOM      3  C3  BNZ d   1      -4.742   5.997  -5.999  0.00  0.00     0.000 A 
ATOM      4  C4  BNZ d   1      -3.621   6.000  -5.250  0.00  0.00     0.000 A 
ATOM      5  C5  BNZ d   1      -3.670   5.645  -3.917  0.00  0.00     0.000 A 
ATOM      6  C6  BNZ d   1      -4.867   5.279  -3.347  0.00  0.00     0.000 A 
ENDROOT
TORSDOF 0
ENDMDL
