MODEL 1
REMARK minimizedAffinity 1.72717524
REMARK minimizedRMSD -1
REMARK  0 active torsions:
REMARK  status: ('A' for Active; 'I' for Inactive)
ROOT
ATOM      1  C1  BNZ d   1      -1.489   0.513   2.028  0.00  0.00     0.000 A 
ATOM      2  C2  BNZ d   1      -1.445  -0.845   2.198  0.00  0.00     0.000 A 
ATOM      3  C3  BNZ d   1      -0.547  -1.608   1.506  0.00  0.00     0.000 A 
ATOM      4  C4  BNZ d   1       0.278  -1.019   0.616  0.00  0.00     0.000 A 
ATOM      5  C5  BNZ d   1       0.240   0.348   0.427  0.00  0.00     0.000 A 
ATOM      6  C6  BNZ d   1      -0.639   1.118   1.154  0.00  0.00     0.000 A 
ENDROOT
TORSDOF 0
ENDMDL
