MODEL 1
REMARK minimizedAffinity 3.89253879
REMARK minimizedRMSD -1
REMARK  0 active torsions:
REMARK  status: ('A' for Active; 'I' for Inactive)
ROOT
ATOM      1  C1  BNZ d   1       1.051  -0.389  -1.151  0.00  0.00     0.000 A 
ATOM      2  C2  BNZ d   1       1.842  -1.129  -1.988  0.00  0.00     0.000 A 
ATOM      3  C3  BNZ d   1       2.788  -1.979  -1.487  0.00  0.00     0.000 A 
ATOM      4  C4  BNZ d   1       2.970  -2.056  -0.153  0.00  0.00     0.000 A 
ATOM      5  C5  BNZ d   1       2.187  -1.309   0.704  0.00  0.00     0.000 A 
ATOM      6  C6  BNZ d   1       1.208  -0.484   0.197  0.00  0.00     0.000 A 
ENDROOT
TORSDOF 0
ENDMDL
