MODEL 1
REMARK minimizedAffinity 19.1355667
REMARK minimizedRMSD -1
REMARK  0 active torsions:
REMARK  status: ('A' for Active; 'I' for Inactive)
ROOT
ATOM      1  C   UNL d   1      -0.070   2.092   3.076  0.00  0.00     0.124 A 
ATOM      2  C1  UNL d   1       1.264   1.926   2.729  0.00  0.00     0.062 A 
ATOM      3  C2  UNL d   1       1.982   0.835   3.208  0.00  0.00     0.162 A 
ATOM      4  C3  UNL d   1       1.367  -0.101   4.040  0.00  0.00    -0.034 A 
ATOM      5  C4  UNL d   1       0.026   0.073   4.386  0.00  0.00     0.162 A 
ATOM      6  C5  UNL d   1      -0.687   1.165   3.904  0.00  0.00     0.062 A 
ATOM      7  F   UNL d   1      -1.976   1.323   4.241  0.00  0.00    -0.097 F 
ATOM      8  F1  UNL d   1      -0.596  -0.808   5.184  0.00  0.00    -0.096 F 
ATOM      9  I   UNL d   1       2.438  -1.735   4.760  0.00  0.00    -0.060 I 
ATOM     10  F2  UNL d   1       3.269   0.700   2.856  0.00  0.00    -0.096 F 
ATOM     11  F3  UNL d   1       1.863   2.821   1.929  0.00  0.00    -0.097 F 
ATOM     12  F4  UNL d   1      -0.758   3.144   2.614  0.00  0.00    -0.092 F 
ENDROOT
TORSDOF 0
ENDMDL
