MODEL 1
REMARK minimizedAffinity 5.16426992
REMARK minimizedRMSD -1
REMARK  0 active torsions:
REMARK  status: ('A' for Active; 'I' for Inactive)
ROOT
ATOM      1  C   UNL d   1      -1.185  -3.568  -1.270  0.00  0.00     0.124 A 
ATOM      2  C1  UNL d   1      -0.957  -2.715  -2.341  0.00  0.00     0.062 A 
ATOM      3  C2  UNL d   1      -0.956  -1.337  -2.150  0.00  0.00     0.162 A 
ATOM      4  C3  UNL d   1      -1.183  -0.801  -0.883  0.00  0.00    -0.034 A 
ATOM      5  C4  UNL d   1      -1.413  -1.665   0.190  0.00  0.00     0.162 A 
ATOM      6  C5  UNL d   1      -1.413  -3.042  -0.006  0.00  0.00     0.062 A 
ATOM      7  F   UNL d   1      -1.634  -3.864   1.030  0.00  0.00    -0.097 F 
ATOM      8  F1  UNL d   1      -1.635  -1.184   1.422  0.00  0.00    -0.096 F 
ATOM      9  I   UNL d   1      -1.182   1.260  -0.594  0.00  0.00    -0.060 I 
ATOM     10  F2  UNL d   1      -0.732  -0.537  -3.204  0.00  0.00    -0.096 F 
ATOM     11  F3  UNL d   1      -0.737  -3.221  -3.563  0.00  0.00    -0.097 F 
ATOM     12  F4  UNL d   1      -1.187  -4.894  -1.456  0.00  0.00    -0.092 F 
ENDROOT
TORSDOF 0
ENDMDL
