MODEL 1
REMARK minimizedAffinity 16.3045559
REMARK minimizedRMSD -1
REMARK  0 active torsions:
REMARK  status: ('A' for Active; 'I' for Inactive)
ROOT
ATOM      1  C   UNL d   1      -0.838   1.001   0.826  0.00  0.00     0.124 A 
ATOM      2  C1  UNL d   1      -0.585   1.104   2.187  0.00  0.00     0.062 A 
ATOM      3  C2  UNL d   1       0.530   0.481   2.741  0.00  0.00     0.162 A 
ATOM      4  C3  UNL d   1       1.401  -0.250   1.933  0.00  0.00    -0.034 A 
ATOM      5  C4  UNL d   1       1.139  -0.350   0.565  0.00  0.00     0.162 A 
ATOM      6  C5  UNL d   1       0.023   0.275   0.017  0.00  0.00     0.062 A 
ATOM      7  F   UNL d   1      -0.220   0.174  -1.298  0.00  0.00    -0.097 F 
ATOM      8  F1  UNL d   1       1.956  -1.045  -0.240  0.00  0.00    -0.096 F 
ATOM      9  I   UNL d   1       3.069  -1.183   2.757  0.00  0.00    -0.060 I 
ATOM     10  F2  UNL d   1       0.750   0.598   4.059  0.00  0.00    -0.096 F 
ATOM     11  F3  UNL d   1      -1.417   1.805   2.971  0.00  0.00    -0.097 F 
ATOM     12  F4  UNL d   1      -1.912   1.601   0.296  0.00  0.00    -0.092 F 
ENDROOT
TORSDOF 0
ENDMDL
