MODEL 1
REMARK minimizedAffinity 7.5413661
REMARK minimizedRMSD -1
REMARK  0 active torsions:
REMARK  status: ('A' for Active; 'I' for Inactive)
ROOT
ATOM      1  C   UNL d   1       0.693  -4.436  -2.184  0.00  0.00     0.124 A 
ATOM      2  C1  UNL d   1       0.391  -4.820  -0.885  0.00  0.00     0.062 A 
ATOM      3  C2  UNL d   1       1.398  -5.268  -0.035  0.00  0.00     0.162 A 
ATOM      4  C3  UNL d   1       2.718  -5.332  -0.481  0.00  0.00    -0.034 A 
ATOM      5  C4  UNL d   1       3.015  -4.944  -1.789  0.00  0.00     0.162 A 
ATOM      6  C5  UNL d   1       2.004  -4.498  -2.635  0.00  0.00     0.062 A 
ATOM      7  F   UNL d   1       2.298  -4.127  -3.889  0.00  0.00    -0.097 F 
ATOM      8  F1  UNL d   1       4.273  -4.994  -2.250  0.00  0.00    -0.096 F 
ATOM      9  I   UNL d   1       4.228  -6.000   0.787  0.00  0.00    -0.060 I 
ATOM     10  F2  UNL d   1       1.077  -5.633   1.215  0.00  0.00    -0.096 F 
ATOM     11  F3  UNL d   1      -0.875  -4.762  -0.447  0.00  0.00    -0.097 F 
ATOM     12  F4  UNL d   1      -0.278  -4.007  -3.000  0.00  0.00    -0.092 F 
ENDROOT
TORSDOF 0
ENDMDL
