MODEL 1
REMARK minimizedAffinity 13.7497673
REMARK minimizedRMSD -1
REMARK  0 active torsions:
REMARK  status: ('A' for Active; 'I' for Inactive)
ROOT
ATOM      1  C   UNL d   1       0.522   0.924   2.254  0.00  0.00     0.124 A 
ATOM      2  C1  UNL d   1      -0.697   1.391   1.783  0.00  0.00     0.062 A 
ATOM      3  C2  UNL d   1      -1.149   1.020   0.520  0.00  0.00     0.162 A 
ATOM      4  C3  UNL d   1      -0.382   0.174  -0.281  0.00  0.00    -0.034 A 
ATOM      5  C4  UNL d   1       0.844  -0.291   0.198  0.00  0.00     0.162 A 
ATOM      6  C5  UNL d   1       1.291   0.084   1.461  0.00  0.00     0.062 A 
ATOM      7  F   UNL d   1       2.469  -0.369   1.914  0.00  0.00    -0.097 F 
ATOM      8  F1  UNL d   1       1.607  -1.105  -0.546  0.00  0.00    -0.096 F 
ATOM      9  I   UNL d   1      -1.054  -0.384  -2.170  0.00  0.00    -0.060 I 
ATOM     10  F2  UNL d   1      -2.332   1.486   0.091  0.00  0.00    -0.096 F 
ATOM     11  F3  UNL d   1      -1.442   2.204   2.547  0.00  0.00    -0.097 F 
ATOM     12  F4  UNL d   1       0.955   1.284   3.469  0.00  0.00    -0.092 F 
ENDROOT
TORSDOF 0
ENDMDL
