MODEL 1
REMARK minimizedAffinity 6.24135494
REMARK minimizedRMSD -1
REMARK  0 active torsions:
REMARK  status: ('A' for Active; 'I' for Inactive)
ROOT
ATOM      1  C   UNL d   1      -3.289  -1.697  -2.662  0.00  0.00     0.124 A 
ATOM      2  C1  UNL d   1      -3.768  -2.096  -3.902  0.00  0.00     0.062 A 
ATOM      3  C2  UNL d   1      -3.389  -3.324  -4.436  0.00  0.00     0.162 A 
ATOM      4  C3  UNL d   1      -2.526  -4.163  -3.730  0.00  0.00    -0.034 A 
ATOM      5  C4  UNL d   1      -2.048  -3.754  -2.484  0.00  0.00     0.162 A 
ATOM      6  C5  UNL d   1      -2.430  -2.525  -1.955  0.00  0.00     0.062 A 
ATOM      7  F   UNL d   1      -1.966  -2.141  -0.757  0.00  0.00    -0.097 F 
ATOM      8  F1  UNL d   1      -1.217  -4.535  -1.779  0.00  0.00    -0.096 F 
ATOM      9  I   UNL d   1      -1.957  -6.000  -4.526  0.00  0.00    -0.060 I 
ATOM     10  F2  UNL d   1      -3.867  -3.684  -5.637  0.00  0.00    -0.096 F 
ATOM     11  F3  UNL d   1      -4.597  -1.297  -4.588  0.00  0.00    -0.097 F 
ATOM     12  F4  UNL d   1      -3.654  -0.514  -2.151  0.00  0.00    -0.092 F 
ENDROOT
TORSDOF 0
ENDMDL
