MODEL 1
REMARK minimizedAffinity 22.2858448
REMARK minimizedRMSD -1
REMARK  0 active torsions:
REMARK  status: ('A' for Active; 'I' for Inactive)
ROOT
ATOM      1  C   UNL d   1      -0.745  -2.254   2.545  0.00  0.00     0.124 A 
ATOM      2  C1  UNL d   1      -0.265  -2.067   3.834  0.00  0.00     0.062 A 
ATOM      3  C2  UNL d   1       1.051  -1.660   4.038  0.00  0.00     0.162 A 
ATOM      4  C3  UNL d   1       1.896  -1.437   2.951  0.00  0.00    -0.034 A 
ATOM      5  C4  UNL d   1       1.406  -1.629   1.658  0.00  0.00     0.162 A 
ATOM      6  C5  UNL d   1       0.090  -2.035   1.459  0.00  0.00     0.062 A 
ATOM      7  F   UNL d   1      -0.372  -2.216   0.213  0.00  0.00    -0.097 F 
ATOM      8  F1  UNL d   1       2.191  -1.423   0.590  0.00  0.00    -0.096 F 
ATOM      9  I   UNL d   1       3.863  -0.829   3.252  0.00  0.00    -0.060 I 
ATOM     10  F2  UNL d   1       1.488  -1.487   5.294  0.00  0.00    -0.096 F 
ATOM     11  F3  UNL d   1      -1.069  -2.279   4.885  0.00  0.00    -0.097 F 
ATOM     12  F4  UNL d   1      -2.011  -2.646   2.351  0.00  0.00    -0.092 F 
ENDROOT
TORSDOF 0
ENDMDL
