MODEL 1
REMARK minimizedAffinity 14.8680687
REMARK minimizedRMSD -1
REMARK  0 active torsions:
REMARK  status: ('A' for Active; 'I' for Inactive)
ROOT
ATOM      1  C   UNL d   1      -0.336  -0.176   0.582  0.00  0.00     0.124 A 
ATOM      2  C1  UNL d   1       0.932  -0.461   1.071  0.00  0.00     0.062 A 
ATOM      3  C2  UNL d   1       1.572   0.436   1.921  0.00  0.00     0.162 A 
ATOM      4  C3  UNL d   1       0.945   1.626   2.290  0.00  0.00    -0.034 A 
ATOM      5  C4  UNL d   1      -0.330   1.906   1.794  0.00  0.00     0.162 A 
ATOM      6  C5  UNL d   1      -0.965   1.007   0.944  0.00  0.00     0.062 A 
ATOM      7  F   UNL d   1      -2.190   1.283   0.473  0.00  0.00    -0.097 F 
ATOM      8  F1  UNL d   1      -0.961   3.041   2.128  0.00  0.00    -0.096 F 
ATOM      9  I   UNL d   1       1.898   2.970   3.562  0.00  0.00    -0.060 I 
ATOM     10  F2  UNL d   1       2.796   0.135   2.379  0.00  0.00    -0.096 F 
ATOM     11  F3  UNL d   1       1.542  -1.602   0.722  0.00  0.00    -0.097 F 
ATOM     12  F4  UNL d   1      -0.949  -1.040  -0.237  0.00  0.00    -0.092 F 
ENDROOT
TORSDOF 0
ENDMDL
