MODEL 1
REMARK minimizedAffinity 4.72412252
REMARK minimizedRMSD -1
REMARK  0 active torsions:
REMARK  status: ('A' for Active; 'I' for Inactive)
ROOT
ATOM      1  C   UNL d   1      -6.000   4.301  -2.867  0.00  0.00    -0.002 A 
ATOM      2  C1  UNL d   1      -4.870   4.949  -3.345  0.00  0.00     0.010 A 
ATOM      3  C2  UNL d   1      -3.719   4.227  -3.665  0.00  0.00     0.041 A 
ATOM      4  C3  UNL d   1      -3.723   2.829  -3.497  0.00  0.00    -0.075 A 
ATOM      5  S   UNL d   1      -2.428   1.739  -3.825  0.00  0.00     0.015 SA
ATOM      6  C4  UNL d   1      -3.344   0.386  -3.340  0.00  0.00     0.022 A 
ATOM      7  C5  UNL d   1      -4.609   0.739  -2.934  0.00  0.00     0.026 A 
ATOM      8  C6  UNL d   1      -4.848   2.153  -3.018  0.00  0.00    -0.082 A 
ATOM      9  C7  UNL d   1      -6.000   2.913  -2.702  0.00  0.00     0.045 A 
ENDROOT
TORSDOF 0
ENDMDL
