MODEL 1
REMARK minimizedAffinity 7.82741547
REMARK minimizedRMSD -1
REMARK  0 active torsions:
REMARK  status: ('A' for Active; 'I' for Inactive)
ROOT
ATOM      1  C   UNL d   1       0.034   2.683  -1.472  0.00  0.00    -0.002 A 
ATOM      2  C1  UNL d   1       0.365   1.923  -2.586  0.00  0.00     0.010 A 
ATOM      3  C2  UNL d   1      -0.632   1.418  -3.423  0.00  0.00     0.041 A 
ATOM      4  C3  UNL d   1      -1.980   1.693  -3.120  0.00  0.00    -0.075 A 
ATOM      5  S   UNL d   1      -3.370   1.180  -4.003  0.00  0.00     0.015 SA
ATOM      6  C4  UNL d   1      -4.435   1.958  -2.923  0.00  0.00     0.022 A 
ATOM      7  C5  UNL d   1      -3.764   2.598  -1.908  0.00  0.00     0.026 A 
ATOM      8  C6  UNL d   1      -2.339   2.457  -2.005  0.00  0.00    -0.082 A 
ATOM      9  C7  UNL d   1      -1.305   2.954  -1.175  0.00  0.00     0.045 A 
ENDROOT
TORSDOF 0
ENDMDL
