MODEL 1
REMARK minimizedAffinity 1.30482042
REMARK minimizedRMSD -1
REMARK  0 active torsions:
REMARK  status: ('A' for Active; 'I' for Inactive)
ROOT
ATOM      1  C   UNL d   1      -2.982   0.499  -3.517  0.00  0.00    -0.002 A 
ATOM      2  C1  UNL d   1      -2.090   1.397  -4.086  0.00  0.00     0.010 A 
ATOM      3  C2  UNL d   1      -2.393   2.758  -4.147  0.00  0.00     0.041 A 
ATOM      4  C3  UNL d   1      -3.620   3.207  -3.619  0.00  0.00    -0.075 A 
ATOM      5  S   UNL d   1      -4.204   4.829  -3.582  0.00  0.00     0.015 SA
ATOM      6  C4  UNL d   1      -5.652   4.369  -2.809  0.00  0.00     0.022 A 
ATOM      7  C5  UNL d   1      -5.705   3.015  -2.577  0.00  0.00     0.026 A 
ATOM      8  C6  UNL d   1      -4.534   2.323  -3.040  0.00  0.00    -0.082 A 
ATOM      9  C7  UNL d   1      -4.198   0.949  -2.994  0.00  0.00     0.045 A 
ENDROOT
TORSDOF 0
ENDMDL
