MODEL 1
REMARK minimizedAffinity -2.96816421
REMARK minimizedRMSD -1
REMARK  0 active torsions:
REMARK  status: ('A' for Active; 'I' for Inactive)
ROOT
ATOM      1  C   UNL d   1       1.871  -2.709  -5.219  0.00  0.00    -0.002 A 
ATOM      2  C1  UNL d   1       2.932  -1.817  -5.287  0.00  0.00     0.010 A 
ATOM      3  C2  UNL d   1       4.232  -2.275  -5.513  0.00  0.00     0.041 A 
ATOM      4  C3  UNL d   1       4.449  -3.657  -5.673  0.00  0.00    -0.075 A 
ATOM      5  S   UNL d   1       5.954  -4.447  -5.960  0.00  0.00     0.015 SA
ATOM      6  C4  UNL d   1       5.225  -5.986  -6.000  0.00  0.00     0.022 A 
ATOM      7  C5  UNL d   1       3.866  -5.918  -5.800  0.00  0.00     0.026 A 
ATOM      8  C6  UNL d   1       3.396  -4.575  -5.609  0.00  0.00    -0.082 A 
ATOM      9  C7  UNL d   1       2.091  -4.079  -5.378  0.00  0.00     0.045 A 
ENDROOT
TORSDOF 0
ENDMDL
