MODEL 1
REMARK minimizedAffinity 8.61874676
REMARK minimizedRMSD -1
REMARK  0 active torsions:
REMARK  status: ('A' for Active; 'I' for Inactive)
ROOT
ATOM      1  C   UNL d   1       4.564  -1.414  -3.741  0.00  0.00    -0.002 A 
ATOM      2  C1  UNL d   1       5.500  -1.274  -4.757  0.00  0.00     0.010 A 
ATOM      3  C2  UNL d   1       5.908  -2.381  -5.504  0.00  0.00     0.041 A 
ATOM      4  C3  UNL d   1       5.354  -3.642  -5.211  0.00  0.00    -0.075 A 
ATOM      5  S   UNL d   1       5.703  -5.138  -5.995  0.00  0.00     0.015 SA
ATOM      6  C4  UNL d   1       4.618  -5.998  -5.001  0.00  0.00     0.022 A 
ATOM      7  C5  UNL d   1       3.997  -5.179  -4.087  0.00  0.00     0.026 A 
ATOM      8  C6  UNL d   1       4.410  -3.808  -4.194  0.00  0.00    -0.082 A 
ATOM      9  C7  UNL d   1       4.017  -2.667  -3.454  0.00  0.00     0.045 A 
ENDROOT
TORSDOF 0
ENDMDL
