MODEL 1
REMARK minimizedAffinity 4.17184877
REMARK minimizedRMSD -1
REMARK  0 active torsions:
REMARK  status: ('A' for Active; 'I' for Inactive)
ROOT
ATOM      1  C   UNL d   1       5.642  -4.904  -5.411  0.00  0.00    -0.002 A 
ATOM      2  C1  UNL d   1       4.945  -5.962  -4.845  0.00  0.00     0.010 A 
ATOM      3  C2  UNL d   1       3.709  -5.751  -4.232  0.00  0.00     0.041 A 
ATOM      4  C3  UNL d   1       3.178  -4.447  -4.198  0.00  0.00    -0.075 A 
ATOM      5  S   UNL d   1       1.681  -3.951  -3.502  0.00  0.00     0.015 SA
ATOM      6  C4  UNL d   1       1.931  -2.323  -3.940  0.00  0.00     0.022 A 
ATOM      7  C5  UNL d   1       3.122  -2.144  -4.601  0.00  0.00     0.026 A 
ATOM      8  C6  UNL d   1       3.861  -3.365  -4.762  0.00  0.00    -0.082 A 
ATOM      9  C7  UNL d   1       5.113  -3.611  -5.375  0.00  0.00     0.045 A 
ENDROOT
TORSDOF 0
ENDMDL
