MODEL 1
REMARK minimizedAffinity 5.86974764
REMARK minimizedRMSD -1
REMARK  0 active torsions:
REMARK  status: ('A' for Active; 'I' for Inactive)
ROOT
ATOM      1  C   UNL d   1      -2.229   0.800  -1.834  0.00  0.00    -0.002 A 
ATOM      2  C1  UNL d   1      -2.374   0.423  -3.162  0.00  0.00     0.010 A 
ATOM      3  C2  UNL d   1      -3.167   1.175  -4.031  0.00  0.00     0.041 A 
ATOM      4  C3  UNL d   1      -3.818   2.323  -3.539  0.00  0.00    -0.075 A 
ATOM      5  S   UNL d   1      -4.839   3.397  -4.420  0.00  0.00     0.015 SA
ATOM      6  C4  UNL d   1      -5.107   4.381  -3.054  0.00  0.00     0.022 A 
ATOM      7  C5  UNL d   1      -4.441   3.917  -1.945  0.00  0.00     0.026 A 
ATOM      8  C6  UNL d   1      -3.687   2.723  -2.206  0.00  0.00    -0.082 A 
ATOM      9  C7  UNL d   1      -2.876   1.940  -1.350  0.00  0.00     0.045 A 
ENDROOT
TORSDOF 0
ENDMDL
