MODEL 1
REMARK minimizedAffinity 11.1419401
REMARK minimizedRMSD -1
REMARK  0 active torsions:
REMARK  status: ('A' for Active; 'I' for Inactive)
ROOT
ATOM      1  C   UNL d   1      -2.787   1.463  -4.394  0.00  0.00    -0.002 A 
ATOM      2  C1  UNL d   1      -3.080   0.531  -3.409  0.00  0.00     0.010 A 
ATOM      3  C2  UNL d   1      -4.018   0.818  -2.415  0.00  0.00     0.041 A 
ATOM      4  C3  UNL d   1      -4.664   2.070  -2.430  0.00  0.00    -0.075 A 
ATOM      5  S   UNL d   1      -5.849   2.641  -1.315  0.00  0.00     0.015 SA
ATOM      6  C4  UNL d   1      -5.996   4.135  -2.121  0.00  0.00     0.022 A 
ATOM      7  C5  UNL d   1      -5.168   4.214  -3.216  0.00  0.00     0.026 A 
ATOM      8  C6  UNL d   1      -4.387   3.025  -3.412  0.00  0.00    -0.082 A 
ATOM      9  C7  UNL d   1      -3.431   2.704  -4.405  0.00  0.00     0.045 A 
ENDROOT
TORSDOF 0
ENDMDL
