MODEL 1
REMARK minimizedAffinity 19.3622742
REMARK minimizedRMSD -1
REMARK  0 active torsions:
REMARK  status: ('A' for Active; 'I' for Inactive)
ROOT
ATOM      1  C   UNL d   1      -1.712   1.038  -1.140  0.00  0.00    -0.002 A 
ATOM      2  C1  UNL d   1      -1.943   0.155  -2.186  0.00  0.00     0.010 A 
ATOM      3  C2  UNL d   1      -2.770   0.517  -3.251  0.00  0.00     0.041 A 
ATOM      4  C3  UNL d   1      -3.365   1.794  -3.248  0.00  0.00    -0.075 A 
ATOM      5  S   UNL d   1      -4.413   2.455  -4.447  0.00  0.00     0.015 SA
ATOM      6  C4  UNL d   1      -4.578   3.925  -3.600  0.00  0.00     0.022 A 
ATOM      7  C5  UNL d   1      -3.858   3.928  -2.428  0.00  0.00     0.026 A 
ATOM      8  C6  UNL d   1      -3.147   2.701  -2.207  0.00  0.00    -0.082 A 
ATOM      9  C7  UNL d   1      -2.304   2.303  -1.141  0.00  0.00     0.045 A 
ENDROOT
TORSDOF 0
ENDMDL
