MODEL 1
REMARK minimizedAffinity 6.97504807
REMARK minimizedRMSD -1
REMARK  0 active torsions:
REMARK  status: ('A' for Active; 'I' for Inactive)
ROOT
ATOM      1  C   UNL d   1       5.958  -4.859  -6.000  0.00  0.00    -0.002 A 
ATOM      2  C1  UNL d   1       5.326  -5.999  -5.523  0.00  0.00     0.010 A 
ATOM      3  C2  UNL d   1       4.101  -5.908  -4.859  0.00  0.00     0.041 A 
ATOM      4  C3  UNL d   1       3.515  -4.639  -4.682  0.00  0.00    -0.075 A 
ATOM      5  S   UNL d   1       2.020  -4.285  -3.900  0.00  0.00     0.015 SA
ATOM      6  C4  UNL d   1       2.184  -2.612  -4.181  0.00  0.00     0.022 A 
ATOM      7  C5  UNL d   1       3.345  -2.313  -4.853  0.00  0.00     0.026 A 
ATOM      8  C6  UNL d   1       4.132  -3.477  -5.154  0.00  0.00    -0.082 A 
ATOM      9  C7  UNL d   1       5.373  -3.602  -5.822  0.00  0.00     0.045 A 
ENDROOT
TORSDOF 0
ENDMDL
