MODEL 1
REMARK minimizedAffinity 13.0158958
REMARK minimizedRMSD -1
REMARK  3 active torsions:
REMARK  status: ('A' for Active; 'I' for Inactive)
REMARK    1  A    between atoms: C3'_2  and  C2'_3 
REMARK    2  A    between atoms: C2'_3  and  C1'_4 
REMARK    3  A    between atoms: C1'_4  and  C1_5 
ROOT
ATOM      1  C1  N4B d   1      -3.743   1.893   3.880  0.00  0.00    -0.075 A 
ATOM      2  C2  N4B d   1      -3.275   2.095   5.197  0.00  0.00     0.002 A 
ATOM      3  C3  N4B d   1      -3.868   3.039   5.999  0.00  0.00     0.002 A 
ATOM      4  C4  N4B d   1      -4.913   3.802   5.502  0.00  0.00    -0.004 A 
ATOM      5  C5  N4B d   1      -5.376   3.583   4.238  0.00  0.00     0.002 A 
ATOM      6  C6  N4B d   1      -4.793   2.635   3.422  0.00  0.00     0.002 A 
ENDROOT
BRANCH   1   7
ATOM      7  C1' N4B d   1      -3.071   0.932   2.937  0.00  0.00     0.057 C 
BRANCH   7   8
ATOM      8  C2' N4B d   1      -2.066   1.694   2.079  0.00  0.00     0.009 C 
BRANCH   8   9
ATOM      9  C3' N4B d   1      -0.831   2.091   2.868  0.00  0.00     0.004 C 
ATOM     10  C4' N4B d   1       0.259   1.064   2.797  0.00  0.00     0.003 C 
ENDBRANCH   8   9
ENDBRANCH   7   8
ENDBRANCH   1   7
TORSDOF 3
ENDMDL
