MODEL 1
REMARK minimizedAffinity 8.48375225
REMARK minimizedRMSD -1
REMARK  3 active torsions:
REMARK  status: ('A' for Active; 'I' for Inactive)
REMARK    1  A    between atoms: C3'_2  and  C2'_3 
REMARK    2  A    between atoms: C2'_3  and  C1'_4 
REMARK    3  A    between atoms: C1'_4  and  C1_5 
ROOT
ATOM      1  C1  N4B d   1       2.283   2.280  -2.250  0.00  0.00    -0.075 A 
ATOM      2  C2  N4B d   1       2.969   1.500  -1.293  0.00  0.00     0.002 A 
ATOM      3  C3  N4B d   1       2.898   0.129  -1.346  0.00  0.00     0.002 A 
ATOM      4  C4  N4B d   1       2.135  -0.480  -2.330  0.00  0.00    -0.004 A 
ATOM      5  C5  N4B d   1       1.496   0.280  -3.266  0.00  0.00     0.002 A 
ATOM      6  C6  N4B d   1       1.562   1.658  -3.228  0.00  0.00     0.002 A 
ENDROOT
BRANCH   1   7
ATOM      7  C1' N4B d   1       2.261   3.782  -2.181  0.00  0.00     0.057 C 
BRANCH   7   8
ATOM      8  C2' N4B d   1       1.856   4.214  -0.775  0.00  0.00     0.009 C 
BRANCH   8   9
ATOM      9  C3' N4B d   1       1.477   5.684  -0.719  0.00  0.00     0.004 C 
ATOM     10  C4' N4B d   1       0.494   5.988   0.372  0.00  0.00     0.003 C 
ENDBRANCH   8   9
ENDBRANCH   7   8
ENDBRANCH   1   7
TORSDOF 3
ENDMDL
