MODEL 1
REMARK minimizedAffinity 6.97661591
REMARK minimizedRMSD -1
REMARK  3 active torsions:
REMARK  status: ('A' for Active; 'I' for Inactive)
REMARK    1  A    between atoms: C3'_2  and  C2'_3 
REMARK    2  A    between atoms: C2'_3  and  C1'_4 
REMARK    3  A    between atoms: C1'_4  and  C1_5 
ROOT
ATOM      1  C1  N4B d   1       1.340  -1.240  -1.626  0.00  0.00    -0.075 A 
ATOM      2  C2  N4B d   1       1.213  -0.635  -2.896  0.00  0.00     0.002 A 
ATOM      3  C3  N4B d   1       1.867   0.542  -3.164  0.00  0.00     0.002 A 
ATOM      4  C4  N4B d   1       2.635   1.141  -2.177  0.00  0.00    -0.004 A 
ATOM      5  C5  N4B d   1       2.773   0.538  -0.961  0.00  0.00     0.002 A 
ATOM      6  C6  N4B d   1       2.125  -0.648  -0.679  0.00  0.00     0.002 A 
ENDROOT
BRANCH   1   7
ATOM      7  C1' N4B d   1       0.576  -2.482  -1.258  0.00  0.00     0.057 C 
BRANCH   7   8
ATOM      8  C2' N4B d   1      -0.526  -2.716  -2.287  0.00  0.00     0.009 C 
BRANCH   8   9
ATOM      9  C3' N4B d   1      -0.961  -4.170  -2.333  0.00  0.00     0.004 C 
ATOM     10  C4' N4B d   1      -1.711  -4.592  -1.104  0.00  0.00     0.003 C 
ENDBRANCH   8   9
ENDBRANCH   7   8
ENDBRANCH   1   7
TORSDOF 3
ENDMDL
