MODEL 1
REMARK minimizedAffinity 4.04699516
REMARK minimizedRMSD -1
REMARK  3 active torsions:
REMARK  status: ('A' for Active; 'I' for Inactive)
REMARK    1  A    between atoms: C3'_2  and  C2'_3 
REMARK    2  A    between atoms: C2'_3  and  C1'_4 
REMARK    3  A    between atoms: C1'_4  and  C1_5 
ROOT
ATOM      1  C1  N4B d   1      -3.314   4.017  -5.932  0.00  0.00    -0.075 A 
ATOM      2  C2  N4B d   1      -3.442   5.424  -5.957  0.00  0.00     0.002 A 
ATOM      3  C3  N4B d   1      -4.688   6.000  -5.981  0.00  0.00     0.002 A 
ATOM      4  C4  N4B d   1      -5.816   5.193  -6.000  0.00  0.00    -0.004 A 
ATOM      5  C5  N4B d   1      -5.685   3.836  -5.950  0.00  0.00     0.002 A 
ATOM      6  C6  N4B d   1      -4.439   3.244  -5.921  0.00  0.00     0.002 A 
ENDROOT
BRANCH   1   7
ATOM      7  C1' N4B d   1      -1.972   3.340  -5.991  0.00  0.00     0.057 C 
BRANCH   7   8
ATOM      8  C2' N4B d   1      -2.041   2.024  -5.222  0.00  0.00     0.009 C 
BRANCH   8   9
ATOM      9  C3' N4B d   1      -3.458   1.483  -5.148  0.00  0.00     0.004 C 
ATOM     10  C4' N4B d   1      -3.644   0.230  -5.951  0.00  0.00     0.003 C 
ENDBRANCH   8   9
ENDBRANCH   7   8
ENDBRANCH   1   7
TORSDOF 3
ENDMDL
