MODEL 1
REMARK minimizedAffinity 6.62492085
REMARK minimizedRMSD -1
REMARK  3 active torsions:
REMARK  status: ('A' for Active; 'I' for Inactive)
REMARK    1  A    between atoms: C3'_2  and  C2'_3 
REMARK    2  A    between atoms: C2'_3  and  C1'_4 
REMARK    3  A    between atoms: C1'_4  and  C1_5 
ROOT
ATOM      1  C1  N4B d   1       1.874   0.786  -2.154  0.00  0.00    -0.075 A 
ATOM      2  C2  N4B d   1       0.938   1.541  -2.896  0.00  0.00     0.002 A 
ATOM      3  C3  N4B d   1       0.779   2.880  -2.639  0.00  0.00     0.002 A 
ATOM      4  C4  N4B d   1       1.526   3.480  -1.637  0.00  0.00    -0.004 A 
ATOM      5  C5  N4B d   1       2.446   2.750  -0.943  0.00  0.00     0.002 A 
ATOM      6  C6  N4B d   1       2.620   1.403  -1.193  0.00  0.00     0.002 A 
ENDROOT
BRANCH   1   7
ATOM      7  C1' N4B d   1       2.022  -0.699  -2.341  0.00  0.00     0.057 C 
BRANCH   7   8
ATOM      8  C2' N4B d   1       1.308  -1.117  -3.623  0.00  0.00     0.009 C 
BRANCH   8   9
ATOM      9  C3' N4B d   1       2.228  -1.878  -4.563  0.00  0.00     0.004 C 
ATOM     10  C4' N4B d   1       2.035  -1.495  -6.000  0.00  0.00     0.003 C 
ENDBRANCH   8   9
ENDBRANCH   7   8
ENDBRANCH   1   7
TORSDOF 3
ENDMDL
