MODEL 1
REMARK minimizedAffinity 7.69777966
REMARK minimizedRMSD -1
REMARK  3 active torsions:
REMARK  status: ('A' for Active; 'I' for Inactive)
REMARK    1  A    between atoms: C3'_2  and  C2'_3 
REMARK    2  A    between atoms: C2'_3  and  C1'_4 
REMARK    3  A    between atoms: C1'_4  and  C1_5 
ROOT
ATOM      1  C1  N4B d   1      -1.375  -4.442  -0.657  0.00  0.00    -0.075 A 
ATOM      2  C2  N4B d   1      -0.164  -4.031  -0.058  0.00  0.00     0.002 A 
ATOM      3  C3  N4B d   1      -0.097  -3.846   1.301  0.00  0.00     0.002 A 
ATOM      4  C4  N4B d   1      -1.230  -4.046   2.076  0.00  0.00    -0.004 A 
ATOM      5  C5  N4B d   1      -2.389  -4.468   1.494  0.00  0.00     0.002 A 
ATOM      6  C6  N4B d   1      -2.469  -4.661   0.130  0.00  0.00     0.002 A 
ENDROOT
BRANCH   1   7
ATOM      7  C1' N4B d   1      -1.520  -4.574  -2.148  0.00  0.00     0.057 C 
BRANCH   7   8
ATOM      8  C2' N4B d   1      -2.056  -3.264  -2.718  0.00  0.00     0.009 C 
BRANCH   8   9
ATOM      9  C3' N4B d   1      -1.666  -3.075  -4.174  0.00  0.00     0.004 C 
ATOM     10  C4' N4B d   1      -2.263  -4.116  -5.074  0.00  0.00     0.003 C 
ENDBRANCH   8   9
ENDBRANCH   7   8
ENDBRANCH   1   7
TORSDOF 3
ENDMDL
