MODEL 1
REMARK minimizedAffinity 5.76250696
REMARK minimizedRMSD -1
REMARK  3 active torsions:
REMARK  status: ('A' for Active; 'I' for Inactive)
REMARK    1  A    between atoms: C3'_2  and  C2'_3 
REMARK    2  A    between atoms: C2'_3  and  C1'_4 
REMARK    3  A    between atoms: C1'_4  and  C1_5 
ROOT
ATOM      1  C1  N4B d   1      -2.501  -4.157  -4.591  0.00  0.00    -0.075 A 
ATOM      2  C2  N4B d   1      -1.732  -3.023  -4.246  0.00  0.00     0.002 A 
ATOM      3  C3  N4B d   1      -1.053  -2.992  -3.053  0.00  0.00     0.002 A 
ATOM      4  C4  N4B d   1      -1.142  -4.069  -2.184  0.00  0.00    -0.004 A 
ATOM      5  C5  N4B d   1      -1.866  -5.171  -2.536  0.00  0.00     0.002 A 
ATOM      6  C6  N4B d   1      -2.550  -5.218  -3.734  0.00  0.00     0.002 A 
ENDROOT
BRANCH   1   7
ATOM      7  C1' N4B d   1      -3.329  -4.202  -5.846  0.00  0.00     0.057 C 
BRANCH   7   8
ATOM      8  C2' N4B d   1      -3.937  -5.594  -5.995  0.00  0.00     0.009 C 
BRANCH   8   9
ATOM      9  C3' N4B d   1      -5.455  -5.553  -5.999  0.00  0.00     0.004 C 
ATOM     10  C4' N4B d   1      -6.000  -4.165  -5.842  0.00  0.00     0.003 C 
ENDBRANCH   8   9
ENDBRANCH   7   8
ENDBRANCH   1   7
TORSDOF 3
ENDMDL
