MODEL 1
REMARK minimizedAffinity 7.50515223
REMARK minimizedRMSD -1
REMARK  3 active torsions:
REMARK  status: ('A' for Active; 'I' for Inactive)
REMARK    1  A    between atoms: C3'_2  and  C2'_3 
REMARK    2  A    between atoms: C2'_3  and  C1'_4 
REMARK    3  A    between atoms: C1'_4  and  C1_5 
ROOT
ATOM      1  C1  N4B d   1       1.889   1.126  -1.517  0.00  0.00    -0.075 A 
ATOM      2  C2  N4B d   1       1.543  -0.154  -2.003  0.00  0.00     0.002 A 
ATOM      3  C3  N4B d   1       1.888  -1.276  -1.289  0.00  0.00     0.002 A 
ATOM      4  C4  N4B d   1       2.591  -1.143  -0.101  0.00  0.00    -0.004 A 
ATOM      5  C5  N4B d   1       2.899   0.098   0.374  0.00  0.00     0.002 A 
ATOM      6  C6  N4B d   1       2.555   1.234  -0.331  0.00  0.00     0.002 A 
ENDROOT
BRANCH   1   7
ATOM      7  C1' N4B d   1       1.609   2.376  -2.305  0.00  0.00     0.057 C 
BRANCH   7   8
ATOM      8  C2' N4B d   1       1.399   3.540  -1.341  0.00  0.00     0.009 C 
BRANCH   8   9
ATOM      9  C3' N4B d   1       2.145   4.787  -1.783  0.00  0.00     0.004 C 
ATOM     10  C4' N4B d   1       1.779   5.998  -0.978  0.00  0.00     0.003 C 
ENDBRANCH   8   9
ENDBRANCH   7   8
ENDBRANCH   1   7
TORSDOF 3
ENDMDL
