MODEL 1
REMARK minimizedAffinity 15.0576057
REMARK minimizedRMSD -1
REMARK  1 active torsions:
REMARK  status: ('A' for Active; 'I' for Inactive)
REMARK    1  A    between atoms: C1_2  and  C2_3 
ROOT
ATOM      1  C2  UNL d   1       3.689  -4.302   2.138  0.00  0.00    -0.073 A 
ATOM      2  C3  UNL d   1       4.992  -4.808   2.195  0.00  0.00    -0.002 A 
ATOM      3  C4  UNL d   1       5.980  -4.309   1.344  0.00  0.00     0.004 A 
ATOM      4  C5  UNL d   1       5.676  -3.297   0.434  0.00  0.00    -0.004 A 
ATOM      5  C6  UNL d   1       4.382  -2.771   0.370  0.00  0.00    -0.075 A 
ATOM      6  C7  UNL d   1       4.039  -1.683  -0.606  0.00  0.00     0.076 C 
ATOM      7  C8  UNL d   1       3.395  -3.278   1.225  0.00  0.00     0.001 A 
ENDROOT
BRANCH   1   8
ATOM      8  C1  UNL d   1       2.621  -4.833   3.059  0.00  0.00     0.053 C 
ATOM      9  C   UNL d   1       1.864  -5.999   2.442  0.00  0.00     0.018 C 
ENDBRANCH   1   8
TORSDOF 1
ENDMDL
