MODEL 1
REMARK minimizedAffinity 7.30927372
REMARK minimizedRMSD -1
REMARK  1 active torsions:
REMARK  status: ('A' for Active; 'I' for Inactive)
REMARK    1  A    between atoms: C1_2  and  C2_3 
ROOT
ATOM      1  C2  UNL d   1       4.699  -5.065  -2.830  0.00  0.00    -0.073 A 
ATOM      2  C3  UNL d   1       5.285  -4.509  -1.687  0.00  0.00    -0.002 A 
ATOM      3  C4  UNL d   1       4.487  -4.056  -0.636  0.00  0.00     0.004 A 
ATOM      4  C5  UNL d   1       3.098  -4.160  -0.714  0.00  0.00    -0.004 A 
ATOM      5  C6  UNL d   1       2.495  -4.723  -1.843  0.00  0.00    -0.075 A 
ATOM      6  C7  UNL d   1       1.002  -4.840  -1.943  0.00  0.00     0.076 C 
ATOM      7  C8  UNL d   1       3.303  -5.174  -2.895  0.00  0.00     0.001 A 
ENDROOT
BRANCH   1   8
ATOM      8  C1  UNL d   1       5.557  -5.562  -3.965  0.00  0.00     0.053 C 
ATOM      9  C   UNL d   1       5.634  -4.558  -5.104  0.00  0.00     0.018 C 
ENDBRANCH   1   8
TORSDOF 1
ENDMDL
