MODEL 1
REMARK minimizedAffinity 7.6876111
REMARK minimizedRMSD -1
REMARK  1 active torsions:
REMARK  status: ('A' for Active; 'I' for Inactive)
REMARK    1  A    between atoms: C1_2  and  C2_3 
ROOT
ATOM      1  C2  UNL d   1      -0.511  -2.977   0.879  0.00  0.00    -0.073 A 
ATOM      2  C3  UNL d   1       0.430  -4.010   0.804  0.00  0.00    -0.002 A 
ATOM      3  C4  UNL d   1       1.707  -3.841   1.340  0.00  0.00     0.004 A 
ATOM      4  C5  UNL d   1       2.054  -2.643   1.963  0.00  0.00    -0.004 A 
ATOM      5  C6  UNL d   1       1.124  -1.603   2.059  0.00  0.00    -0.075 A 
ATOM      6  C7  UNL d   1       1.482  -0.306   2.724  0.00  0.00     0.076 C 
ATOM      7  C8  UNL d   1      -0.156  -1.779   1.515  0.00  0.00     0.001 A 
ENDROOT
BRANCH   1   8
ATOM      8  C1  UNL d   1      -1.893  -3.157   0.307  0.00  0.00     0.053 C 
ATOM      9  C   UNL d   1      -2.323  -4.616   0.304  0.00  0.00     0.018 C 
ENDBRANCH   1   8
TORSDOF 1
ENDMDL
