MODEL 1
REMARK minimizedAffinity 17.0411949
REMARK minimizedRMSD -1
REMARK  1 active torsions:
REMARK  status: ('A' for Active; 'I' for Inactive)
REMARK    1  A    between atoms: C1_2  and  C2_3 
ROOT
ATOM      1  C2  UNL d   1      -3.973   2.603  -3.766  0.00  0.00    -0.073 A 
ATOM      2  C3  UNL d   1      -3.380   2.515  -5.030  0.00  0.00    -0.002 A 
ATOM      3  C4  UNL d   1      -3.640   3.484  -6.000  0.00  0.00     0.004 A 
ATOM      4  C5  UNL d   1      -4.489   4.554  -5.713  0.00  0.00    -0.004 A 
ATOM      5  C6  UNL d   1      -5.082   4.665  -4.452  0.00  0.00    -0.075 A 
ATOM      6  C7  UNL d   1      -5.999   5.808  -4.128  0.00  0.00     0.076 C 
ATOM      7  C8  UNL d   1      -4.818   3.686  -3.484  0.00  0.00     0.001 A 
ENDROOT
BRANCH   1   8
ATOM      8  C1  UNL d   1      -3.691   1.562  -2.714  0.00  0.00     0.053 C 
ATOM      9  C   UNL d   1      -3.753   0.151  -3.277  0.00  0.00     0.018 C 
ENDBRANCH   1   8
TORSDOF 1
ENDMDL
