MODEL 1
REMARK minimizedAffinity 17.6570206
REMARK minimizedRMSD -1
REMARK  1 active torsions:
REMARK  status: ('A' for Active; 'I' for Inactive)
REMARK    1  A    between atoms: C1_2  and  C2_3 
ROOT
ATOM      1  C2  UNL d   1      -0.472  -4.346  -0.494  0.00  0.00    -0.073 A 
ATOM      2  C3  UNL d   1       0.006  -4.913  -1.681  0.00  0.00    -0.002 A 
ATOM      3  C4  UNL d   1       1.378  -5.021  -1.907  0.00  0.00     0.004 A 
ATOM      4  C5  UNL d   1       2.286  -4.571  -0.948  0.00  0.00    -0.004 A 
ATOM      5  C6  UNL d   1       1.828  -4.012   0.249  0.00  0.00    -0.075 A 
ATOM      6  C7  UNL d   1       2.791  -3.520   1.289  0.00  0.00     0.076 C 
ATOM      7  C8  UNL d   1       0.448  -3.904   0.468  0.00  0.00     0.001 A 
ENDROOT
BRANCH   1   8
ATOM      8  C1  UNL d   1      -1.954  -4.232  -0.242  0.00  0.00     0.053 C 
ATOM      9  C   UNL d   1      -2.614  -5.595  -0.106  0.00  0.00     0.018 C 
ENDBRANCH   1   8
TORSDOF 1
ENDMDL
