MODEL 1
REMARK minimizedAffinity 4.6245265
REMARK minimizedRMSD -1
REMARK  1 active torsions:
REMARK  status: ('A' for Active; 'I' for Inactive)
REMARK    1  A    between atoms: C1_2  and  C2_3 
ROOT
ATOM      1  C2  UNL d   1      -3.724   2.504  -3.570  0.00  0.00    -0.073 A 
ATOM      2  C3  UNL d   1      -3.226   2.669  -4.867  0.00  0.00    -0.002 A 
ATOM      3  C4  UNL d   1      -3.328   3.903  -5.510  0.00  0.00     0.004 A 
ATOM      4  C5  UNL d   1      -3.923   4.985  -4.861  0.00  0.00    -0.004 A 
ATOM      5  C6  UNL d   1      -4.416   4.844  -3.560  0.00  0.00    -0.075 A 
ATOM      6  C7  UNL d   1      -5.061   5.997  -2.849  0.00  0.00     0.076 C 
ATOM      7  C8  UNL d   1      -4.312   3.600  -2.922  0.00  0.00     0.001 A 
ENDROOT
BRANCH   1   8
ATOM      8  C1  UNL d   1      -3.611   1.175  -2.869  0.00  0.00     0.053 C 
ATOM      9  C   UNL d   1      -4.337   0.070  -3.620  0.00  0.00     0.018 C 
ENDBRANCH   1   8
TORSDOF 1
ENDMDL
