MODEL 1
REMARK minimizedAffinity 11.6385221
REMARK minimizedRMSD -1
REMARK  1 active torsions:
REMARK  status: ('A' for Active; 'I' for Inactive)
REMARK    1  A    between atoms: C1_2  and  C2_3 
ROOT
ATOM      1  C2  UNL d   1       1.466  -1.781   2.737  0.00  0.00    -0.073 A 
ATOM      2  C3  UNL d   1       2.308  -2.604   1.981  0.00  0.00    -0.002 A 
ATOM      3  C4  UNL d   1       2.826  -2.156   0.765  0.00  0.00     0.004 A 
ATOM      4  C5  UNL d   1       2.515  -0.879   0.297  0.00  0.00    -0.004 A 
ATOM      5  C6  UNL d   1       1.685  -0.037   1.044  0.00  0.00    -0.075 A 
ATOM      6  C7  UNL d   1       1.338   1.338   0.554  0.00  0.00     0.076 C 
ATOM      7  C8  UNL d   1       1.166  -0.496   2.263  0.00  0.00     0.001 A 
ENDROOT
BRANCH   1   8
ATOM      8  C1  UNL d   1       0.910  -2.258   4.053  0.00  0.00     0.053 C 
ATOM      9  C   UNL d   1       1.937  -3.038   4.858  0.00  0.00     0.018 C 
ENDBRANCH   1   8
TORSDOF 1
ENDMDL
