MODEL 1
REMARK minimizedAffinity -4.4448185
REMARK minimizedRMSD -1
REMARK  0 active torsions:
REMARK  status: ('A' for Active; 'I' for Inactive)
ROOT
ATOM      1  O1  BZF d   1       0.895  -0.073  -0.656  0.00  0.00    -0.204 OA
ATOM      2  C2  BZF d   1       0.468   1.234  -0.523  0.00  0.00     0.174 A 
ATOM      3  C3  BZF d   1      -0.536   1.320   0.372  0.00  0.00    -0.012 A 
ATOM      4  C3A BZF d   1      -0.688  -0.002   0.897  0.00  0.00    -0.107 A 
ATOM      5  C4  BZF d   1      -1.514  -0.551   1.835  0.00  0.00     0.055 A 
ATOM      6  C5  BZF d   1      -1.458  -1.890   2.063  0.00  0.00    -0.016 A 
ATOM      7  C6  BZF d   1      -0.592  -2.709   1.369  0.00  0.00     0.022 A 
ATOM      8  C7  BZF d   1       0.251  -2.209   0.432  0.00  0.00     0.029 A 
ATOM      9  C7A BZF d   1       0.219  -0.852   0.223  0.00  0.00     0.058 A 
ENDROOT
TORSDOF 0
ENDMDL
