MODEL 1
REMARK minimizedAffinity -4.28221512
REMARK minimizedRMSD -1
REMARK  0 active torsions:
REMARK  status: ('A' for Active; 'I' for Inactive)
ROOT
ATOM      1  O1  BZF d   1      -0.918   0.687   0.439  0.00  0.00    -0.204 OA
ATOM      2  C2  BZF d   1      -0.212   1.271  -0.594  0.00  0.00     0.174 A 
ATOM      3  C3  BZF d   1       0.626   0.382  -1.165  0.00  0.00    -0.012 A 
ATOM      4  C3A BZF d   1       0.365  -0.859  -0.502  0.00  0.00    -0.107 A 
ATOM      5  C4  BZF d   1       0.871  -2.120  -0.638  0.00  0.00     0.055 A 
ATOM      6  C5  BZF d   1       0.455  -3.094   0.214  0.00  0.00    -0.016 A 
ATOM      7  C6  BZF d   1      -0.461  -2.841   1.214  0.00  0.00     0.022 A 
ATOM      8  C7  BZF d   1      -0.995  -1.607   1.384  0.00  0.00     0.029 A 
ATOM      9  C7A BZF d   1      -0.601  -0.629   0.504  0.00  0.00     0.058 A 
ENDROOT
TORSDOF 0
ENDMDL
