MODEL 1
REMARK minimizedAffinity -3.23897433
REMARK minimizedRMSD -1
REMARK  0 active torsions:
REMARK  status: ('A' for Active; 'I' for Inactive)
ROOT
ATOM      1  O1  BZF d   1       1.519  -0.611  -0.450  0.00  0.00    -0.204 OA
ATOM      2  C2  BZF d   1       0.876   0.609  -0.372  0.00  0.00     0.174 A 
ATOM      3  C3  BZF d   1      -0.434   0.443  -0.097  0.00  0.00    -0.012 A 
ATOM      4  C3A BZF d   1      -0.603  -0.965   0.094  0.00  0.00    -0.107 A 
ATOM      5  C4  BZF d   1      -1.677  -1.748   0.408  0.00  0.00     0.055 A 
ATOM      6  C5  BZF d   1      -1.522  -3.097   0.447  0.00  0.00    -0.016 A 
ATOM      7  C6  BZF d   1      -0.309  -3.697   0.175  0.00  0.00     0.022 A 
ATOM      8  C7  BZF d   1       0.786  -2.962  -0.136  0.00  0.00     0.029 A 
ATOM      9  C7A BZF d   1       0.640  -1.596  -0.144  0.00  0.00     0.058 A 
ENDROOT
TORSDOF 0
ENDMDL
