MODEL 1
REMARK minimizedAffinity -4.5076437
REMARK minimizedRMSD -1
REMARK  0 active torsions:
REMARK  status: ('A' for Active; 'I' for Inactive)
ROOT
ATOM      1  O1  BZF d   1       0.425   0.478  -0.094  0.00  0.00    -0.204 OA
ATOM      2  C2  BZF d   1      -0.384   0.956   0.920  0.00  0.00     0.174 A 
ATOM      3  C3  BZF d   1      -1.014  -0.057   1.547  0.00  0.00    -0.012 A 
ATOM      4  C3A BZF d   1      -0.502  -1.250   0.945  0.00  0.00    -0.107 A 
ATOM      5  C4  BZF d   1      -0.732  -2.580   1.152  0.00  0.00     0.055 A 
ATOM      6  C5  BZF d   1      -0.125  -3.489   0.344  0.00  0.00    -0.016 A 
ATOM      7  C6  BZF d   1       0.714  -3.103  -0.681  0.00  0.00     0.022 A 
ATOM      8  C7  BZF d   1       0.977  -1.796  -0.922  0.00  0.00     0.029 A 
ATOM      9  C7A BZF d   1       0.390  -0.876  -0.087  0.00  0.00     0.058 A 
ENDROOT
TORSDOF 0
ENDMDL
