MODEL 1
REMARK minimizedAffinity 0.922717273
REMARK minimizedRMSD -1
REMARK  0 active torsions:
REMARK  status: ('A' for Active; 'I' for Inactive)
ROOT
ATOM      1  O1  BZF d   1      -0.152   1.150  -0.385  0.00  0.00    -0.204 OA
ATOM      2  C2  BZF d   1       0.740   0.688  -1.334  0.00  0.00     0.174 A 
ATOM      3  C3  BZF d   1       0.791  -0.660  -1.327  0.00  0.00    -0.012 A 
ATOM      4  C3A BZF d   1      -0.196  -1.069  -0.374  0.00  0.00    -0.107 A 
ATOM      5  C4  BZF d   1      -0.629  -2.287   0.065  0.00  0.00     0.055 A 
ATOM      6  C5  BZF d   1      -1.556  -2.340   1.057  0.00  0.00    -0.016 A 
ATOM      7  C6  BZF d   1      -2.068  -1.196   1.635  0.00  0.00     0.022 A 
ATOM      8  C7  BZF d   1      -1.673   0.035   1.228  0.00  0.00     0.029 A 
ATOM      9  C7A BZF d   1      -0.760   0.092   0.204  0.00  0.00     0.058 A 
ENDROOT
TORSDOF 0
ENDMDL
