MODEL 1
REMARK minimizedAffinity -3.10955048
REMARK minimizedRMSD -1
REMARK  0 active torsions:
REMARK  status: ('A' for Active; 'I' for Inactive)
ROOT
ATOM      1  O1  BZF d   1      -0.530   0.926  -0.984  0.00  0.00    -0.204 OA
ATOM      2  C2  BZF d   1       0.219   0.017  -1.706  0.00  0.00     0.174 A 
ATOM      3  C3  BZF d   1       1.524   0.355  -1.694  0.00  0.00    -0.012 A 
ATOM      4  C3A BZF d   1       1.608   1.500  -0.839  0.00  0.00    -0.107 A 
ATOM      5  C4  BZF d   1       2.645   2.284  -0.419  0.00  0.00     0.055 A 
ATOM      6  C5  BZF d   1       2.380   3.369   0.355  0.00  0.00    -0.016 A 
ATOM      7  C6  BZF d   1       1.093   3.702   0.723  0.00  0.00     0.022 A 
ATOM      8  C7  BZF d   1       0.033   2.952   0.335  0.00  0.00     0.029 A 
ATOM      9  C7A BZF d   1       0.300   1.836  -0.420  0.00  0.00     0.058 A 
ENDROOT
TORSDOF 0
ENDMDL
