MODEL 1
REMARK minimizedAffinity -5.03817844
REMARK minimizedRMSD -1
REMARK  0 active torsions:
REMARK  status: ('A' for Active; 'I' for Inactive)
ROOT
ATOM      1  O1  BZF d   1      -0.635  -1.614   1.201  0.00  0.00    -0.204 OA
ATOM      2  C2  BZF d   1      -0.669  -2.995   1.199  0.00  0.00     0.174 A 
ATOM      3  C3  BZF d   1      -0.338  -3.480  -0.015  0.00  0.00    -0.012 A 
ATOM      4  C3A BZF d   1       0.008  -2.333  -0.797  0.00  0.00    -0.107 A 
ATOM      5  C4  BZF d   1       0.435  -2.168  -2.083  0.00  0.00     0.055 A 
ATOM      6  C5  BZF d   1       0.615  -0.909  -2.563  0.00  0.00    -0.016 A 
ATOM      7  C6  BZF d   1       0.372   0.205  -1.787  0.00  0.00     0.022 A 
ATOM      8  C7  BZF d   1      -0.049   0.092  -0.504  0.00  0.00     0.029 A 
ATOM      9  C7A BZF d   1      -0.199  -1.179  -0.006  0.00  0.00     0.058 A 
ENDROOT
TORSDOF 0
ENDMDL
