MODEL 1
REMARK minimizedAffinity -2.89182687
REMARK minimizedRMSD -1
REMARK  0 active torsions:
REMARK  status: ('A' for Active; 'I' for Inactive)
ROOT
ATOM      1  O1  BZF d   1       0.855   0.680  -0.542  0.00  0.00    -0.204 OA
ATOM      2  C2  BZF d   1       0.210   1.709   0.116  0.00  0.00     0.174 A 
ATOM      3  C3  BZF d   1      -0.785   1.231   0.891  0.00  0.00    -0.012 A 
ATOM      4  C3A BZF d   1      -0.701  -0.193   0.777  0.00  0.00    -0.107 A 
ATOM      5  C4  BZF d   1      -1.410  -1.222   1.326  0.00  0.00     0.055 A 
ATOM      6  C5  BZF d   1      -1.121  -2.497   0.953  0.00  0.00    -0.016 A 
ATOM      7  C6  BZF d   1      -0.133  -2.777   0.031  0.00  0.00     0.022 A 
ATOM      8  C7  BZF d   1       0.601  -1.789  -0.537  0.00  0.00     0.029 A 
ATOM      9  C7A BZF d   1       0.333  -0.502  -0.137  0.00  0.00     0.058 A 
ENDROOT
TORSDOF 0
ENDMDL
