MODEL 1
REMARK minimizedAffinity -4.03805828
REMARK minimizedRMSD -1
REMARK  0 active torsions:
REMARK  status: ('A' for Active; 'I' for Inactive)
ROOT
ATOM      1  O1  BZF d   1       1.054  -0.272  -0.946  0.00  0.00    -0.204 OA
ATOM      2  C2  BZF d   1       0.765   1.067  -0.768  0.00  0.00     0.174 A 
ATOM      3  C3  BZF d   1      -0.332   1.222   0.000  0.00  0.00    -0.012 A 
ATOM      4  C3A BZF d   1      -0.703  -0.101   0.399  0.00  0.00    -0.107 A 
ATOM      5  C4  BZF d   1      -1.703  -0.600   1.183  0.00  0.00     0.055 A 
ATOM      6  C5  BZF d   1      -1.831  -1.947   1.313  0.00  0.00    -0.016 A 
ATOM      7  C6  BZF d   1      -0.981  -2.822   0.670  0.00  0.00     0.022 A 
ATOM      8  C7  BZF d   1       0.030  -2.375  -0.114  0.00  0.00     0.029 A 
ATOM      9  C7A BZF d   1       0.182  -1.014  -0.221  0.00  0.00     0.058 A 
ENDROOT
TORSDOF 0
ENDMDL
