MODEL 1
REMARK minimizedAffinity -4.617239
REMARK minimizedRMSD -1
REMARK  0 active torsions:
REMARK  status: ('A' for Active; 'I' for Inactive)
ROOT
ATOM      1  O1  BZF d   1      -0.458   0.216   0.609  0.00  0.00    -0.204 OA
ATOM      2  C2  BZF d   1      -0.098   1.127  -0.365  0.00  0.00     0.174 A 
ATOM      3  C3  BZF d   1       0.394   0.496  -1.451  0.00  0.00    -0.012 A 
ATOM      4  C3A BZF d   1       0.251  -0.900  -1.172  0.00  0.00    -0.107 A 
ATOM      5  C4  BZF d   1       0.546  -2.033  -1.875  0.00  0.00     0.055 A 
ATOM      6  C5  BZF d   1       0.352  -3.244  -1.289  0.00  0.00    -0.016 A 
ATOM      7  C6  BZF d   1      -0.130  -3.358  -0.001  0.00  0.00     0.022 A 
ATOM      8  C7  BZF d   1      -0.441  -2.263   0.734  0.00  0.00     0.029 A 
ATOM      9  C7A BZF d   1      -0.277  -1.039   0.133  0.00  0.00     0.058 A 
ENDROOT
TORSDOF 0
ENDMDL
