MODEL 1
REMARK minimizedAffinity -3.77081513
REMARK minimizedRMSD -1
REMARK  0 active torsions:
REMARK  status: ('A' for Active; 'I' for Inactive)
ROOT
ATOM      1  O1  BZF d   1       0.710   0.104  -1.106  0.00  0.00    -0.204 OA
ATOM      2  C2  BZF d   1       0.419   1.366  -0.627  0.00  0.00     0.174 A 
ATOM      3  C3  BZF d   1      -0.404   1.295   0.439  0.00  0.00    -0.012 A 
ATOM      4  C3A BZF d   1      -0.568  -0.103   0.695  0.00  0.00    -0.107 A 
ATOM      5  C4  BZF d   1      -1.260  -0.810   1.637  0.00  0.00     0.055 A 
ATOM      6  C5  BZF d   1      -1.273  -2.167   1.566  0.00  0.00    -0.016 A 
ATOM      7  C6  BZF d   1      -0.611  -2.848   0.566  0.00  0.00     0.022 A 
ATOM      8  C7  BZF d   1       0.093  -2.191  -0.387  0.00  0.00     0.029 A 
ATOM      9  C7A BZF d   1       0.136  -0.820  -0.299  0.00  0.00     0.058 A 
ENDROOT
TORSDOF 0
ENDMDL
