MODEL 1
REMARK minimizedAffinity -1.6216315
REMARK minimizedRMSD -1
REMARK  0 active torsions:
REMARK  status: ('A' for Active; 'I' for Inactive)
ROOT
ATOM      1  O1  BZF d   1       1.704   3.706  -0.226  0.00  0.00    -0.204 OA
ATOM      2  C2  BZF d   1       1.711   3.951   1.134  0.00  0.00     0.174 A 
ATOM      3  C3  BZF d   1       1.036   2.990   1.797  0.00  0.00    -0.012 A 
ATOM      4  C3A BZF d   1       0.656   2.039   0.798  0.00  0.00    -0.107 A 
ATOM      5  C4  BZF d   1      -0.024   0.856   0.838  0.00  0.00     0.055 A 
ATOM      6  C5  BZF d   1      -0.292   0.208  -0.326  0.00  0.00    -0.016 A 
ATOM      7  C6  BZF d   1       0.100   0.716  -1.547  0.00  0.00     0.022 A 
ATOM      8  C7  BZF d   1       0.782   1.884  -1.637  0.00  0.00     0.029 A 
ATOM      9  C7A BZF d   1       1.082   2.525  -0.460  0.00  0.00     0.058 A 
ENDROOT
TORSDOF 0
ENDMDL
