MODEL 1
REMARK minimizedAffinity -2.88079071
REMARK minimizedRMSD -1
REMARK  0 active torsions:
REMARK  status: ('A' for Active; 'I' for Inactive)
ROOT
ATOM      1  O1  BZF d   1      -0.055  -0.866  -2.415  0.00  0.00    -0.204 OA
ATOM      2  C2  BZF d   1      -0.347  -2.104  -2.954  0.00  0.00     0.174 A 
ATOM      3  C3  BZF d   1      -0.685  -2.980  -1.986  0.00  0.00    -0.012 A 
ATOM      4  C3A BZF d   1      -0.689  -2.218  -0.774  0.00  0.00    -0.107 A 
ATOM      5  C4  BZF d   1      -0.963  -2.527   0.527  0.00  0.00     0.055 A 
ATOM      6  C5  BZF d   1      -0.804  -1.571   1.480  0.00  0.00    -0.016 A 
ATOM      7  C6  BZF d   1      -0.368  -0.300   1.168  0.00  0.00     0.022 A 
ATOM      8  C7  BZF d   1      -0.089   0.054  -0.110  0.00  0.00     0.029 A 
ATOM      9  C7A BZF d   1      -0.280  -0.900  -1.079  0.00  0.00     0.058 A 
ENDROOT
TORSDOF 0
ENDMDL
