MODEL 1
REMARK minimizedAffinity -0.322410017
REMARK minimizedRMSD -1
REMARK  0 active torsions:
REMARK  status: ('A' for Active; 'I' for Inactive)
ROOT
ATOM      1  O1  BZF d   1       0.059   1.490  -1.304  0.00  0.00    -0.204 OA
ATOM      2  C2  BZF d   1      -0.529   0.589  -0.438  0.00  0.00     0.174 A 
ATOM      3  C3  BZF d   1       0.001   0.696   0.797  0.00  0.00    -0.012 A 
ATOM      4  C3A BZF d   1       0.917   1.792   0.720  0.00  0.00    -0.107 A 
ATOM      5  C4  BZF d   1       1.739   2.396   1.629  0.00  0.00     0.055 A 
ATOM      6  C5  BZF d   1       2.561   3.395   1.214  0.00  0.00    -0.016 A 
ATOM      7  C6  BZF d   1       2.591   3.813  -0.100  0.00  0.00     0.022 A 
ATOM      8  C7  BZF d   1       1.791   3.248  -1.037  0.00  0.00     0.029 A 
ATOM      9  C7A BZF d   1       0.936   2.260  -0.615  0.00  0.00     0.058 A 
ENDROOT
TORSDOF 0
ENDMDL
