MODEL 1
REMARK minimizedAffinity 7.36503839
REMARK minimizedRMSD -1
REMARK  0 active torsions:
REMARK  status: ('A' for Active; 'I' for Inactive)
ROOT
ATOM      1  O1  BZF d   1       1.949   3.193   2.379  0.00  0.00    -0.204 OA
ATOM      2  C2  BZF d   1       1.956   2.337   1.295  0.00  0.00     0.174 A 
ATOM      3  C3  BZF d   1       0.819   2.461   0.580  0.00  0.00    -0.012 A 
ATOM      4  C3A BZF d   1       0.094   3.523   1.207  0.00  0.00    -0.107 A 
ATOM      5  C4  BZF d   1      -1.104   4.124   0.946  0.00  0.00     0.055 A 
ATOM      6  C5  BZF d   1      -1.561   5.082   1.794  0.00  0.00    -0.016 A 
ATOM      7  C6  BZF d   1      -0.849   5.461   2.913  0.00  0.00     0.022 A 
ATOM      8  C7  BZF d   1       0.347   4.898   3.210  0.00  0.00     0.029 A 
ATOM      9  C7A BZF d   1       0.827   3.952   2.338  0.00  0.00     0.058 A 
ENDROOT
TORSDOF 0
ENDMDL
