MODEL 1
REMARK minimizedAffinity -4.32974625
REMARK minimizedRMSD -1
REMARK  0 active torsions:
REMARK  status: ('A' for Active; 'I' for Inactive)
ROOT
ATOM      1  O1  BZF d   1      -1.310  -1.722   1.869  0.00  0.00    -0.204 OA
ATOM      2  C2  BZF d   1      -1.067  -3.018   1.457  0.00  0.00     0.174 A 
ATOM      3  C3  BZF d   1      -0.384  -3.030   0.294  0.00  0.00    -0.012 A 
ATOM      4  C3A BZF d   1      -0.108  -1.656   0.006  0.00  0.00    -0.107 A 
ATOM      5  C4  BZF d   1       0.555  -1.024  -1.007  0.00  0.00     0.055 A 
ATOM      6  C5  BZF d   1       0.583   0.334  -1.032  0.00  0.00    -0.016 A 
ATOM      7  C6  BZF d   1      -0.044   1.091  -0.064  0.00  0.00     0.022 A 
ATOM      8  C7  BZF d   1      -0.709   0.510   0.963  0.00  0.00     0.029 A 
ATOM      9  C7A BZF d   1      -0.711  -0.863   1.009  0.00  0.00     0.058 A 
ENDROOT
TORSDOF 0
ENDMDL
