MODEL 1
REMARK minimizedAffinity -5.87984705
REMARK minimizedRMSD -1
REMARK  0 active torsions:
REMARK  status: ('A' for Active; 'I' for Inactive)
ROOT
ATOM      1  C   UNL d   1       0.025  -2.540  -2.211  0.00  0.00     0.077 C 
ATOM      2  C1  UNL d   1      -0.258  -1.804  -0.935  0.00  0.00    -0.074 A 
ATOM      3  C2  UNL d   1      -0.573  -2.495   0.239  0.00  0.00    -0.005 A 
ATOM      4  C3  UNL d   1      -0.825  -1.797   1.420  0.00  0.00     0.006 A 
ATOM      5  C4  UNL d   1      -0.764  -0.403   1.439  0.00  0.00    -0.005 A 
ATOM      6  C5  UNL d   1      -0.450   0.305   0.275  0.00  0.00    -0.074 A 
ATOM      7  C6  UNL d   1      -0.370   1.803   0.281  0.00  0.00     0.077 C 
ATOM      8  C7  UNL d   1      -0.191  -0.403  -0.906  0.00  0.00    -0.001 A 
ENDROOT
TORSDOF 0
ENDMDL
