MODEL 1
REMARK minimizedAffinity -5.4324832
REMARK minimizedRMSD -1
REMARK  0 active torsions:
REMARK  status: ('A' for Active; 'I' for Inactive)
ROOT
ATOM      1  C   UNL d   1       0.320  -2.803  -2.221  0.00  0.00     0.077 C 
ATOM      2  C1  UNL d   1      -0.146  -2.017  -1.032  0.00  0.00    -0.074 A 
ATOM      3  C2  UNL d   1      -0.814  -2.642   0.026  0.00  0.00    -0.005 A 
ATOM      4  C3  UNL d   1      -1.233  -1.900   1.130  0.00  0.00     0.006 A 
ATOM      5  C4  UNL d   1      -0.988  -0.528   1.188  0.00  0.00    -0.005 A 
ATOM      6  C5  UNL d   1      -0.321   0.115   0.140  0.00  0.00    -0.074 A 
ATOM      7  C6  UNL d   1      -0.042   1.588   0.191  0.00  0.00     0.077 C 
ATOM      8  C7  UNL d   1       0.103  -0.639  -0.963  0.00  0.00    -0.001 A 
ENDROOT
TORSDOF 0
ENDMDL
