MODEL 1
REMARK minimizedAffinity -4.78019047
REMARK minimizedRMSD -1
REMARK  0 active torsions:
REMARK  status: ('A' for Active; 'I' for Inactive)
ROOT
ATOM      1  C   UNL d   1       0.401  -3.415   0.346  0.00  0.00     0.077 C 
ATOM      2  C1  UNL d   1       0.017  -1.965   0.370  0.00  0.00    -0.074 A 
ATOM      3  C2  UNL d   1       0.471  -1.085  -0.617  0.00  0.00    -0.005 A 
ATOM      4  C3  UNL d   1       0.098   0.259  -0.586  0.00  0.00     0.006 A 
ATOM      5  C4  UNL d   1      -0.732   0.735   0.430  0.00  0.00    -0.005 A 
ATOM      6  C5  UNL d   1      -1.197  -0.131   1.424  0.00  0.00    -0.074 A 
ATOM      7  C6  UNL d   1      -2.098   0.362   2.518  0.00  0.00     0.077 C 
ATOM      8  C7  UNL d   1      -0.823  -1.481   1.383  0.00  0.00    -0.001 A 
ENDROOT
TORSDOF 0
ENDMDL
