MODEL 1
REMARK minimizedAffinity -4.5316391
REMARK minimizedRMSD -1
REMARK  0 active torsions:
REMARK  status: ('A' for Active; 'I' for Inactive)
ROOT
ATOM      1  C   UNL d   1       1.125  -0.816  -2.932  0.00  0.00     0.077 C 
ATOM      2  C1  UNL d   1       0.427  -0.602  -1.621  0.00  0.00    -0.074 A 
ATOM      3  C2  UNL d   1       0.146   0.688  -1.159  0.00  0.00    -0.005 A 
ATOM      4  C3  UNL d   1      -0.512   0.872   0.057  0.00  0.00     0.006 A 
ATOM      5  C4  UNL d   1      -0.895  -0.231   0.822  0.00  0.00    -0.005 A 
ATOM      6  C5  UNL d   1      -0.624  -1.528   0.375  0.00  0.00    -0.074 A 
ATOM      7  C6  UNL d   1      -1.037  -2.724   1.180  0.00  0.00     0.077 C 
ATOM      8  C7  UNL d   1       0.032  -1.704  -0.851  0.00  0.00    -0.001 A 
ENDROOT
TORSDOF 0
ENDMDL
