MODEL 1
REMARK minimizedAffinity -2.81291604
REMARK minimizedRMSD -1
REMARK  0 active torsions:
REMARK  status: ('A' for Active; 'I' for Inactive)
ROOT
ATOM      1  C   UNL d   1       0.224   4.966   2.609  0.00  0.00     0.077 C 
ATOM      2  C1  UNL d   1       0.539   3.985   1.519  0.00  0.00    -0.074 A 
ATOM      3  C2  UNL d   1       1.531   4.257   0.572  0.00  0.00    -0.005 A 
ATOM      4  C3  UNL d   1       1.819   3.331  -0.430  0.00  0.00     0.006 A 
ATOM      5  C4  UNL d   1       1.121   2.125  -0.495  0.00  0.00    -0.005 A 
ATOM      6  C5  UNL d   1       0.126   1.835   0.445  0.00  0.00    -0.074 A 
ATOM      7  C6  UNL d   1      -0.628   0.539   0.396  0.00  0.00     0.077 C 
ATOM      8  C7  UNL d   1      -0.153   2.768   1.453  0.00  0.00    -0.001 A 
ENDROOT
TORSDOF 0
ENDMDL
