MODEL 1
REMARK minimizedAffinity -3.71930122
REMARK minimizedRMSD -1
REMARK  0 active torsions:
REMARK  status: ('A' for Active; 'I' for Inactive)
ROOT
ATOM      1  C   UNL d   1       0.578  -3.693  -0.116  0.00  0.00     0.077 C 
ATOM      2  C1  UNL d   1      -0.023  -2.339   0.121  0.00  0.00    -0.074 A 
ATOM      3  C2  UNL d   1      -1.355  -2.204   0.524  0.00  0.00    -0.005 A 
ATOM      4  C3  UNL d   1      -1.897  -0.939   0.749  0.00  0.00     0.006 A 
ATOM      5  C4  UNL d   1      -1.114   0.202   0.573  0.00  0.00    -0.005 A 
ATOM      6  C5  UNL d   1       0.221   0.087   0.171  0.00  0.00    -0.074 A 
ATOM      7  C6  UNL d   1       1.079   1.303  -0.013  0.00  0.00     0.077 C 
ATOM      8  C7  UNL d   1       0.760  -1.189  -0.047  0.00  0.00    -0.001 A 
ENDROOT
TORSDOF 0
ENDMDL
