MODEL 1
REMARK minimizedAffinity -3.40459538
REMARK minimizedRMSD -1
REMARK  0 active torsions:
REMARK  status: ('A' for Active; 'I' for Inactive)
ROOT
ATOM      1  C   UNL d   1       0.527   1.426  -1.174  0.00  0.00     0.077 C 
ATOM      2  C1  UNL d   1       0.004   0.565  -0.062  0.00  0.00    -0.074 A 
ATOM      3  C2  UNL d   1      -0.656   1.129   1.034  0.00  0.00    -0.005 A 
ATOM      4  C3  UNL d   1      -1.146   0.315   2.055  0.00  0.00     0.006 A 
ATOM      5  C4  UNL d   1      -0.981  -1.069   1.991  0.00  0.00    -0.005 A 
ATOM      6  C5  UNL d   1      -0.324  -1.651   0.902  0.00  0.00    -0.074 A 
ATOM      7  C6  UNL d   1      -0.146  -3.138   0.813  0.00  0.00     0.077 C 
ATOM      8  C7  UNL d   1       0.159  -0.827  -0.124  0.00  0.00    -0.001 A 
ENDROOT
TORSDOF 0
ENDMDL
