MODEL 1
REMARK minimizedAffinity -3.82114363
REMARK minimizedRMSD -1
REMARK  0 active torsions:
REMARK  status: ('A' for Active; 'I' for Inactive)
ROOT
ATOM      1  C   UNL d   1      -0.743   0.160   0.858  0.00  0.00     0.077 C 
ATOM      2  C1  UNL d   1       0.062   1.379   0.519  0.00  0.00    -0.074 A 
ATOM      3  C2  UNL d   1       0.807   1.442  -0.663  0.00  0.00    -0.005 A 
ATOM      4  C3  UNL d   1       1.544   2.586  -0.969  0.00  0.00     0.006 A 
ATOM      5  C4  UNL d   1       1.543   3.677  -0.099  0.00  0.00    -0.005 A 
ATOM      6  C5  UNL d   1       0.803   3.632   1.087  0.00  0.00    -0.074 A 
ATOM      7  C6  UNL d   1       0.783   4.799   2.029  0.00  0.00     0.077 C 
ATOM      8  C7  UNL d   1       0.060   2.481   1.385  0.00  0.00    -0.001 A 
ENDROOT
TORSDOF 0
ENDMDL
