MODEL 1
REMARK minimizedAffinity -4.81115961
REMARK minimizedRMSD -1
REMARK  0 active torsions:
REMARK  status: ('A' for Active; 'I' for Inactive)
ROOT
ATOM      1  C   UNL d   1       0.445  -3.862   0.136  0.00  0.00     0.077 C 
ATOM      2  C1  UNL d   1      -0.231  -2.549   0.398  0.00  0.00    -0.074 A 
ATOM      3  C2  UNL d   1      -1.432  -2.490   1.113  0.00  0.00    -0.005 A 
ATOM      4  C3  UNL d   1      -2.045  -1.261   1.358  0.00  0.00     0.006 A 
ATOM      5  C4  UNL d   1      -1.464  -0.081   0.891  0.00  0.00    -0.005 A 
ATOM      6  C5  UNL d   1      -0.263  -0.121   0.176  0.00  0.00    -0.074 A 
ATOM      7  C6  UNL d   1       0.380   1.139  -0.324  0.00  0.00     0.077 C 
ATOM      8  C7  UNL d   1       0.350  -1.359  -0.060  0.00  0.00    -0.001 A 
ENDROOT
TORSDOF 0
ENDMDL
