MODEL 1
REMARK minimizedAffinity -4.27168369
REMARK minimizedRMSD -1
REMARK  0 active torsions:
REMARK  status: ('A' for Active; 'I' for Inactive)
ROOT
ATOM      1  C   UNL d   1      -1.417  -1.020   2.250  0.00  0.00     0.077 C 
ATOM      2  C1  UNL d   1      -0.654  -1.063   0.959  0.00  0.00    -0.074 A 
ATOM      3  C2  UNL d   1       0.018  -2.223   0.560  0.00  0.00    -0.005 A 
ATOM      4  C3  UNL d   1       0.716  -2.250  -0.648  0.00  0.00     0.006 A 
ATOM      5  C4  UNL d   1       0.749  -1.121  -1.467  0.00  0.00    -0.005 A 
ATOM      6  C5  UNL d   1       0.082   0.047  -1.084  0.00  0.00    -0.074 A 
ATOM      7  C6  UNL d   1       0.098   1.267  -1.957  0.00  0.00     0.077 C 
ATOM      8  C7  UNL d   1      -0.623   0.065   0.128  0.00  0.00    -0.001 A 
ENDROOT
TORSDOF 0
ENDMDL
