MODEL 1
REMARK minimizedAffinity -2.0165484
REMARK minimizedRMSD -1
REMARK  0 active torsions:
REMARK  status: ('A' for Active; 'I' for Inactive)
ROOT
ATOM      1  C   UNL d   1      -0.364   5.351   2.598  0.00  0.00     0.077 C 
ATOM      2  C1  UNL d   1       0.363   4.477   1.620  0.00  0.00    -0.074 A 
ATOM      3  C2  UNL d   1       1.638   4.820   1.159  0.00  0.00    -0.005 A 
ATOM      4  C3  UNL d   1       2.306   3.992   0.257  0.00  0.00     0.006 A 
ATOM      5  C4  UNL d   1       1.706   2.815  -0.193  0.00  0.00    -0.005 A 
ATOM      6  C5  UNL d   1       0.432   2.455   0.258  0.00  0.00    -0.074 A 
ATOM      7  C6  UNL d   1      -0.222   1.188  -0.207  0.00  0.00     0.077 C 
ATOM      8  C7  UNL d   1      -0.229   3.288   1.170  0.00  0.00    -0.001 A 
ENDROOT
TORSDOF 0
ENDMDL
