MODEL 1
REMARK minimizedAffinity -5.63448477
REMARK minimizedRMSD -1
REMARK  0 active torsions:
REMARK  status: ('A' for Active; 'I' for Inactive)
ROOT
ATOM      1  C   UNL d   1       0.125   1.340   0.021  0.00  0.00     0.077 C 
ATOM      2  C1  UNL d   1       0.090  -0.140  -0.218  0.00  0.00    -0.074 A 
ATOM      3  C2  UNL d   1      -0.557  -0.998   0.677  0.00  0.00    -0.005 A 
ATOM      4  C3  UNL d   1      -0.589  -2.371   0.436  0.00  0.00     0.006 A 
ATOM      5  C4  UNL d   1       0.025  -2.900  -0.699  0.00  0.00    -0.005 A 
ATOM      6  C5  UNL d   1       0.677  -2.058  -1.606  0.00  0.00    -0.074 A 
ATOM      7  C6  UNL d   1       1.334  -2.610  -2.836  0.00  0.00     0.077 C 
ATOM      8  C7  UNL d   1       0.699  -0.678  -1.361  0.00  0.00    -0.001 A 
ENDROOT
TORSDOF 0
ENDMDL
