MODEL 1
REMARK minimizedAffinity -3.57591367
REMARK minimizedRMSD -1
REMARK  0 active torsions:
REMARK  status: ('A' for Active; 'I' for Inactive)
ROOT
ATOM      1  C   UNL d   1       0.536  -3.406   0.569  0.00  0.00     0.077 C 
ATOM      2  C1  UNL d   1      -0.152  -2.074   0.593  0.00  0.00    -0.074 A 
ATOM      3  C2  UNL d   1      -1.245  -1.844   1.435  0.00  0.00    -0.005 A 
ATOM      4  C3  UNL d   1      -1.869  -0.597   1.453  0.00  0.00     0.006 A 
ATOM      5  C4  UNL d   1      -1.408   0.431   0.630  0.00  0.00    -0.005 A 
ATOM      6  C5  UNL d   1      -0.316   0.221  -0.217  0.00  0.00    -0.074 A 
ATOM      7  C6  UNL d   1       0.199   1.318  -1.100  0.00  0.00     0.077 C 
ATOM      8  C7  UNL d   1       0.310  -1.033  -0.225  0.00  0.00    -0.001 A 
ENDROOT
TORSDOF 0
ENDMDL
