MODEL 1
REMARK minimizedAffinity -5.41808558
REMARK minimizedRMSD -1
REMARK  0 active torsions:
REMARK  status: ('A' for Active; 'I' for Inactive)
ROOT
ATOM      1  C   UNL d   1       0.200   1.515  -0.002  0.00  0.00     0.077 C 
ATOM      2  C1  UNL d   1      -0.089   0.060   0.216  0.00  0.00    -0.074 A 
ATOM      3  C2  UNL d   1      -0.630  -0.392   1.424  0.00  0.00    -0.005 A 
ATOM      4  C3  UNL d   1      -0.902  -1.748   1.609  0.00  0.00     0.006 A 
ATOM      5  C4  UNL d   1      -0.636  -2.663   0.590  0.00  0.00    -0.005 A 
ATOM      6  C5  UNL d   1      -0.096  -2.229  -0.625  0.00  0.00    -0.074 A 
ATOM      7  C6  UNL d   1       0.186  -3.198  -1.735  0.00  0.00     0.077 C 
ATOM      8  C7  UNL d   1       0.168  -0.865  -0.806  0.00  0.00    -0.001 A 
ENDROOT
TORSDOF 0
ENDMDL
