MODEL 1
REMARK minimizedAffinity -4.66565704
REMARK minimizedRMSD -1
REMARK  0 active torsions:
REMARK  status: ('A' for Active; 'I' for Inactive)
ROOT
ATOM      1  C   UNL d   1       1.212  -2.439  -2.886  0.00  0.00     0.077 C 
ATOM      2  C1  UNL d   1       0.610  -2.549  -1.517  0.00  0.00    -0.074 A 
ATOM      3  C2  UNL d   1       0.379  -3.798  -0.931  0.00  0.00    -0.005 A 
ATOM      4  C3  UNL d   1      -0.172  -3.884   0.348  0.00  0.00     0.006 A 
ATOM      5  C4  UNL d   1      -0.497  -2.724   1.052  0.00  0.00    -0.005 A 
ATOM      6  C5  UNL d   1      -0.273  -1.466   0.483  0.00  0.00    -0.074 A 
ATOM      7  C6  UNL d   1      -0.608  -0.210   1.230  0.00  0.00     0.077 C 
ATOM      8  C7  UNL d   1       0.288  -1.388  -0.800  0.00  0.00    -0.001 A 
ENDROOT
TORSDOF 0
ENDMDL
