MODEL 1
REMARK minimizedAffinity -3.34981608
REMARK minimizedRMSD -1
REMARK  0 active torsions:
REMARK  status: ('A' for Active; 'I' for Inactive)
ROOT
ATOM      1  C4' PXY d   1       1.499   1.109  -0.013  0.00  0.00     0.077 C 
ATOM      2  C1' PXY d   1      -2.616  -1.881  -2.760  0.00  0.00     0.077 C 
ATOM      3  C1  PXY d   1      -1.535  -1.107  -2.031  0.00  0.00    -0.082 A 
ATOM      4  C2  PXY d   1      -1.496   0.212  -2.130  0.00  0.00     0.003 A 
ATOM      5  C3  PXY d   1      -0.507   0.926  -1.503  0.00  0.00     0.003 A 
ATOM      6  C4  PXY d   1       0.420   0.287  -0.724  0.00  0.00    -0.082 A 
ATOM      7  C5  PXY d   1       0.381  -1.058  -0.610  0.00  0.00     0.003 A 
ATOM      8  C6  PXY d   1      -0.607  -1.767  -1.287  0.00  0.00     0.003 A 
ENDROOT
TORSDOF 0
ENDMDL
