MODEL 1
REMARK minimizedAffinity 1.87449789
REMARK minimizedRMSD -1
REMARK  0 active torsions:
REMARK  status: ('A' for Active; 'I' for Inactive)
ROOT
ATOM      1  C4' PXY d   1       3.046   5.739  -5.368  0.00  0.00     0.077 C 
ATOM      2  C1' PXY d   1      -2.552   5.999  -3.950  0.00  0.00     0.077 C 
ATOM      3  C1  PXY d   1      -1.087   5.925  -4.333  0.00  0.00    -0.082 A 
ATOM      4  C2  PXY d   1      -0.163   5.907  -3.386  0.00  0.00     0.003 A 
ATOM      5  C3  PXY d   1       1.168   5.873  -3.716  0.00  0.00     0.003 A 
ATOM      6  C4  PXY d   1       1.555   5.803  -5.027  0.00  0.00    -0.082 A 
ATOM      7  C5  PXY d   1       0.618   5.811  -5.999  0.00  0.00     0.003 A 
ATOM      8  C6  PXY d   1      -0.726   5.887  -5.645  0.00  0.00     0.003 A 
ENDROOT
TORSDOF 0
ENDMDL
