MODEL 1
REMARK minimizedAffinity 5.92567587
REMARK minimizedRMSD -1
REMARK  0 active torsions:
REMARK  status: ('A' for Active; 'I' for Inactive)
ROOT
ATOM      1  C4' PXY d   1       4.646   3.675  -4.301  0.00  0.00     0.077 C 
ATOM      2  C1' PXY d   1      -0.366   5.999  -6.000  0.00  0.00     0.077 C 
ATOM      3  C1  PXY d   1       0.954   5.395  -5.565  0.00  0.00    -0.082 A 
ATOM      4  C2  PXY d   1       0.959   4.316  -4.800  0.00  0.00     0.003 A 
ATOM      5  C3  PXY d   1       2.144   3.775  -4.370  0.00  0.00     0.003 A 
ATOM      6  C4  PXY d   1       3.337   4.313  -4.772  0.00  0.00    -0.082 A 
ATOM      7  C5  PXY d   1       3.340   5.408  -5.562  0.00  0.00     0.003 A 
ATOM      8  C6  PXY d   1       2.127   5.966  -5.953  0.00  0.00     0.003 A 
ENDROOT
TORSDOF 0
ENDMDL
