MODEL 1
REMARK minimizedAffinity -3.66827726
REMARK minimizedRMSD -1
REMARK  0 active torsions:
REMARK  status: ('A' for Active; 'I' for Inactive)
ROOT
ATOM      1  C4' PXY d   1      -3.082   6.000  -1.273  0.00  0.00     0.077 C 
ATOM      2  C1' PXY d   1       0.811   5.978  -5.546  0.00  0.00     0.077 C 
ATOM      3  C1  PXY d   1      -0.219   5.989  -4.433  0.00  0.00    -0.082 A 
ATOM      4  C2  PXY d   1       0.181   6.000  -3.172  0.00  0.00     0.003 A 
ATOM      5  C3  PXY d   1      -0.736   5.977  -2.153  0.00  0.00     0.003 A 
ATOM      6  C4  PXY d   1      -2.077   5.998  -2.428  0.00  0.00    -0.082 A 
ATOM      7  C5  PXY d   1      -2.493   5.999  -3.713  0.00  0.00     0.003 A 
ATOM      8  C6  PXY d   1      -1.546   5.980  -4.732  0.00  0.00     0.003 A 
ENDROOT
TORSDOF 0
ENDMDL
