MODEL 1
REMARK minimizedAffinity 6.45626974
REMARK minimizedRMSD -1
REMARK  0 active torsions:
REMARK  status: ('A' for Active; 'I' for Inactive)
ROOT
ATOM      1  C4' PXY d   1       2.594   2.687  -0.006  0.00  0.00     0.077 C 
ATOM      2  C1' PXY d   1      -0.447  -2.161   0.808  0.00  0.00     0.077 C 
ATOM      3  C1  PXY d   1       0.352  -0.893   0.582  0.00  0.00    -0.082 A 
ATOM      4  C2  PXY d   1       0.959  -0.311   1.604  0.00  0.00     0.003 A 
ATOM      5  C3  PXY d   1       1.659   0.854   1.423  0.00  0.00     0.003 A 
ATOM      6  C4  PXY d   1       1.784   1.400   0.174  0.00  0.00    -0.082 A 
ATOM      7  C5  PXY d   1       1.177   0.806  -0.876  0.00  0.00     0.003 A 
ATOM      8  C6  PXY d   1       0.437  -0.353  -0.664  0.00  0.00     0.003 A 
ENDROOT
TORSDOF 0
ENDMDL
