MODEL 1
REMARK minimizedAffinity 4.98901653
REMARK minimizedRMSD -1
REMARK  0 active torsions:
REMARK  status: ('A' for Active; 'I' for Inactive)
ROOT
ATOM      1  C4' PXY d   1      -0.465  -0.122   3.201  0.00  0.00     0.077 C 
ATOM      2  C1' PXY d   1       1.621   1.366  -1.981  0.00  0.00     0.077 C 
ATOM      3  C1  PXY d   1       1.086   0.977  -0.617  0.00  0.00    -0.082 A 
ATOM      4  C2  PXY d   1      -0.015   0.248  -0.530  0.00  0.00     0.003 A 
ATOM      5  C3  PXY d   1      -0.531  -0.086   0.696  0.00  0.00     0.003 A 
ATOM      6  C4  PXY d   1       0.117   0.286   1.844  0.00  0.00    -0.082 A 
ATOM      7  C5  PXY d   1       1.246   1.020   1.763  0.00  0.00     0.003 A 
ATOM      8  C6  PXY d   1       1.730   1.384   0.510  0.00  0.00     0.003 A 
ENDROOT
TORSDOF 0
ENDMDL
