MODEL 1
REMARK minimizedAffinity 1.03110933
REMARK minimizedRMSD -1
REMARK  0 active torsions:
REMARK  status: ('A' for Active; 'I' for Inactive)
ROOT
ATOM      1  C4' PXY d   1      -3.009   5.996  -3.423  0.00  0.00     0.077 C 
ATOM      2  C1' PXY d   1       2.518   5.405  -5.011  0.00  0.00     0.077 C 
ATOM      3  C1  PXY d   1       1.070   5.552  -4.584  0.00  0.00    -0.082 A 
ATOM      4  C2  PXY d   1       0.145   5.819  -5.491  0.00  0.00     0.003 A 
ATOM      5  C3  PXY d   1      -1.164   5.988  -5.117  0.00  0.00     0.003 A 
ATOM      6  C4  PXY d   1      -1.537   5.829  -3.810  0.00  0.00    -0.082 A 
ATOM      7  C5  PXY d   1      -0.600   5.546  -2.880  0.00  0.00     0.003 A 
ATOM      8  C6  PXY d   1       0.729   5.420  -3.273  0.00  0.00     0.003 A 
ENDROOT
TORSDOF 0
ENDMDL
