MODEL 1
REMARK minimizedAffinity -2.31682491
REMARK minimizedRMSD -1
REMARK  0 active torsions:
REMARK  status: ('A' for Active; 'I' for Inactive)
ROOT
ATOM      1  C4' PXY d   1       3.691   5.964  -5.251  0.00  0.00     0.077 C 
ATOM      2  C1' PXY d   1      -1.890   5.998  -3.743  0.00  0.00     0.077 C 
ATOM      3  C1  PXY d   1      -0.429   5.984  -4.150  0.00  0.00    -0.082 A 
ATOM      4  C2  PXY d   1       0.510   5.971  -3.218  0.00  0.00     0.003 A 
ATOM      5  C3  PXY d   1       1.835   5.990  -3.568  0.00  0.00     0.003 A 
ATOM      6  C4  PXY d   1       2.204   5.969  -4.887  0.00  0.00    -0.082 A 
ATOM      7  C5  PXY d   1       1.252   5.971  -5.844  0.00  0.00     0.003 A 
ATOM      8  C6  PXY d   1      -0.088   5.993  -5.467  0.00  0.00     0.003 A 
ENDROOT
TORSDOF 0
ENDMDL
