MODEL 1
REMARK minimizedAffinity 5.68713903
REMARK minimizedRMSD -1
REMARK  0 active torsions:
REMARK  status: ('A' for Active; 'I' for Inactive)
ROOT
ATOM      1  C4' PXY d   1      -0.057   0.029   2.930  0.00  0.00     0.077 C 
ATOM      2  C1' PXY d   1       1.628   1.602  -2.372  0.00  0.00     0.077 C 
ATOM      3  C1  PXY d   1       1.179   1.180  -0.987  0.00  0.00    -0.082 A 
ATOM      4  C2  PXY d   1       1.185   2.062  -0.000  0.00  0.00     0.003 A 
ATOM      5  C3  PXY d   1       0.813   1.689   1.266  0.00  0.00     0.003 A 
ATOM      6  C4  PXY d   1       0.379   0.413   1.513  0.00  0.00    -0.082 A 
ATOM      7  C5  PXY d   1       0.360  -0.489   0.509  0.00  0.00     0.003 A 
ATOM      8  C6  PXY d   1       0.781  -0.101  -0.759  0.00  0.00     0.003 A 
ENDROOT
TORSDOF 0
ENDMDL
