MODEL 1
REMARK minimizedAffinity -2.09269953
REMARK minimizedRMSD -1
REMARK  0 active torsions:
REMARK  status: ('A' for Active; 'I' for Inactive)
ROOT
ATOM      1  C4' PXY d   1      -1.182   0.784   1.383  0.00  0.00     0.077 C 
ATOM      2  C1' PXY d   1       4.405   2.267   1.422  0.00  0.00     0.077 C 
ATOM      3  C1  PXY d   1       2.937   1.888   1.404  0.00  0.00    -0.082 A 
ATOM      4  C2  PXY d   1       2.434   1.172   2.396  0.00  0.00     0.003 A 
ATOM      5  C3  PXY d   1       1.117   0.794   2.380  0.00  0.00     0.003 A 
ATOM      6  C4  PXY d   1       0.292   1.197   1.364  0.00  0.00    -0.082 A 
ATOM      7  C5  PXY d   1       0.795   1.937   0.353  0.00  0.00     0.003 A 
ATOM      8  C6  PXY d   1       2.145   2.276   0.367  0.00  0.00     0.003 A 
ENDROOT
TORSDOF 0
ENDMDL
