MODEL 1
REMARK minimizedAffinity 2.26494265
REMARK minimizedRMSD -1
REMARK  0 active torsions:
REMARK  status: ('A' for Active; 'I' for Inactive)
ROOT
ATOM      1  C4' PXY d   1       3.443   3.322   0.375  0.00  0.00     0.077 C 
ATOM      2  C1' PXY d   1      -0.718  -0.673   0.750  0.00  0.00     0.077 C 
ATOM      3  C1  PXY d   1       0.375   0.372   0.639  0.00  0.00    -0.082 A 
ATOM      4  C2  PXY d   1       1.030   0.750   1.724  0.00  0.00     0.003 A 
ATOM      5  C3  PXY d   1       2.000   1.717   1.647  0.00  0.00     0.003 A 
ATOM      6  C4  PXY d   1       2.338   2.264   0.438  0.00  0.00    -0.082 A 
ATOM      7  C5  PXY d   1       1.681   1.875  -0.675  0.00  0.00     0.003 A 
ATOM      8  C6  PXY d   1       0.672   0.922  -0.569  0.00  0.00     0.003 A 
ENDROOT
TORSDOF 0
ENDMDL
