MODEL 1
REMARK minimizedAffinity -4.44402361
REMARK minimizedRMSD -1
REMARK  0 active torsions:
REMARK  status: ('A' for Active; 'I' for Inactive)
ROOT
ATOM      1  C4' PXY d   1       1.966   5.283  -4.309  0.00  0.00     0.077 C 
ATOM      2  C1' PXY d   1      -3.761   5.944  -3.893  0.00  0.00     0.077 C 
ATOM      3  C1  PXY d   1      -2.261   5.763  -4.013  0.00  0.00    -0.082 A 
ATOM      4  C2  PXY d   1      -1.497   5.908  -2.942  0.00  0.00     0.003 A 
ATOM      5  C3  PXY d   1      -0.136   5.779  -3.039  0.00  0.00     0.003 A 
ATOM      6  C4  PXY d   1       0.446   5.447  -4.233  0.00  0.00    -0.082 A 
ATOM      7  C5  PXY d   1      -0.327   5.288  -5.328  0.00  0.00     0.003 A 
ATOM      8  C6  PXY d   1      -1.704   5.463  -5.217  0.00  0.00     0.003 A 
ENDROOT
TORSDOF 0
ENDMDL
