MODEL 1
REMARK minimizedAffinity 6.20729446
REMARK minimizedRMSD -1
REMARK  0 active torsions:
REMARK  status: ('A' for Active; 'I' for Inactive)
ROOT
ATOM      1  C4' PXY d   1       5.974   2.571   0.821  0.00  0.00     0.077 C 
ATOM      2  C1' PXY d   1       0.515   1.010   1.902  0.00  0.00     0.077 C 
ATOM      3  C1  PXY d   1       1.950   1.416   1.631  0.00  0.00    -0.082 A 
ATOM      4  C2  PXY d   1       2.208   2.331   0.711  0.00  0.00     0.003 A 
ATOM      5  C3  PXY d   1       3.502   2.686   0.430  0.00  0.00     0.003 A 
ATOM      6  C4  PXY d   1       4.540   2.138   1.135  0.00  0.00    -0.082 A 
ATOM      7  C5  PXY d   1       4.284   1.211   2.083  0.00  0.00     0.003 A 
ATOM      8  C6  PXY d   1       2.966   0.834   2.324  0.00  0.00     0.003 A 
ENDROOT
TORSDOF 0
ENDMDL
