MODEL 1
REMARK minimizedAffinity -1.49377382
REMARK minimizedRMSD -1
REMARK  0 active torsions:
REMARK  status: ('A' for Active; 'I' for Inactive)
ROOT
ATOM      1  C4' PXY d   1      -1.002   5.998  -3.281  0.00  0.00     0.077 C 
ATOM      2  C1' PXY d   1       4.087   5.643  -6.000  0.00  0.00     0.077 C 
ATOM      3  C1  PXY d   1       2.758   5.729  -5.277  0.00  0.00    -0.082 A 
ATOM      4  C2  PXY d   1       1.643   5.879  -5.973  0.00  0.00     0.003 A 
ATOM      5  C3  PXY d   1       0.435   5.992  -5.333  0.00  0.00     0.003 A 
ATOM      6  C4  PXY d   1       0.362   5.896  -3.969  0.00  0.00    -0.082 A 
ATOM      7  C5  PXY d   1       1.494   5.733  -3.252  0.00  0.00     0.003 A 
ATOM      8  C6  PXY d   1       2.714   5.662  -3.918  0.00  0.00     0.003 A 
ENDROOT
TORSDOF 0
ENDMDL
