MODEL 1
REMARK minimizedAffinity -3.87110305
REMARK minimizedRMSD -1
REMARK  0 active torsions:
REMARK  status: ('A' for Active; 'I' for Inactive)
ROOT
ATOM      1  C4' PXY d   1      -2.629   5.928  -3.596  0.00  0.00     0.077 C 
ATOM      2  C1' PXY d   1       2.727   5.998  -5.769  0.00  0.00     0.077 C 
ATOM      3  C1  PXY d   1       1.327   5.975  -5.188  0.00  0.00    -0.082 A 
ATOM      4  C2  PXY d   1       0.282   5.959  -6.000  0.00  0.00     0.003 A 
ATOM      5  C3  PXY d   1      -0.992   5.970  -5.492  0.00  0.00     0.003 A 
ATOM      6  C4  PXY d   1      -1.197   5.943  -4.138  0.00  0.00    -0.082 A 
ATOM      7  C5  PXY d   1      -0.136   5.948  -3.304  0.00  0.00     0.003 A 
ATOM      8  C6  PXY d   1       1.148   5.978  -3.840  0.00  0.00     0.003 A 
ENDROOT
TORSDOF 0
ENDMDL
