MODEL 1
REMARK minimizedAffinity 3.41123438
REMARK minimizedRMSD -1
REMARK  0 active torsions:
REMARK  status: ('A' for Active; 'I' for Inactive)
ROOT
ATOM      1  C4' PXY d   1       0.787   0.020  -3.770  0.00  0.00     0.077 C 
ATOM      2  C1' PXY d   1       1.006   0.788   1.955  0.00  0.00     0.077 C 
ATOM      3  C1  PXY d   1       0.942   0.598   0.452  0.00  0.00    -0.082 A 
ATOM      4  C2  PXY d   1       0.978  -0.624  -0.055  0.00  0.00     0.003 A 
ATOM      5  C3  PXY d   1       0.954  -0.812  -1.413  0.00  0.00     0.003 A 
ATOM      6  C4  PXY d   1       0.839   0.258  -2.259  0.00  0.00    -0.082 A 
ATOM      7  C5  PXY d   1       0.791   1.507  -1.749  0.00  0.00     0.003 A 
ATOM      8  C6  PXY d   1       0.858   1.679  -0.369  0.00  0.00     0.003 A 
ENDROOT
TORSDOF 0
ENDMDL
