MODEL 1
REMARK minimizedAffinity -3.79177904
REMARK minimizedRMSD -1
REMARK  0 active torsions:
REMARK  status: ('A' for Active; 'I' for Inactive)
ROOT
ATOM      1  C4' PXY d   1       1.315   5.953  -4.893  0.00  0.00     0.077 C 
ATOM      2  C1' PXY d   1      -3.723   6.000  -2.059  0.00  0.00     0.077 C 
ATOM      3  C1  PXY d   1      -2.396   5.993  -2.792  0.00  0.00    -0.082 A 
ATOM      4  C2  PXY d   1      -2.379   5.975  -4.115  0.00  0.00     0.003 A 
ATOM      5  C3  PXY d   1      -1.188   5.936  -4.793  0.00  0.00     0.003 A 
ATOM      6  C4  PXY d   1      -0.001   5.970  -4.112  0.00  0.00    -0.082 A 
ATOM      7  C5  PXY d   1      -0.010   6.000  -2.762  0.00  0.00     0.003 A 
ATOM      8  C6  PXY d   1      -1.229   5.997  -2.091  0.00  0.00     0.003 A 
ENDROOT
TORSDOF 0
ENDMDL
