MODEL 1
REMARK minimizedAffinity 0.613969326
REMARK minimizedRMSD -1
REMARK  0 active torsions:
REMARK  status: ('A' for Active; 'I' for Inactive)
ROOT
ATOM      1  C4' PXY d   1      -5.975   6.000  -0.849  0.00  0.00     0.077 C 
ATOM      2  C1' PXY d   1      -1.306   5.976  -4.257  0.00  0.00     0.077 C 
ATOM      3  C1  PXY d   1      -2.538   5.987  -3.373  0.00  0.00    -0.082 A 
ATOM      4  C2  PXY d   1      -2.398   5.998  -2.057  0.00  0.00     0.003 A 
ATOM      5  C3  PXY d   1      -3.501   5.976  -1.242  0.00  0.00     0.003 A 
ATOM      6  C4  PXY d   1      -4.760   5.998  -1.780  0.00  0.00    -0.082 A 
ATOM      7  C5  PXY d   1      -4.911   5.998  -3.122  0.00  0.00     0.003 A 
ATOM      8  C6  PXY d   1      -3.779   5.978  -3.931  0.00  0.00     0.003 A 
ENDROOT
TORSDOF 0
ENDMDL
