MODEL 1
REMARK minimizedAffinity 1.63339818
REMARK minimizedRMSD -1
REMARK  0 active torsions:
REMARK  status: ('A' for Active; 'I' for Inactive)
ROOT
ATOM      1  C4' PXY d   1      -5.711  -4.182   1.499  0.00  0.00     0.077 C 
ATOM      2  C1' PXY d   1      -3.056  -2.258  -3.262  0.00  0.00     0.077 C 
ATOM      3  C1  PXY d   1      -3.757  -2.772  -2.020  0.00  0.00    -0.082 A 
ATOM      4  C2  PXY d   1      -4.016  -1.941  -1.024  0.00  0.00     0.003 A 
ATOM      5  C3  PXY d   1      -4.621  -2.397   0.119  0.00  0.00     0.003 A 
ATOM      6  C4  PXY d   1      -5.013  -3.705   0.222  0.00  0.00    -0.082 A 
ATOM      7  C5  PXY d   1      -4.762  -4.556  -0.795  0.00  0.00     0.003 A 
ATOM      8  C6  PXY d   1      -4.110  -4.084  -1.930  0.00  0.00     0.003 A 
ENDROOT
TORSDOF 0
ENDMDL
