MODEL 1
REMARK minimizedAffinity -3.66106915
REMARK minimizedRMSD -1
REMARK  0 active torsions:
REMARK  status: ('A' for Active; 'I' for Inactive)
ROOT
ATOM      1  C   UNL d   1      -1.265   0.984   1.547  0.00  0.00    -0.002 A 
ATOM      2  C1  UNL d   1      -1.112  -0.160   0.778  0.00  0.00     0.010 A 
ATOM      3  C2  UNL d   1       0.100  -0.430   0.139  0.00  0.00     0.041 A 
ATOM      4  C3  UNL d   1       1.166   0.477   0.289  0.00  0.00    -0.075 A 
ATOM      5  S   UNL d   1       2.742   0.353  -0.400  0.00  0.00     0.015 SA
ATOM      6  C4  UNL d   1       3.250   1.816   0.312  0.00  0.00     0.022 A 
ATOM      7  C5  UNL d   1       2.254   2.399   1.059  0.00  0.00     0.026 A 
ATOM      8  C6  UNL d   1       1.037   1.637   1.059  0.00  0.00    -0.082 A 
ATOM      9  C7  UNL d   1      -0.204   1.882   1.694  0.00  0.00     0.045 A 
ENDROOT
TORSDOF 0
ENDMDL
