MODEL 1
REMARK minimizedAffinity -3.6038785
REMARK minimizedRMSD -1
REMARK  0 active torsions:
REMARK  status: ('A' for Active; 'I' for Inactive)
ROOT
ATOM      1  C   UNL d   1       0.444   2.468   1.760  0.00  0.00    -0.002 A 
ATOM      2  C1  UNL d   1       1.691   2.321   1.169  0.00  0.00     0.010 A 
ATOM      3  C2  UNL d   1       1.941   1.265   0.290  0.00  0.00     0.041 A 
ATOM      4  C3  UNL d   1       0.905   0.352   0.011  0.00  0.00    -0.075 A 
ATOM      5  S   UNL d   1       0.981  -1.017  -1.035  0.00  0.00     0.015 SA
ATOM      6  C4  UNL d   1      -0.640  -1.439  -0.723  0.00  0.00     0.022 A 
ATOM      7  C5  UNL d   1      -1.240  -0.567   0.155  0.00  0.00     0.026 A 
ATOM      8  C6  UNL d   1      -0.359   0.479   0.592  0.00  0.00    -0.082 A 
ATOM      9  C7  UNL d   1      -0.581   1.560   1.480  0.00  0.00     0.045 A 
ENDROOT
TORSDOF 0
ENDMDL
