MODEL 1
REMARK minimizedAffinity -2.32498026
REMARK minimizedRMSD -1
REMARK  0 active torsions:
REMARK  status: ('A' for Active; 'I' for Inactive)
ROOT
ATOM      1  C   UNL d   1      -1.202  -0.637  -1.315  0.00  0.00    -0.002 A 
ATOM      2  C1  UNL d   1      -1.531  -1.132  -0.061  0.00  0.00     0.010 A 
ATOM      3  C2  UNL d   1      -0.965  -0.580   1.090  0.00  0.00     0.041 A 
ATOM      4  C3  UNL d   1      -0.057   0.488   0.959  0.00  0.00    -0.075 A 
ATOM      5  S   UNL d   1       0.759   1.322   2.229  0.00  0.00     0.015 SA
ATOM      6  C4  UNL d   1       1.562   2.354   1.137  0.00  0.00     0.022 A 
ATOM      7  C5  UNL d   1       1.228   2.084  -0.169  0.00  0.00     0.026 A 
ATOM      8  C6  UNL d   1       0.289   1.004  -0.293  0.00  0.00    -0.082 A 
ATOM      9  C7  UNL d   1      -0.300   0.423  -1.442  0.00  0.00     0.045 A 
ENDROOT
TORSDOF 0
ENDMDL
