MODEL 1
REMARK minimizedAffinity -2.44485855
REMARK minimizedRMSD -1
REMARK  0 active torsions:
REMARK  status: ('A' for Active; 'I' for Inactive)
ROOT
ATOM      1  C   UNL d   1       0.793   2.296   1.857  0.00  0.00    -0.002 A 
ATOM      2  C1  UNL d   1       2.103   2.078   1.454  0.00  0.00     0.010 A 
ATOM      3  C2  UNL d   1       2.418   1.010   0.612  0.00  0.00     0.041 A 
ATOM      4  C3  UNL d   1       1.384   0.158   0.175  0.00  0.00    -0.075 A 
ATOM      5  S   UNL d   1       1.534  -1.212  -0.861  0.00  0.00     0.015 SA
ATOM      6  C4  UNL d   1      -0.137  -1.539  -0.794  0.00  0.00     0.022 A 
ATOM      7  C5  UNL d   1      -0.808  -0.635  -0.005  0.00  0.00     0.026 A 
ATOM      8  C6  UNL d   1       0.057   0.359   0.566  0.00  0.00    -0.082 A 
ATOM      9  C7  UNL d   1      -0.230   1.449   1.421  0.00  0.00     0.045 A 
ENDROOT
TORSDOF 0
ENDMDL
