MODEL 1
REMARK minimizedAffinity -3.37084007
REMARK minimizedRMSD -1
REMARK  0 active torsions:
REMARK  status: ('A' for Active; 'I' for Inactive)
ROOT
ATOM      1  C   UNL d   1       0.220  -1.067   0.602  0.00  0.00    -0.002 A 
ATOM      2  C1  UNL d   1       1.171  -1.510  -0.307  0.00  0.00     0.010 A 
ATOM      3  C2  UNL d   1       0.848  -1.660  -1.656  0.00  0.00     0.041 A 
ATOM      4  C3  UNL d   1      -0.460  -1.354  -2.082  0.00  0.00    -0.075 A 
ATOM      5  S   UNL d   1      -1.083  -1.461  -3.686  0.00  0.00     0.015 SA
ATOM      6  C4  UNL d   1      -2.626  -0.922  -3.203  0.00  0.00     0.022 A 
ATOM      7  C5  UNL d   1      -2.682  -0.662  -1.854  0.00  0.00     0.026 A 
ATOM      8  C6  UNL d   1      -1.435  -0.906  -1.186  0.00  0.00    -0.082 A 
ATOM      9  C7  UNL d   1      -1.076  -0.764   0.176  0.00  0.00     0.045 A 
ENDROOT
TORSDOF 0
ENDMDL
