MODEL 1
REMARK minimizedAffinity -6.29317331
REMARK minimizedRMSD -1
REMARK  0 active torsions:
REMARK  status: ('A' for Active; 'I' for Inactive)
ROOT
ATOM      1  C   UNL d   1       1.872   2.918   1.705  0.00  0.00    -0.002 A 
ATOM      2  C1  UNL d   1       2.942   2.600   0.881  0.00  0.00     0.010 A 
ATOM      3  C2  UNL d   1       2.925   1.433   0.114  0.00  0.00     0.041 A 
ATOM      4  C3  UNL d   1       1.802   0.585   0.188  0.00  0.00    -0.075 A 
ATOM      5  S   UNL d   1       1.560  -0.896  -0.661  0.00  0.00     0.015 SA
ATOM      6  C4  UNL d   1       0.030  -1.139   0.049  0.00  0.00     0.022 A 
ATOM      7  C5  UNL d   1      -0.303  -0.126   0.916  0.00  0.00     0.026 A 
ATOM      8  C6  UNL d   1       0.712   0.885   1.010  0.00  0.00    -0.082 A 
ATOM      9  C7  UNL d   1       0.760   2.075   1.777  0.00  0.00     0.045 A 
ENDROOT
TORSDOF 0
ENDMDL
