MODEL 1
REMARK minimizedAffinity -2.39711738
REMARK minimizedRMSD -1
REMARK  0 active torsions:
REMARK  status: ('A' for Active; 'I' for Inactive)
ROOT
ATOM      1  C   UNL d   1       2.675   1.426   1.456  0.00  0.00    -0.002 A 
ATOM      2  C1  UNL d   1       3.142   0.728   0.351  0.00  0.00     0.010 A 
ATOM      3  C2  UNL d   1       2.262   0.004  -0.456  0.00  0.00     0.041 A 
ATOM      4  C3  UNL d   1       0.890  -0.004  -0.132  0.00  0.00    -0.075 A 
ATOM      5  S   UNL d   1      -0.372  -0.819  -0.977  0.00  0.00     0.015 SA
ATOM      6  C4  UNL d   1      -1.561  -0.258   0.108  0.00  0.00     0.022 A 
ATOM      7  C5  UNL d   1      -1.026   0.532   1.097  0.00  0.00     0.026 A 
ATOM      8  C6  UNL d   1       0.396   0.693   0.974  0.00  0.00    -0.082 A 
ATOM      9  C7  UNL d   1       1.314   1.416   1.774  0.00  0.00     0.045 A 
ENDROOT
TORSDOF 0
ENDMDL
