MODEL 1
REMARK minimizedAffinity -5.42640781
REMARK minimizedRMSD -1
REMARK  0 active torsions:
REMARK  status: ('A' for Active; 'I' for Inactive)
ROOT
ATOM      1  C   UNL d   1      -1.381  -0.760   0.694  0.00  0.00    -0.002 A 
ATOM      2  C1  UNL d   1      -0.555  -1.474  -0.163  0.00  0.00     0.010 A 
ATOM      3  C2  UNL d   1       0.755  -1.054  -0.400  0.00  0.00     0.041 A 
ATOM      4  C3  UNL d   1       1.226   0.106   0.246  0.00  0.00    -0.075 A 
ATOM      5  S   UNL d   1       2.795   0.808   0.107  0.00  0.00     0.015 SA
ATOM      6  C4  UNL d   1       2.406   2.072   1.183  0.00  0.00     0.022 A 
ATOM      7  C5  UNL d   1       1.115   1.976   1.646  0.00  0.00     0.026 A 
ATOM      8  C6  UNL d   1       0.414   0.841   1.114  0.00  0.00    -0.082 A 
ATOM      9  C7  UNL d   1      -0.910   0.390   1.334  0.00  0.00     0.045 A 
ENDROOT
TORSDOF 0
ENDMDL
