MODEL 1
REMARK minimizedAffinity -5.75582552
REMARK minimizedRMSD -1
REMARK  0 active torsions:
REMARK  status: ('A' for Active; 'I' for Inactive)
ROOT
ATOM      1  C   UNL d   1       1.852   3.011   1.628  0.00  0.00    -0.002 A 
ATOM      2  C1  UNL d   1       2.903   2.488   0.888  0.00  0.00     0.010 A 
ATOM      3  C2  UNL d   1       2.760   1.275   0.211  0.00  0.00     0.041 A 
ATOM      4  C3  UNL d   1       1.531   0.591   0.289  0.00  0.00    -0.075 A 
ATOM      5  S   UNL d   1       1.127  -0.909  -0.458  0.00  0.00     0.015 SA
ATOM      6  C4  UNL d   1      -0.450  -0.891   0.187  0.00  0.00     0.022 A 
ATOM      7  C5  UNL d   1      -0.680   0.225   0.956  0.00  0.00     0.026 A 
ATOM      8  C6  UNL d   1       0.458   1.098   1.027  0.00  0.00    -0.082 A 
ATOM      9  C7  UNL d   1       0.634   2.329   1.703  0.00  0.00     0.045 A 
ENDROOT
TORSDOF 0
ENDMDL
