MODEL 1
REMARK minimizedAffinity -5.66882038
REMARK minimizedRMSD -1
REMARK  0 active torsions:
REMARK  status: ('A' for Active; 'I' for Inactive)
ROOT
ATOM      1  C   UNL d   1       2.455   2.570   1.231  0.00  0.00    -0.002 A 
ATOM      2  C1  UNL d   1       3.331   1.986   0.326  0.00  0.00     0.010 A 
ATOM      3  C2  UNL d   1       3.037   0.749  -0.250  0.00  0.00     0.041 A 
ATOM      4  C3  UNL d   1       1.836   0.102   0.102  0.00  0.00    -0.075 A 
ATOM      5  S   UNL d   1       1.266  -1.419  -0.477  0.00  0.00     0.015 SA
ATOM      6  C4  UNL d   1      -0.153  -1.330   0.463  0.00  0.00     0.022 A 
ATOM      7  C5  UNL d   1      -0.207  -0.175   1.206  0.00  0.00     0.026 A 
ATOM      8  C6  UNL d   1       0.938   0.670   1.010  0.00  0.00    -0.082 A 
ATOM      9  C7  UNL d   1       1.265   1.925   1.577  0.00  0.00     0.045 A 
ENDROOT
TORSDOF 0
ENDMDL
