MODEL 1
REMARK minimizedAffinity -3.30934119
REMARK minimizedRMSD -1
REMARK  0 active torsions:
REMARK  status: ('A' for Active; 'I' for Inactive)
ROOT
ATOM      1  C   UNL d   1       2.487   2.604   0.792  0.00  0.00    -0.002 A 
ATOM      2  C1  UNL d   1       3.418   1.802   0.147  0.00  0.00     0.010 A 
ATOM      3  C2  UNL d   1       3.040   0.575  -0.402  0.00  0.00     0.041 A 
ATOM      4  C3  UNL d   1       1.697   0.164  -0.292  0.00  0.00    -0.075 A 
ATOM      5  S   UNL d   1       1.005  -1.298  -0.888  0.00  0.00     0.015 SA
ATOM      6  C4  UNL d   1      -0.543  -0.893  -0.301  0.00  0.00     0.022 A 
ATOM      7  C5  UNL d   1      -0.549   0.324   0.338  0.00  0.00     0.026 A 
ATOM      8  C6  UNL d   1       0.741   0.954   0.353  0.00  0.00    -0.082 A 
ATOM      9  C7  UNL d   1       1.156   2.192   0.900  0.00  0.00     0.045 A 
ENDROOT
TORSDOF 0
ENDMDL
