MODEL 1
REMARK minimizedAffinity -1.39907992
REMARK minimizedRMSD -1
REMARK  0 active torsions:
REMARK  status: ('A' for Active; 'I' for Inactive)
ROOT
ATOM      1  C   UNL d   1      -0.544  -1.340  -0.212  0.00  0.00    -0.002 A 
ATOM      2  C1  UNL d   1       0.631  -1.843  -0.753  0.00  0.00     0.010 A 
ATOM      3  C2  UNL d   1       1.862  -1.266  -0.437  0.00  0.00     0.041 A 
ATOM      4  C3  UNL d   1       1.893  -0.165   0.442  0.00  0.00    -0.075 A 
ATOM      5  S   UNL d   1       3.286   0.702   0.973  0.00  0.00     0.015 SA
ATOM      6  C4  UNL d   1       2.354   1.759   1.931  0.00  0.00     0.022 A 
ATOM      7  C5  UNL d   1       1.011   1.472   1.860  0.00  0.00     0.026 A 
ATOM      8  C6  UNL d   1       0.724   0.358   1.001  0.00  0.00    -0.082 A 
ATOM      9  C7  UNL d   1      -0.509  -0.249   0.660  0.00  0.00     0.045 A 
ENDROOT
TORSDOF 0
ENDMDL
