MODEL 1
REMARK minimizedAffinity 10.7384872
REMARK minimizedRMSD -1
REMARK  0 active torsions:
REMARK  status: ('A' for Active; 'I' for Inactive)
ROOT
ATOM      1  C   UNL d   1       1.849  -0.340  -0.349  0.00  0.00    -0.002 A 
ATOM      2  C1  UNL d   1       1.839  -0.828  -1.648  0.00  0.00     0.010 A 
ATOM      3  C2  UNL d   1       2.630  -0.236  -2.635  0.00  0.00     0.041 A 
ATOM      4  C3  UNL d   1       3.440   0.864  -2.289  0.00  0.00    -0.075 A 
ATOM      5  S   UNL d   1       4.492   1.748  -3.331  0.00  0.00     0.015 SA
ATOM      6  C4  UNL d   1       4.979   2.792  -2.076  0.00  0.00     0.022 A 
ATOM      7  C5  UNL d   1       4.364   2.489  -0.885  0.00  0.00     0.026 A 
ATOM      8  C6  UNL d   1       3.468   1.372  -0.988  0.00  0.00    -0.082 A 
ATOM      9  C7  UNL d   1       2.654   0.751  -0.010  0.00  0.00     0.045 A 
ENDROOT
TORSDOF 0
ENDMDL
