MODEL 1
REMARK minimizedAffinity 6.11378574
REMARK minimizedRMSD -1
REMARK  0 active torsions:
REMARK  status: ('A' for Active; 'I' for Inactive)
ROOT
ATOM      1  C   UNL d   1       1.521  -0.519   1.668  0.00  0.00     0.023 A 
ATOM      2  C1  UNL d   1       1.637  -1.190   0.451  0.00  0.00     0.003 A 
ATOM      3  C2  UNL d   1       0.686  -0.988  -0.552  0.00  0.00     0.048 A 
ATOM      4  C3  UNL d   1      -0.377  -0.113  -0.331  0.00  0.00     0.023 A 
ATOM      5  C4  UNL d   1      -0.496   0.562   0.886  0.00  0.00     0.048 A 
ATOM      6  C5  UNL d   1       0.457   0.355   1.886  0.00  0.00     0.003 A 
ATOM      7  I   UNL d   1      -1.793   0.190  -1.822  0.00  0.00    -0.146 I 
ENDROOT
TORSDOF 0
ENDMDL
