MODEL 1
REMARK minimizedAffinity 2.83394408
REMARK minimizedRMSD -1
REMARK  0 active torsions:
REMARK  status: ('A' for Active; 'I' for Inactive)
ROOT
ATOM      1  C   UNL d   1       1.169  -0.085   2.224  0.00  0.00     0.023 A 
ATOM      2  C1  UNL d   1      -0.197   0.023   2.489  0.00  0.00     0.003 A 
ATOM      3  C2  UNL d   1      -1.097   0.236   1.443  0.00  0.00     0.048 A 
ATOM      4  C3  UNL d   1      -0.625   0.338   0.134  0.00  0.00     0.023 A 
ATOM      5  C4  UNL d   1       0.740   0.229  -0.135  0.00  0.00     0.048 A 
ATOM      6  C5  UNL d   1       1.637   0.017   0.914  0.00  0.00     0.003 A 
ATOM      7  I   UNL d   1      -1.963   0.653  -1.424  0.00  0.00    -0.146 I 
ENDROOT
TORSDOF 0
ENDMDL
