MODEL 1
REMARK minimizedAffinity 4.33101511
REMARK minimizedRMSD -1
REMARK  0 active torsions:
REMARK  status: ('A' for Active; 'I' for Inactive)
ROOT
ATOM      1  C   UNL d   1      -3.189  -0.883  -3.948  0.00  0.00     0.023 A 
ATOM      2  C1  UNL d   1      -1.847  -1.265  -3.928  0.00  0.00     0.003 A 
ATOM      3  C2  UNL d   1      -0.959  -0.653  -3.042  0.00  0.00     0.048 A 
ATOM      4  C3  UNL d   1      -1.418   0.341  -2.178  0.00  0.00     0.023 A 
ATOM      5  C4  UNL d   1      -2.760   0.726  -2.194  0.00  0.00     0.048 A 
ATOM      6  C5  UNL d   1      -3.645   0.111  -3.082  0.00  0.00     0.003 A 
ATOM      7  I   UNL d   1      -0.098   1.254  -0.858  0.00  0.00    -0.146 I 
ENDROOT
TORSDOF 0
ENDMDL
