MODEL 1
REMARK minimizedAffinity 0.219623297
REMARK minimizedRMSD -1
REMARK  0 active torsions:
REMARK  status: ('A' for Active; 'I' for Inactive)
ROOT
ATOM      1  N1  IND d   1       0.790  -3.179   0.217  0.00  0.00    -0.196 N 
ATOM      2  C2  IND d   1      -0.422  -3.808   0.163  0.00  0.00     0.054 A 
ATOM      3  C3  IND d   1      -1.421  -2.900   0.092  0.00  0.00    -0.031 A 
ATOM      4  C4  IND d   1      -1.291  -0.333  -0.053  0.00  0.00     0.051 A 
ATOM      5  C5  IND d   1      -0.403   0.705  -0.002  0.00  0.00    -0.031 A 
ATOM      6  C6  IND d   1       0.955   0.497   0.124  0.00  0.00     0.015 A 
ATOM      7  C7  IND d   1       1.480  -0.763   0.193  0.00  0.00    -0.016 A 
ATOM      8  C8  IND d   1       0.581  -1.819   0.149  0.00  0.00    -0.047 A 
ATOM      9  C9  IND d   1      -0.802  -1.613   0.064  0.00  0.00    -0.096 A 
ATOM     10  HN1 IND d   1       1.554  -3.567   0.282  0.00  0.00     0.298 HD
ENDROOT
TORSDOF 0
ENDMDL
