MODEL 1
REMARK minimizedAffinity -2.9581604
REMARK minimizedRMSD -1
REMARK  0 active torsions:
REMARK  status: ('A' for Active; 'I' for Inactive)
ROOT
ATOM      1  N1  IND d   1       1.195  -0.544   1.675  0.00  0.00    -0.196 N 
ATOM      2  C2  IND d   1       0.144  -1.174   1.069  0.00  0.00     0.054 A 
ATOM      3  C3  IND d   1      -0.474  -0.334   0.207  0.00  0.00    -0.031 A 
ATOM      4  C4  IND d   1       0.134   2.082  -0.442  0.00  0.00     0.051 A 
ATOM      5  C5  IND d   1       0.992   3.098  -0.128  0.00  0.00    -0.031 A 
ATOM      6  C6  IND d   1       1.983   2.948   0.821  0.00  0.00     0.015 A 
ATOM      7  C7  IND d   1       2.161   1.768   1.485  0.00  0.00    -0.016 A 
ATOM      8  C8  IND d   1       1.288   0.736   1.173  0.00  0.00    -0.047 A 
ATOM      9  C9  IND d   1       0.253   0.895   0.243  0.00  0.00    -0.096 A 
ATOM     10  HN1 IND d   1       1.712  -0.889   2.269  0.00  0.00     0.298 HD
ENDROOT
TORSDOF 0
ENDMDL
