MODEL 1
REMARK minimizedAffinity 1.10580909
REMARK minimizedRMSD -1
REMARK  0 active torsions:
REMARK  status: ('A' for Active; 'I' for Inactive)
ROOT
ATOM      1  N1  IND d   1       1.176   0.427  -0.342  0.00  0.00    -0.196 N 
ATOM      2  C2  IND d   1      -0.079   0.397  -0.885  0.00  0.00     0.054 A 
ATOM      3  C3  IND d   1      -0.703   1.580  -0.692  0.00  0.00    -0.031 A 
ATOM      4  C4  IND d   1       0.183   3.739   0.396  0.00  0.00     0.051 A 
ATOM      5  C5  IND d   1       1.259   4.241   1.071  0.00  0.00    -0.031 A 
ATOM      6  C6  IND d   1       2.387   3.483   1.312  0.00  0.00     0.015 A 
ATOM      7  C7  IND d   1       2.485   2.193   0.875  0.00  0.00    -0.016 A 
ATOM      8  C8  IND d   1       1.391   1.677   0.195  0.00  0.00    -0.047 A 
ATOM      9  C9  IND d   1       0.227   2.427  -0.015  0.00  0.00    -0.096 A 
ATOM     10  HN1 IND d   1       1.736  -0.225  -0.337  0.00  0.00     0.298 HD
ENDROOT
TORSDOF 0
ENDMDL
