MODEL 1
REMARK minimizedAffinity -2.80323291
REMARK minimizedRMSD -1
REMARK  0 active torsions:
REMARK  status: ('A' for Active; 'I' for Inactive)
ROOT
ATOM      1  N1  IND d   1      -0.194  -3.089  -0.838  0.00  0.00    -0.196 N 
ATOM      2  C2  IND d   1      -0.608  -3.575   0.371  0.00  0.00     0.054 A 
ATOM      3  C3  IND d   1      -0.813  -2.560   1.240  0.00  0.00    -0.031 A 
ATOM      4  C4  IND d   1      -0.630  -0.020   0.862  0.00  0.00     0.051 A 
ATOM      5  C5  IND d   1      -0.252   0.906  -0.070  0.00  0.00    -0.031 A 
ATOM      6  C6  IND d   1       0.171   0.540  -1.331  0.00  0.00     0.015 A 
ATOM      7  C7  IND d   1       0.221  -0.771  -1.714  0.00  0.00    -0.016 A 
ATOM      8  C8  IND d   1      -0.156  -1.714  -0.768  0.00  0.00    -0.047 A 
ATOM      9  C9  IND d   1      -0.546  -1.351   0.527  0.00  0.00    -0.096 A 
ATOM     10  HN1 IND d   1       0.008  -3.563  -1.527  0.00  0.00     0.298 HD
ENDROOT
TORSDOF 0
ENDMDL
