MODEL 1
REMARK minimizedAffinity -1.42495966
REMARK minimizedRMSD -1
REMARK  0 active torsions:
REMARK  status: ('A' for Active; 'I' for Inactive)
ROOT
ATOM      1  N1  IND d   1      -0.323  -0.877  -0.566  0.00  0.00    -0.196 N 
ATOM      2  C2  IND d   1      -0.239  -1.290   0.735  0.00  0.00     0.054 A 
ATOM      3  C3  IND d   1       0.228  -0.290   1.516  0.00  0.00    -0.031 A 
ATOM      4  C4  IND d   1       0.822   2.135   0.888  0.00  0.00     0.051 A 
ATOM      5  C5  IND d   1       0.942   2.971  -0.187  0.00  0.00    -0.031 A 
ATOM      6  C6  IND d   1       0.638   2.559  -1.468  0.00  0.00     0.015 A 
ATOM      7  C7  IND d   1       0.189   1.294  -1.722  0.00  0.00    -0.016 A 
ATOM      8  C8  IND d   1       0.073   0.440  -0.634  0.00  0.00    -0.047 A 
ATOM      9  C9  IND d   1       0.421   0.839   0.663  0.00  0.00    -0.096 A 
ATOM     10  HN1 IND d   1      -0.580  -1.360  -1.229  0.00  0.00     0.298 HD
ENDROOT
TORSDOF 0
ENDMDL
