MODEL 1
REMARK minimizedAffinity -5.29116344
REMARK minimizedRMSD -1
REMARK  0 active torsions:
REMARK  status: ('A' for Active; 'I' for Inactive)
ROOT
ATOM      1  N1  IND d   1      -0.171   0.647  -1.376  0.00  0.00    -0.196 N 
ATOM      2  C2  IND d   1      -0.586   1.015  -0.127  0.00  0.00     0.054 A 
ATOM      3  C3  IND d   1      -1.066  -0.057   0.544  0.00  0.00    -0.031 A 
ATOM      4  C4  IND d   1      -1.171  -2.525  -0.179  0.00  0.00     0.051 A 
ATOM      5  C5  IND d   1      -0.942  -3.345  -1.248  0.00  0.00    -0.031 A 
ATOM      6  C6  IND d   1      -0.432  -2.867  -2.437  0.00  0.00     0.015 A 
ATOM      7  C7  IND d   1      -0.119  -1.547  -2.599  0.00  0.00    -0.016 A 
ATOM      8  C8  IND d   1      -0.357  -0.710  -1.518  0.00  0.00    -0.047 A 
ATOM      9  C9  IND d   1      -0.914  -1.182  -0.323  0.00  0.00    -0.096 A 
ATOM     10  HN1 IND d   1       0.152   1.175  -1.973  0.00  0.00     0.298 HD
ENDROOT
TORSDOF 0
ENDMDL
