MODEL 1
REMARK minimizedAffinity -4.01123476
REMARK minimizedRMSD -1
REMARK  0 active torsions:
REMARK  status: ('A' for Active; 'I' for Inactive)
ROOT
ATOM      1  N1  IND d   1      -0.863  -1.777   1.388  0.00  0.00    -0.196 N 
ATOM      2  C2  IND d   1      -0.410  -0.497   1.552  0.00  0.00     0.054 A 
ATOM      3  C3  IND d   1      -0.002   0.012   0.367  0.00  0.00    -0.031 A 
ATOM      4  C4  IND d   1      -0.082  -1.041  -1.980  0.00  0.00     0.051 A 
ATOM      5  C5  IND d   1      -0.379  -2.207  -2.629  0.00  0.00    -0.031 A 
ATOM      6  C6  IND d   1      -0.865  -3.310  -1.958  0.00  0.00     0.015 A 
ATOM      7  C7  IND d   1      -1.084  -3.285  -0.609  0.00  0.00    -0.016 A 
ATOM      8  C8  IND d   1      -0.776  -2.105   0.053  0.00  0.00    -0.047 A 
ATOM      9  C9  IND d   1      -0.243  -0.996  -0.616  0.00  0.00    -0.096 A 
ATOM     10  HN1 IND d   1      -1.152  -2.290   2.014  0.00  0.00     0.298 HD
ENDROOT
TORSDOF 0
ENDMDL
