MODEL 1
REMARK minimizedAffinity -4.85560989
REMARK minimizedRMSD -1
REMARK  0 active torsions:
REMARK  status: ('A' for Active; 'I' for Inactive)
ROOT
ATOM      1  N1  IND d   1       0.432  -2.443  -0.936  0.00  0.00    -0.196 N 
ATOM      2  C2  IND d   1      -0.062  -3.434  -0.134  0.00  0.00     0.054 A 
ATOM      3  C3  IND d   1      -0.655  -2.903   0.959  0.00  0.00    -0.031 A 
ATOM      4  C4  IND d   1      -1.021  -0.432   1.583  0.00  0.00     0.051 A 
ATOM      5  C5  IND d   1      -0.716   0.837   1.180  0.00  0.00    -0.031 A 
ATOM      6  C6  IND d   1       0.000   1.084   0.027  0.00  0.00     0.015 A 
ATOM      7  C7  IND d   1       0.429   0.065  -0.777  0.00  0.00    -0.016 A 
ATOM      8  C8  IND d   1       0.127  -1.226  -0.367  0.00  0.00    -0.047 A 
ATOM      9  C9  IND d   1      -0.563  -1.484   0.825  0.00  0.00    -0.096 A 
ATOM     10  HN1 IND d   1       0.861  -2.560  -1.672  0.00  0.00     0.298 HD
ENDROOT
TORSDOF 0
ENDMDL
