MODEL 1
REMARK minimizedAffinity -5.97836685
REMARK minimizedRMSD -1
REMARK  0 active torsions:
REMARK  status: ('A' for Active; 'I' for Inactive)
ROOT
ATOM      1  N1  IND d   1       0.033  -1.572  -2.638  0.00  0.00    -0.196 N 
ATOM      2  C2  IND d   1      -0.039  -2.935  -2.576  0.00  0.00     0.054 A 
ATOM      3  C3  IND d   1      -0.348  -3.334  -1.322  0.00  0.00    -0.031 A 
ATOM      4  C4  IND d   1      -0.879  -1.917   0.760  0.00  0.00     0.051 A 
ATOM      5  C5  IND d   1      -0.906  -0.625   1.206  0.00  0.00    -0.031 A 
ATOM      6  C6  IND d   1      -0.617   0.439   0.376  0.00  0.00     0.015 A 
ATOM      7  C7  IND d   1      -0.302   0.250  -0.940  0.00  0.00    -0.016 A 
ATOM      8  C8  IND d   1      -0.267  -1.060  -1.394  0.00  0.00    -0.047 A 
ATOM      9  C9  IND d   1      -0.517  -2.147  -0.546  0.00  0.00    -0.096 A 
ATOM     10  HN1 IND d   1       0.232  -1.111  -3.336  0.00  0.00     0.298 HD
ENDROOT
TORSDOF 0
ENDMDL
