MODEL 1
REMARK minimizedAffinity -5.88074541
REMARK minimizedRMSD -1
REMARK  0 active torsions:
REMARK  status: ('A' for Active; 'I' for Inactive)
ROOT
ATOM      1  N1  IND d   1      -0.537   0.225  -1.896  0.00  0.00    -0.196 N 
ATOM      2  C2  IND d   1      -0.071   0.912  -0.809  0.00  0.00     0.054 A 
ATOM      3  C3  IND d   1       0.477   0.061   0.086  0.00  0.00    -0.031 A 
ATOM      4  C4  IND d   1       0.809  -2.487  -0.070  0.00  0.00     0.051 A 
ATOM      5  C5  IND d   1       0.514  -3.565  -0.857  0.00  0.00    -0.031 A 
ATOM      6  C6  IND d   1      -0.157  -3.432  -2.055  0.00  0.00     0.015 A 
ATOM      7  C7  IND d   1      -0.550  -2.209  -2.519  0.00  0.00    -0.016 A 
ATOM      8  C8  IND d   1      -0.259  -1.113  -1.720  0.00  0.00    -0.047 A 
ATOM      9  C9  IND d   1       0.384  -1.246  -0.483  0.00  0.00    -0.096 A 
ATOM     10  HN1 IND d   1      -0.936   0.570  -2.574  0.00  0.00     0.298 HD
ENDROOT
TORSDOF 0
ENDMDL
