MODEL 1
REMARK minimizedAffinity -6.14732552
REMARK minimizedRMSD -1
REMARK  0 active torsions:
REMARK  status: ('A' for Active; 'I' for Inactive)
ROOT
ATOM      1  N1  IND d   1      -0.147   0.486  -0.955  0.00  0.00    -0.196 N 
ATOM      2  C2  IND d   1      -0.954   0.976   0.033  0.00  0.00     0.054 A 
ATOM      3  C3  IND d   1      -1.387  -0.027   0.828  0.00  0.00    -0.031 A 
ATOM      4  C4  IND d   1      -0.813  -2.536   0.754  0.00  0.00     0.051 A 
ATOM      5  C5  IND d   1      -0.145  -3.467   0.009  0.00  0.00    -0.031 A 
ATOM      6  C6  IND d   1       0.574  -3.120  -1.117  0.00  0.00     0.015 A 
ATOM      7  C7  IND d   1       0.661  -1.822  -1.535  0.00  0.00    -0.016 A 
ATOM      8  C8  IND d   1      -0.023  -0.875  -0.785  0.00  0.00    -0.047 A 
ATOM      9  C9  IND d   1      -0.788  -1.227   0.334  0.00  0.00    -0.096 A 
ATOM     10  HN1 IND d   1       0.222   0.950  -1.579  0.00  0.00     0.298 HD
ENDROOT
TORSDOF 0
ENDMDL
