MODEL 1
REMARK minimizedAffinity -5.89718008
REMARK minimizedRMSD -1
REMARK  0 active torsions:
REMARK  status: ('A' for Active; 'I' for Inactive)
ROOT
ATOM      1  N1  IND d   1      -0.489  -1.062  -2.950  0.00  0.00    -0.196 N 
ATOM      2  C2  IND d   1      -0.400  -2.260  -3.602  0.00  0.00     0.054 A 
ATOM      3  C3  IND d   1      -0.326  -3.276  -2.713  0.00  0.00    -0.031 A 
ATOM      4  C4  IND d   1      -0.438  -3.210  -0.142  0.00  0.00     0.051 A 
ATOM      5  C5  IND d   1      -0.481  -2.342   0.912  0.00  0.00    -0.031 A 
ATOM      6  C6  IND d   1      -0.533  -0.975   0.730  0.00  0.00     0.015 A 
ATOM      7  C7  IND d   1      -0.555  -0.424  -0.520  0.00  0.00    -0.016 A 
ATOM      8  C8  IND d   1      -0.504  -1.302  -1.593  0.00  0.00    -0.047 A 
ATOM      9  C9  IND d   1      -0.408  -2.688  -1.414  0.00  0.00    -0.096 A 
ATOM     10  HN1 IND d   1      -0.529  -0.289  -3.323  0.00  0.00     0.298 HD
ENDROOT
TORSDOF 0
ENDMDL
