MODEL 1
REMARK minimizedAffinity -2.30132961
REMARK minimizedRMSD -1
REMARK  0 active torsions:
REMARK  status: ('A' for Active; 'I' for Inactive)
ROOT
ATOM      1  N1  IND d   1       0.756   0.345  -0.277  0.00  0.00    -0.196 N 
ATOM      2  C2  IND d   1       0.764   0.653   1.055  0.00  0.00     0.054 A 
ATOM      3  C3  IND d   1       0.369  -0.414   1.786  0.00  0.00    -0.031 A 
ATOM      4  C4  IND d   1      -0.239  -2.793   1.012  0.00  0.00     0.051 A 
ATOM      5  C5  IND d   1      -0.427  -3.544  -0.114  0.00  0.00    -0.031 A 
ATOM      6  C6  IND d   1      -0.224  -3.028  -1.377  0.00  0.00     0.015 A 
ATOM      7  C7  IND d   1       0.188  -1.738  -1.562  0.00  0.00    -0.016 A 
ATOM      8  C8  IND d   1       0.373  -0.970  -0.421  0.00  0.00    -0.047 A 
ATOM      9  C9  IND d   1       0.128  -1.476   0.862  0.00  0.00    -0.096 A 
ATOM     10  HN1 IND d   1       0.956   0.883  -0.918  0.00  0.00     0.298 HD
ENDROOT
TORSDOF 0
ENDMDL
