MODEL 1
REMARK minimizedAffinity -2.22503567
REMARK minimizedRMSD -1
REMARK  0 active torsions:
REMARK  status: ('A' for Active; 'I' for Inactive)
ROOT
ATOM      1  N1  IND d   1      -0.230  -1.296  -2.551  0.00  0.00    -0.196 N 
ATOM      2  C2  IND d   1      -0.567  -2.597  -2.804  0.00  0.00     0.054 A 
ATOM      3  C3  IND d   1      -0.933  -3.219  -1.661  0.00  0.00    -0.031 A 
ATOM      4  C4  IND d   1      -1.152  -2.268   0.721  0.00  0.00     0.051 A 
ATOM      5  C5  IND d   1      -0.920  -1.139   1.456  0.00  0.00    -0.031 A 
ATOM      6  C6  IND d   1      -0.439   0.020   0.880  0.00  0.00     0.015 A 
ATOM      7  C7  IND d   1      -0.182   0.096  -0.459  0.00  0.00    -0.016 A 
ATOM      8  C8  IND d   1      -0.410  -1.050  -1.207  0.00  0.00    -0.047 A 
ATOM      9  C9  IND d   1      -0.857  -2.242  -0.622  0.00  0.00    -0.096 A 
ATOM     10  HN1 IND d   1       0.047  -0.727  -3.133  0.00  0.00     0.298 HD
ENDROOT
TORSDOF 0
ENDMDL
