MODEL 1
REMARK minimizedAffinity -4.1479764
REMARK minimizedRMSD -1
REMARK  0 active torsions:
REMARK  status: ('A' for Active; 'I' for Inactive)
ROOT
ATOM      1  N1  IND d   1       0.783   2.255  -0.427  0.00  0.00    -0.196 N 
ATOM      2  C2  IND d   1       1.672   2.843   0.429  0.00  0.00     0.054 A 
ATOM      3  C3  IND d   1       1.650   2.222   1.629  0.00  0.00    -0.031 A 
ATOM      4  C4  IND d   1       0.308   0.156   2.378  0.00  0.00     0.051 A 
ATOM      5  C5  IND d   1      -0.664  -0.707   1.957  0.00  0.00    -0.031 A 
ATOM      6  C6  IND d   1      -1.213  -0.627   0.693  0.00  0.00     0.015 A 
ATOM      7  C7  IND d   1      -0.800   0.316  -0.205  0.00  0.00    -0.016 A 
ATOM      8  C8  IND d   1       0.182   1.199   0.222  0.00  0.00    -0.047 A 
ATOM      9  C9  IND d   1       0.712   1.150   1.518  0.00  0.00    -0.096 A 
ATOM     10  HN1 IND d   1       0.626   2.503  -1.235  0.00  0.00     0.298 HD
ENDROOT
TORSDOF 0
ENDMDL
