MODEL 1
REMARK minimizedAffinity -3.62494707
REMARK minimizedRMSD -1
REMARK  0 active torsions:
REMARK  status: ('A' for Active; 'I' for Inactive)
ROOT
ATOM      1  N1  IND d   1      -0.759  -0.290   0.707  0.00  0.00    -0.196 N 
ATOM      2  C2  IND d   1      -0.417   0.689  -0.184  0.00  0.00     0.054 A 
ATOM      3  C3  IND d   1       0.077   0.143  -1.317  0.00  0.00    -0.031 A 
ATOM      4  C4  IND d   1       0.319  -2.336  -1.967  0.00  0.00     0.051 A 
ATOM      5  C5  IND d   1       0.175  -3.600  -1.467  0.00  0.00    -0.031 A 
ATOM      6  C6  IND d   1      -0.301  -3.830  -0.192  0.00  0.00     0.015 A 
ATOM      7  C7  IND d   1      -0.661  -2.800   0.630  0.00  0.00    -0.016 A 
ATOM      8  C8  IND d   1      -0.509  -1.515   0.128  0.00  0.00    -0.047 A 
ATOM      9  C9  IND d   1       0.013  -1.274  -1.149  0.00  0.00    -0.096 A 
ATOM     10  HN1 IND d   1      -1.076  -0.162   1.496  0.00  0.00     0.298 HD
ENDROOT
TORSDOF 0
ENDMDL
