MODEL 1
REMARK minimizedAffinity -1.45950282
REMARK minimizedRMSD -1
REMARK  0 active torsions:
REMARK  status: ('A' for Active; 'I' for Inactive)
ROOT
ATOM      1  N1  IND d   1       0.236  -0.954  -2.499  0.00  0.00    -0.196 N 
ATOM      2  C2  IND d   1      -0.209  -2.171  -2.936  0.00  0.00     0.054 A 
ATOM      3  C3  IND d   1      -0.826  -2.834  -1.933  0.00  0.00    -0.031 A 
ATOM      4  C4  IND d   1      -1.307  -2.072   0.479  0.00  0.00     0.051 A 
ATOM      5  C5  IND d   1      -1.061  -1.053   1.356  0.00  0.00    -0.031 A 
ATOM      6  C6  IND d   1      -0.359   0.076   0.984  0.00  0.00     0.015 A 
ATOM      7  C7  IND d   1       0.116   0.232  -0.287  0.00  0.00    -0.016 A 
ATOM      8  C8  IND d   1      -0.125  -0.804  -1.178  0.00  0.00    -0.047 A 
ATOM      9  C9  IND d   1      -0.800  -1.970  -0.795  0.00  0.00    -0.096 A 
ATOM     10  HN1 IND d   1       0.669  -0.380  -2.970  0.00  0.00     0.298 HD
ENDROOT
TORSDOF 0
ENDMDL
