MODEL 1
REMARK minimizedAffinity -3.87340426
REMARK minimizedRMSD -1
REMARK  0 active torsions:
REMARK  status: ('A' for Active; 'I' for Inactive)
ROOT
ATOM      1  C1  BNZ d   1      -0.461  -0.709   1.290  0.00  0.00     0.000 A 
ATOM      2  C2  BNZ d   1       0.271   0.231   0.613  0.00  0.00     0.000 A 
ATOM      3  C3  BNZ d   1       1.499   0.622   1.068  0.00  0.00     0.000 A 
ATOM      4  C4  BNZ d   1       1.976   0.105   2.219  0.00  0.00     0.000 A 
ATOM      5  C5  BNZ d   1       1.246  -0.836   2.917  0.00  0.00     0.000 A 
ATOM      6  C6  BNZ d   1       0.028  -1.257   2.436  0.00  0.00     0.000 A 
ENDROOT
TORSDOF 0
ENDMDL
