MODEL 1
REMARK minimizedAffinity -4.61255789
REMARK minimizedRMSD -1
REMARK  0 active torsions:
REMARK  status: ('A' for Active; 'I' for Inactive)
ROOT
ATOM      1  C1  BNZ d   1      -0.894  -0.623   1.246  0.00  0.00     0.000 A 
ATOM      2  C2  BNZ d   1      -0.309  -1.158   2.363  0.00  0.00     0.000 A 
ATOM      3  C3  BNZ d   1       1.043  -1.079   2.551  0.00  0.00     0.000 A 
ATOM      4  C4  BNZ d   1       1.811  -0.502   1.605  0.00  0.00     0.000 A 
ATOM      5  C5  BNZ d   1       1.238   0.034   0.469  0.00  0.00     0.000 A 
ATOM      6  C6  BNZ d   1      -0.127  -0.013   0.302  0.00  0.00     0.000 A 
ENDROOT
TORSDOF 0
ENDMDL
