MODEL 1
REMARK minimizedAffinity -3.06170487
REMARK minimizedRMSD -1
REMARK  0 active torsions:
REMARK  status: ('A' for Active; 'I' for Inactive)
ROOT
ATOM      1  C1  BNZ d   1      -0.254  -0.148   2.428  0.00  0.00     0.000 A 
ATOM      2  C2  BNZ d   1      -1.235  -0.301   1.484  0.00  0.00     0.000 A 
ATOM      3  C3  BNZ d   1      -0.923  -0.370   0.155  0.00  0.00     0.000 A 
ATOM      4  C4  BNZ d   1       0.364  -0.247  -0.231  0.00  0.00     0.000 A 
ATOM      5  C5  BNZ d   1       1.363  -0.083   0.708  0.00  0.00     0.000 A 
ATOM      6  C6  BNZ d   1       1.049  -0.053   2.048  0.00  0.00     0.000 A 
ENDROOT
TORSDOF 0
ENDMDL
