MODEL 1
REMARK minimizedAffinity -4.95155716
REMARK minimizedRMSD -1
REMARK  0 active torsions:
REMARK  status: ('A' for Active; 'I' for Inactive)
ROOT
ATOM      1  C1  BNZ d   1       1.397   0.006   0.547  0.00  0.00     0.000 A 
ATOM      2  C2  BNZ d   1       2.000  -0.558   1.640  0.00  0.00     0.000 A 
ATOM      3  C3  BNZ d   1       1.254  -1.077   2.661  0.00  0.00     0.000 A 
ATOM      4  C4  BNZ d   1      -0.091  -0.996   2.607  0.00  0.00     0.000 A 
ATOM      5  C5  BNZ d   1      -0.714  -0.422   1.516  0.00  0.00     0.000 A 
ATOM      6  C6  BNZ d   1       0.039   0.064   0.473  0.00  0.00     0.000 A 
ENDROOT
TORSDOF 0
ENDMDL
