MODEL 1
REMARK minimizedAffinity -3.41704154
REMARK minimizedRMSD -1
REMARK  0 active torsions:
REMARK  status: ('A' for Active; 'I' for Inactive)
ROOT
ATOM      1  C1  BNZ d   1       1.817  -0.532   1.640  0.00  0.00     0.000 A 
ATOM      2  C2  BNZ d   1       1.355  -0.209   0.392  0.00  0.00     0.000 A 
ATOM      3  C3  BNZ d   1       0.017  -0.222   0.116  0.00  0.00     0.000 A 
ATOM      4  C4  BNZ d   1      -0.855  -0.596   1.075  0.00  0.00     0.000 A 
ATOM      5  C5  BNZ d   1      -0.404  -0.933   2.335  0.00  0.00     0.000 A 
ATOM      6  C6  BNZ d   1       0.941  -0.882   2.621  0.00  0.00     0.000 A 
ENDROOT
TORSDOF 0
ENDMDL
