MODEL 1
REMARK minimizedAffinity -1.19979548
REMARK minimizedRMSD -1
REMARK  0 active torsions:
REMARK  status: ('A' for Active; 'I' for Inactive)
ROOT
ATOM      1  C1  BNZ d   1      -0.728  -2.580   2.199  0.00  0.00     0.000 A 
ATOM      2  C2  BNZ d   1       0.519  -2.163   1.814  0.00  0.00     0.000 A 
ATOM      3  C3  BNZ d   1       1.610  -2.968   1.986  0.00  0.00     0.000 A 
ATOM      4  C4  BNZ d   1       1.461  -4.170   2.579  0.00  0.00     0.000 A 
ATOM      5  C5  BNZ d   1       0.212  -4.601   2.981  0.00  0.00     0.000 A 
ATOM      6  C6  BNZ d   1      -0.890  -3.804   2.771  0.00  0.00     0.000 A 
ENDROOT
TORSDOF 0
ENDMDL
