MODEL 1
REMARK minimizedAffinity -3.94605565
REMARK minimizedRMSD -1
REMARK  0 active torsions:
REMARK  status: ('A' for Active; 'I' for Inactive)
ROOT
ATOM      1  C1  BNZ d   1       1.364  -0.715   0.395  0.00  0.00     0.000 A 
ATOM      2  C2  BNZ d   1       0.797  -0.725   1.642  0.00  0.00     0.000 A 
ATOM      3  C3  BNZ d   1      -0.561  -0.742   1.793  0.00  0.00     0.000 A 
ATOM      4  C4  BNZ d   1      -1.350  -0.709   0.700  0.00  0.00     0.000 A 
ATOM      5  C5  BNZ d   1      -0.794  -0.690  -0.564  0.00  0.00     0.000 A 
ATOM      6  C6  BNZ d   1       0.574  -0.712  -0.712  0.00  0.00     0.000 A 
ENDROOT
TORSDOF 0
ENDMDL
