MODEL 1
REMARK minimizedAffinity -4.690938
REMARK minimizedRMSD -1
REMARK  0 active torsions:
REMARK  status: ('A' for Active; 'I' for Inactive)
ROOT
ATOM      1  C1  BNZ d   1      -0.791  -0.487   1.375  0.00  0.00     0.000 A 
ATOM      2  C2  BNZ d   1      -0.359  -0.765   2.644  0.00  0.00     0.000 A 
ATOM      3  C3  BNZ d   1       0.975  -0.795   2.939  0.00  0.00     0.000 A 
ATOM      4  C4  BNZ d   1       1.876  -0.586   1.957  0.00  0.00     0.000 A 
ATOM      5  C5  BNZ d   1       1.457  -0.313   0.670  0.00  0.00     0.000 A 
ATOM      6  C6  BNZ d   1       0.112  -0.246   0.386  0.00  0.00     0.000 A 
ENDROOT
TORSDOF 0
ENDMDL
