MODEL 1
REMARK minimizedAffinity -2.67192483
REMARK minimizedRMSD -1
REMARK  0 active torsions:
REMARK  status: ('A' for Active; 'I' for Inactive)
ROOT
ATOM      1  C1  BNZ d   1      -0.973  -0.113   1.394  0.00  0.00     0.000 A 
ATOM      2  C2  BNZ d   1       0.018  -0.436   2.283  0.00  0.00     0.000 A 
ATOM      3  C3  BNZ d   1       1.296  -0.662   1.855  0.00  0.00     0.000 A 
ATOM      4  C4  BNZ d   1       1.573  -0.604   0.536  0.00  0.00     0.000 A 
ATOM      5  C5  BNZ d   1       0.584  -0.288  -0.373  0.00  0.00     0.000 A 
ATOM      6  C6  BNZ d   1      -0.693  -0.023   0.065  0.00  0.00     0.000 A 
ENDROOT
TORSDOF 0
ENDMDL
