MODEL 1
REMARK minimizedAffinity -2.07041001
REMARK minimizedRMSD -1
REMARK  0 active torsions:
REMARK  status: ('A' for Active; 'I' for Inactive)
ROOT
ATOM      1  C1  BNZ d   1       0.292   2.718  -2.556  0.00  0.00     0.000 A 
ATOM      2  C2  BNZ d   1      -0.472   1.824  -1.855  0.00  0.00     0.000 A 
ATOM      3  C3  BNZ d   1      -1.807   2.045  -1.660  0.00  0.00     0.000 A 
ATOM      4  C4  BNZ d   1      -2.367   3.179  -2.131  0.00  0.00     0.000 A 
ATOM      5  C5  BNZ d   1      -1.608   4.095  -2.831  0.00  0.00     0.000 A 
ATOM      6  C6  BNZ d   1      -0.273   3.850  -3.059  0.00  0.00     0.000 A 
ENDROOT
TORSDOF 0
ENDMDL
