MODEL 1
REMARK minimizedAffinity -3.98740792
REMARK minimizedRMSD -1
REMARK  0 active torsions:
REMARK  status: ('A' for Active; 'I' for Inactive)
ROOT
ATOM      1  C1  BNZ d   1       1.510  -1.035  -1.128  0.00  0.00     0.000 A 
ATOM      2  C2  BNZ d   1       1.728  -0.948   0.221  0.00  0.00     0.000 A 
ATOM      3  C3  BNZ d   1       0.767  -0.448   1.054  0.00  0.00     0.000 A 
ATOM      4  C4  BNZ d   1      -0.393   0.001   0.534  0.00  0.00     0.000 A 
ATOM      5  C5  BNZ d   1      -0.625  -0.071  -0.825  0.00  0.00     0.000 A 
ATOM      6  C6  BNZ d   1       0.329  -0.611  -1.656  0.00  0.00     0.000 A 
ENDROOT
TORSDOF 0
ENDMDL
