MODEL 1
REMARK minimizedAffinity -2.6900456
REMARK minimizedRMSD -1
REMARK  1 active torsions:
REMARK  status: ('A' for Active; 'I' for Inactive)
REMARK    1  A    between atoms: C3_4  and  O_7 
ROOT
ATOM      1  C   UNL d   1      -0.026  -0.472  -0.714  0.00  0.00    -0.033 A 
ATOM      2  C1  UNL d   1       0.947   0.101   0.106  0.00  0.00     0.039 A 
ATOM      3  C2  UNL d   1       0.574   0.761   1.279  0.00  0.00    -0.080 A 
ATOM      4  C3  UNL d   1      -0.774   0.840   1.619  0.00  0.00     0.150 A 
ATOM      5  C4  UNL d   1      -1.749   0.267   0.808  0.00  0.00    -0.007 A 
ATOM      6  C5  UNL d   1      -1.374  -0.390  -0.363  0.00  0.00     0.039 A 
ENDROOT
BRANCH   4   7
ATOM      7  O   UNL d   1      -1.187   1.477   2.751  0.00  0.00    -0.526 OA
ATOM      8  H5  UNL d   1      -0.407   1.848   3.197  0.00  0.00     0.418 HD
ENDBRANCH   4   7
TORSDOF 1
ENDMDL
