MODEL 1
REMARK minimizedAffinity -4.99730062
REMARK minimizedRMSD -1
REMARK  1 active torsions:
REMARK  status: ('A' for Active; 'I' for Inactive)
REMARK    1  A    between atoms: C3_4  and  O_7 
ROOT
ATOM      1  C   UNL d   1      -0.335   0.376   3.399  0.00  0.00    -0.033 A 
ATOM      2  C1  UNL d   1       0.976   0.272   2.929  0.00  0.00     0.039 A 
ATOM      3  C2  UNL d   1       1.233   0.316   1.557  0.00  0.00    -0.080 A 
ATOM      4  C3  UNL d   1       0.173   0.465   0.668  0.00  0.00     0.150 A 
ATOM      5  C4  UNL d   1      -1.135   0.573   1.129  0.00  0.00    -0.007 A 
ATOM      6  C5  UNL d   1      -1.390   0.528   2.499  0.00  0.00     0.039 A 
ENDROOT
BRANCH   4   7
ATOM      7  O   UNL d   1       0.374   0.508  -0.680  0.00  0.00    -0.526 OA
ATOM      8  H5  UNL d   1       1.323   0.392  -0.853  0.00  0.00     0.418 HD
ENDBRANCH   4   7
TORSDOF 1
ENDMDL
