MODEL 1
REMARK minimizedAffinity -3.93134522
REMARK minimizedRMSD -1
REMARK  1 active torsions:
REMARK  status: ('A' for Active; 'I' for Inactive)
REMARK    1  A    between atoms: C3_4  and  O_7 
ROOT
ATOM      1  C   UNL d   1      -0.007   0.057   3.216  0.00  0.00    -0.033 A 
ATOM      2  C1  UNL d   1       1.204  -0.454   2.744  0.00  0.00     0.039 A 
ATOM      3  C2  UNL d   1       1.390  -0.660   1.375  0.00  0.00    -0.080 A 
ATOM      4  C3  UNL d   1       0.360  -0.352   0.492  0.00  0.00     0.150 A 
ATOM      5  C4  UNL d   1      -0.848   0.161   0.955  0.00  0.00    -0.007 A 
ATOM      6  C5  UNL d   1      -1.032   0.365   2.322  0.00  0.00     0.039 A 
ENDROOT
BRANCH   4   7
ATOM      7  O   UNL d   1       0.493  -0.541  -0.852  0.00  0.00    -0.526 OA
ATOM      8  H5  UNL d   1       1.368  -0.927  -1.023  0.00  0.00     0.418 HD
ENDBRANCH   4   7
TORSDOF 1
ENDMDL
