MODEL 1
REMARK minimizedAffinity -3.32396483
REMARK minimizedRMSD -1
REMARK  1 active torsions:
REMARK  status: ('A' for Active; 'I' for Inactive)
REMARK    1  A    between atoms: C3_4  and  O_7 
ROOT
ATOM      1  C   UNL d   1       0.236  -0.131  -0.537  0.00  0.00    -0.033 A 
ATOM      2  C1  UNL d   1      -0.673   0.885  -0.841  0.00  0.00     0.039 A 
ATOM      3  C2  UNL d   1      -1.266   1.623   0.185  0.00  0.00    -0.080 A 
ATOM      4  C3  UNL d   1      -0.942   1.337   1.508  0.00  0.00     0.150 A 
ATOM      5  C4  UNL d   1      -0.035   0.329   1.818  0.00  0.00    -0.007 A 
ATOM      6  C5  UNL d   1       0.556  -0.407   0.793  0.00  0.00     0.039 A 
ENDROOT
BRANCH   4   7
ATOM      7  O   UNL d   1      -1.499   2.028   2.543  0.00  0.00    -0.526 OA
ATOM      8  H5  UNL d   1      -2.128   2.673   2.180  0.00  0.00     0.418 HD
ENDBRANCH   4   7
TORSDOF 1
ENDMDL
