MODEL 1
REMARK minimizedAffinity -4.39983559
REMARK minimizedRMSD -1
REMARK  1 active torsions:
REMARK  status: ('A' for Active; 'I' for Inactive)
REMARK    1  A    between atoms: C3_4  and  O_7 
ROOT
ATOM      1  C   UNL d   1      -2.020   0.430   0.257  0.00  0.00    -0.033 A 
ATOM      2  C1  UNL d   1      -1.780   0.161   1.606  0.00  0.00     0.039 A 
ATOM      3  C2  UNL d   1      -0.593  -0.464   1.994  0.00  0.00    -0.080 A 
ATOM      4  C3  UNL d   1       0.344  -0.813   1.025  0.00  0.00     0.150 A 
ATOM      5  C4  UNL d   1       0.112  -0.544  -0.320  0.00  0.00    -0.007 A 
ATOM      6  C5  UNL d   1      -1.074   0.079  -0.706  0.00  0.00     0.039 A 
ENDROOT
BRANCH   4   7
ATOM      7  O   UNL d   1       1.515  -1.428   1.355  0.00  0.00    -0.526 OA
ATOM      8  H5  UNL d   1       1.524  -1.576   2.316  0.00  0.00     0.418 HD
ENDBRANCH   4   7
TORSDOF 1
ENDMDL
