MODEL 1
REMARK minimizedAffinity -5.30288076
REMARK minimizedRMSD -1
REMARK  1 active torsions:
REMARK  status: ('A' for Active; 'I' for Inactive)
REMARK    1  A    between atoms: C3_4  and  O_7 
ROOT
ATOM      1  C   UNL d   1      -0.191  -1.007   0.037  0.00  0.00    -0.033 A 
ATOM      2  C1  UNL d   1       0.911  -0.575   0.777  0.00  0.00     0.039 A 
ATOM      3  C2  UNL d   1       0.739   0.334   1.823  0.00  0.00    -0.080 A 
ATOM      4  C3  UNL d   1      -0.539   0.802   2.118  0.00  0.00     0.150 A 
ATOM      5  C4  UNL d   1      -1.642   0.374   1.386  0.00  0.00    -0.007 A 
ATOM      6  C5  UNL d   1      -1.468  -0.533   0.342  0.00  0.00     0.039 A 
ENDROOT
BRANCH   4   7
ATOM      7  O   UNL d   1      -0.756   1.694   3.126  0.00  0.00    -0.526 OA
ATOM      8  H5  UNL d   1       0.101   1.922   3.525  0.00  0.00     0.418 HD
ENDBRANCH   4   7
TORSDOF 1
ENDMDL
