MODEL 1
REMARK minimizedAffinity -1.80180395
REMARK minimizedRMSD -1
REMARK  1 active torsions:
REMARK  status: ('A' for Active; 'I' for Inactive)
REMARK    1  A    between atoms: C1_2  and  C2_3 
ROOT
ATOM      1  C2  UNL d   1       0.120   0.216   0.189  0.00  0.00    -0.076 A 
ATOM      2  C3  UNL d   1      -0.871  -0.761   0.394  0.00  0.00     0.004 A 
ATOM      3  C4  UNL d   1      -1.294  -1.095   1.679  0.00  0.00    -0.003 A 
ATOM      4  C5  UNL d   1      -0.734  -0.459   2.781  0.00  0.00     0.000 A 
ATOM      5  C6  UNL d   1       0.237   0.525   2.596  0.00  0.00     0.000 A 
ATOM      6  C7  UNL d   1       0.663   0.886   1.306  0.00  0.00    -0.073 A 
ATOM      7  C8  UNL d   1       1.718   1.949   1.166  0.00  0.00     0.078 C 
ENDROOT
BRANCH   1   8
ATOM      8  C1  UNL d   1       0.558   0.518  -1.226  0.00  0.00     0.053 C 
ATOM      9  C   UNL d   1      -0.013  -0.466  -2.235  0.00  0.00     0.018 C 
ENDBRANCH   1   8
TORSDOF 1
ENDMDL
