MODEL 1
REMARK minimizedAffinity -4.90814209
REMARK minimizedRMSD -1
REMARK  1 active torsions:
REMARK  status: ('A' for Active; 'I' for Inactive)
REMARK    1  A    between atoms: C1_2  and  C2_3 
ROOT
ATOM      1  C2  UNL d   1      -1.224   0.181   0.232  0.00  0.00    -0.076 A 
ATOM      2  C3  UNL d   1      -2.565   0.160   0.652  0.00  0.00     0.004 A 
ATOM      3  C4  UNL d   1      -2.893  -0.026   1.994  0.00  0.00    -0.003 A 
ATOM      4  C5  UNL d   1      -1.886  -0.192   2.937  0.00  0.00     0.000 A 
ATOM      5  C6  UNL d   1      -0.549  -0.156   2.541  0.00  0.00     0.000 A 
ATOM      6  C7  UNL d   1      -0.201   0.046   1.194  0.00  0.00    -0.073 A 
ATOM      7  C8  UNL d   1       1.256   0.071   0.822  0.00  0.00     0.078 C 
ENDROOT
BRANCH   1   8
ATOM      8  C1  UNL d   1      -0.929   0.359  -1.241  0.00  0.00     0.053 C 
ATOM      9  C   UNL d   1      -0.579  -0.952  -1.927  0.00  0.00     0.018 C 
ENDBRANCH   1   8
TORSDOF 1
ENDMDL
