MODEL 1
REMARK minimizedAffinity -4.13464832
REMARK minimizedRMSD -1
REMARK  1 active torsions:
REMARK  status: ('A' for Active; 'I' for Inactive)
REMARK    1  A    between atoms: C1_2  and  C2_3 
ROOT
ATOM      1  C2  UNL d   1       0.140   0.363  -0.098  0.00  0.00    -0.076 A 
ATOM      2  C3  UNL d   1       1.259   0.183   0.734  0.00  0.00     0.004 A 
ATOM      3  C4  UNL d   1       1.106  -0.136   2.082  0.00  0.00    -0.003 A 
ATOM      4  C5  UNL d   1      -0.168  -0.281   2.620  0.00  0.00     0.000 A 
ATOM      5  C6  UNL d   1      -1.289  -0.123   1.805  0.00  0.00     0.000 A 
ATOM      6  C7  UNL d   1      -1.152   0.183   0.440  0.00  0.00    -0.073 A 
ATOM      7  C8  UNL d   1      -2.395   0.348  -0.390  0.00  0.00     0.078 C 
ENDROOT
BRANCH   1   8
ATOM      8  C1  UNL d   1       0.367   0.735  -1.546  0.00  0.00     0.053 C 
ATOM      9  C   UNL d   1       0.782  -0.457  -2.395  0.00  0.00     0.018 C 
ENDBRANCH   1   8
TORSDOF 1
ENDMDL
