MODEL 1
REMARK minimizedAffinity -5.19607162
REMARK minimizedRMSD -1
REMARK  1 active torsions:
REMARK  status: ('A' for Active; 'I' for Inactive)
REMARK    1  A    between atoms: C1_2  and  C2_3 
ROOT
ATOM      1  C2  UNL d   1      -0.245   0.313   0.266  0.00  0.00    -0.076 A 
ATOM      2  C3  UNL d   1       0.970   0.306   0.974  0.00  0.00     0.004 A 
ATOM      3  C4  UNL d   1       1.027  -0.131   2.296  0.00  0.00    -0.003 A 
ATOM      4  C5  UNL d   1      -0.129  -0.568   2.932  0.00  0.00     0.000 A 
ATOM      5  C6  UNL d   1      -1.339  -0.585   2.240  0.00  0.00     0.000 A 
ATOM      6  C7  UNL d   1      -1.412  -0.163   0.901  0.00  0.00    -0.073 A 
ATOM      7  C8  UNL d   1      -2.745  -0.197   0.205  0.00  0.00     0.078 C 
ENDROOT
BRANCH   1   8
ATOM      8  C1  UNL d   1      -0.251   0.824  -1.157  0.00  0.00     0.053 C 
ATOM      9  C   UNL d   1       0.592  -0.034  -2.087  0.00  0.00     0.018 C 
ENDBRANCH   1   8
TORSDOF 1
ENDMDL
