MODEL 1
REMARK minimizedAffinity 0.248097435
REMARK minimizedRMSD -1
REMARK  1 active torsions:
REMARK  status: ('A' for Active; 'I' for Inactive)
REMARK    1  A    between atoms: C1_2  and  C2_3 
ROOT
ATOM      1  C2  UNL d   1      -0.670  -0.447   0.931  0.00  0.00    -0.076 A 
ATOM      2  C3  UNL d   1       0.611  -0.573   0.366  0.00  0.00     0.004 A 
ATOM      3  C4  UNL d   1       0.804  -0.447  -1.009  0.00  0.00    -0.003 A 
ATOM      4  C5  UNL d   1      -0.281  -0.191  -1.840  0.00  0.00     0.000 A 
ATOM      5  C6  UNL d   1      -1.556  -0.046  -1.294  0.00  0.00     0.000 A 
ATOM      6  C7  UNL d   1      -1.765  -0.154   0.091  0.00  0.00    -0.073 A 
ATOM      7  C8  UNL d   1      -3.162   0.006   0.625  0.00  0.00     0.078 C 
ENDROOT
BRANCH   1   8
ATOM      8  C1  UNL d   1      -0.822  -0.621   2.426  0.00  0.00     0.053 C 
ATOM      9  C   UNL d   1      -0.242   0.546   3.210  0.00  0.00     0.018 C 
ENDBRANCH   1   8
TORSDOF 1
ENDMDL
