MODEL 1
REMARK minimizedAffinity -4.76131201
REMARK minimizedRMSD -1
REMARK  1 active torsions:
REMARK  status: ('A' for Active; 'I' for Inactive)
REMARK    1  A    between atoms: C1_2  and  C2_3 
ROOT
ATOM      1  C2  UNL d   1       0.210   0.021   1.148  0.00  0.00    -0.076 A 
ATOM      2  C3  UNL d   1       0.258   0.448  -0.190  0.00  0.00     0.004 A 
ATOM      3  C4  UNL d   1      -0.877   0.408  -0.997  0.00  0.00    -0.003 A 
ATOM      4  C5  UNL d   1      -2.080  -0.059  -0.479  0.00  0.00     0.000 A 
ATOM      5  C6  UNL d   1      -2.150  -0.470   0.852  0.00  0.00     0.000 A 
ATOM      6  C7  UNL d   1      -1.019  -0.421   1.684  0.00  0.00    -0.073 A 
ATOM      7  C8  UNL d   1      -1.150  -0.882   3.110  0.00  0.00     0.078 C 
ENDROOT
BRANCH   1   8
ATOM      8  C1  UNL d   1       1.480   0.062   1.968  0.00  0.00     0.053 C 
ATOM      9  C   UNL d   1       1.597   1.330   2.798  0.00  0.00     0.018 C 
ENDBRANCH   1   8
TORSDOF 1
ENDMDL
