MODEL 1
REMARK minimizedAffinity -1.45785594
REMARK minimizedRMSD -1
REMARK  1 active torsions:
REMARK  status: ('A' for Active; 'I' for Inactive)
REMARK    1  A    between atoms: C1_2  and  C2_3 
ROOT
ATOM      1  C2  UNL d   1       0.244   0.354   0.166  0.00  0.00    -0.076 A 
ATOM      2  C3  UNL d   1       1.300   0.136   1.068  0.00  0.00     0.004 A 
ATOM      3  C4  UNL d   1       1.064  -0.394   2.335  0.00  0.00    -0.003 A 
ATOM      4  C5  UNL d   1      -0.233  -0.716   2.721  0.00  0.00     0.000 A 
ATOM      5  C6  UNL d   1      -1.290  -0.523   1.833  0.00  0.00     0.000 A 
ATOM      6  C7  UNL d   1      -1.067  -0.005   0.546  0.00  0.00    -0.073 A 
ATOM      7  C8  UNL d   1      -2.245   0.188  -0.369  0.00  0.00     0.078 C 
ENDROOT
BRANCH   1   8
ATOM      8  C1  UNL d   1       0.558   0.957  -1.184  0.00  0.00     0.053 C 
ATOM      9  C   UNL d   1       1.374   0.023  -2.064  0.00  0.00     0.018 C 
ENDBRANCH   1   8
TORSDOF 1
ENDMDL
