MODEL 1
REMARK minimizedAffinity 4.99030638
REMARK minimizedRMSD -1
REMARK  1 active torsions:
REMARK  status: ('A' for Active; 'I' for Inactive)
REMARK    1  A    between atoms: C1_2  and  C2_3 
ROOT
ATOM      1  C2  UNL d   1      -0.718   0.262   1.039  0.00  0.00    -0.076 A 
ATOM      2  C3  UNL d   1      -0.934   0.679  -0.286  0.00  0.00     0.004 A 
ATOM      3  C4  UNL d   1       0.086   1.272  -1.027  0.00  0.00    -0.003 A 
ATOM      4  C5  UNL d   1       1.340   1.458  -0.455  0.00  0.00     0.000 A 
ATOM      5  C6  UNL d   1       1.578   1.034   0.852  0.00  0.00     0.000 A 
ATOM      6  C7  UNL d   1       0.565   0.419   1.607  0.00  0.00    -0.073 A 
ATOM      7  C8  UNL d   1       0.875  -0.012   3.014  0.00  0.00     0.078 C 
ENDROOT
BRANCH   1   8
ATOM      8  C1  UNL d   1      -1.870  -0.351   1.803  0.00  0.00     0.053 C 
ATOM      9  C   UNL d   1      -3.140   0.480   1.706  0.00  0.00     0.018 C 
ENDBRANCH   1   8
TORSDOF 1
ENDMDL
