MODEL 1
REMARK minimizedAffinity 4.24556255
REMARK minimizedRMSD -1
REMARK  1 active torsions:
REMARK  status: ('A' for Active; 'I' for Inactive)
REMARK    1  A    between atoms: C1_2  and  C2_3 
ROOT
ATOM      1  C2  UNL d   1       0.878   0.562   1.849  0.00  0.00    -0.076 A 
ATOM      2  C3  UNL d   1      -0.510   0.647   1.646  0.00  0.00     0.004 A 
ATOM      3  C4  UNL d   1      -1.350  -0.415   1.978  0.00  0.00    -0.003 A 
ATOM      4  C5  UNL d   1      -0.814  -1.579   2.520  0.00  0.00     0.000 A 
ATOM      5  C6  UNL d   1       0.559  -1.673   2.745  0.00  0.00     0.000 A 
ATOM      6  C7  UNL d   1       1.417  -0.605   2.431  0.00  0.00    -0.073 A 
ATOM      7  C8  UNL d   1       2.890  -0.764   2.689  0.00  0.00     0.078 C 
ENDROOT
BRANCH   1   8
ATOM      8  C1  UNL d   1       1.742   1.735   1.445  0.00  0.00     0.053 C 
ATOM      9  C   UNL d   1       1.327   2.331   0.108  0.00  0.00     0.018 C 
ENDBRANCH   1   8
TORSDOF 1
ENDMDL
