MODEL 1
REMARK minimizedAffinity -4.83624172
REMARK minimizedRMSD -1
REMARK  1 active torsions:
REMARK  status: ('A' for Active; 'I' for Inactive)
REMARK    1  A    between atoms: C1_2  and  C2_3 
ROOT
ATOM      1  C2  UNL d   1      -1.172   0.093   0.938  0.00  0.00    -0.076 A 
ATOM      2  C3  UNL d   1       0.040  -0.087   1.627  0.00  0.00     0.004 A 
ATOM      3  C4  UNL d   1       0.053  -0.416   2.981  0.00  0.00    -0.003 A 
ATOM      4  C5  UNL d   1      -1.145  -0.570   3.669  0.00  0.00     0.000 A 
ATOM      5  C6  UNL d   1      -2.357  -0.412   2.997  0.00  0.00     0.000 A 
ATOM      6  C7  UNL d   1      -2.388  -0.097   1.628  0.00  0.00    -0.073 A 
ATOM      7  C8  UNL d   1      -3.723   0.068   0.955  0.00  0.00     0.078 C 
ENDROOT
BRANCH   1   8
ATOM      8  C1  UNL d   1      -1.123   0.476  -0.524  0.00  0.00     0.053 C 
ATOM      9  C   UNL d   1       0.280   0.385  -1.104  0.00  0.00     0.018 C 
ENDBRANCH   1   8
TORSDOF 1
ENDMDL
