MODEL 1
REMARK minimizedAffinity -4.77015924
REMARK minimizedRMSD -1
REMARK  1 active torsions:
REMARK  status: ('A' for Active; 'I' for Inactive)
REMARK    1  A    between atoms: C1_2  and  C2_3 
ROOT
ATOM      1  C2  UNL d   1      -1.127   0.099   0.428  0.00  0.00    -0.076 A 
ATOM      2  C3  UNL d   1       0.106  -0.521   0.691  0.00  0.00     0.004 A 
ATOM      3  C4  UNL d   1       0.339  -1.170   1.903  0.00  0.00    -0.003 A 
ATOM      4  C5  UNL d   1      -0.658  -1.209   2.871  0.00  0.00     0.000 A 
ATOM      5  C6  UNL d   1      -1.894  -0.614   2.620  0.00  0.00     0.000 A 
ATOM      6  C7  UNL d   1      -2.151   0.030   1.397  0.00  0.00    -0.073 A 
ATOM      7  C8  UNL d   1      -3.500   0.660   1.183  0.00  0.00     0.078 C 
ENDROOT
BRANCH   1   8
ATOM      8  C1  UNL d   1      -1.313   0.811  -0.893  0.00  0.00     0.053 C 
ATOM      9  C   UNL d   1       0.010   1.144  -1.566  0.00  0.00     0.018 C 
ENDBRANCH   1   8
TORSDOF 1
ENDMDL
