MODEL 1
REMARK minimizedAffinity 2.50325847
REMARK minimizedRMSD -1
REMARK  1 active torsions:
REMARK  status: ('A' for Active; 'I' for Inactive)
REMARK    1  A    between atoms: C1_2  and  C2_3 
ROOT
ATOM      1  C2  UNL d   1       0.170   0.660   1.100  0.00  0.00    -0.076 A 
ATOM      2  C3  UNL d   1       1.235   1.525   0.796  0.00  0.00     0.004 A 
ATOM      3  C4  UNL d   1       1.926   2.195   1.804  0.00  0.00    -0.003 A 
ATOM      4  C5  UNL d   1       1.563   2.009   3.134  0.00  0.00     0.000 A 
ATOM      5  C6  UNL d   1       0.521   1.141   3.455  0.00  0.00     0.000 A 
ATOM      6  C7  UNL d   1      -0.176   0.446   2.451  0.00  0.00    -0.073 A 
ATOM      7  C8  UNL d   1      -1.296  -0.473   2.854  0.00  0.00     0.078 C 
ENDROOT
BRANCH   1   8
ATOM      8  C1  UNL d   1      -0.561  -0.017  -0.038  0.00  0.00     0.053 C 
ATOM      9  C   UNL d   1      -0.400   0.723  -1.356  0.00  0.00     0.018 C 
ENDBRANCH   1   8
TORSDOF 1
ENDMDL
