MODEL 1
REMARK minimizedAffinity 2.0830462
REMARK minimizedRMSD -1
REMARK  1 active torsions:
REMARK  status: ('A' for Active; 'I' for Inactive)
REMARK    1  A    between atoms: C1_2  and  C2_3 
ROOT
ATOM      1  C2  UNL d   1      -1.604  -0.061   1.653  0.00  0.00    -0.076 A 
ATOM      2  C3  UNL d   1      -0.912   0.831   2.490  0.00  0.00     0.004 A 
ATOM      3  C4  UNL d   1       0.383   0.550   2.923  0.00  0.00    -0.003 A 
ATOM      4  C5  UNL d   1       1.007  -0.627   2.524  0.00  0.00     0.000 A 
ATOM      5  C6  UNL d   1       0.342  -1.515   1.679  0.00  0.00     0.000 A 
ATOM      6  C7  UNL d   1      -0.958  -1.239   1.221  0.00  0.00    -0.073 A 
ATOM      7  C8  UNL d   1      -1.631  -2.234   0.316  0.00  0.00     0.078 C 
ENDROOT
BRANCH   1   8
ATOM      8  C1  UNL d   1      -3.017   0.284   1.238  0.00  0.00     0.053 C 
ATOM      9  C   UNL d   1      -3.715   1.188   2.242  0.00  0.00     0.018 C 
ENDBRANCH   1   8
TORSDOF 1
ENDMDL
