MODEL 1
REMARK minimizedAffinity 2.83152127
REMARK minimizedRMSD -1
REMARK  1 active torsions:
REMARK  status: ('A' for Active; 'I' for Inactive)
REMARK    1  A    between atoms: C1_2  and  C2_3 
ROOT
ATOM      1  C2  UNL d   1       0.101   0.268   2.365  0.00  0.00    -0.076 A 
ATOM      2  C3  UNL d   1       0.577   1.378   1.645  0.00  0.00     0.004 A 
ATOM      3  C4  UNL d   1       1.907   1.450   1.236  0.00  0.00    -0.003 A 
ATOM      4  C5  UNL d   1       2.783   0.414   1.539  0.00  0.00     0.000 A 
ATOM      5  C6  UNL d   1       2.324  -0.703   2.237  0.00  0.00     0.000 A 
ATOM      6  C7  UNL d   1       0.981  -0.799   2.643  0.00  0.00    -0.073 A 
ATOM      7  C8  UNL d   1       0.541  -2.023   3.398  0.00  0.00     0.078 C 
ENDROOT
BRANCH   1   8
ATOM      8  C1  UNL d   1      -1.346   0.258   2.806  0.00  0.00     0.053 C 
ATOM      9  C   UNL d   1      -2.274  -0.315   1.746  0.00  0.00     0.018 C 
ENDBRANCH   1   8
TORSDOF 1
ENDMDL
