MODEL 1
REMARK minimizedAffinity 4.18274927
REMARK minimizedRMSD -1
REMARK  1 active torsions:
REMARK  status: ('A' for Active; 'I' for Inactive)
REMARK    1  A    between atoms: C1_2  and  C2_3 
ROOT
ATOM      1  C2  UNL d   1      -0.719  -0.594  -0.549  0.00  0.00    -0.076 A 
ATOM      2  C3  UNL d   1      -0.486   0.621  -1.217  0.00  0.00     0.004 A 
ATOM      3  C4  UNL d   1       0.055   0.642  -2.501  0.00  0.00    -0.003 A 
ATOM      4  C5  UNL d   1       0.372  -0.551  -3.139  0.00  0.00     0.000 A 
ATOM      5  C6  UNL d   1       0.131  -1.767  -2.499  0.00  0.00     0.000 A 
ATOM      6  C7  UNL d   1      -0.429  -1.806  -1.211  0.00  0.00    -0.073 A 
ATOM      7  C8  UNL d   1      -0.661  -3.145  -0.566  0.00  0.00     0.078 C 
ENDROOT
BRANCH   1   8
ATOM      8  C1  UNL d   1      -1.282  -0.554   0.853  0.00  0.00     0.053 C 
ATOM      9  C   UNL d   1      -0.383   0.200   1.821  0.00  0.00     0.018 C 
ENDBRANCH   1   8
TORSDOF 1
ENDMDL
