MODEL 1
REMARK minimizedAffinity 3.73886442
REMARK minimizedRMSD -1
REMARK  1 active torsions:
REMARK  status: ('A' for Active; 'I' for Inactive)
REMARK    1  A    between atoms: C1_2  and  C2_3 
ROOT
ATOM      1  C2  UNL d   1      -0.984  -0.020   1.663  0.00  0.00    -0.076 A 
ATOM      2  C3  UNL d   1      -0.911  -1.323   1.140  0.00  0.00     0.004 A 
ATOM      3  C4  UNL d   1       0.206  -2.125   1.364  0.00  0.00    -0.003 A 
ATOM      4  C5  UNL d   1       1.269  -1.638   2.116  0.00  0.00     0.000 A 
ATOM      5  C6  UNL d   1       1.207  -0.354   2.658  0.00  0.00     0.000 A 
ATOM      6  C7  UNL d   1       0.081   0.461   2.455  0.00  0.00    -0.073 A 
ATOM      7  C8  UNL d   1       0.069   1.840   3.058  0.00  0.00     0.078 C 
ENDROOT
BRANCH   1   8
ATOM      8  C1  UNL d   1      -2.210   0.813   1.365  0.00  0.00     0.053 C 
ATOM      9  C   UNL d   1      -3.278   0.685   2.439  0.00  0.00     0.018 C 
ENDBRANCH   1   8
TORSDOF 1
ENDMDL
