MODEL 1
REMARK minimizedAffinity 5.24014044
REMARK minimizedRMSD -1
REMARK  0 active torsions:
REMARK  status: ('A' for Active; 'I' for Inactive)
ROOT
ATOM      1  C4' PXY d   1       0.829  -0.014   1.150  0.00  0.00     0.077 C 
ATOM      2  C1' PXY d   1       1.024   5.435  -0.771  0.00  0.00     0.077 C 
ATOM      3  C1  PXY d   1       0.960   4.006  -0.266  0.00  0.00    -0.082 A 
ATOM      4  C2  PXY d   1       2.015   3.475   0.329  0.00  0.00     0.003 A 
ATOM      5  C3  PXY d   1       1.986   2.175   0.763  0.00  0.00     0.003 A 
ATOM      6  C4  PXY d   1       0.846   1.427   0.634  0.00  0.00    -0.082 A 
ATOM      7  C5  PXY d   1      -0.239   1.966   0.037  0.00  0.00     0.003 A 
ATOM      8  C6  PXY d   1      -0.174   3.274  -0.434  0.00  0.00     0.003 A 
ENDROOT
TORSDOF 0
ENDMDL
