MODEL 1
REMARK minimizedAffinity -0.797700167
REMARK minimizedRMSD -1
REMARK  0 active torsions:
REMARK  status: ('A' for Active; 'I' for Inactive)
ROOT
ATOM      1  C4' PXY d   1      -4.965   5.586  -5.999  0.00  0.00     0.077 C 
ATOM      2  C1' PXY d   1      -5.324   0.712  -2.912  0.00  0.00     0.077 C 
ATOM      3  C1  PXY d   1      -5.225   1.996  -3.711  0.00  0.00    -0.082 A 
ATOM      4  C2  PXY d   1      -6.000   2.169  -4.770  0.00  0.00     0.003 A 
ATOM      5  C3  PXY d   1      -5.901   3.311  -5.523  0.00  0.00     0.003 A 
ATOM      6  C4  PXY d   1      -5.038   4.309  -5.157  0.00  0.00    -0.082 A 
ATOM      7  C5  PXY d   1      -4.252   4.144  -4.072  0.00  0.00     0.003 A 
ATOM      8  C6  PXY d   1      -4.338   2.961  -3.345  0.00  0.00     0.003 A 
ENDROOT
TORSDOF 0
ENDMDL
