MODEL 1
REMARK minimizedAffinity 9.53457355
REMARK minimizedRMSD -1
REMARK  0 active torsions:
REMARK  status: ('A' for Active; 'I' for Inactive)
ROOT
ATOM      1  C4' PXY d   1      -5.377   1.851  -1.397  0.00  0.00     0.077 C 
ATOM      2  C1' PXY d   1      -1.114   0.517  -5.067  0.00  0.00     0.077 C 
ATOM      3  C1  PXY d   1      -2.225   0.876  -4.100  0.00  0.00    -0.082 A 
ATOM      4  C2  PXY d   1      -3.119  -0.038  -3.761  0.00  0.00     0.003 A 
ATOM      5  C3  PXY d   1      -4.148   0.279  -2.913  0.00  0.00     0.003 A 
ATOM      6  C4  PXY d   1      -4.233   1.530  -2.363  0.00  0.00    -0.082 A 
ATOM      7  C5  PXY d   1      -3.318   2.466  -2.695  0.00  0.00     0.003 A 
ATOM      8  C6  PXY d   1      -2.305   2.136  -3.591  0.00  0.00     0.003 A 
ENDROOT
TORSDOF 0
ENDMDL
