MODEL 1
REMARK minimizedAffinity 2.56814861
REMARK minimizedRMSD -1
REMARK  0 active torsions:
REMARK  status: ('A' for Active; 'I' for Inactive)
ROOT
ATOM      1  C4' PXY d   1      -2.249   2.622   0.798  0.00  0.00     0.077 C 
ATOM      2  C1' PXY d   1       1.372   5.999  -2.185  0.00  0.00     0.077 C 
ATOM      3  C1  PXY d   1       0.414   5.123  -1.402  0.00  0.00    -0.082 A 
ATOM      4  C2  PXY d   1       0.884   4.104  -0.700  0.00  0.00     0.003 A 
ATOM      5  C3  PXY d   1       0.028   3.283  -0.012  0.00  0.00     0.003 A 
ATOM      6  C4  PXY d   1      -1.317   3.538   0.000  0.00  0.00    -0.082 A 
ATOM      7  C5  PXY d   1      -1.803   4.582  -0.705  0.00  0.00     0.003 A 
ATOM      8  C6  PXY d   1      -0.922   5.379  -1.430  0.00  0.00     0.003 A 
ENDROOT
TORSDOF 0
ENDMDL
