MODEL 1
REMARK minimizedAffinity -0.0404840969
REMARK minimizedRMSD -1
REMARK  0 active torsions:
REMARK  status: ('A' for Active; 'I' for Inactive)
ROOT
ATOM      1  C4' PXY d   1      -1.135   3.375  -0.482  0.00  0.00     0.077 C 
ATOM      2  C1' PXY d   1      -5.738   5.999   1.828  0.00  0.00     0.077 C 
ATOM      3  C1  PXY d   1      -4.529   5.304   1.233  0.00  0.00    -0.082 A 
ATOM      4  C2  PXY d   1      -3.858   5.885   0.253  0.00  0.00     0.003 A 
ATOM      5  C3  PXY d   1      -2.781   5.256  -0.318  0.00  0.00     0.003 A 
ATOM      6  C4  PXY d   1      -2.356   4.044   0.155  0.00  0.00    -0.082 A 
ATOM      7  C5  PXY d   1      -3.029   3.450   1.163  0.00  0.00     0.003 A 
ATOM      8  C6  PXY d   1      -4.144   4.086   1.701  0.00  0.00     0.003 A 
ENDROOT
TORSDOF 0
ENDMDL
