MODEL 1
REMARK minimizedAffinity 6.86407232
REMARK minimizedRMSD -1
REMARK  0 active torsions:
REMARK  status: ('A' for Active; 'I' for Inactive)
ROOT
ATOM      1  C4' PXY d   1       5.953  -2.613   1.751  0.00  0.00     0.077 C 
ATOM      2  C1' PXY d   1       0.654  -0.310   1.928  0.00  0.00     0.077 C 
ATOM      3  C1  PXY d   1       2.042  -0.918   1.869  0.00  0.00    -0.082 A 
ATOM      4  C2  PXY d   1       2.654  -1.259   2.991  0.00  0.00     0.003 A 
ATOM      5  C3  PXY d   1       3.922  -1.781   2.958  0.00  0.00     0.003 A 
ATOM      6  C4  PXY d   1       4.548  -2.005   1.762  0.00  0.00    -0.082 A 
ATOM      7  C5  PXY d   1       3.925  -1.669   0.612  0.00  0.00     0.003 A 
ATOM      8  C6  PXY d   1       2.655  -1.103   0.669  0.00  0.00     0.003 A 
ENDROOT
TORSDOF 0
ENDMDL
