MODEL 1
REMARK minimizedAffinity 6.74965858
REMARK minimizedRMSD -1
REMARK  0 active torsions:
REMARK  status: ('A' for Active; 'I' for Inactive)
ROOT
ATOM      1  C4' PXY d   1       3.004   4.322  -0.093  0.00  0.00     0.077 C 
ATOM      2  C1' PXY d   1      -2.196   3.664  -2.532  0.00  0.00     0.077 C 
ATOM      3  C1  PXY d   1      -0.829   3.845  -1.902  0.00  0.00    -0.082 A 
ATOM      4  C2  PXY d   1      -0.357   2.917  -1.085  0.00  0.00     0.003 A 
ATOM      5  C3  PXY d   1       0.863   3.079  -0.482  0.00  0.00     0.003 A 
ATOM      6  C4  PXY d   1       1.633   4.178  -0.759  0.00  0.00    -0.082 A 
ATOM      7  C5  PXY d   1       1.163   5.123  -1.600  0.00  0.00     0.003 A 
ATOM      8  C6  PXY d   1      -0.096   4.960  -2.170  0.00  0.00     0.003 A 
ENDROOT
TORSDOF 0
ENDMDL
