MODEL 1
REMARK minimizedAffinity -1.82249701
REMARK minimizedRMSD -1
REMARK  0 active torsions:
REMARK  status: ('A' for Active; 'I' for Inactive)
ROOT
ATOM      1  C4' PXY d   1      -5.053   6.000   2.303  0.00  0.00     0.077 C 
ATOM      2  C1' PXY d   1      -0.725   2.794   0.203  0.00  0.00     0.077 C 
ATOM      3  C1  PXY d   1      -1.854   3.646   0.749  0.00  0.00    -0.082 A 
ATOM      4  C2  PXY d   1      -2.563   3.211   1.778  0.00  0.00     0.003 A 
ATOM      5  C3  PXY d   1      -3.608   3.953   2.264  0.00  0.00     0.003 A 
ATOM      6  C4  PXY d   1      -3.897   5.178   1.725  0.00  0.00    -0.082 A 
ATOM      7  C5  PXY d   1      -3.172   5.634   0.681  0.00  0.00     0.003 A 
ATOM      8  C6  PXY d   1      -2.141   4.846   0.176  0.00  0.00     0.003 A 
ENDROOT
TORSDOF 0
ENDMDL
