MODEL 1
REMARK minimizedAffinity 7.54888487
REMARK minimizedRMSD -1
REMARK  0 active torsions:
REMARK  status: ('A' for Active; 'I' for Inactive)
ROOT
ATOM      1  C4' PXY d   1      -6.000  -1.500   6.000  0.00  0.00     0.077 C 
ATOM      2  C1' PXY d   1      -2.950   0.978   1.761  0.00  0.00     0.077 C 
ATOM      3  C1  PXY d   1      -3.761   0.331   2.866  0.00  0.00    -0.082 A 
ATOM      4  C2  PXY d   1      -3.259   0.257   4.088  0.00  0.00     0.003 A 
ATOM      5  C3  PXY d   1      -3.965  -0.354   5.092  0.00  0.00     0.003 A 
ATOM      6  C4  PXY d   1      -5.221  -0.847   4.855  0.00  0.00    -0.082 A 
ATOM      7  C5  PXY d   1      -5.744  -0.766   3.614  0.00  0.00     0.003 A 
ATOM      8  C6  PXY d   1      -4.993  -0.179   2.599  0.00  0.00     0.003 A 
ENDROOT
TORSDOF 0
ENDMDL
