MODEL 1
REMARK minimizedAffinity -2.05131936
REMARK minimizedRMSD -1
REMARK  0 active torsions:
REMARK  status: ('A' for Active; 'I' for Inactive)
ROOT
ATOM      1  C4' PXY d   1      -1.142   2.628   0.938  0.00  0.00     0.077 C 
ATOM      2  C1' PXY d   1      -5.775   5.999   1.706  0.00  0.00     0.077 C 
ATOM      3  C1  PXY d   1      -4.566   5.106   1.511  0.00  0.00    -0.082 A 
ATOM      4  C2  PXY d   1      -3.373   5.649   1.334  0.00  0.00     0.003 A 
ATOM      5  C3  PXY d   1      -2.274   4.856   1.124  0.00  0.00     0.003 A 
ATOM      6  C4  PXY d   1      -2.389   3.492   1.148  0.00  0.00    -0.082 A 
ATOM      7  C5  PXY d   1      -3.602   2.930   1.339  0.00  0.00     0.003 A 
ATOM      8  C6  PXY d   1      -4.711   3.753   1.509  0.00  0.00     0.003 A 
ENDROOT
TORSDOF 0
ENDMDL
