MODEL 1
REMARK minimizedAffinity 10.685833
REMARK minimizedRMSD -1
REMARK  0 active torsions:
REMARK  status: ('A' for Active; 'I' for Inactive)
ROOT
ATOM      1  C4' PXY d   1       5.081  -6.000  -2.742  0.00  0.00     0.077 C 
ATOM      2  C1' PXY d   1       0.014  -5.389  -0.028  0.00  0.00     0.077 C 
ATOM      3  C1  PXY d   1       1.349  -5.547  -0.728  0.00  0.00    -0.082 A 
ATOM      4  C2  PXY d   1       1.423  -5.382  -2.039  0.00  0.00     0.003 A 
ATOM      5  C3  PXY d   1       2.616  -5.552  -2.693  0.00  0.00     0.003 A 
ATOM      6  C4  PXY d   1       3.756  -5.841  -1.991  0.00  0.00    -0.082 A 
ATOM      7  C5  PXY d   1       3.690  -6.000  -0.652  0.00  0.00     0.003 A 
ATOM      8  C6  PXY d   1       2.462  -5.864  -0.012  0.00  0.00     0.003 A 
ENDROOT
TORSDOF 0
ENDMDL
