MODEL 1
REMARK minimizedAffinity 13.9775953
REMARK minimizedRMSD -1
REMARK  0 active torsions:
REMARK  status: ('A' for Active; 'I' for Inactive)
ROOT
ATOM      1  C4' PXY d   1      -3.299   2.526  -1.140  0.00  0.00     0.077 C 
ATOM      2  C1' PXY d   1       1.637   5.281  -2.351  0.00  0.00     0.077 C 
ATOM      3  C1  PXY d   1       0.349   4.547  -2.034  0.00  0.00    -0.082 A 
ATOM      4  C2  PXY d   1      -0.814   5.130  -2.278  0.00  0.00     0.003 A 
ATOM      5  C3  PXY d   1      -1.988   4.494  -1.969  0.00  0.00     0.003 A 
ATOM      6  C4  PXY d   1      -1.973   3.226  -1.453  0.00  0.00    -0.082 A 
ATOM      7  C5  PXY d   1      -0.792   2.619  -1.210  0.00  0.00     0.003 A 
ATOM      8  C6  PXY d   1       0.390   3.299  -1.494  0.00  0.00     0.003 A 
ENDROOT
TORSDOF 0
ENDMDL
