MODEL 1
REMARK minimizedAffinity -3.77969694
REMARK minimizedRMSD -1
REMARK  0 active torsions:
REMARK  status: ('A' for Active; 'I' for Inactive)
ROOT
ATOM      1  C4' PXY d   1      -0.611   3.039  -0.005  0.00  0.00     0.077 C 
ATOM      2  C1' PXY d   1      -5.551   5.208   2.070  0.00  0.00     0.077 C 
ATOM      3  C1  PXY d   1      -4.256   4.629   1.534  0.00  0.00    -0.082 A 
ATOM      4  C2  PXY d   1      -3.373   5.427   0.956  0.00  0.00     0.003 A 
ATOM      5  C3  PXY d   1      -2.212   4.915   0.437  0.00  0.00     0.003 A 
ATOM      6  C4  PXY d   1      -1.927   3.581   0.559  0.00  0.00    -0.082 A 
ATOM      7  C5  PXY d   1      -2.818   2.763   1.157  0.00  0.00     0.003 A 
ATOM      8  C6  PXY d   1      -4.010   3.295   1.641  0.00  0.00     0.003 A 
ENDROOT
TORSDOF 0
ENDMDL
