MODEL 1
REMARK minimizedAffinity -0.95200181
REMARK minimizedRMSD -1
REMARK  0 active torsions:
REMARK  status: ('A' for Active; 'I' for Inactive)
ROOT
ATOM      1  C   UNL d   1       0.879   2.047   0.363  0.00  0.00     0.172 C 
ATOM      2  N   UNL d   1       1.676   0.871   0.622  0.00  0.00    -0.070 N 
ATOM      3  C1  UNL d   1       1.650  -0.288  -0.108  0.00  0.00    -0.004 A 
ATOM      4  C2  UNL d   1       2.551  -1.164   0.457  0.00  0.00    -0.047 A 
ATOM      5  C3  UNL d   1       3.139  -0.509   1.565  0.00  0.00    -0.047 A 
ATOM      6  C4  UNL d   1       2.579   0.748   1.644  0.00  0.00    -0.004 A 
ENDROOT
TORSDOF 0
ENDMDL
