MODEL 1
REMARK minimizedAffinity 5.03420782
REMARK minimizedRMSD -1
REMARK  0 active torsions:
REMARK  status: ('A' for Active; 'I' for Inactive)
ROOT
ATOM      1  C   UNL d   1       6.000   6.000   5.999  0.00  0.00     0.172 C 
ATOM      2  N   UNL d   1       5.329   4.905   5.338  0.00  0.00    -0.070 N 
ATOM      3  C1  UNL d   1       4.156   4.326   5.743  0.00  0.00    -0.004 A 
ATOM      4  C2  UNL d   1       3.851   3.322   4.850  0.00  0.00    -0.047 A 
ATOM      5  C3  UNL d   1       4.877   3.296   3.875  0.00  0.00    -0.047 A 
ATOM      6  C4  UNL d   1       5.779   4.286   4.202  0.00  0.00    -0.004 A 
ENDROOT
TORSDOF 0
ENDMDL
