MODEL 1
REMARK minimizedAffinity -2.54744887
REMARK minimizedRMSD -1
REMARK  0 active torsions:
REMARK  status: ('A' for Active; 'I' for Inactive)
ROOT
ATOM      1  C   UNL d   1       2.814   1.229   0.270  0.00  0.00     0.172 C 
ATOM      2  N   UNL d   1       2.712  -0.080  -0.330  0.00  0.00    -0.070 N 
ATOM      3  C1  UNL d   1       3.483  -0.548  -1.361  0.00  0.00    -0.004 A 
ATOM      4  C2  UNL d   1       3.077  -1.835  -1.641  0.00  0.00    -0.047 A 
ATOM      5  C3  UNL d   1       2.025  -2.151  -0.749  0.00  0.00    -0.047 A 
ATOM      6  C4  UNL d   1       1.819  -1.047   0.051  0.00  0.00    -0.004 A 
ENDROOT
TORSDOF 0
ENDMDL
