MODEL 1
REMARK minimizedAffinity -0.232230395
REMARK minimizedRMSD -1
REMARK  0 active torsions:
REMARK  status: ('A' for Active; 'I' for Inactive)
ROOT
ATOM      1  C   UNL d   1       4.876   2.509   4.466  0.00  0.00     0.172 C 
ATOM      2  N   UNL d   1       5.149   3.868   4.872  0.00  0.00    -0.070 N 
ATOM      3  C1  UNL d   1       4.603   4.502   5.957  0.00  0.00    -0.004 A 
ATOM      4  C2  UNL d   1       5.115   5.781   6.000  0.00  0.00    -0.047 A 
ATOM      5  C3  UNL d   1       5.998   5.920   4.903  0.00  0.00    -0.047 A 
ATOM      6  C4  UNL d   1       6.000   4.721   4.222  0.00  0.00    -0.004 A 
ENDROOT
TORSDOF 0
ENDMDL
