MODEL 1
REMARK minimizedAffinity -0.0588859506
REMARK minimizedRMSD -1
REMARK  0 active torsions:
REMARK  status: ('A' for Active; 'I' for Inactive)
ROOT
ATOM      1  C   UNL d   1       4.252   2.800   4.509  0.00  0.00     0.172 C 
ATOM      2  N   UNL d   1       4.777   4.090   4.890  0.00  0.00    -0.070 N 
ATOM      3  C1  UNL d   1       5.800   4.752   4.266  0.00  0.00    -0.004 A 
ATOM      4  C2  UNL d   1       5.999   5.944   4.928  0.00  0.00    -0.047 A 
ATOM      5  C3  UNL d   1       5.064   6.000   5.989  0.00  0.00    -0.047 A 
ATOM      6  C4  UNL d   1       4.320   4.840   5.942  0.00  0.00    -0.004 A 
ENDROOT
TORSDOF 0
ENDMDL
