MODEL 1
REMARK minimizedAffinity -2.15747166
REMARK minimizedRMSD -1
REMARK  0 active torsions:
REMARK  status: ('A' for Active; 'I' for Inactive)
ROOT
ATOM      1  C   UNL d   1       2.235   0.663   0.477  0.00  0.00     0.172 C 
ATOM      2  N   UNL d   1       2.706  -0.470  -0.284  0.00  0.00    -0.070 N 
ATOM      3  C1  UNL d   1       2.298  -1.767  -0.119  0.00  0.00    -0.004 A 
ATOM      4  C2  UNL d   1       2.979  -2.543  -1.033  0.00  0.00    -0.047 A 
ATOM      5  C3  UNL d   1       3.826  -1.682  -1.771  0.00  0.00    -0.047 A 
ATOM      6  C4  UNL d   1       3.637  -0.405  -1.287  0.00  0.00    -0.004 A 
ENDROOT
TORSDOF 0
ENDMDL
