MODEL 1
REMARK minimizedAffinity 1.07053292
REMARK minimizedRMSD -1
REMARK  0 active torsions:
REMARK  status: ('A' for Active; 'I' for Inactive)
ROOT
ATOM      1  C   UNL d   1       0.813   1.045  -0.265  0.00  0.00     0.172 C 
ATOM      2  N   UNL d   1       0.463  -0.304  -0.642  0.00  0.00    -0.070 N 
ATOM      3  C1  UNL d   1       1.196  -1.427  -0.362  0.00  0.00    -0.004 A 
ATOM      4  C2  UNL d   1       0.527  -2.510  -0.891  0.00  0.00    -0.047 A 
ATOM      5  C3  UNL d   1      -0.648  -2.021  -1.510  0.00  0.00    -0.047 A 
ATOM      6  C4  UNL d   1      -0.662  -0.653  -1.342  0.00  0.00    -0.004 A 
ENDROOT
TORSDOF 0
ENDMDL
