MODEL 1
REMARK minimizedAffinity 0.886631489
REMARK minimizedRMSD -1
REMARK  0 active torsions:
REMARK  status: ('A' for Active; 'I' for Inactive)
ROOT
ATOM      1  C   UNL d   1      -0.401   1.927   0.537  0.00  0.00     0.172 C 
ATOM      2  N   UNL d   1      -1.759   1.747   0.992  0.00  0.00    -0.070 N 
ATOM      3  C1  UNL d   1      -2.237   2.080   2.232  0.00  0.00    -0.004 A 
ATOM      4  C2  UNL d   1      -3.575   1.753   2.271  0.00  0.00    -0.047 A 
ATOM      5  C3  UNL d   1      -3.913   1.203   1.011  0.00  0.00    -0.047 A 
ATOM      6  C4  UNL d   1      -2.771   1.212   0.239  0.00  0.00    -0.004 A 
ENDROOT
TORSDOF 0
ENDMDL
