MODEL 1
REMARK minimizedAffinity -1.07367885
REMARK minimizedRMSD -1
REMARK  0 active torsions:
REMARK  status: ('A' for Active; 'I' for Inactive)
ROOT
ATOM      1  C   UNL d   1      -0.521   0.093  -0.523  0.00  0.00     0.172 C 
ATOM      2  N   UNL d   1      -1.274   0.754   0.517  0.00  0.00    -0.070 N 
ATOM      3  C1  UNL d   1      -0.749   1.554   1.497  0.00  0.00    -0.004 A 
ATOM      4  C2  UNL d   1      -1.789   1.990   2.289  0.00  0.00    -0.047 A 
ATOM      5  C3  UNL d   1      -2.981   1.432   1.767  0.00  0.00    -0.047 A 
ATOM      6  C4  UNL d   1      -2.632   0.671   0.671  0.00  0.00    -0.004 A 
ENDROOT
TORSDOF 0
ENDMDL
