MODEL 1
REMARK minimizedAffinity 0.68156451
REMARK minimizedRMSD -1
REMARK  0 active torsions:
REMARK  status: ('A' for Active; 'I' for Inactive)
ROOT
ATOM      1  C   UNL d   1       5.397  -0.368  -1.859  0.00  0.00     0.172 C 
ATOM      2  N   UNL d   1       4.376  -1.384  -1.965  0.00  0.00    -0.070 N 
ATOM      3  C1  UNL d   1       3.373  -1.606  -1.060  0.00  0.00    -0.004 A 
ATOM      4  C2  UNL d   1       2.612  -2.657  -1.522  0.00  0.00    -0.047 A 
ATOM      5  C3  UNL d   1       3.177  -3.083  -2.748  0.00  0.00    -0.047 A 
ATOM      6  C4  UNL d   1       4.268  -2.278  -2.998  0.00  0.00    -0.004 A 
ENDROOT
TORSDOF 0
ENDMDL
