MODEL 1
REMARK minimizedAffinity 0.357128799
REMARK minimizedRMSD -1
REMARK  0 active torsions:
REMARK  status: ('A' for Active; 'I' for Inactive)
ROOT
ATOM      1  C   UNL d   1      -0.879  -2.199  -2.047  0.00  0.00     0.172 C 
ATOM      2  N   UNL d   1      -0.393  -1.071  -1.288  0.00  0.00    -0.070 N 
ATOM      3  C1  UNL d   1      -0.852   0.215  -1.387  0.00  0.00    -0.004 A 
ATOM      4  C2  UNL d   1      -0.134   0.989  -0.500  0.00  0.00    -0.047 A 
ATOM      5  C3  UNL d   1       0.788   0.138   0.154  0.00  0.00    -0.047 A 
ATOM      6  C4  UNL d   1       0.606  -1.132  -0.352  0.00  0.00    -0.004 A 
ENDROOT
TORSDOF 0
ENDMDL
