MODEL 1
REMARK minimizedAffinity 1.86405802
REMARK minimizedRMSD -1
REMARK  0 active torsions:
REMARK  status: ('A' for Active; 'I' for Inactive)
ROOT
ATOM      1  C   UNL d   1       2.433   0.078  -0.954  0.00  0.00     0.020 A 
ATOM      2  C1  UNL d   1       1.640  -0.043  -2.094  0.00  0.00     0.020 A 
ATOM      3  C2  UNL d   1       0.258  -0.203  -1.969  0.00  0.00     0.034 A 
ATOM      4  C3  UNL d   1      -0.334  -0.243  -0.702  0.00  0.00     0.017 A 
ATOM      5  C4  UNL d   1       0.463  -0.122   0.442  0.00  0.00     0.017 A 
ATOM      6  C5  UNL d   1       1.846   0.038   0.312  0.00  0.00     0.034 A 
ATOM      7 Cl   UNL d   1      -0.196  -0.162   2.039  0.00  0.00    -0.070 Cl
ATOM      8 Cl1  UNL d   1      -2.049  -0.444  -0.623  0.00  0.00    -0.070 Cl
ENDROOT
TORSDOF 0
ENDMDL
