MODEL 1
REMARK minimizedAffinity 1.07601571
REMARK minimizedRMSD -1
REMARK  0 active torsions:
REMARK  status: ('A' for Active; 'I' for Inactive)
ROOT
ATOM      1  C   UNL d   1      -1.707   0.006   1.877  0.00  0.00     0.020 A 
ATOM      2  C1  UNL d   1      -1.471  -0.884   2.924  0.00  0.00     0.020 A 
ATOM      3  C2  UNL d   1      -0.447  -1.829   2.819  0.00  0.00     0.034 A 
ATOM      4  C3  UNL d   1       0.344  -1.885   1.666  0.00  0.00     0.017 A 
ATOM      5  C4  UNL d   1       0.106  -0.991   0.616  0.00  0.00     0.017 A 
ATOM      6  C5  UNL d   1      -0.920  -0.047   0.726  0.00  0.00     0.034 A 
ATOM      7 Cl   UNL d   1       1.041  -0.999  -0.838  0.00  0.00    -0.070 Cl
ATOM      8 Cl1  UNL d   1       1.592  -3.078   1.606  0.00  0.00    -0.070 Cl
ENDROOT
TORSDOF 0
ENDMDL
