MODEL 1
REMARK minimizedAffinity -1.22706819
REMARK minimizedRMSD -1
REMARK  0 active torsions:
REMARK  status: ('A' for Active; 'I' for Inactive)
ROOT
ATOM      1  C   UNL d   1      -1.359  -4.036   3.208  0.00  0.00     0.020 A 
ATOM      2  C1  UNL d   1      -0.319  -4.922   3.490  0.00  0.00     0.020 A 
ATOM      3  C2  UNL d   1       0.926  -4.754   2.880  0.00  0.00     0.034 A 
ATOM      4  C3  UNL d   1       1.134  -3.699   1.985  0.00  0.00     0.017 A 
ATOM      5  C4  UNL d   1       0.091  -2.811   1.702  0.00  0.00     0.017 A 
ATOM      6  C5  UNL d   1      -1.154  -2.983   2.316  0.00  0.00     0.034 A 
ATOM      7 Cl   UNL d   1       0.272  -1.485   0.609  0.00  0.00    -0.070 Cl
ATOM      8 Cl1  UNL d   1       2.699  -3.552   1.268  0.00  0.00    -0.070 Cl
ENDROOT
TORSDOF 0
ENDMDL
