MODEL 1
REMARK minimizedAffinity -2.17004418
REMARK minimizedRMSD -1
REMARK  0 active torsions:
REMARK  status: ('A' for Active; 'I' for Inactive)
ROOT
ATOM      1  C   UNL d   1      -1.266  -0.457   1.613  0.00  0.00     0.020 A 
ATOM      2  C1  UNL d   1      -0.059  -0.588   0.928  0.00  0.00     0.020 A 
ATOM      3  C2  UNL d   1       0.722  -1.733   1.102  0.00  0.00     0.034 A 
ATOM      4  C3  UNL d   1       0.297  -2.750   1.965  0.00  0.00     0.017 A 
ATOM      5  C4  UNL d   1      -0.914  -2.617   2.652  0.00  0.00     0.017 A 
ATOM      6  C5  UNL d   1      -1.693  -1.470   2.474  0.00  0.00     0.034 A 
ATOM      7 Cl   UNL d   1      -1.504  -3.830   3.733  0.00  0.00    -0.070 Cl
ATOM      8 Cl1  UNL d   1       1.314  -4.137   2.132  0.00  0.00    -0.070 Cl
ENDROOT
TORSDOF 0
ENDMDL
