MODEL 1
REMARK minimizedAffinity -1.91779411
REMARK minimizedRMSD -1
REMARK  0 active torsions:
REMARK  status: ('A' for Active; 'I' for Inactive)
ROOT
ATOM      1  C   UNL d   1       1.537  -4.525   2.235  0.00  0.00     0.020 A 
ATOM      2  C1  UNL d   1       2.073  -3.660   1.281  0.00  0.00     0.020 A 
ATOM      3  C2  UNL d   1       1.465  -2.426   1.038  0.00  0.00     0.034 A 
ATOM      4  C3  UNL d   1       0.319  -2.054   1.750  0.00  0.00     0.017 A 
ATOM      5  C4  UNL d   1      -0.218  -2.922   2.707  0.00  0.00     0.017 A 
ATOM      6  C5  UNL d   1       0.394  -4.156   2.946  0.00  0.00     0.034 A 
ATOM      7 Cl   UNL d   1      -1.630  -2.533   3.624  0.00  0.00    -0.070 Cl
ATOM      8 Cl1  UNL d   1      -0.380  -0.513   1.398  0.00  0.00    -0.070 Cl
ENDROOT
TORSDOF 0
ENDMDL
