MODEL 1
REMARK minimizedAffinity 5.46902943
REMARK minimizedRMSD -1
REMARK  0 active torsions:
REMARK  status: ('A' for Active; 'I' for Inactive)
ROOT
ATOM      1  C   UNL d   1      -0.724  -0.165   1.026  0.00  0.00     0.020 A 
ATOM      2  C1  UNL d   1       0.378  -0.447   0.219  0.00  0.00     0.020 A 
ATOM      3  C2  UNL d   1       1.095  -1.631   0.406  0.00  0.00     0.034 A 
ATOM      4  C3  UNL d   1       0.712  -2.536   1.402  0.00  0.00     0.017 A 
ATOM      5  C4  UNL d   1      -0.394  -2.252   2.211  0.00  0.00     0.017 A 
ATOM      6  C5  UNL d   1      -1.109  -1.065   2.020  0.00  0.00     0.034 A 
ATOM      7 Cl   UNL d   1      -0.927  -3.321   3.461  0.00  0.00    -0.070 Cl
ATOM      8 Cl1  UNL d   1       1.644  -3.981   1.577  0.00  0.00    -0.070 Cl
ENDROOT
TORSDOF 0
ENDMDL
