MODEL 1
REMARK minimizedAffinity -0.390816182
REMARK minimizedRMSD -1
REMARK  0 active torsions:
REMARK  status: ('A' for Active; 'I' for Inactive)
ROOT
ATOM      1  C   UNL d   1      -1.382  -0.286   1.689  0.00  0.00     0.020 A 
ATOM      2  C1  UNL d   1      -1.001  -1.098   2.756  0.00  0.00     0.020 A 
ATOM      3  C2  UNL d   1      -0.046  -2.100   2.566  0.00  0.00     0.034 A 
ATOM      4  C3  UNL d   1       0.529  -2.293   1.305  0.00  0.00     0.017 A 
ATOM      5  C4  UNL d   1       0.145  -1.478   0.233  0.00  0.00     0.017 A 
ATOM      6  C5  UNL d   1      -0.811  -0.476   0.430  0.00  0.00     0.034 A 
ATOM      7 Cl   UNL d   1       0.811  -1.655  -1.352  0.00  0.00    -0.070 Cl
ATOM      8 Cl1  UNL d   1       1.703  -3.550   1.141  0.00  0.00    -0.070 Cl
ENDROOT
TORSDOF 0
ENDMDL
