MODEL 1
REMARK minimizedAffinity 3.08504248
REMARK minimizedRMSD -1
REMARK  0 active torsions:
REMARK  status: ('A' for Active; 'I' for Inactive)
ROOT
ATOM      1  C   UNL d   1       1.651  -3.274   1.700  0.00  0.00     0.020 A 
ATOM      2  C1  UNL d   1       0.694  -2.841   2.617  0.00  0.00     0.020 A 
ATOM      3  C2  UNL d   1      -0.125  -1.753   2.310  0.00  0.00     0.034 A 
ATOM      4  C3  UNL d   1       0.012  -1.092   1.084  0.00  0.00     0.017 A 
ATOM      5  C4  UNL d   1       0.973  -1.527   0.164  0.00  0.00     0.017 A 
ATOM      6  C5  UNL d   1       1.790  -2.618   0.476  0.00  0.00     0.034 A 
ATOM      7 Cl   UNL d   1       1.200  -0.763  -1.370  0.00  0.00    -0.070 Cl
ATOM      8 Cl1  UNL d   1      -1.035   0.247   0.771  0.00  0.00    -0.070 Cl
ENDROOT
TORSDOF 0
ENDMDL
