MODEL 1
REMARK minimizedAffinity 15.8914814
REMARK minimizedRMSD -1
REMARK  2 active torsions:
REMARK  status: ('A' for Active; 'I' for Inactive)
REMARK    1  A    between atoms: C2'_3  and  C1'_4 
REMARK    2  A    between atoms: C1'_4  and  C1_5 
ROOT
ATOM      1  C1  I4B d   1       3.999  -5.629  -3.216  0.00  0.00    -0.075 A 
ATOM      2  C2  I4B d   1       5.257  -5.241  -3.606  0.00  0.00     0.003 A 
ATOM      3  C3  I4B d   1       5.601  -5.214  -4.979  0.00  0.00     0.002 A 
ATOM      4  C4  I4B d   1       4.679  -5.629  -5.919  0.00  0.00    -0.004 A 
ATOM      5  C5  I4B d   1       3.397  -6.000  -5.524  0.00  0.00     0.002 A 
ATOM      6  C6  I4B d   1       3.051  -5.988  -4.165  0.00  0.00     0.003 A 
ENDROOT
BRANCH   1   7
ATOM      7  C1' I4B d   1       3.680  -5.677  -1.756  0.00  0.00     0.060 C 
BRANCH   7   8
ATOM      8  C2' I4B d   1       4.679  -4.798  -1.030  0.00  0.00    -0.013 C 
ATOM      9  C4' I4B d   1       3.996  -3.635  -0.361  0.00  0.00     0.013 C 
ATOM     10  C3' I4B d   1       5.403  -5.649  -0.030  0.00  0.00     0.013 C 
ENDBRANCH   7   8
ENDBRANCH   1   7
TORSDOF 2
ENDMDL
