MODEL 1
REMARK minimizedAffinity 9.43473911
REMARK minimizedRMSD -1
REMARK  2 active torsions:
REMARK  status: ('A' for Active; 'I' for Inactive)
REMARK    1  A    between atoms: C2'_3  and  C1'_4 
REMARK    2  A    between atoms: C1'_4  and  C1_5 
ROOT
ATOM      1  C1  I4B d   1      -1.673   1.995  -1.860  0.00  0.00    -0.075 A 
ATOM      2  C2  I4B d   1      -2.405   2.409  -2.944  0.00  0.00     0.003 A 
ATOM      3  C3  I4B d   1      -3.646   1.796  -3.243  0.00  0.00     0.002 A 
ATOM      4  C4  I4B d   1      -4.089   0.745  -2.466  0.00  0.00    -0.004 A 
ATOM      5  C5  I4B d   1      -3.356   0.342  -1.353  0.00  0.00     0.002 A 
ATOM      6  C6  I4B d   1      -2.146   0.978  -1.041  0.00  0.00     0.003 A 
ENDROOT
BRANCH   1   7
ATOM      7  C1' I4B d   1      -0.351   2.642  -1.593  0.00  0.00     0.060 C 
BRANCH   7   8
ATOM      8  C2' I4B d   1      -0.399   3.247  -0.204  0.00  0.00    -0.013 C 
ATOM      9  C4' I4B d   1      -1.799   3.669   0.158  0.00  0.00     0.013 C 
ATOM     10  C3' I4B d   1       0.126   2.228   0.763  0.00  0.00     0.013 C 
ENDBRANCH   7   8
ENDBRANCH   1   7
TORSDOF 2
ENDMDL
