MODEL 1
REMARK minimizedAffinity 10.6194086
REMARK minimizedRMSD -1
REMARK  2 active torsions:
REMARK  status: ('A' for Active; 'I' for Inactive)
REMARK    1  A    between atoms: C2'_3  and  C1'_4 
REMARK    2  A    between atoms: C1'_4  and  C1_5 
ROOT
ATOM      1  C1  I4B d   1      -0.350   3.144  -0.823  0.00  0.00    -0.075 A 
ATOM      2  C2  I4B d   1      -1.625   3.570  -0.548  0.00  0.00     0.003 A 
ATOM      3  C3  I4B d   1      -2.280   3.144   0.633  0.00  0.00     0.002 A 
ATOM      4  C4  I4B d   1      -1.646   2.258   1.480  0.00  0.00    -0.004 A 
ATOM      5  C5  I4B d   1      -0.344   1.845   1.211  0.00  0.00     0.002 A 
ATOM      6  C6  I4B d   1       0.313   2.300   0.059  0.00  0.00     0.003 A 
ENDROOT
BRANCH   1   7
ATOM      7  C1' I4B d   1       0.299   3.587  -2.096  0.00  0.00     0.060 C 
BRANCH   7   8
ATOM      8  C2' I4B d   1       0.523   5.083  -2.009  0.00  0.00    -0.013 C 
ATOM      9  C4' I4B d   1       1.571   5.419  -0.982  0.00  0.00     0.013 C 
ATOM     10  C3' I4B d   1       0.922   5.571  -3.370  0.00  0.00     0.013 C 
ENDBRANCH   7   8
ENDBRANCH   1   7
TORSDOF 2
ENDMDL
