MODEL 1
REMARK minimizedAffinity 12.9544554
REMARK minimizedRMSD -1
REMARK  2 active torsions:
REMARK  status: ('A' for Active; 'I' for Inactive)
REMARK    1  A    between atoms: C2'_3  and  C1'_4 
REMARK    2  A    between atoms: C1'_4  and  C1_5 
ROOT
ATOM      1  C1  I4B d   1      -2.236   3.097  -3.538  0.00  0.00    -0.075 A 
ATOM      2  C2  I4B d   1      -0.869   3.029  -3.439  0.00  0.00     0.003 A 
ATOM      3  C3  I4B d   1      -0.071   4.137  -3.812  0.00  0.00     0.002 A 
ATOM      4  C4  I4B d   1      -0.675   5.268  -4.323  0.00  0.00    -0.004 A 
ATOM      5  C5  I4B d   1      -2.063   5.344  -4.400  0.00  0.00     0.002 A 
ATOM      6  C6  I4B d   1      -2.849   4.257  -3.994  0.00  0.00     0.003 A 
ENDROOT
BRANCH   1   7
ATOM      7  C1' I4B d   1      -3.047   1.896  -3.166  0.00  0.00     0.060 C 
BRANCH   7   8
ATOM      8  C2' I4B d   1      -3.036   1.775  -1.656  0.00  0.00    -0.013 C 
ATOM      9  C4' I4B d   1      -3.677   0.487  -1.208  0.00  0.00     0.013 C 
ATOM     10  C3' I4B d   1      -1.612   1.860  -1.194  0.00  0.00     0.013 C 
ENDBRANCH   7   8
ENDBRANCH   1   7
TORSDOF 2
ENDMDL
