MODEL 1
REMARK minimizedAffinity 22.4986725
REMARK minimizedRMSD -1
REMARK  2 active torsions:
REMARK  status: ('A' for Active; 'I' for Inactive)
REMARK    1  A    between atoms: C2'_3  and  C1'_4 
REMARK    2  A    between atoms: C1'_4  and  C1_5 
ROOT
ATOM      1  C1  I4B d   1       3.289  -5.228  -1.281  0.00  0.00    -0.075 A 
ATOM      2  C2  I4B d   1       3.583  -4.091  -0.570  0.00  0.00     0.003 A 
ATOM      3  C3  I4B d   1       2.545  -3.337   0.030  0.00  0.00     0.002 A 
ATOM      4  C4  I4B d   1       1.233  -3.725  -0.148  0.00  0.00    -0.004 A 
ATOM      5  C5  I4B d   1       0.938  -4.891  -0.850  0.00  0.00     0.002 A 
ATOM      6  C6  I4B d   1       1.973  -5.654  -1.410  0.00  0.00     0.003 A 
ENDROOT
BRANCH   1   7
ATOM      7  C1' I4B d   1       4.406  -5.982  -1.929  0.00  0.00     0.060 C 
BRANCH   7   8
ATOM      8  C2' I4B d   1       5.699  -5.572  -1.255  0.00  0.00    -0.013 C 
ATOM      9  C4' I4B d   1       5.938  -4.091  -1.390  0.00  0.00     0.013 C 
ATOM     10  C3' I4B d   1       5.619  -5.978   0.186  0.00  0.00     0.013 C 
ENDBRANCH   7   8
ENDBRANCH   1   7
TORSDOF 2
ENDMDL
