MODEL 1
REMARK minimizedAffinity 8.96746063
REMARK minimizedRMSD -1
REMARK  2 active torsions:
REMARK  status: ('A' for Active; 'I' for Inactive)
REMARK    1  A    between atoms: C2'_3  and  C1'_4 
REMARK    2  A    between atoms: C1'_4  and  C1_5 
ROOT
ATOM      1  C1  I4B d   1      -0.958   2.048  -0.982  0.00  0.00    -0.075 A 
ATOM      2  C2  I4B d   1      -0.610   3.301  -1.420  0.00  0.00     0.003 A 
ATOM      3  C3  I4B d   1       0.246   4.117  -0.640  0.00  0.00     0.002 A 
ATOM      4  C4  I4B d   1       0.686   3.662   0.586  0.00  0.00    -0.004 A 
ATOM      5  C5  I4B d   1       0.350   2.382   1.018  0.00  0.00     0.002 A 
ATOM      6  C6  I4B d   1      -0.467   1.565   0.224  0.00  0.00     0.003 A 
ENDROOT
BRANCH   1   7
ATOM      7  C1' I4B d   1      -1.889   1.226  -1.816  0.00  0.00     0.060 C 
BRANCH   7   8
ATOM      8  C2' I4B d   1      -3.203   1.108  -1.069  0.00  0.00    -0.013 C 
ATOM      9  C4' I4B d   1      -4.362   0.979  -2.022  0.00  0.00     0.013 C 
ATOM     10  C3' I4B d   1      -3.114  -0.081  -0.161  0.00  0.00     0.013 C 
ENDBRANCH   7   8
ENDBRANCH   1   7
TORSDOF 2
ENDMDL
