MODEL 1
REMARK minimizedAffinity 14.6538467
REMARK minimizedRMSD -1
REMARK  2 active torsions:
REMARK  status: ('A' for Active; 'I' for Inactive)
REMARK    1  A    between atoms: C2'_3  and  C1'_4 
REMARK    2  A    between atoms: C1'_4  and  C1_5 
ROOT
ATOM      1  C1  I4B d   1      -2.049   5.677  -0.366  0.00  0.00    -0.075 A 
ATOM      2  C2  I4B d   1      -2.094   5.863   0.993  0.00  0.00     0.003 A 
ATOM      3  C3  I4B d   1      -3.339   6.000   1.653  0.00  0.00     0.002 A 
ATOM      4  C4  I4B d   1      -4.504   5.997   0.914  0.00  0.00    -0.004 A 
ATOM      5  C5  I4B d   1      -4.458   5.786  -0.461  0.00  0.00     0.002 A 
ATOM      6  C6  I4B d   1      -3.224   5.613  -1.104  0.00  0.00     0.003 A 
ENDROOT
BRANCH   1   7
ATOM      7  C1' I4B d   1      -0.716   5.569  -1.036  0.00  0.00     0.060 C 
BRANCH   7   8
ATOM      8  C2' I4B d   1      -0.500   4.117  -1.413  0.00  0.00    -0.013 C 
ATOM      9  C4' I4B d   1      -0.296   3.964  -2.897  0.00  0.00     0.013 C 
ATOM     10  C3' I4B d   1       0.687   3.613  -0.648  0.00  0.00     0.013 C 
ENDBRANCH   7   8
ENDBRANCH   1   7
TORSDOF 2
ENDMDL
