MODEL 1
REMARK minimizedAffinity 8.63290119
REMARK minimizedRMSD -1
REMARK  2 active torsions:
REMARK  status: ('A' for Active; 'I' for Inactive)
REMARK    1  A    between atoms: C2'_3  and  C1'_4 
REMARK    2  A    between atoms: C1'_4  and  C1_5 
ROOT
ATOM      1  C1  I4B d   1      -0.696   4.918  -1.076  0.00  0.00    -0.075 A 
ATOM      2  C2  I4B d   1      -1.867   5.193  -1.737  0.00  0.00     0.003 A 
ATOM      3  C3  I4B d   1      -1.837   5.718  -3.052  0.00  0.00     0.002 A 
ATOM      4  C4  I4B d   1      -0.623   5.998  -3.645  0.00  0.00    -0.004 A 
ATOM      5  C5  I4B d   1       0.564   5.697  -2.982  0.00  0.00     0.002 A 
ATOM      6  C6  I4B d   1       0.527   5.142  -1.695  0.00  0.00     0.003 A 
ENDROOT
BRANCH   1   7
ATOM      7  C1' I4B d   1      -0.764   4.395   0.323  0.00  0.00     0.060 C 
BRANCH   7   8
ATOM      8  C2' I4B d   1       0.001   3.088   0.371  0.00  0.00    -0.013 C 
ATOM      9  C4' I4B d   1      -0.292   2.332   1.640  0.00  0.00     0.013 C 
ATOM     10  C3' I4B d   1      -0.377   2.285  -0.837  0.00  0.00     0.013 C 
ENDBRANCH   7   8
ENDBRANCH   1   7
TORSDOF 2
ENDMDL
