MODEL 1
REMARK minimizedAffinity 1.33427322
REMARK minimizedRMSD -1
REMARK  0 active torsions:
REMARK  status: ('A' for Active; 'I' for Inactive)
ROOT
ATOM      1  C   UNL d   1       0.197  -1.289   2.733  0.00  0.00     0.172 C 
ATOM      2  N   UNL d   1      -0.867  -0.435   2.262  0.00  0.00    -0.070 N 
ATOM      3  C1  UNL d   1      -1.330  -0.373   0.974  0.00  0.00    -0.004 A 
ATOM      4  C2  UNL d   1      -2.346   0.557   0.935  0.00  0.00    -0.047 A 
ATOM      5  C3  UNL d   1      -2.498   1.073   2.244  0.00  0.00    -0.047 A 
ATOM      6  C4  UNL d   1      -1.571   0.441   3.045  0.00  0.00    -0.004 A 
ENDROOT
TORSDOF 0
ENDMDL
