MODEL 1
REMARK minimizedAffinity -2.07317328
REMARK minimizedRMSD -1
REMARK  0 active torsions:
REMARK  status: ('A' for Active; 'I' for Inactive)
ROOT
ATOM      1  C   UNL d   1      -0.940  -0.185   2.872  0.00  0.00     0.172 C 
ATOM      2  N   UNL d   1      -1.843  -0.020   1.757  0.00  0.00    -0.070 N 
ATOM      3  C1  UNL d   1      -2.872   0.881   1.690  0.00  0.00    -0.004 A 
ATOM      4  C2  UNL d   1      -3.491   0.724   0.469  0.00  0.00    -0.047 A 
ATOM      5  C3  UNL d   1      -2.811  -0.307  -0.221  0.00  0.00    -0.047 A 
ATOM      6  C4  UNL d   1      -1.795  -0.750   0.599  0.00  0.00    -0.004 A 
ENDROOT
TORSDOF 0
ENDMDL
