MODEL 1
REMARK minimizedAffinity -0.637306035
REMARK minimizedRMSD -1
REMARK  0 active torsions:
REMARK  status: ('A' for Active; 'I' for Inactive)
ROOT
ATOM      1  C   UNL d   1      -0.495  -1.131  -2.420  0.00  0.00     0.172 C 
ATOM      2  N   UNL d   1      -0.384  -0.754  -3.810  0.00  0.00    -0.070 N 
ATOM      3  C1  UNL d   1      -0.613   0.497  -4.318  0.00  0.00    -0.004 A 
ATOM      4  C2  UNL d   1      -0.401   0.445  -5.679  0.00  0.00    -0.047 A 
ATOM      5  C3  UNL d   1      -0.031  -0.883  -5.999  0.00  0.00    -0.047 A 
ATOM      6  C4  UNL d   1      -0.028  -1.604  -4.824  0.00  0.00    -0.004 A 
ENDROOT
TORSDOF 0
ENDMDL
