MODEL 1
REMARK minimizedAffinity -1.27208936
REMARK minimizedRMSD -1
REMARK  0 active torsions:
REMARK  status: ('A' for Active; 'I' for Inactive)
ROOT
ATOM      1  C   UNL d   1      -1.516   0.677  -5.999  0.00  0.00     0.172 C 
ATOM      2  N   UNL d   1      -0.980  -0.391  -5.188  0.00  0.00    -0.070 N 
ATOM      3  C1  UNL d   1      -0.945  -0.413  -3.819  0.00  0.00    -0.004 A 
ATOM      4  C2  UNL d   1      -0.361  -1.599  -3.431  0.00  0.00    -0.047 A 
ATOM      5  C3  UNL d   1      -0.032  -2.314  -4.607  0.00  0.00    -0.047 A 
ATOM      6  C4  UNL d   1      -0.427  -1.543  -5.680  0.00  0.00    -0.004 A 
ENDROOT
TORSDOF 0
ENDMDL
