MODEL 1
REMARK minimizedAffinity -3.52312994
REMARK minimizedRMSD -1
REMARK  0 active torsions:
REMARK  status: ('A' for Active; 'I' for Inactive)
ROOT
ATOM      1  C   UNL d   1       2.512  -0.011  -5.547  0.00  0.00     0.172 C 
ATOM      2  N   UNL d   1       1.262  -0.342  -4.905  0.00  0.00    -0.070 N 
ATOM      3  C1  UNL d   1       1.081  -1.322  -3.966  0.00  0.00    -0.004 A 
ATOM      4  C2  UNL d   1      -0.249  -1.319  -3.605  0.00  0.00    -0.047 A 
ATOM      5  C3  UNL d   1      -0.890  -0.304  -4.353  0.00  0.00    -0.047 A 
ATOM      6  C4  UNL d   1       0.069   0.286  -5.150  0.00  0.00    -0.004 A 
ENDROOT
TORSDOF 0
ENDMDL
