MODEL 1
REMARK minimizedAffinity -1.96350181
REMARK minimizedRMSD -1
REMARK  0 active torsions:
REMARK  status: ('A' for Active; 'I' for Inactive)
ROOT
ATOM      1  C   UNL d   1       0.096  -1.426  -5.269  0.00  0.00     0.172 C 
ATOM      2  N   UNL d   1      -1.098  -0.614  -5.282  0.00  0.00    -0.070 N 
ATOM      3  C1  UNL d   1      -2.319  -0.997  -5.769  0.00  0.00    -0.004 A 
ATOM      4  C2  UNL d   1      -3.191   0.056  -5.598  0.00  0.00    -0.047 A 
ATOM      5  C3  UNL d   1      -2.469   1.109  -4.988  0.00  0.00    -0.047 A 
ATOM      6  C4  UNL d   1      -1.176   0.667  -4.804  0.00  0.00    -0.004 A 
ENDROOT
TORSDOF 0
ENDMDL
