MODEL 1
REMARK minimizedAffinity -1.14015424
REMARK minimizedRMSD -1
REMARK  0 active torsions:
REMARK  status: ('A' for Active; 'I' for Inactive)
ROOT
ATOM      1  C   UNL d   1      -4.124  -0.733  -5.249  0.00  0.00     0.172 C 
ATOM      2  N   UNL d   1      -2.697  -0.698  -5.468  0.00  0.00    -0.070 N 
ATOM      3  C1  UNL d   1      -1.934  -1.739  -5.924  0.00  0.00    -0.004 A 
ATOM      4  C2  UNL d   1      -0.628  -1.305  -5.997  0.00  0.00    -0.047 A 
ATOM      5  C3  UNL d   1      -0.606   0.044  -5.570  0.00  0.00    -0.047 A 
ATOM      6  C4  UNL d   1      -1.900   0.395  -5.249  0.00  0.00    -0.004 A 
ENDROOT
TORSDOF 0
ENDMDL
