MODEL 1
REMARK minimizedAffinity -0.226693898
REMARK minimizedRMSD -1
REMARK  0 active torsions:
REMARK  status: ('A' for Active; 'I' for Inactive)
ROOT
ATOM      1  C   UNL d   1       4.816   4.126   1.827  0.00  0.00     0.172 C 
ATOM      2  N   UNL d   1       4.815   3.248   2.974  0.00  0.00    -0.070 N 
ATOM      3  C1  UNL d   1       4.651   1.889   2.939  0.00  0.00    -0.004 A 
ATOM      4  C2  UNL d   1       4.712   1.423   4.234  0.00  0.00    -0.047 A 
ATOM      5  C3  UNL d   1       4.919   2.541   5.077  0.00  0.00    -0.047 A 
ATOM      6  C4  UNL d   1       4.979   3.658   4.271  0.00  0.00    -0.004 A 
ENDROOT
TORSDOF 0
ENDMDL
