MODEL 1
REMARK minimizedAffinity 2.29560971
REMARK minimizedRMSD -1
REMARK  0 active torsions:
REMARK  status: ('A' for Active; 'I' for Inactive)
ROOT
ATOM      1  C   UNL d   1       4.492   2.905   1.933  0.00  0.00     0.172 C 
ATOM      2  N   UNL d   1       4.822   2.218   3.159  0.00  0.00    -0.070 N 
ATOM      3  C1  UNL d   1       5.451   1.006   3.251  0.00  0.00    -0.004 A 
ATOM      4  C2  UNL d   1       5.581   0.698   4.588  0.00  0.00    -0.047 A 
ATOM      5  C3  UNL d   1       5.009   1.762   5.325  0.00  0.00    -0.047 A 
ATOM      6  C4  UNL d   1       4.547   2.689   4.416  0.00  0.00    -0.004 A 
ENDROOT
TORSDOF 0
ENDMDL
