MODEL 1
REMARK minimizedAffinity -3.80743027
REMARK minimizedRMSD -1
REMARK  1 active torsions:
REMARK  status: ('A' for Active; 'I' for Inactive)
REMARK    1  A    between atoms: C1_2  and  C2_3 
ROOT
ATOM      1  C2  UNL d   1      -0.818  -0.202   0.956  0.00  0.00    -0.073 A 
ATOM      2  C3  UNL d   1      -1.350   0.365   2.120  0.00  0.00    -0.002 A 
ATOM      3  C4  UNL d   1      -0.580   1.228   2.900  0.00  0.00     0.004 A 
ATOM      4  C5  UNL d   1       0.726   1.539   2.521  0.00  0.00    -0.004 A 
ATOM      5  C6  UNL d   1       1.272   0.992   1.355  0.00  0.00    -0.075 A 
ATOM      6  C7  UNL d   1       2.676   1.315   0.936  0.00  0.00     0.076 C 
ATOM      7  C8  UNL d   1       0.493   0.124   0.579  0.00  0.00     0.001 A 
ENDROOT
BRANCH   1   8
ATOM      8  C1  UNL d   1      -1.648  -1.130   0.107  0.00  0.00     0.053 C 
ATOM      9  C   UNL d   1      -3.088  -0.656  -0.014  0.00  0.00     0.018 C 
ENDBRANCH   1   8
TORSDOF 1
ENDMDL
