MODEL 1
REMARK minimizedAffinity 1.68887234
REMARK minimizedRMSD -1
REMARK  1 active torsions:
REMARK  status: ('A' for Active; 'I' for Inactive)
REMARK    1  A    between atoms: C1_2  and  C2_3 
ROOT
ATOM      1  C2  UNL d   1       0.480   1.519   1.403  0.00  0.00    -0.073 A 
ATOM      2  C3  UNL d   1       0.095   1.592   2.747  0.00  0.00    -0.002 A 
ATOM      3  C4  UNL d   1      -1.044   0.920   3.191  0.00  0.00     0.004 A 
ATOM      4  C5  UNL d   1      -1.805   0.164   2.299  0.00  0.00    -0.004 A 
ATOM      5  C6  UNL d   1      -1.430   0.069   0.955  0.00  0.00    -0.075 A 
ATOM      6  C7  UNL d   1      -2.239  -0.738  -0.017  0.00  0.00     0.076 C 
ATOM      7  C8  UNL d   1      -0.286   0.749   0.517  0.00  0.00     0.001 A 
ENDROOT
BRANCH   1   8
ATOM      8  C1  UNL d   1       1.714   2.238   0.921  0.00  0.00     0.053 C 
ATOM      9  C   UNL d   1       2.990   1.534   1.352  0.00  0.00     0.018 C 
ENDBRANCH   1   8
TORSDOF 1
ENDMDL
