MODEL 1
REMARK minimizedAffinity 35.7541084
REMARK minimizedRMSD -1
REMARK  0 active torsions:
REMARK  status: ('A' for Active; 'I' for Inactive)
ROOT
ATOM      1  C   UNL d   1       4.885   1.103  -0.787  0.00  0.00     0.124 A 
ATOM      2  C1  UNL d   1       3.832   1.737  -1.433  0.00  0.00     0.062 A 
ATOM      3  C2  UNL d   1       2.672   1.031  -1.739  0.00  0.00     0.162 A 
ATOM      4  C3  UNL d   1       2.558  -0.317  -1.398  0.00  0.00    -0.034 A 
ATOM      5  C4  UNL d   1       3.621  -0.947  -0.749  0.00  0.00     0.162 A 
ATOM      6  C5  UNL d   1       4.778  -0.237  -0.446  0.00  0.00     0.062 A 
ATOM      7  F   UNL d   1       5.794  -0.851   0.179  0.00  0.00    -0.097 F 
ATOM      8  F1  UNL d   1       3.545  -2.242  -0.407  0.00  0.00    -0.096 F 
ATOM      9  I   UNL d   1       0.825  -1.376  -1.854  0.00  0.00    -0.060 I 
ATOM     10  F2  UNL d   1       1.671   1.668  -2.364  0.00  0.00    -0.096 F 
ATOM     11  F3  UNL d   1       3.933   3.032  -1.765  0.00  0.00    -0.097 F 
ATOM     12  F4  UNL d   1       6.000   1.785  -0.495  0.00  0.00    -0.092 F 
ENDROOT
TORSDOF 0
ENDMDL
