MODEL 1
REMARK minimizedAffinity 6.49598885
REMARK minimizedRMSD -1
REMARK  0 active torsions:
REMARK  status: ('A' for Active; 'I' for Inactive)
ROOT
ATOM      1  C   UNL d   1       3.169  -4.776  -2.386  0.00  0.00     0.124 A 
ATOM      2  C1  UNL d   1       3.755  -4.471  -1.166  0.00  0.00     0.062 A 
ATOM      3  C2  UNL d   1       3.610  -3.200  -0.618  0.00  0.00     0.162 A 
ATOM      4  C3  UNL d   1       2.873  -2.224  -1.289  0.00  0.00    -0.034 A 
ATOM      5  C4  UNL d   1       2.287  -2.538  -2.517  0.00  0.00     0.162 A 
ATOM      6  C5  UNL d   1       2.436  -3.810  -3.060  0.00  0.00     0.062 A 
ATOM      7  F   UNL d   1       1.869  -4.103  -4.240  0.00  0.00    -0.097 F 
ATOM      8  F1  UNL d   1       1.573  -1.624  -3.189  0.00  0.00    -0.096 F 
ATOM      9  I   UNL d   1       2.653  -0.322  -0.473  0.00  0.00    -0.060 I 
ATOM     10  F2  UNL d   1       4.187  -2.933   0.563  0.00  0.00    -0.096 F 
ATOM     11  F3  UNL d   1       4.465  -5.403  -0.513  0.00  0.00    -0.097 F 
ATOM     12  F4  UNL d   1       3.311  -6.000  -2.912  0.00  0.00    -0.092 F 
ENDROOT
TORSDOF 0
ENDMDL
