MODEL 1
REMARK minimizedAffinity 18.0136547
REMARK minimizedRMSD -1
REMARK  0 active torsions:
REMARK  status: ('A' for Active; 'I' for Inactive)
ROOT
ATOM      1  C   UNL d   1       3.480  -2.189  -0.444  0.00  0.00     0.124 A 
ATOM      2  C1  UNL d   1       3.517  -0.806  -0.333  0.00  0.00     0.062 A 
ATOM      3  C2  UNL d   1       2.757  -0.014  -1.188  0.00  0.00     0.162 A 
ATOM      4  C3  UNL d   1       1.952  -0.603  -2.163  0.00  0.00    -0.034 A 
ATOM      5  C4  UNL d   1       1.920  -1.994  -2.269  0.00  0.00     0.162 A 
ATOM      6  C5  UNL d   1       2.681  -2.782  -1.412  0.00  0.00     0.062 A 
ATOM      7  F   UNL d   1       2.644  -4.118  -1.521  0.00  0.00    -0.097 F 
ATOM      8  F1  UNL d   1       1.156  -2.593  -3.195  0.00  0.00    -0.096 F 
ATOM      9  I   UNL d   1       0.814   0.578  -3.444  0.00  0.00    -0.060 I 
ATOM     10  F2  UNL d   1       2.813   1.320  -1.058  0.00  0.00    -0.096 F 
ATOM     11  F3  UNL d   1       4.289  -0.230   0.601  0.00  0.00    -0.097 F 
ATOM     12  F4  UNL d   1       4.213  -2.948   0.380  0.00  0.00    -0.092 F 
ENDROOT
TORSDOF 0
ENDMDL
