MODEL 1
REMARK minimizedAffinity 9.54378033
REMARK minimizedRMSD -1
REMARK  0 active torsions:
REMARK  status: ('A' for Active; 'I' for Inactive)
ROOT
ATOM      1  C   UNL d   1       2.384  -2.408  -3.635  0.00  0.00     0.124 A 
ATOM      2  C1  UNL d   1       3.135  -3.563  -3.797  0.00  0.00     0.062 A 
ATOM      3  C2  UNL d   1       3.538  -4.298  -2.685  0.00  0.00     0.162 A 
ATOM      4  C3  UNL d   1       3.189  -3.879  -1.401  0.00  0.00    -0.034 A 
ATOM      5  C4  UNL d   1       2.434  -2.715  -1.246  0.00  0.00     0.162 A 
ATOM      6  C5  UNL d   1       2.034  -1.985  -2.361  0.00  0.00     0.062 A 
ATOM      7  F   UNL d   1       1.308  -0.868  -2.202  0.00  0.00    -0.097 F 
ATOM      8  F1  UNL d   1       2.081  -2.284  -0.026  0.00  0.00    -0.096 F 
ATOM      9  I   UNL d   1       3.790  -4.974   0.264  0.00  0.00    -0.060 I 
ATOM     10  F2  UNL d   1       4.263  -5.410  -2.871  0.00  0.00    -0.096 F 
ATOM     11  F3  UNL d   1       3.475  -3.974  -5.027  0.00  0.00    -0.097 F 
ATOM     12  F4  UNL d   1       1.998  -1.703  -4.706  0.00  0.00    -0.092 F 
ENDROOT
TORSDOF 0
ENDMDL
