MODEL 1
REMARK minimizedAffinity 12.1483669
REMARK minimizedRMSD -1
REMARK  0 active torsions:
REMARK  status: ('A' for Active; 'I' for Inactive)
ROOT
ATOM      1  C   UNL d   1       3.113  -4.888  -3.070  0.00  0.00     0.124 A 
ATOM      2  C1  UNL d   1       2.693  -3.740  -3.727  0.00  0.00     0.062 A 
ATOM      3  C2  UNL d   1       2.388  -2.591  -3.004  0.00  0.00     0.162 A 
ATOM      4  C3  UNL d   1       2.504  -2.583  -1.614  0.00  0.00    -0.034 A 
ATOM      5  C4  UNL d   1       2.926  -3.742  -0.959  0.00  0.00     0.162 A 
ATOM      6  C5  UNL d   1       3.229  -4.888  -1.687  0.00  0.00     0.062 A 
ATOM      7  F   UNL d   1       3.635  -5.996  -1.050  0.00  0.00    -0.097 F 
ATOM      8  F1  UNL d   1       3.048  -3.769   0.376  0.00  0.00    -0.096 F 
ATOM      9  I   UNL d   1       2.049  -0.867  -0.528  0.00  0.00    -0.060 I 
ATOM     10  F2  UNL d   1       1.985  -1.496  -3.665  0.00  0.00    -0.096 F 
ATOM     11  F3  UNL d   1       2.579  -3.738  -5.063  0.00  0.00    -0.097 F 
ATOM     12  F4  UNL d   1       3.404  -5.993  -3.768  0.00  0.00    -0.092 F 
ENDROOT
TORSDOF 0
ENDMDL
