MODEL 1
REMARK minimizedAffinity 20.3309155
REMARK minimizedRMSD -1
REMARK  0 active torsions:
REMARK  status: ('A' for Active; 'I' for Inactive)
ROOT
ATOM      1  C   UNL d   1       0.622   0.830   2.629  0.00  0.00     0.124 A 
ATOM      2  C1  UNL d   1      -0.736   0.965   2.370  0.00  0.00     0.062 A 
ATOM      3  C2  UNL d   1      -1.580   1.515   3.331  0.00  0.00     0.162 A 
ATOM      4  C3  UNL d   1      -1.069   1.934   4.559  0.00  0.00    -0.034 A 
ATOM      5  C4  UNL d   1       0.296   1.795   4.812  0.00  0.00     0.162 A 
ATOM      6  C5  UNL d   1       1.136   1.245   3.849  0.00  0.00     0.062 A 
ATOM      7  F   UNL d   1       2.447   1.115   4.101  0.00  0.00    -0.097 F 
ATOM      8  F1  UNL d   1       0.820   2.188   5.983  0.00  0.00    -0.096 F 
ATOM      9  I   UNL d   1      -2.328   2.757   5.998  0.00  0.00    -0.060 I 
ATOM     10  F2  UNL d   1      -2.887   1.633   3.054  0.00  0.00    -0.096 F 
ATOM     11  F3  UNL d   1      -1.235   0.565   1.192  0.00  0.00    -0.097 F 
ATOM     12  F4  UNL d   1       1.431   0.300   1.703  0.00  0.00    -0.092 F 
ENDROOT
TORSDOF 0
ENDMDL
