MODEL 1
REMARK minimizedAffinity 13.5984259
REMARK minimizedRMSD -1
REMARK  0 active torsions:
REMARK  status: ('A' for Active; 'I' for Inactive)
ROOT
ATOM      1  C   UNL d   1      -2.994   0.907   2.851  0.00  0.00     0.124 A 
ATOM      2  C1  UNL d   1      -3.172   1.667   3.999  0.00  0.00     0.062 A 
ATOM      3  C2  UNL d   1      -2.124   1.831   4.899  0.00  0.00     0.162 A 
ATOM      4  C3  UNL d   1      -0.886   1.235   4.654  0.00  0.00    -0.034 A 
ATOM      5  C4  UNL d   1      -0.715   0.472   3.498  0.00  0.00     0.162 A 
ATOM      6  C5  UNL d   1      -1.766   0.311   2.601  0.00  0.00     0.062 A 
ATOM      7  F   UNL d   1      -1.593  -0.424   1.493  0.00  0.00    -0.097 F 
ATOM      8  F1  UNL d   1       0.461  -0.115   3.232  0.00  0.00    -0.096 F 
ATOM      9  I   UNL d   1       0.684   1.478   5.998  0.00  0.00    -0.060 I 
ATOM     10  F2  UNL d   1      -2.324   2.570   6.000  0.00  0.00    -0.096 F 
ATOM     11  F3  UNL d   1      -4.358   2.243   4.242  0.00  0.00    -0.097 F 
ATOM     12  F4  UNL d   1      -4.005   0.750   1.987  0.00  0.00    -0.092 F 
ENDROOT
TORSDOF 0
ENDMDL
