MODEL 1
REMARK minimizedAffinity 23.6523323
REMARK minimizedRMSD -1
REMARK  0 active torsions:
REMARK  status: ('A' for Active; 'I' for Inactive)
ROOT
ATOM      1  C   UNL d   1       3.260  -3.029  -0.080  0.00  0.00     0.124 A 
ATOM      2  C1  UNL d   1       4.307  -2.179   0.246  0.00  0.00     0.062 A 
ATOM      3  C2  UNL d   1       4.205  -0.814  -0.007  0.00  0.00     0.162 A 
ATOM      4  C3  UNL d   1       3.050  -0.290  -0.587  0.00  0.00    -0.034 A 
ATOM      5  C4  UNL d   1       2.001  -1.151  -0.913  0.00  0.00     0.162 A 
ATOM      6  C5  UNL d   1       2.108  -2.515  -0.659  0.00  0.00     0.062 A 
ATOM      7  F   UNL d   1       1.095  -3.335  -0.974  0.00  0.00    -0.097 F 
ATOM      8  F1  UNL d   1       0.877  -0.681  -1.473  0.00  0.00    -0.096 F 
ATOM      9  I   UNL d   1       2.894   1.751  -0.966  0.00  0.00    -0.060 I 
ATOM     10  F2  UNL d   1       5.233  -0.015   0.319  0.00  0.00    -0.096 F 
ATOM     11  F3  UNL d   1       5.421  -2.673   0.805  0.00  0.00    -0.097 F 
ATOM     12  F4  UNL d   1       3.361  -4.342   0.163  0.00  0.00    -0.092 F 
ENDROOT
TORSDOF 0
ENDMDL
