MODEL 1
REMARK minimizedAffinity 35.2949028
REMARK minimizedRMSD -1
REMARK  0 active torsions:
REMARK  status: ('A' for Active; 'I' for Inactive)
ROOT
ATOM      1  C   UNL d   1       2.884  -0.077   0.280  0.00  0.00     0.124 A 
ATOM      2  C1  UNL d   1       3.634   0.605  -0.668  0.00  0.00     0.062 A 
ATOM      3  C2  UNL d   1       3.235   0.615  -2.001  0.00  0.00     0.162 A 
ATOM      4  C3  UNL d   1       2.080  -0.059  -2.396  0.00  0.00    -0.034 A 
ATOM      5  C4  UNL d   1       1.331  -0.744  -1.437  0.00  0.00     0.162 A 
ATOM      6  C5  UNL d   1       1.733  -0.751  -0.106  0.00  0.00     0.062 A 
ATOM      7  F   UNL d   1       1.007  -1.411   0.808  0.00  0.00    -0.097 F 
ATOM      8  F1  UNL d   1       0.214  -1.403  -1.782  0.00  0.00    -0.096 F 
ATOM      9  I   UNL d   1       1.481  -0.046  -4.389  0.00  0.00    -0.060 I 
ATOM     10  F2  UNL d   1       3.979   1.283  -2.896  0.00  0.00    -0.096 F 
ATOM     11  F3  UNL d   1       4.746   1.256  -0.298  0.00  0.00    -0.097 F 
ATOM     12  F4  UNL d   1       3.270  -0.086   1.562  0.00  0.00    -0.092 F 
ENDROOT
TORSDOF 0
ENDMDL
