MODEL 1
REMARK minimizedAffinity 30.2728062
REMARK minimizedRMSD -1
REMARK  0 active torsions:
REMARK  status: ('A' for Active; 'I' for Inactive)
ROOT
ATOM      1  C   UNL d   1       0.694   1.197   3.657  0.00  0.00     0.124 A 
ATOM      2  C1  UNL d   1       0.023   1.473   4.840  0.00  0.00     0.062 A 
ATOM      3  C2  UNL d   1      -1.361   1.621   4.842  0.00  0.00     0.162 A 
ATOM      4  C3  UNL d   1      -2.084   1.491   3.656  0.00  0.00    -0.034 A 
ATOM      5  C4  UNL d   1      -1.402   1.214   2.470  0.00  0.00     0.162 A 
ATOM      6  C5  UNL d   1      -0.019   1.068   2.473  0.00  0.00     0.062 A 
ATOM      7  F   UNL d   1       0.628   0.802   1.329  0.00  0.00    -0.097 F 
ATOM      8  F1  UNL d   1      -2.066   1.083   1.312  0.00  0.00    -0.096 F 
ATOM      9  I   UNL d   1      -4.154   1.710   3.654  0.00  0.00    -0.060 I 
ATOM     10  F2  UNL d   1      -1.983   1.887   6.000  0.00  0.00    -0.096 F 
ATOM     11  F3  UNL d   1       0.709   1.600   5.985  0.00  0.00    -0.097 F 
ATOM     12  F4  UNL d   1       2.026   1.057   3.658  0.00  0.00    -0.092 F 
ENDROOT
TORSDOF 0
ENDMDL
