MODEL 1
REMARK minimizedAffinity 32.292469
REMARK minimizedRMSD -1
REMARK  0 active torsions:
REMARK  status: ('A' for Active; 'I' for Inactive)
ROOT
ATOM      1  C   UNL d   1       3.536  -0.632  -0.346  0.00  0.00     0.124 A 
ATOM      2  C1  UNL d   1       2.473  -0.114  -1.072  0.00  0.00     0.062 A 
ATOM      3  C2  UNL d   1       1.487  -0.960  -1.570  0.00  0.00     0.162 A 
ATOM      4  C3  UNL d   1       1.558  -2.335  -1.342  0.00  0.00    -0.034 A 
ATOM      5  C4  UNL d   1       2.631  -2.848  -0.611  0.00  0.00     0.162 A 
ATOM      6  C5  UNL d   1       3.614  -1.998  -0.116  0.00  0.00     0.062 A 
ATOM      7  F   UNL d   1       4.641  -2.500   0.586  0.00  0.00    -0.097 F 
ATOM      8  F1  UNL d   1       2.730  -4.165  -0.373  0.00  0.00    -0.096 F 
ATOM      9  I   UNL d   1       0.085  -3.604  -2.084  0.00  0.00    -0.060 I 
ATOM     10  F2  UNL d   1       0.471  -0.432  -2.268  0.00  0.00    -0.096 F 
ATOM     11  F3  UNL d   1       2.396   1.206  -1.297  0.00  0.00    -0.097 F 
ATOM     12  F4  UNL d   1       4.485   0.185   0.131  0.00  0.00    -0.092 F 
ENDROOT
TORSDOF 0
ENDMDL
