MODEL 1
REMARK minimizedAffinity 33.1024475
REMARK minimizedRMSD -1
REMARK  0 active torsions:
REMARK  status: ('A' for Active; 'I' for Inactive)
ROOT
ATOM      1  C   UNL d   1       1.699   1.759   2.781  0.00  0.00     0.124 A 
ATOM      2  C1  UNL d   1       2.582   1.702   1.711  0.00  0.00     0.062 A 
ATOM      3  C2  UNL d   1       2.490   2.631   0.678  0.00  0.00     0.162 A 
ATOM      4  C3  UNL d   1       1.512   3.625   0.710  0.00  0.00    -0.034 A 
ATOM      5  C4  UNL d   1       0.628   3.675   1.789  0.00  0.00     0.162 A 
ATOM      6  C5  UNL d   1       0.723   2.745   2.819  0.00  0.00     0.062 A 
ATOM      7  F   UNL d   1      -0.130   2.801   3.852  0.00  0.00    -0.097 F 
ATOM      8  F1  UNL d   1      -0.324   4.618   1.852  0.00  0.00    -0.096 F 
ATOM      9  I   UNL d   1       1.371   5.015  -0.832  0.00  0.00    -0.060 I 
ATOM     10  F2  UNL d   1       3.356   2.552  -0.343  0.00  0.00    -0.096 F 
ATOM     11  F3  UNL d   1       3.525   0.750   1.671  0.00  0.00    -0.097 F 
ATOM     12  F4  UNL d   1       1.789   0.864   3.773  0.00  0.00    -0.092 F 
ENDROOT
TORSDOF 0
ENDMDL
