MODEL 1
REMARK minimizedAffinity 24.5882835
REMARK minimizedRMSD -1
REMARK  0 active torsions:
REMARK  status: ('A' for Active; 'I' for Inactive)
ROOT
ATOM      1  C   UNL d   1       2.385  -2.538  -0.579  0.00  0.00     0.124 A 
ATOM      2  C1  UNL d   1       1.713  -1.469  -1.155  0.00  0.00     0.062 A 
ATOM      3  C2  UNL d   1       0.597  -1.693  -1.956  0.00  0.00     0.162 A 
ATOM      4  C3  UNL d   1       0.144  -2.993  -2.184  0.00  0.00    -0.034 A 
ATOM      5  C4  UNL d   1       0.825  -4.063  -1.602  0.00  0.00     0.162 A 
ATOM      6  C5  UNL d   1       1.940  -3.834  -0.803  0.00  0.00     0.062 A 
ATOM      7  F   UNL d   1       2.588  -4.868  -0.247  0.00  0.00    -0.097 F 
ATOM      8  F1  UNL d   1       0.416  -5.325  -1.801  0.00  0.00    -0.096 F 
ATOM      9  I   UNL d   1      -1.525  -3.332  -3.381  0.00  0.00    -0.060 I 
ATOM     10  F2  UNL d   1      -0.033  -0.641  -2.500  0.00  0.00    -0.096 F 
ATOM     11  F3  UNL d   1       2.141  -0.216  -0.942  0.00  0.00    -0.097 F 
ATOM     12  F4  UNL d   1       3.459  -2.320   0.190  0.00  0.00    -0.092 F 
ENDROOT
TORSDOF 0
ENDMDL
