MODEL 1
REMARK minimizedAffinity 35.0756378
REMARK minimizedRMSD -1
REMARK  0 active torsions:
REMARK  status: ('A' for Active; 'I' for Inactive)
ROOT
ATOM      1  C   UNL d   1       1.928  -0.011  -1.259  0.00  0.00     0.124 A 
ATOM      2  C1  UNL d   1       2.561   1.094  -0.706  0.00  0.00     0.062 A 
ATOM      3  C2  UNL d   1       2.372   1.409   0.637  0.00  0.00     0.162 A 
ATOM      4  C3  UNL d   1       1.547   0.617   1.436  0.00  0.00    -0.034 A 
ATOM      5  C4  UNL d   1       0.913  -0.491   0.872  0.00  0.00     0.162 A 
ATOM      6  C5  UNL d   1       1.105  -0.802  -0.470  0.00  0.00     0.062 A 
ATOM      7  F   UNL d   1       0.493  -1.869  -1.003  0.00  0.00    -0.097 F 
ATOM      8  F1  UNL d   1       0.113  -1.274   1.612  0.00  0.00    -0.096 F 
ATOM      9  I   UNL d   1       1.262   1.085   3.444  0.00  0.00    -0.060 I 
ATOM     10  F2  UNL d   1       2.996   2.482   1.145  0.00  0.00    -0.096 F 
ATOM     11  F3  UNL d   1       3.355   1.861  -1.466  0.00  0.00    -0.097 F 
ATOM     12  F4  UNL d   1       2.111  -0.311  -2.552  0.00  0.00    -0.092 F 
ENDROOT
TORSDOF 0
ENDMDL
