MODEL 1
REMARK minimizedAffinity 7.71434879
REMARK minimizedRMSD -1
REMARK  0 active torsions:
REMARK  status: ('A' for Active; 'I' for Inactive)
ROOT
ATOM      1  C1  DEN d   1       3.854   0.533   0.201  0.00  0.00     0.130 A 
ATOM      2  C2  DEN d   1       2.414   0.420  -0.012  0.00  0.00    -0.031 A 
ATOM      3  C3  DEN d   1       2.068  -1.015  -0.040  0.00  0.00     0.027 A 
ATOM      4  C4  DEN d   1       3.613  -3.063   0.231  0.00  0.00     0.027 A 
ATOM      5  C5  DEN d   1       4.915  -3.469   0.422  0.00  0.00    -0.003 A 
ATOM      6  C6  DEN d   1       5.951  -2.578   0.518  0.00  0.00     0.001 A 
ATOM      7  C7  DEN d   1       5.697  -1.233   0.468  0.00  0.00     0.017 A 
ATOM      8  C8  DEN d   1       4.387  -0.816   0.269  0.00  0.00    -0.094 A 
ATOM      9  C9  DEN d   1       3.352  -1.732   0.186  0.00  0.00    -0.072 A 
ENDROOT
TORSDOF 0
ENDMDL
