MODEL 1
REMARK minimizedAffinity 4.76305676
REMARK minimizedRMSD -1
REMARK  0 active torsions:
REMARK  status: ('A' for Active; 'I' for Inactive)
ROOT
ATOM      1  C1  DEN d   1      -4.243  -1.874  -3.647  0.00  0.00     0.130 A 
ATOM      2  C2  DEN d   1      -4.481  -1.607  -2.232  0.00  0.00    -0.031 A 
ATOM      3  C3  DEN d   1      -4.405  -0.147  -2.023  0.00  0.00     0.027 A 
ATOM      4  C4  DEN d   1      -3.949   1.717  -3.746  0.00  0.00     0.027 A 
ATOM      5  C5  DEN d   1      -3.675   1.979  -5.070  0.00  0.00    -0.003 A 
ATOM      6  C6  DEN d   1      -3.538   0.981  -5.999  0.00  0.00     0.001 A 
ATOM      7  C7  DEN d   1      -3.721  -0.324  -5.625  0.00  0.00     0.017 A 
ATOM      8  C8  DEN d   1      -3.990  -0.597  -4.290  0.00  0.00    -0.094 A 
ATOM      9  C9  DEN d   1      -4.136   0.427  -3.369  0.00  0.00    -0.072 A 
ENDROOT
TORSDOF 0
ENDMDL
