MODEL 1
REMARK minimizedAffinity 11.5529442
REMARK minimizedRMSD -1
REMARK  0 active torsions:
REMARK  status: ('A' for Active; 'I' for Inactive)
ROOT
ATOM      1  C1  DEN d   1       1.577  -2.202   2.152  0.00  0.00     0.130 A 
ATOM      2  C2  DEN d   1       1.419  -1.518   0.871  0.00  0.00    -0.031 A 
ATOM      3  C3  DEN d   1       2.457  -2.024  -0.048  0.00  0.00     0.027 A 
ATOM      4  C4  DEN d   1       4.283  -3.794   0.383  0.00  0.00     0.027 A 
ATOM      5  C5  DEN d   1       4.822  -4.646   1.322  0.00  0.00    -0.003 A 
ATOM      6  C6  DEN d   1       4.342  -4.717   2.603  0.00  0.00     0.001 A 
ATOM      7  C7  DEN d   1       3.263  -3.956   2.967  0.00  0.00     0.017 A 
ATOM      8  C8  DEN d   1       2.720  -3.089   2.028  0.00  0.00    -0.094 A 
ATOM      9  C9  DEN d   1       3.211  -3.040   0.735  0.00  0.00    -0.072 A 
ENDROOT
TORSDOF 0
ENDMDL
