MODEL 1
REMARK minimizedAffinity 0.490525752
REMARK minimizedRMSD -1
REMARK  0 active torsions:
REMARK  status: ('A' for Active; 'I' for Inactive)
ROOT
ATOM      1  C1  DEN d   1      -3.498   1.489  -5.967  0.00  0.00     0.130 A 
ATOM      2  C2  DEN d   1      -2.073   1.169  -6.000  0.00  0.00    -0.031 A 
ATOM      3  C3  DEN d   1      -1.867  -0.076  -5.232  0.00  0.00     0.027 A 
ATOM      4  C4  DEN d   1      -3.607  -1.533  -4.007  0.00  0.00     0.027 A 
ATOM      5  C5  DEN d   1      -4.942  -1.659  -3.689  0.00  0.00    -0.003 A 
ATOM      6  C6  DEN d   1      -5.875  -0.735  -4.075  0.00  0.00     0.001 A 
ATOM      7  C7  DEN d   1      -5.494   0.335  -4.842  0.00  0.00     0.017 A 
ATOM      8  C8  DEN d   1      -4.149   0.473  -5.161  0.00  0.00    -0.094 A 
ATOM      9  C9  DEN d   1      -3.223  -0.479  -4.771  0.00  0.00    -0.072 A 
ENDROOT
TORSDOF 0
ENDMDL
