MODEL 1
REMARK minimizedAffinity -0.160565183
REMARK minimizedRMSD -1
REMARK  0 active torsions:
REMARK  status: ('A' for Active; 'I' for Inactive)
ROOT
ATOM      1  C1  DEN d   1       4.385  -3.154   0.808  0.00  0.00     0.130 A 
ATOM      2  C2  DEN d   1       3.005  -3.610   0.949  0.00  0.00    -0.031 A 
ATOM      3  C3  DEN d   1       2.114  -2.493   0.576  0.00  0.00     0.027 A 
ATOM      4  C4  DEN d   1       2.736  -0.115  -0.208  0.00  0.00     0.027 A 
ATOM      5  C5  DEN d   1       3.781   0.742  -0.472  0.00  0.00    -0.003 A 
ATOM      6  C6  DEN d   1       5.089   0.376  -0.296  0.00  0.00     0.001 A 
ATOM      7  C7  DEN d   1       5.388  -0.897   0.113  0.00  0.00     0.017 A 
ATOM      8  C8  DEN d   1       4.339  -1.765   0.388  0.00  0.00    -0.094 A 
ATOM      9  C9  DEN d   1       3.024  -1.380   0.193  0.00  0.00    -0.072 A 
ENDROOT
TORSDOF 0
ENDMDL
