MODEL 1
REMARK minimizedAffinity 3.8138752
REMARK minimizedRMSD -1
REMARK  0 active torsions:
REMARK  status: ('A' for Active; 'I' for Inactive)
ROOT
ATOM      1  C1  DEN d   1      -2.009  -0.199  -4.986  0.00  0.00     0.130 A 
ATOM      2  C2  DEN d   1      -2.094  -1.250  -3.976  0.00  0.00    -0.031 A 
ATOM      3  C3  DEN d   1      -3.504  -1.363  -3.551  0.00  0.00     0.027 A 
ATOM      4  C4  DEN d   1      -5.554  -0.022  -4.359  0.00  0.00     0.027 A 
ATOM      5  C5  DEN d   1      -5.977   0.985  -5.198  0.00  0.00    -0.003 A 
ATOM      6  C6  DEN d   1      -5.109   1.685  -5.993  0.00  0.00     0.001 A 
ATOM      7  C7  DEN d   1      -3.779   1.358  -6.000  0.00  0.00     0.017 A 
ATOM      8  C8  DEN d   1      -3.344   0.348  -5.151  0.00  0.00    -0.094 A 
ATOM      9  C9  DEN d   1      -4.239  -0.357  -4.364  0.00  0.00    -0.072 A 
ENDROOT
TORSDOF 0
ENDMDL
