MODEL 1
REMARK minimizedAffinity -2.26176286
REMARK minimizedRMSD -1
REMARK  1 active torsions:
REMARK  status: ('A' for Active; 'I' for Inactive)
REMARK    1  A    between atoms: C1_2  and  C2_3 
ROOT
ATOM      1  C2  UNL d   1       5.826  -0.855   4.701  0.00  0.00    -0.073 A 
ATOM      2  C3  UNL d   1       5.864  -0.202   5.938  0.00  0.00    -0.002 A 
ATOM      3  C4  UNL d   1       5.953   1.190   5.998  0.00  0.00     0.004 A 
ATOM      4  C5  UNL d   1       5.997   1.941   4.824  0.00  0.00    -0.004 A 
ATOM      5  C6  UNL d   1       5.948   1.308   3.578  0.00  0.00    -0.075 A 
ATOM      6  C7  UNL d   1       5.997   2.102   2.306  0.00  0.00     0.076 C 
ATOM      7  C8  UNL d   1       5.861  -0.090   3.526  0.00  0.00     0.001 A 
ENDROOT
BRANCH   1   8
ATOM      8  C1  UNL d   1       5.723  -2.357   4.631  0.00  0.00     0.053 C 
ATOM      9  C   UNL d   1       5.974  -3.009   5.982  0.00  0.00     0.018 C 
ENDBRANCH   1   8
TORSDOF 1
ENDMDL
