MODEL 1
REMARK minimizedAffinity -1.27096367
REMARK minimizedRMSD -1
REMARK  1 active torsions:
REMARK  status: ('A' for Active; 'I' for Inactive)
REMARK    1  A    between atoms: C1_2  and  C2_3 
ROOT
ATOM      1  C2  UNL d   1       5.977   2.328   3.775  0.00  0.00    -0.073 A 
ATOM      2  C3  UNL d   1       6.000   1.744   2.504  0.00  0.00    -0.002 A 
ATOM      3  C4  UNL d   1       5.998   0.355   2.366  0.00  0.00     0.004 A 
ATOM      4  C5  UNL d   1       5.967  -0.462   3.495  0.00  0.00    -0.004 A 
ATOM      5  C6  UNL d   1       5.933   0.103   4.774  0.00  0.00    -0.075 A 
ATOM      6  C7  UNL d   1       5.901  -0.763   6.000  0.00  0.00     0.076 C 
ATOM      7  C8  UNL d   1       5.937   1.498   4.905  0.00  0.00     0.001 A 
ENDROOT
BRANCH   1   8
ATOM      8  C1  UNL d   1       5.972   3.827   3.929  0.00  0.00     0.053 C 
ATOM      9  C   UNL d   1       5.983   4.538   2.585  0.00  0.00     0.018 C 
ENDBRANCH   1   8
TORSDOF 1
ENDMDL
