MODEL 1
REMARK minimizedAffinity -1.96240056
REMARK minimizedRMSD -1
REMARK  1 active torsions:
REMARK  status: ('A' for Active; 'I' for Inactive)
REMARK    1  A    between atoms: C1_2  and  C2_3 
ROOT
ATOM      1  C2  UNL d   1       5.815   2.146   3.621  0.00  0.00    -0.073 A 
ATOM      2  C3  UNL d   1       5.991   2.610   4.930  0.00  0.00    -0.002 A 
ATOM      3  C4  UNL d   1       6.000   1.715   6.000  0.00  0.00     0.004 A 
ATOM      4  C5  UNL d   1       5.840   0.348   5.773  0.00  0.00    -0.004 A 
ATOM      5  C6  UNL d   1       5.675  -0.136   4.472  0.00  0.00    -0.075 A 
ATOM      6  C7  UNL d   1       5.500  -1.604   4.211  0.00  0.00     0.076 C 
ATOM      7  C8  UNL d   1       5.664   0.769   3.402  0.00  0.00     0.001 A 
ENDROOT
BRANCH   1   8
ATOM      8  C1  UNL d   1       5.811   3.108   2.462  0.00  0.00     0.053 C 
ATOM      9  C   UNL d   1       6.000   4.548   2.915  0.00  0.00     0.018 C 
ENDBRANCH   1   8
TORSDOF 1
ENDMDL
