MODEL 1
REMARK minimizedAffinity 0.0725073963
REMARK minimizedRMSD -1
REMARK  1 active torsions:
REMARK  status: ('A' for Active; 'I' for Inactive)
REMARK    1  A    between atoms: C1_2  and  C2_3 
ROOT
ATOM      1  C2  UNL d   1       5.999   2.751   3.187  0.00  0.00    -0.073 A 
ATOM      2  C3  UNL d   1       5.995   3.429   4.411  0.00  0.00    -0.002 A 
ATOM      3  C4  UNL d   1       5.998   4.824   4.444  0.00  0.00     0.004 A 
ATOM      4  C5  UNL d   1       6.000   5.555   3.256  0.00  0.00    -0.004 A 
ATOM      5  C6  UNL d   1       5.992   4.895   2.023  0.00  0.00    -0.075 A 
ATOM      6  C7  UNL d   1       5.996   5.666   0.735  0.00  0.00     0.076 C 
ATOM      7  C8  UNL d   1       5.991   3.494   1.998  0.00  0.00     0.001 A 
ENDROOT
BRANCH   1   8
ATOM      8  C1  UNL d   1       5.988   1.245   3.147  0.00  0.00     0.053 C 
ATOM      9  C   UNL d   1       5.272   0.647   4.347  0.00  0.00     0.018 C 
ENDBRANCH   1   8
TORSDOF 1
ENDMDL
