MODEL 1
REMARK minimizedAffinity 1.0727334
REMARK minimizedRMSD -1
REMARK  1 active torsions:
REMARK  status: ('A' for Active; 'I' for Inactive)
REMARK    1  A    between atoms: C1_2  and  C2_3 
ROOT
ATOM      1  C2  UNL d   1       5.866   2.481   4.274  0.00  0.00    -0.073 A 
ATOM      2  C3  UNL d   1       5.939   2.178   2.910  0.00  0.00    -0.002 A 
ATOM      3  C4  UNL d   1       5.974   0.849   2.484  0.00  0.00     0.004 A 
ATOM      4  C5  UNL d   1       5.930  -0.188   3.415  0.00  0.00    -0.004 A 
ATOM      5  C6  UNL d   1       5.845   0.095   4.782  0.00  0.00    -0.075 A 
ATOM      6  C7  UNL d   1       5.799  -1.010   5.797  0.00  0.00     0.076 C 
ATOM      7  C8  UNL d   1       5.813   1.431   5.202  0.00  0.00     0.001 A 
ENDROOT
BRANCH   1   8
ATOM      8  C1  UNL d   1       5.820   3.914   4.738  0.00  0.00     0.053 C 
ATOM      9  C   UNL d   1       5.991   4.892   3.587  0.00  0.00     0.018 C 
ENDBRANCH   1   8
TORSDOF 1
ENDMDL
