MODEL 1
REMARK minimizedAffinity -1.19000971
REMARK minimizedRMSD -1
REMARK  1 active torsions:
REMARK  status: ('A' for Active; 'I' for Inactive)
REMARK    1  A    between atoms: C1_2  and  C2_3 
ROOT
ATOM      1  C2  UNL d   1       5.991   1.493   4.343  0.00  0.00    -0.073 A 
ATOM      2  C3  UNL d   1       5.992   1.396   2.947  0.00  0.00    -0.002 A 
ATOM      3  C4  UNL d   1       5.999   0.145   2.327  0.00  0.00     0.004 A 
ATOM      4  C5  UNL d   1       5.999  -1.019   3.096  0.00  0.00    -0.004 A 
ATOM      5  C6  UNL d   1       5.987  -0.942   4.492  0.00  0.00    -0.075 A 
ATOM      6  C7  UNL d   1       5.989  -2.185   5.333  0.00  0.00     0.076 C 
ATOM      7  C8  UNL d   1       5.982   0.317   5.107  0.00  0.00     0.001 A 
ENDROOT
BRANCH   1   8
ATOM      8  C1  UNL d   1       5.977   2.841   5.016  0.00  0.00     0.053 C 
ATOM      9  C   UNL d   1       5.991   3.981   4.010  0.00  0.00     0.018 C 
ENDBRANCH   1   8
TORSDOF 1
ENDMDL
