MODEL 1
REMARK minimizedAffinity -3.51341009
REMARK minimizedRMSD -1
REMARK  1 active torsions:
REMARK  status: ('A' for Active; 'I' for Inactive)
REMARK    1  A    between atoms: C1_2  and  C2_3 
ROOT
ATOM      1  C2  UNL d   1       5.572   1.939   4.857  0.00  0.00    -0.073 A 
ATOM      2  C3  UNL d   1       5.325   1.171   6.000  0.00  0.00    -0.002 A 
ATOM      3  C4  UNL d   1       5.290  -0.222   5.919  0.00  0.00     0.004 A 
ATOM      4  C5  UNL d   1       5.506  -0.860   4.697  0.00  0.00    -0.004 A 
ATOM      5  C6  UNL d   1       5.766  -0.110   3.546  0.00  0.00    -0.075 A 
ATOM      6  C7  UNL d   1       5.999  -0.780   2.224  0.00  0.00     0.076 C 
ATOM      7  C8  UNL d   1       5.798   1.289   3.635  0.00  0.00     0.001 A 
ENDROOT
BRANCH   1   8
ATOM      8  C1  UNL d   1       5.618   3.443   4.940  0.00  0.00     0.053 C 
ATOM      9  C   UNL d   1       5.999   4.077   3.612  0.00  0.00     0.018 C 
ENDBRANCH   1   8
TORSDOF 1
ENDMDL
