MODEL 1
REMARK minimizedAffinity 4.32115269
REMARK minimizedRMSD -1
REMARK  1 active torsions:
REMARK  status: ('A' for Active; 'I' for Inactive)
REMARK    1  A    between atoms: C1_2  and  C2_3 
ROOT
ATOM      1  C2  UNL d   1       5.870   1.848   3.637  0.00  0.00    -0.073 A 
ATOM      2  C3  UNL d   1       5.938   2.252   4.975  0.00  0.00    -0.002 A 
ATOM      3  C4  UNL d   1       5.906   1.304   5.999  0.00  0.00     0.004 A 
ATOM      4  C5  UNL d   1       5.811  -0.054   5.697  0.00  0.00    -0.004 A 
ATOM      5  C6  UNL d   1       5.754  -0.477   4.365  0.00  0.00    -0.075 A 
ATOM      6  C7  UNL d   1       5.650  -1.935   4.022  0.00  0.00     0.076 C 
ATOM      7  C8  UNL d   1       5.784   0.480   3.342  0.00  0.00     0.001 A 
ENDROOT
BRANCH   1   8
ATOM      8  C1  UNL d   1       5.911   2.867   2.528  0.00  0.00     0.053 C 
ATOM      9  C   UNL d   1       5.898   4.291   3.060  0.00  0.00     0.018 C 
ENDBRANCH   1   8
TORSDOF 1
ENDMDL
