MODEL 1
REMARK minimizedAffinity -0.5081231
REMARK minimizedRMSD -1
REMARK  1 active torsions:
REMARK  status: ('A' for Active; 'I' for Inactive)
REMARK    1  A    between atoms: C1_2  and  C2_3 
ROOT
ATOM      1  C2  UNL d   1       5.972   1.791   5.103  0.00  0.00    -0.073 A 
ATOM      2  C3  UNL d   1       5.976   1.893   3.708  0.00  0.00    -0.002 A 
ATOM      3  C4  UNL d   1       5.987   0.744   2.917  0.00  0.00     0.004 A 
ATOM      4  C5  UNL d   1       5.986  -0.518   3.512  0.00  0.00    -0.004 A 
ATOM      5  C6  UNL d   1       5.970  -0.641   4.905  0.00  0.00    -0.075 A 
ATOM      6  C7  UNL d   1       5.972  -1.990   5.560  0.00  0.00     0.076 C 
ATOM      7  C8  UNL d   1       5.963   0.519   5.692  0.00  0.00     0.001 A 
ENDROOT
BRANCH   1   8
ATOM      8  C1  UNL d   1       5.955   3.030   5.961  0.00  0.00     0.053 C 
ATOM      9  C   UNL d   1       5.994   4.301   5.128  0.00  0.00     0.018 C 
ENDBRANCH   1   8
TORSDOF 1
ENDMDL
