MODEL 1
REMARK minimizedAffinity -2.97164822
REMARK minimizedRMSD -1
REMARK  1 active torsions:
REMARK  status: ('A' for Active; 'I' for Inactive)
REMARK    1  A    between atoms: C1_2  and  C2_3 
ROOT
ATOM      1  C2  UNL d   1       5.685   2.082   4.772  0.00  0.00    -0.073 A 
ATOM      2  C3  UNL d   1       5.307   1.372   5.918  0.00  0.00    -0.002 A 
ATOM      3  C4  UNL d   1       5.147  -0.013   5.868  0.00  0.00     0.004 A 
ATOM      4  C5  UNL d   1       5.370  -0.703   4.677  0.00  0.00    -0.004 A 
ATOM      5  C6  UNL d   1       5.759  -0.013   3.524  0.00  0.00    -0.075 A 
ATOM      6  C7  UNL d   1       6.000  -0.741   2.234  0.00  0.00     0.076 C 
ATOM      7  C8  UNL d   1       5.915   1.378   3.581  0.00  0.00     0.001 A 
ENDROOT
BRANCH   1   8
ATOM      8  C1  UNL d   1       5.866   3.577   4.823  0.00  0.00     0.053 C 
ATOM      9  C   UNL d   1       5.993   4.183   3.434  0.00  0.00     0.018 C 
ENDBRANCH   1   8
TORSDOF 1
ENDMDL
