MODEL 1
REMARK minimizedAffinity 1.84052122
REMARK minimizedRMSD -1
REMARK  0 active torsions:
REMARK  status: ('A' for Active; 'I' for Inactive)
ROOT
ATOM      1  C   UNL d   1       0.748   3.038  -1.160  0.00  0.00     0.172 C 
ATOM      2  N   UNL d   1       1.288   2.019  -2.030  0.00  0.00    -0.070 N 
ATOM      3  C1  UNL d   1       0.576   1.290  -2.944  0.00  0.00    -0.004 A 
ATOM      4  C2  UNL d   1       1.451   0.428  -3.569  0.00  0.00    -0.047 A 
ATOM      5  C3  UNL d   1       2.732   0.646  -3.011  0.00  0.00    -0.047 A 
ATOM      6  C4  UNL d   1       2.603   1.637  -2.061  0.00  0.00    -0.004 A 
ENDROOT
TORSDOF 0
ENDMDL
