MODEL 1
REMARK minimizedAffinity 0.80862236
REMARK minimizedRMSD -1
REMARK  0 active torsions:
REMARK  status: ('A' for Active; 'I' for Inactive)
ROOT
ATOM      1  C   UNL d   1      -3.281   5.997  -5.997  0.00  0.00     0.172 C 
ATOM      2  N   UNL d   1      -2.278   4.970  -5.845  0.00  0.00    -0.070 N 
ATOM      3  C1  UNL d   1      -0.928   5.143  -6.000  0.00  0.00    -0.004 A 
ATOM      4  C2  UNL d   1      -0.318   3.929  -5.771  0.00  0.00    -0.047 A 
ATOM      5  C3  UNL d   1      -1.336   2.993  -5.469  0.00  0.00    -0.047 A 
ATOM      6  C4  UNL d   1      -2.540   3.664  -5.522  0.00  0.00    -0.004 A 
ENDROOT
TORSDOF 0
ENDMDL
