MODEL 1
REMARK minimizedAffinity -1.19597399
REMARK minimizedRMSD -1
REMARK  0 active torsions:
REMARK  status: ('A' for Active; 'I' for Inactive)
ROOT
ATOM      1  C   UNL d   1      -0.786   5.998  -5.987  0.00  0.00     0.172 C 
ATOM      2  N   UNL d   1      -1.778   4.948  -5.991  0.00  0.00    -0.070 N 
ATOM      3  C1  UNL d   1      -1.517   3.604  -6.000  0.00  0.00    -0.004 A 
ATOM      4  C2  UNL d   1      -2.725   2.940  -6.000  0.00  0.00    -0.047 A 
ATOM      5  C3  UNL d   1      -3.746   3.919  -5.992  0.00  0.00    -0.047 A 
ATOM      6  C4  UNL d   1      -3.132   5.153  -5.986  0.00  0.00    -0.004 A 
ENDROOT
TORSDOF 0
ENDMDL
