MODEL 1
REMARK minimizedAffinity 2.33662009
REMARK minimizedRMSD -1
REMARK  0 active torsions:
REMARK  status: ('A' for Active; 'I' for Inactive)
ROOT
ATOM      1  C   UNL d   1       2.013   3.609  -5.987  0.00  0.00     0.172 C 
ATOM      2  N   UNL d   1       3.301   4.262  -5.988  0.00  0.00    -0.070 N 
ATOM      3  C1  UNL d   1       4.516   3.630  -5.978  0.00  0.00    -0.004 A 
ATOM      4  C2  UNL d   1       5.496   4.600  -5.983  0.00  0.00    -0.047 A 
ATOM      5  C3  UNL d   1       4.847   5.857  -5.996  0.00  0.00    -0.047 A 
ATOM      6  C4  UNL d   1       3.489   5.619  -5.998  0.00  0.00    -0.004 A 
ENDROOT
TORSDOF 0
ENDMDL
