MODEL 1
REMARK minimizedAffinity 6.63879442
REMARK minimizedRMSD -1
REMARK  0 active torsions:
REMARK  status: ('A' for Active; 'I' for Inactive)
ROOT
ATOM      1  C   UNL d   1      -2.559   2.742  -5.954  0.00  0.00     0.172 C 
ATOM      2  N   UNL d   1      -1.691   3.896  -5.972  0.00  0.00    -0.070 N 
ATOM      3  C1  UNL d   1      -2.100   5.203  -5.979  0.00  0.00    -0.004 A 
ATOM      4  C2  UNL d   1      -0.974   5.997  -5.996  0.00  0.00    -0.047 A 
ATOM      5  C3  UNL d   1       0.151   5.138  -6.000  0.00  0.00    -0.047 A 
ATOM      6  C4  UNL d   1      -0.322   3.843  -5.985  0.00  0.00    -0.004 A 
ENDROOT
TORSDOF 0
ENDMDL
