MODEL 1
REMARK minimizedAffinity -0.886914015
REMARK minimizedRMSD -1
REMARK  0 active torsions:
REMARK  status: ('A' for Active; 'I' for Inactive)
ROOT
ATOM      1  C   UNL d   1      -3.420   2.997  -5.971  0.00  0.00     0.172 C 
ATOM      2  N   UNL d   1      -4.468   3.805  -5.393  0.00  0.00    -0.070 N 
ATOM      3  C1  UNL d   1      -5.044   3.606  -4.167  0.00  0.00    -0.004 A 
ATOM      4  C2  UNL d   1      -5.998   4.585  -3.985  0.00  0.00    -0.047 A 
ATOM      5  C3  UNL d   1      -5.995   5.399  -5.143  0.00  0.00    -0.047 A 
ATOM      6  C4  UNL d   1      -5.038   4.894  -5.998  0.00  0.00    -0.004 A 
ENDROOT
TORSDOF 0
ENDMDL
