MODEL 1
REMARK minimizedAffinity -1.34307766
REMARK minimizedRMSD -1
REMARK  0 active torsions:
REMARK  status: ('A' for Active; 'I' for Inactive)
ROOT
ATOM      1  C   UNL d   1      -2.709   5.807  -5.991  0.00  0.00     0.172 C 
ATOM      2  N   UNL d   1      -1.737   4.739  -5.995  0.00  0.00    -0.070 N 
ATOM      3  C1  UNL d   1      -0.377   4.897  -5.997  0.00  0.00    -0.004 A 
ATOM      4  C2  UNL d   1       0.194   3.643  -6.000  0.00  0.00    -0.047 A 
ATOM      5  C3  UNL d   1      -0.860   2.698  -6.000  0.00  0.00    -0.047 A 
ATOM      6  C4  UNL d   1      -2.044   3.404  -5.997  0.00  0.00    -0.004 A 
ENDROOT
TORSDOF 0
ENDMDL
