MODEL 1
REMARK minimizedAffinity 0.993411064
REMARK minimizedRMSD -1
REMARK  0 active torsions:
REMARK  status: ('A' for Active; 'I' for Inactive)
ROOT
ATOM      1  C   UNL d   1      -3.030   3.044  -5.948  0.00  0.00     0.172 C 
ATOM      2  N   UNL d   1      -1.990   4.035  -5.798  0.00  0.00    -0.070 N 
ATOM      3  C1  UNL d   1      -0.694   3.784  -5.435  0.00  0.00    -0.004 A 
ATOM      4  C2  UNL d   1      -0.023   4.988  -5.405  0.00  0.00    -0.047 A 
ATOM      5  C3  UNL d   1      -0.949   5.997  -5.762  0.00  0.00    -0.047 A 
ATOM      6  C4  UNL d   1      -2.159   5.380  -6.000  0.00  0.00    -0.004 A 
ENDROOT
TORSDOF 0
ENDMDL
