MODEL 1
REMARK minimizedAffinity 8.4305706
REMARK minimizedRMSD -1
REMARK  0 active torsions:
REMARK  status: ('A' for Active; 'I' for Inactive)
ROOT
ATOM      1  C   UNL d   1      -3.616   3.222  -5.998  0.00  0.00     0.172 C 
ATOM      2  N   UNL d   1      -2.495   4.127  -5.899  0.00  0.00    -0.070 N 
ATOM      3  C1  UNL d   1      -2.559   5.491  -5.997  0.00  0.00    -0.004 A 
ATOM      4  C2  UNL d   1      -1.281   5.985  -5.849  0.00  0.00    -0.047 A 
ATOM      5  C3  UNL d   1      -0.419   4.880  -5.655  0.00  0.00    -0.047 A 
ATOM      6  C4  UNL d   1      -1.197   3.741  -5.691  0.00  0.00    -0.004 A 
ENDROOT
TORSDOF 0
ENDMDL
