MODEL 1
REMARK minimizedAffinity 1.47368491
REMARK minimizedRMSD -1
REMARK  0 active torsions:
REMARK  status: ('A' for Active; 'I' for Inactive)
ROOT
ATOM      1  C   UNL d   1      -5.630  -5.998   0.750  0.00  0.00     0.172 C 
ATOM      2  N   UNL d   1      -4.565  -5.387  -0.010  0.00  0.00    -0.070 N 
ATOM      3  C1  UNL d   1      -4.083  -4.117   0.167  0.00  0.00    -0.004 A 
ATOM      4  C2  UNL d   1      -3.075  -3.916  -0.750  0.00  0.00    -0.047 A 
ATOM      5  C3  UNL d   1      -2.946  -5.106  -1.506  0.00  0.00    -0.047 A 
ATOM      6  C4  UNL d   1      -3.880  -6.000  -1.027  0.00  0.00    -0.004 A 
ENDROOT
TORSDOF 0
ENDMDL
