MODEL 1
REMARK minimizedAffinity 0.000688659202
REMARK minimizedRMSD -1
REMARK  0 active torsions:
REMARK  status: ('A' for Active; 'I' for Inactive)
ROOT
ATOM      1  C   UNL d   1      -2.975   5.979  -5.932  0.00  0.00     0.172 C 
ATOM      2  N   UNL d   1      -1.681   5.339  -5.915  0.00  0.00    -0.070 N 
ATOM      3  C1  UNL d   1      -1.459   3.989  -5.847  0.00  0.00    -0.004 A 
ATOM      4  C2  UNL d   1      -0.096   3.785  -5.855  0.00  0.00    -0.047 A 
ATOM      5  C3  UNL d   1       0.522   5.056  -5.931  0.00  0.00    -0.047 A 
ATOM      6  C4  UNL d   1      -0.482   6.000  -5.967  0.00  0.00    -0.004 A 
ENDROOT
TORSDOF 0
ENDMDL
