MODEL 1
REMARK minimizedAffinity 2.77951384
REMARK minimizedRMSD -1
REMARK  0 active torsions:
REMARK  status: ('A' for Active; 'I' for Inactive)
ROOT
ATOM      1  C   UNL d   1       1.001   1.908  -4.053  0.00  0.00     0.172 C 
ATOM      2  N   UNL d   1      -0.071   2.561  -4.767  0.00  0.00    -0.070 N 
ATOM      3  C1  UNL d   1       0.034   3.735  -5.465  0.00  0.00    -0.004 A 
ATOM      4  C2  UNL d   1      -1.204   4.020  -5.999  0.00  0.00    -0.047 A 
ATOM      5  C3  UNL d   1      -2.083   2.982  -5.608  0.00  0.00    -0.047 A 
ATOM      6  C4  UNL d   1      -1.355   2.093  -4.846  0.00  0.00    -0.004 A 
ENDROOT
TORSDOF 0
ENDMDL
