MODEL 1
REMARK minimizedAffinity 10.0190096
REMARK minimizedRMSD -1
REMARK  0 active torsions:
REMARK  status: ('A' for Active; 'I' for Inactive)
ROOT
ATOM      1  C   UNL d   1       2.456  -0.298  -3.421  0.00  0.00     0.172 C 
ATOM      2  N   UNL d   1       2.222   1.017  -2.872  0.00  0.00    -0.070 N 
ATOM      3  C1  UNL d   1       1.104   1.780  -3.077  0.00  0.00    -0.004 A 
ATOM      4  C2  UNL d   1       1.265   2.961  -2.385  0.00  0.00    -0.047 A 
ATOM      5  C3  UNL d   1       2.525   2.906  -1.743  0.00  0.00    -0.047 A 
ATOM      6  C4  UNL d   1       3.096   1.692  -2.061  0.00  0.00    -0.004 A 
ENDROOT
TORSDOF 0
ENDMDL
