MODEL 1
REMARK minimizedAffinity 1.67305493
REMARK minimizedRMSD -1
REMARK  0 active torsions:
REMARK  status: ('A' for Active; 'I' for Inactive)
ROOT
ATOM      1  C   UNL d   1      -1.923  -6.000  -1.142  0.00  0.00     0.172 C 
ATOM      2  N   UNL d   1      -2.975  -5.122  -0.684  0.00  0.00    -0.070 N 
ATOM      3  C1  UNL d   1      -4.253  -5.502  -0.375  0.00  0.00    -0.004 A 
ATOM      4  C2  UNL d   1      -4.944  -4.377   0.021  0.00  0.00    -0.047 A 
ATOM      5  C3  UNL d   1      -4.049  -3.283  -0.054  0.00  0.00    -0.047 A 
ATOM      6  C4  UNL d   1      -2.838  -3.773  -0.494  0.00  0.00    -0.004 A 
ENDROOT
TORSDOF 0
ENDMDL
