MODEL 1
REMARK minimizedAffinity -1.40726554
REMARK minimizedRMSD -1
REMARK  0 active torsions:
REMARK  status: ('A' for Active; 'I' for Inactive)
ROOT
ATOM      1  C   UNL d   1       1.460   4.459  -5.006  0.00  0.00     0.172 C 
ATOM      2  N   UNL d   1       2.213   4.053  -3.843  0.00  0.00    -0.070 N 
ATOM      3  C1  UNL d   1       3.427   4.560  -3.460  0.00  0.00    -0.004 A 
ATOM      4  C2  UNL d   1       3.808   3.914  -2.304  0.00  0.00    -0.047 A 
ATOM      5  C3  UNL d   1       2.788   2.987  -1.981  0.00  0.00    -0.047 A 
ATOM      6  C4  UNL d   1       1.813   3.094  -2.950  0.00  0.00    -0.004 A 
ENDROOT
TORSDOF 0
ENDMDL
