MODEL 1
REMARK minimizedAffinity 1.38883877
REMARK minimizedRMSD -1
REMARK  0 active torsions:
REMARK  status: ('A' for Active; 'I' for Inactive)
ROOT
ATOM      1  C   UNL d   1      -1.791   5.893  -5.951  0.00  0.00     0.172 C 
ATOM      2  N   UNL d   1      -3.051   5.187  -5.943  0.00  0.00    -0.070 N 
ATOM      3  C1  UNL d   1      -3.204   3.827  -5.997  0.00  0.00    -0.004 A 
ATOM      4  C2  UNL d   1      -4.554   3.553  -5.967  0.00  0.00    -0.047 A 
ATOM      5  C3  UNL d   1      -5.236   4.791  -5.894  0.00  0.00    -0.047 A 
ATOM      6  C4  UNL d   1      -4.281   5.785  -5.881  0.00  0.00    -0.004 A 
ENDROOT
TORSDOF 0
ENDMDL
