MODEL 1
REMARK minimizedAffinity 6.1717639
REMARK minimizedRMSD -1
REMARK  0 active torsions:
REMARK  status: ('A' for Active; 'I' for Inactive)
ROOT
ATOM      1  C   UNL d   1      -2.281  -1.986   3.686  0.00  0.00     0.172 C 
ATOM      2  N   UNL d   1      -2.749  -2.976   4.627  0.00  0.00    -0.070 N 
ATOM      3  C1  UNL d   1      -4.015  -3.051   5.144  0.00  0.00    -0.004 A 
ATOM      4  C2  UNL d   1      -4.058  -4.130   6.000  0.00  0.00    -0.047 A 
ATOM      5  C3  UNL d   1      -2.774  -4.724   5.998  0.00  0.00    -0.047 A 
ATOM      6  C4  UNL d   1      -1.983  -3.989   5.140  0.00  0.00    -0.004 A 
ENDROOT
TORSDOF 0
ENDMDL
