MODEL 1
REMARK minimizedAffinity 1.24668944
REMARK minimizedRMSD -1
REMARK  0 active torsions:
REMARK  status: ('A' for Active; 'I' for Inactive)
ROOT
ATOM      1  C   UNL d   1      -0.009   5.999  -6.000  0.00  0.00     0.172 C 
ATOM      2  N   UNL d   1      -0.260   4.613  -5.682  0.00  0.00    -0.070 N 
ATOM      3  C1  UNL d   1      -1.393   3.913  -6.000  0.00  0.00    -0.004 A 
ATOM      4  C2  UNL d   1      -1.243   2.629  -5.524  0.00  0.00    -0.047 A 
ATOM      5  C3  UNL d   1       0.024   2.554  -4.897  0.00  0.00    -0.047 A 
ATOM      6  C4  UNL d   1       0.611   3.797  -5.010  0.00  0.00    -0.004 A 
ENDROOT
TORSDOF 0
ENDMDL
