MODEL 1
REMARK minimizedAffinity 3.6826117
REMARK minimizedRMSD -1
REMARK  0 active torsions:
REMARK  status: ('A' for Active; 'I' for Inactive)
ROOT
ATOM      1  C   UNL d   1       0.059   5.679  -5.999  0.00  0.00     0.172 C 
ATOM      2  N   UNL d   1      -0.672   4.476  -5.678  0.00  0.00    -0.070 N 
ATOM      3  C1  UNL d   1      -1.979   4.227  -6.000  0.00  0.00    -0.004 A 
ATOM      4  C2  UNL d   1      -2.301   2.976  -5.519  0.00  0.00    -0.047 A 
ATOM      5  C3  UNL d   1      -1.147   2.456  -4.886  0.00  0.00    -0.047 A 
ATOM      6  C4  UNL d   1      -0.154   3.405  -4.999  0.00  0.00    -0.004 A 
ENDROOT
TORSDOF 0
ENDMDL
