MODEL 1
REMARK minimizedAffinity -0.872784615
REMARK minimizedRMSD -1
REMARK  0 active torsions:
REMARK  status: ('A' for Active; 'I' for Inactive)
ROOT
ATOM      1  C   UNL d   1      -4.045   5.256  -6.000  0.00  0.00     0.172 C 
ATOM      2  N   UNL d   1      -2.874   4.437  -5.792  0.00  0.00    -0.070 N 
ATOM      3  C1  UNL d   1      -1.578   4.829  -5.998  0.00  0.00    -0.004 A 
ATOM      4  C2  UNL d   1      -0.760   3.764  -5.688  0.00  0.00    -0.047 A 
ATOM      5  C3  UNL d   1      -1.593   2.695  -5.281  0.00  0.00    -0.047 A 
ATOM      6  C4  UNL d   1      -2.897   3.138  -5.356  0.00  0.00    -0.004 A 
ENDROOT
TORSDOF 0
ENDMDL
