MODEL 1
REMARK minimizedAffinity -3.08838224
REMARK minimizedRMSD -1
REMARK  1 active torsions:
REMARK  status: ('A' for Active; 'I' for Inactive)
REMARK    1  A    between atoms: N_2  and  C1_3 
ROOT
ATOM      1  C1  UNL d   1      -0.340   0.079   0.547  0.00  0.00     0.143 A 
ATOM      2  C2  UNL d   1      -0.851  -0.451   1.737  0.00  0.00    -0.057 A 
ATOM      3  C3  UNL d   1      -0.102  -0.437   2.919  0.00  0.00     0.033 A 
ATOM      4  C4  UNL d   1       1.188   0.083   2.926  0.00  0.00    -0.042 A 
ATOM      5  C5  UNL d   1       1.727   0.593   1.750  0.00  0.00     0.033 A 
ATOM      6  C6  UNL d   1       0.971   0.582   0.574  0.00  0.00    -0.057 A 
ENDROOT
BRANCH   1   7
ATOM      7  N   UNL d   1      -0.997   0.006  -0.683  0.00  0.00    -0.732 N 
ATOM      8  C   UNL d   1      -2.337   0.530  -0.835  0.00  0.00     0.284 C 
ATOM      9  H3  UNL d   1      -0.380   0.210  -1.466  0.00  0.00     0.395 HD
ENDBRANCH   1   7
TORSDOF 1
ENDMDL
