MODEL 1
REMARK minimizedAffinity -3.63434672
REMARK minimizedRMSD -1
REMARK  1 active torsions:
REMARK  status: ('A' for Active; 'I' for Inactive)
REMARK    1  A    between atoms: N_2  and  C1_3 
ROOT
ATOM      1  C1  UNL d   1       1.068   0.627   0.603  0.00  0.00     0.143 A 
ATOM      2  C2  UNL d   1       1.300   0.266   1.935  0.00  0.00    -0.057 A 
ATOM      3  C3  UNL d   1       0.310  -0.364   2.699  0.00  0.00     0.033 A 
ATOM      4  C4  UNL d   1      -0.943  -0.618   2.152  0.00  0.00    -0.042 A 
ATOM      5  C5  UNL d   1      -1.204  -0.246   0.838  0.00  0.00     0.033 A 
ATOM      6  C6  UNL d   1      -0.210   0.377   0.078  0.00  0.00    -0.057 A 
ENDROOT
BRANCH   1   7
ATOM      7  N   UNL d   1       1.978   1.343  -0.179  0.00  0.00    -0.732 N 
ATOM      8  C   UNL d   1       1.999   2.790  -0.145  0.00  0.00     0.284 C 
ATOM      9  H3  UNL d   1       2.900   0.914  -0.193  0.00  0.00     0.395 HD
ENDBRANCH   1   7
TORSDOF 1
ENDMDL
