MODEL 1
REMARK minimizedAffinity -1.22813475
REMARK minimizedRMSD -1
REMARK  1 active torsions:
REMARK  status: ('A' for Active; 'I' for Inactive)
REMARK    1  A    between atoms: N_2  and  C1_3 
ROOT
ATOM      1  C1  UNL d   1      -1.598   0.182  -0.582  0.00  0.00     0.143 A 
ATOM      2  C2  UNL d   1      -0.237   0.467  -0.730  0.00  0.00    -0.057 A 
ATOM      3  C3  UNL d   1       0.714  -0.045   0.161  0.00  0.00     0.033 A 
ATOM      4  C4  UNL d   1       0.314  -0.830   1.238  0.00  0.00    -0.042 A 
ATOM      5  C5  UNL d   1      -1.036  -1.106   1.419  0.00  0.00     0.033 A 
ATOM      6  C6  UNL d   1      -1.980  -0.597   0.522  0.00  0.00    -0.057 A 
ENDROOT
BRANCH   1   7
ATOM      7  N   UNL d   1      -2.602   0.742  -1.377  0.00  0.00    -0.732 N 
ATOM      8  C   UNL d   1      -3.883   0.085  -1.517  0.00  0.00     0.284 C 
ATOM      9  H3  UNL d   1      -2.661   1.752  -1.273  0.00  0.00     0.395 HD
ENDBRANCH   1   7
TORSDOF 1
ENDMDL
