MODEL 1
REMARK minimizedAffinity -2.72200871
REMARK minimizedRMSD -1
REMARK  1 active torsions:
REMARK  status: ('A' for Active; 'I' for Inactive)
REMARK    1  A    between atoms: N_2  and  C1_3 
ROOT
ATOM      1  C1  UNL d   1       1.599   1.148   0.072  0.00  0.00     0.143 A 
ATOM      2  C2  UNL d   1       2.463   0.702   1.078  0.00  0.00    -0.057 A 
ATOM      3  C3  UNL d   1       2.006  -0.122   2.115  0.00  0.00     0.033 A 
ATOM      4  C4  UNL d   1       0.667  -0.492   2.179  0.00  0.00    -0.042 A 
ATOM      5  C5  UNL d   1      -0.215  -0.040   1.203  0.00  0.00     0.033 A 
ATOM      6  C6  UNL d   1       0.248   0.777   0.167  0.00  0.00    -0.057 A 
ENDROOT
BRANCH   1   7
ATOM      7  N   UNL d   1       1.970   2.048  -0.929  0.00  0.00    -0.732 N 
ATOM      8  C   UNL d   1       2.092   3.461  -0.642  0.00  0.00     0.284 C 
ATOM      9  H3  UNL d   1       2.706   1.681  -1.528  0.00  0.00     0.395 HD
ENDBRANCH   1   7
TORSDOF 1
ENDMDL
