MODEL 1
REMARK minimizedAffinity 6.00864649
REMARK minimizedRMSD -1
REMARK  1 active torsions:
REMARK  status: ('A' for Active; 'I' for Inactive)
REMARK    1  A    between atoms: N_2  and  C1_3 
ROOT
ATOM      1  C1  UNL d   1      -3.607  -5.281   0.366  0.00  0.00     0.143 A 
ATOM      2  C2  UNL d   1      -3.704  -3.887   0.318  0.00  0.00    -0.057 A 
ATOM      3  C3  UNL d   1      -4.884  -3.228   0.686  0.00  0.00     0.033 A 
ATOM      4  C4  UNL d   1      -6.000  -3.958   1.083  0.00  0.00    -0.042 A 
ATOM      5  C5  UNL d   1      -5.934  -5.346   1.114  0.00  0.00     0.033 A 
ATOM      6  C6  UNL d   1      -4.751  -5.997   0.751  0.00  0.00    -0.057 A 
ENDROOT
BRANCH   1   7
ATOM      7  N   UNL d   1      -2.495  -5.999  -0.082  0.00  0.00    -0.732 N 
ATOM      8  C   UNL d   1      -1.263  -6.000   0.678  0.00  0.00     0.284 C 
ATOM      9  H3  UNL d   1      -2.747  -6.907  -0.465  0.00  0.00     0.395 HD
ENDBRANCH   1   7
TORSDOF 1
ENDMDL
