MODEL 1
REMARK minimizedAffinity -1.26170576
REMARK minimizedRMSD -1
REMARK  1 active torsions:
REMARK  status: ('A' for Active; 'I' for Inactive)
REMARK    1  A    between atoms: N_2  and  C1_3 
ROOT
ATOM      1  C1  UNL d   1       1.739  -1.373  -3.719  0.00  0.00     0.143 A 
ATOM      2  C2  UNL d   1       0.737  -0.513  -3.256  0.00  0.00    -0.057 A 
ATOM      3  C3  UNL d   1      -0.618  -0.838  -3.392  0.00  0.00     0.033 A 
ATOM      4  C4  UNL d   1      -0.997  -2.018  -4.023  0.00  0.00    -0.042 A 
ATOM      5  C5  UNL d   1      -0.019  -2.876  -4.513  0.00  0.00     0.033 A 
ATOM      6  C6  UNL d   1       1.333  -2.549  -4.368  0.00  0.00    -0.057 A 
ENDROOT
BRANCH   1   7
ATOM      7  N   UNL d   1       3.101  -1.061  -3.701  0.00  0.00    -0.732 N 
ATOM      8  C   UNL d   1       3.582   0.173  -4.284  0.00  0.00     0.284 C 
ATOM      9  H3  UNL d   1       3.543  -1.304  -2.818  0.00  0.00     0.395 HD
ENDBRANCH   1   7
TORSDOF 1
ENDMDL
