MODEL 1
REMARK minimizedAffinity -0.0850707591
REMARK minimizedRMSD -1
REMARK  1 active torsions:
REMARK  status: ('A' for Active; 'I' for Inactive)
REMARK    1  A    between atoms: N_2  and  C1_3 
ROOT
ATOM      1  C1  UNL d   1       0.779  -3.476  -2.560  0.00  0.00     0.143 A 
ATOM      2  C2  UNL d   1       0.274  -2.518  -1.675  0.00  0.00    -0.057 A 
ATOM      3  C3  UNL d   1       0.926  -1.294  -1.481  0.00  0.00     0.033 A 
ATOM      4  C4  UNL d   1       2.114  -1.018  -2.150  0.00  0.00    -0.042 A 
ATOM      5  C5  UNL d   1       2.648  -1.966  -3.015  0.00  0.00     0.033 A 
ATOM      6  C6  UNL d   1       1.989  -3.184  -3.209  0.00  0.00    -0.057 A 
ENDROOT
BRANCH   1   7
ATOM      7  N   UNL d   1       0.231  -4.751  -2.722  0.00  0.00    -0.732 N 
ATOM      8  C   UNL d   1      -0.101  -5.562  -1.570  0.00  0.00     0.284 C 
ATOM      9  H3  UNL d   1      -0.461  -4.785  -3.467  0.00  0.00     0.395 HD
ENDBRANCH   1   7
TORSDOF 1
ENDMDL
