MODEL 1
REMARK minimizedAffinity 0.197393
REMARK minimizedRMSD -1
REMARK  1 active torsions:
REMARK  status: ('A' for Active; 'I' for Inactive)
REMARK    1  A    between atoms: N_2  and  C1_3 
ROOT
ATOM      1  C1  UNL d   1       2.440  -0.838  -2.248  0.00  0.00     0.143 A 
ATOM      2  C2  UNL d   1       3.214   0.234  -2.705  0.00  0.00    -0.057 A 
ATOM      3  C3  UNL d   1       3.034   1.528  -2.200  0.00  0.00     0.033 A 
ATOM      4  C4  UNL d   1       2.053   1.778  -1.246  0.00  0.00    -0.042 A 
ATOM      5  C5  UNL d   1       1.255   0.733  -0.795  0.00  0.00     0.033 A 
ATOM      6  C6  UNL d   1       1.444  -0.558  -1.298  0.00  0.00    -0.057 A 
ENDROOT
BRANCH   1   7
ATOM      7  N   UNL d   1       2.504  -2.127  -2.781  0.00  0.00    -0.732 N 
ATOM      8  C   UNL d   1       1.330  -2.743  -3.362  0.00  0.00     0.284 C 
ATOM      9  H3  UNL d   1       3.361  -2.289  -3.305  0.00  0.00     0.395 HD
ENDBRANCH   1   7
TORSDOF 1
ENDMDL
