MODEL 1
REMARK minimizedAffinity 0.0992076322
REMARK minimizedRMSD -1
REMARK  1 active torsions:
REMARK  status: ('A' for Active; 'I' for Inactive)
REMARK    1  A    between atoms: N_2  and  C1_3 
ROOT
ATOM      1  C1  UNL d   1       2.500  -0.712  -2.187  0.00  0.00     0.143 A 
ATOM      2  C2  UNL d   1       1.228  -1.246  -2.419  0.00  0.00    -0.057 A 
ATOM      3  C3  UNL d   1       1.066  -2.516  -2.986  0.00  0.00     0.033 A 
ATOM      4  C4  UNL d   1       2.178  -3.265  -3.358  0.00  0.00    -0.042 A 
ATOM      5  C5  UNL d   1       3.451  -2.744  -3.159  0.00  0.00     0.033 A 
ATOM      6  C6  UNL d   1       3.607  -1.478  -2.587  0.00  0.00    -0.057 A 
ENDROOT
BRANCH   1   7
ATOM      7  N   UNL d   1       2.726   0.585  -1.718  0.00  0.00    -0.732 N 
ATOM      8  C   UNL d   1       1.858   1.168  -0.718  0.00  0.00     0.284 C 
ATOM      9  H3  UNL d   1       3.715   0.780  -1.576  0.00  0.00     0.395 HD
ENDBRANCH   1   7
TORSDOF 1
ENDMDL
