MODEL 1
REMARK minimizedAffinity 9.04903221
REMARK minimizedRMSD -1
REMARK  1 active torsions:
REMARK  status: ('A' for Active; 'I' for Inactive)
REMARK    1  A    between atoms: N_2  and  C1_3 
ROOT
ATOM      1  C1  UNL d   1      -0.392  -1.925  -3.255  0.00  0.00     0.143 A 
ATOM      2  C2  UNL d   1      -1.570  -1.241  -2.936  0.00  0.00    -0.057 A 
ATOM      3  C3  UNL d   1      -1.576  -0.205  -1.994  0.00  0.00     0.033 A 
ATOM      4  C4  UNL d   1      -0.405   0.147  -1.331  0.00  0.00    -0.042 A 
ATOM      5  C5  UNL d   1       0.773  -0.536  -1.614  0.00  0.00     0.033 A 
ATOM      6  C6  UNL d   1       0.774  -1.565  -2.560  0.00  0.00    -0.057 A 
ENDROOT
BRANCH   1   7
ATOM      7  N   UNL d   1      -0.340  -3.029  -4.109  0.00  0.00    -0.732 N 
ATOM      8  C   UNL d   1      -1.012  -3.001  -5.391  0.00  0.00     0.284 C 
ATOM      9  H3  UNL d   1       0.581  -3.460  -4.132  0.00  0.00     0.395 HD
ENDBRANCH   1   7
TORSDOF 1
ENDMDL
