MODEL 1
REMARK minimizedAffinity 3.0134275
REMARK minimizedRMSD -1
REMARK  1 active torsions:
REMARK  status: ('A' for Active; 'I' for Inactive)
REMARK    1  A    between atoms: N_2  and  C1_3 
ROOT
ATOM      1  C1  UNL d   1      -0.032   1.270   2.505  0.00  0.00     0.143 A 
ATOM      2  C2  UNL d   1       1.249   1.630   2.936  0.00  0.00    -0.057 A 
ATOM      3  C3  UNL d   1       1.434   2.450   4.056  0.00  0.00     0.033 A 
ATOM      4  C4  UNL d   1       0.336   2.949   4.749  0.00  0.00    -0.042 A 
ATOM      5  C5  UNL d   1      -0.947   2.624   4.324  0.00  0.00     0.033 A 
ATOM      6  C6  UNL d   1      -1.125   1.800   3.209  0.00  0.00    -0.057 A 
ENDROOT
BRANCH   1   7
ATOM      7  N   UNL d   1      -0.284   0.539   1.341  0.00  0.00    -0.732 N 
ATOM      8  C   UNL d   1       0.515  -0.622   1.013  0.00  0.00     0.284 C 
ATOM      9  H3  UNL d   1      -1.279   0.423   1.163  0.00  0.00     0.395 HD
ENDBRANCH   1   7
TORSDOF 1
ENDMDL
