MODEL 1
REMARK minimizedAffinity 0.559143186
REMARK minimizedRMSD -1
REMARK  1 active torsions:
REMARK  status: ('A' for Active; 'I' for Inactive)
REMARK    1  A    between atoms: N_2  and  C1_3 
ROOT
ATOM      1  C1  UNL d   1      -3.185  -4.917   0.623  0.00  0.00     0.143 A 
ATOM      2  C2  UNL d   1      -3.968  -3.799   0.929  0.00  0.00    -0.057 A 
ATOM      3  C3  UNL d   1      -5.343  -3.781   0.663  0.00  0.00     0.033 A 
ATOM      4  C4  UNL d   1      -5.954  -4.873   0.056  0.00  0.00    -0.042 A 
ATOM      5  C5  UNL d   1      -5.190  -5.985  -0.280  0.00  0.00     0.033 A 
ATOM      6  C6  UNL d   1      -3.819  -6.000  -0.005  0.00  0.00    -0.057 A 
ENDROOT
BRANCH   1   7
ATOM      7  N   UNL d   1      -1.796  -4.958   0.773  0.00  0.00    -0.732 N 
ATOM      8  C   UNL d   1      -1.017  -6.000   0.140  0.00  0.00     0.284 C 
ATOM      9  H3  UNL d   1      -1.373  -4.034   0.725  0.00  0.00     0.395 HD
ENDBRANCH   1   7
TORSDOF 1
ENDMDL
