MODEL 1
REMARK minimizedAffinity 5.62796068
REMARK minimizedRMSD -1
REMARK  1 active torsions:
REMARK  status: ('A' for Active; 'I' for Inactive)
REMARK    1  A    between atoms: N_2  and  C1_3 
ROOT
ATOM      1  C1  UNL d   1      -1.783   1.732   4.881  0.00  0.00     0.143 A 
ATOM      2  C2  UNL d   1      -1.176   1.197   3.740  0.00  0.00    -0.057 A 
ATOM      3  C3  UNL d   1       0.127   1.558   3.374  0.00  0.00     0.033 A 
ATOM      4  C4  UNL d   1       0.837   2.484   4.130  0.00  0.00    -0.042 A 
ATOM      5  C5  UNL d   1       0.245   3.047   5.254  0.00  0.00     0.033 A 
ATOM      6  C6  UNL d   1      -1.054   2.679   5.619  0.00  0.00    -0.057 A 
ENDROOT
BRANCH   1   7
ATOM      7  N   UNL d   1      -3.110   1.489   5.243  0.00  0.00    -0.732 N 
ATOM      8  C   UNL d   1      -3.464   0.303   5.993  0.00  0.00     0.284 C 
ATOM      9  H3  UNL d   1      -3.590   2.332   5.548  0.00  0.00     0.395 HD
ENDBRANCH   1   7
TORSDOF 1
ENDMDL
