MODEL 1
REMARK minimizedAffinity 9.85227108
REMARK minimizedRMSD -1
REMARK  3 active torsions:
REMARK  status: ('A' for Active; 'I' for Inactive)
REMARK    1  A    between atoms: C3'_2  and  C2'_3 
REMARK    2  A    between atoms: C2'_3  and  C1'_4 
REMARK    3  A    between atoms: C1'_4  and  C1_5 
ROOT
ATOM      1  C1  N4B d   1       0.641  -0.187   2.791  0.00  0.00    -0.075 A 
ATOM      2  C2  N4B d   1       1.652   0.297   3.650  0.00  0.00     0.002 A 
ATOM      3  C3  N4B d   1       2.288  -0.561   4.513  0.00  0.00     0.002 A 
ATOM      4  C4  N4B d   1       1.918  -1.897   4.549  0.00  0.00    -0.004 A 
ATOM      5  C5  N4B d   1       0.957  -2.362   3.698  0.00  0.00     0.002 A 
ATOM      6  C6  N4B d   1       0.313  -1.511   2.823  0.00  0.00     0.002 A 
ENDROOT
BRANCH   1   7
ATOM      7  C1' N4B d   1      -0.142   0.730   1.891  0.00  0.00     0.057 C 
BRANCH   7   8
ATOM      8  C2' N4B d   1      -0.122   2.140   2.473  0.00  0.00     0.009 C 
BRANCH   8   9
ATOM      9  C3' N4B d   1       0.127   3.191   1.405  0.00  0.00     0.004 C 
ATOM     10  C4' N4B d   1      -0.799   4.366   1.519  0.00  0.00     0.003 C 
ENDBRANCH   8   9
ENDBRANCH   7   8
ENDBRANCH   1   7
TORSDOF 3
ENDMDL
