MODEL 1
REMARK minimizedAffinity 10.6617937
REMARK minimizedRMSD -1
REMARK  3 active torsions:
REMARK  status: ('A' for Active; 'I' for Inactive)
REMARK    1  A    between atoms: C3'_2  and  C2'_3 
REMARK    2  A    between atoms: C2'_3  and  C1'_4 
REMARK    3  A    between atoms: C1'_4  and  C1_5 
ROOT
ATOM      1  C1  N4B d   1       0.354  -3.401  -5.630  0.00  0.00    -0.075 A 
ATOM      2  C2  N4B d   1       0.674  -2.264  -4.855  0.00  0.00     0.002 A 
ATOM      3  C3  N4B d   1       1.973  -2.037  -4.472  0.00  0.00     0.002 A 
ATOM      4  C4  N4B d   1       2.962  -2.939  -4.834  0.00  0.00    -0.004 A 
ATOM      5  C5  N4B d   1       2.649  -4.021  -5.603  0.00  0.00     0.002 A 
ATOM      6  C6  N4B d   1       1.349  -4.260  -5.999  0.00  0.00     0.002 A 
ENDROOT
BRANCH   1   7
ATOM      7  C1' N4B d   1      -1.065  -3.736  -6.000  0.00  0.00     0.057 C 
BRANCH   7   8
ATOM      8  C2' N4B d   1      -1.862  -4.012  -4.729  0.00  0.00     0.009 C 
BRANCH   8   9
ATOM      9  C3' N4B d   1      -2.245  -2.731  -4.009  0.00  0.00     0.004 C 
ATOM     10  C4' N4B d   1      -1.920  -2.767  -2.545  0.00  0.00     0.003 C 
ENDBRANCH   8   9
ENDBRANCH   7   8
ENDBRANCH   1   7
TORSDOF 3
ENDMDL
