MODEL 1
REMARK minimizedAffinity 7.66569614
REMARK minimizedRMSD -1
REMARK  3 active torsions:
REMARK  status: ('A' for Active; 'I' for Inactive)
REMARK    1  A    between atoms: C3'_2  and  C2'_3 
REMARK    2  A    between atoms: C2'_3  and  C1'_4 
REMARK    3  A    between atoms: C1'_4  and  C1_5 
ROOT
ATOM      1  C1  N4B d   1       2.373  -0.824  -5.419  0.00  0.00    -0.075 A 
ATOM      2  C2  N4B d   1       2.009  -2.056  -4.831  0.00  0.00     0.002 A 
ATOM      3  C3  N4B d   1       0.777  -2.198  -4.242  0.00  0.00     0.002 A 
ATOM      4  C4  N4B d   1      -0.098  -1.122  -4.213  0.00  0.00    -0.004 A 
ATOM      5  C5  N4B d   1       0.251   0.056  -4.806  0.00  0.00     0.002 A 
ATOM      6  C6  N4B d   1       1.485   0.212  -5.404  0.00  0.00     0.002 A 
ENDROOT
BRANCH   1   7
ATOM      7  C1' N4B d   1       3.742  -0.594  -5.998  0.00  0.00     0.057 C 
BRANCH   7   8
ATOM      8  C2' N4B d   1       4.070   0.895  -5.934  0.00  0.00     0.009 C 
BRANCH   8   9
ATOM      9  C3' N4B d   1       5.567   1.149  -5.967  0.00  0.00     0.004 C 
ATOM     10  C4' N4B d   1       5.982   2.290  -5.088  0.00  0.00     0.003 C 
ENDBRANCH   8   9
ENDBRANCH   7   8
ENDBRANCH   1   7
TORSDOF 3
ENDMDL
