MODEL 1
REMARK minimizedAffinity 8.41272545
REMARK minimizedRMSD -1
REMARK  3 active torsions:
REMARK  status: ('A' for Active; 'I' for Inactive)
REMARK    1  A    between atoms: C3'_2  and  C2'_3 
REMARK    2  A    between atoms: C2'_3  and  C1'_4 
REMARK    3  A    between atoms: C1'_4  and  C1_5 
ROOT
ATOM      1  C1  N4B d   1      -0.668  -0.880   1.924  0.00  0.00    -0.075 A 
ATOM      2  C2  N4B d   1       0.421  -1.597   2.467  0.00  0.00     0.002 A 
ATOM      3  C3  N4B d   1       1.216  -1.015   3.425  0.00  0.00     0.002 A 
ATOM      4  C4  N4B d   1       0.953   0.282   3.839  0.00  0.00    -0.004 A 
ATOM      5  C5  N4B d   1      -0.116   0.957   3.328  0.00  0.00     0.002 A 
ATOM      6  C6  N4B d   1      -0.925   0.384   2.367  0.00  0.00     0.002 A 
ENDROOT
BRANCH   1   7
ATOM      7  C1' N4B d   1      -1.512  -1.442   0.813  0.00  0.00     0.057 C 
BRANCH   7   8
ATOM      8  C2' N4B d   1      -0.607  -1.857  -0.343  0.00  0.00     0.009 C 
BRANCH   8   9
ATOM      9  C3' N4B d   1      -1.398  -2.149  -1.607  0.00  0.00     0.004 C 
ATOM     10  C4' N4B d   1      -1.531  -3.617  -1.883  0.00  0.00     0.003 C 
ENDBRANCH   8   9
ENDBRANCH   7   8
ENDBRANCH   1   7
TORSDOF 3
ENDMDL
