MODEL 1
REMARK minimizedAffinity 14.4732294
REMARK minimizedRMSD -1
REMARK  0 active torsions:
REMARK  status: ('A' for Active; 'I' for Inactive)
ROOT
ATOM      1  C   UNL d   1       4.874  -5.993  -3.266  0.00  0.00     0.023 A 
ATOM      2  C1  UNL d   1       4.272  -4.905  -3.898  0.00  0.00     0.003 A 
ATOM      3  C2  UNL d   1       3.817  -3.822  -3.143  0.00  0.00     0.048 A 
ATOM      4  C3  UNL d   1       3.969  -3.832  -1.757  0.00  0.00     0.023 A 
ATOM      5  C4  UNL d   1       4.572  -4.919  -1.121  0.00  0.00     0.048 A 
ATOM      6  C5  UNL d   1       5.024  -6.000  -1.879  0.00  0.00     0.003 A 
ATOM      7  I   UNL d   1       3.294  -2.221  -0.632  0.00  0.00    -0.146 I 
ENDROOT
TORSDOF 0
ENDMDL
