MODEL 1
REMARK minimizedAffinity 8.54464817
REMARK minimizedRMSD -1
REMARK  0 active torsions:
REMARK  status: ('A' for Active; 'I' for Inactive)
ROOT
ATOM      1  C   UNL d   1       0.113   4.321  -2.127  0.00  0.00     0.023 A 
ATOM      2  C1  UNL d   1      -0.636   3.157  -1.957  0.00  0.00     0.003 A 
ATOM      3  C2  UNL d   1      -0.690   2.536  -0.707  0.00  0.00     0.048 A 
ATOM      4  C3  UNL d   1       0.006   3.086   0.368  0.00  0.00     0.023 A 
ATOM      5  C4  UNL d   1       0.756   4.251   0.203  0.00  0.00     0.048 A 
ATOM      6  C5  UNL d   1       0.808   4.868  -1.049  0.00  0.00     0.003 A 
ATOM      7  I   UNL d   1      -0.073   2.164   2.230  0.00  0.00    -0.146 I 
ENDROOT
TORSDOF 0
ENDMDL
