MODEL 1
REMARK minimizedAffinity -2.67021012
REMARK minimizedRMSD -1
REMARK  0 active torsions:
REMARK  status: ('A' for Active; 'I' for Inactive)
ROOT
ATOM      1  C   UNL d   1      -4.451   4.869  -1.882  0.00  0.00     0.023 A 
ATOM      2  C1  UNL d   1      -3.657   4.840  -3.028  0.00  0.00     0.003 A 
ATOM      3  C2  UNL d   1      -4.030   4.052  -4.118  0.00  0.00     0.048 A 
ATOM      4  C3  UNL d   1      -5.200   3.296  -4.057  0.00  0.00     0.023 A 
ATOM      5  C4  UNL d   1      -5.999   3.323  -2.912  0.00  0.00     0.048 A 
ATOM      6  C5  UNL d   1      -5.621   4.111  -1.824  0.00  0.00     0.003 A 
ATOM      7  I   UNL d   1      -5.759   2.123  -5.679  0.00  0.00    -0.146 I 
ENDROOT
TORSDOF 0
ENDMDL
