MODEL 1
REMARK minimizedAffinity -0.697920918
REMARK minimizedRMSD -1
REMARK  0 active torsions:
REMARK  status: ('A' for Active; 'I' for Inactive)
ROOT
ATOM      1  C   UNL d   1      -5.948   5.002  -3.056  0.00  0.00     0.023 A 
ATOM      2  C1  UNL d   1      -5.925   3.768  -2.405  0.00  0.00     0.003 A 
ATOM      3  C2  UNL d   1      -5.940   2.586  -3.147  0.00  0.00     0.048 A 
ATOM      4  C3  UNL d   1      -5.978   2.644  -4.540  0.00  0.00     0.023 A 
ATOM      5  C4  UNL d   1      -6.000   3.876  -5.196  0.00  0.00     0.048 A 
ATOM      6  C5  UNL d   1      -5.985   5.056  -4.449  0.00  0.00     0.003 A 
ATOM      7  I   UNL d   1      -6.000   0.885  -5.647  0.00  0.00    -0.146 I 
ENDROOT
TORSDOF 0
ENDMDL
