MODEL 1
REMARK minimizedAffinity 5.79828119
REMARK minimizedRMSD -1
REMARK  0 active torsions:
REMARK  status: ('A' for Active; 'I' for Inactive)
ROOT
ATOM      1  C   UNL d   1      -0.507  -3.213  -5.253  0.00  0.00     0.023 A 
ATOM      2  C1  UNL d   1      -1.766  -2.740  -4.882  0.00  0.00     0.003 A 
ATOM      3  C2  UNL d   1      -2.896  -3.539  -5.069  0.00  0.00     0.048 A 
ATOM      4  C3  UNL d   1      -2.759  -4.809  -5.628  0.00  0.00     0.023 A 
ATOM      5  C4  UNL d   1      -1.502  -5.287  -6.000  0.00  0.00     0.048 A 
ATOM      6  C5  UNL d   1      -0.375  -4.484  -5.812  0.00  0.00     0.003 A 
ATOM      7  I   UNL d   1      -4.440  -6.000  -5.907  0.00  0.00    -0.146 I 
ENDROOT
TORSDOF 0
ENDMDL
