MODEL 1
REMARK minimizedAffinity 9.05135059
REMARK minimizedRMSD -1
REMARK  0 active torsions:
REMARK  status: ('A' for Active; 'I' for Inactive)
ROOT
ATOM      1  C   UNL d   1      -5.935  -1.520   6.000  0.00  0.00     0.023 A 
ATOM      2  C1  UNL d   1      -5.161  -2.262   5.108  0.00  0.00     0.003 A 
ATOM      3  C2  UNL d   1      -4.449  -1.616   4.095  0.00  0.00     0.048 A 
ATOM      4  C3  UNL d   1      -4.516  -0.228   3.980  0.00  0.00     0.023 A 
ATOM      5  C4  UNL d   1      -5.289   0.518   4.871  0.00  0.00     0.048 A 
ATOM      6  C5  UNL d   1      -5.999  -0.132   5.882  0.00  0.00     0.003 A 
ATOM      7  I   UNL d   1      -3.458   0.736   2.473  0.00  0.00    -0.146 I 
ENDROOT
TORSDOF 0
ENDMDL
