MODEL 1
REMARK minimizedAffinity 1.70309365
REMARK minimizedRMSD -1
REMARK  0 active torsions:
REMARK  status: ('A' for Active; 'I' for Inactive)
ROOT
ATOM      1  C   UNL d   1      -4.874   3.733  -1.785  0.00  0.00     0.023 A 
ATOM      2  C1  UNL d   1      -4.730   3.035  -2.984  0.00  0.00     0.003 A 
ATOM      3  C2  UNL d   1      -5.053   3.652  -4.195  0.00  0.00     0.048 A 
ATOM      4  C3  UNL d   1      -5.518   4.966  -4.199  0.00  0.00     0.023 A 
ATOM      5  C4  UNL d   1      -5.662   5.669  -3.001  0.00  0.00     0.048 A 
ATOM      6  C5  UNL d   1      -5.340   5.048  -1.793  0.00  0.00     0.003 A 
ATOM      7  I   UNL d   1      -5.998   5.886  -6.000  0.00  0.00    -0.146 I 
ENDROOT
TORSDOF 0
ENDMDL
