MODEL 1
REMARK minimizedAffinity 7.48654509
REMARK minimizedRMSD -1
REMARK  0 active torsions:
REMARK  status: ('A' for Active; 'I' for Inactive)
ROOT
ATOM      1  C   UNL d   1       0.384  -4.200  -1.488  0.00  0.00     0.023 A 
ATOM      2  C1  UNL d   1       0.586  -5.485  -1.993  0.00  0.00     0.003 A 
ATOM      3  C2  UNL d   1      -0.279  -6.000  -2.961  0.00  0.00     0.048 A 
ATOM      4  C3  UNL d   1      -1.343  -5.224  -3.420  0.00  0.00     0.023 A 
ATOM      5  C4  UNL d   1      -1.548  -3.938  -2.919  0.00  0.00     0.048 A 
ATOM      6  C5  UNL d   1      -0.681  -3.428  -1.950  0.00  0.00     0.003 A 
ATOM      7  I   UNL d   1      -2.631  -5.988  -4.861  0.00  0.00    -0.146 I 
ENDROOT
TORSDOF 0
ENDMDL
