MODEL 1
REMARK minimizedAffinity 6.32042694
REMARK minimizedRMSD -1
REMARK  0 active torsions:
REMARK  status: ('A' for Active; 'I' for Inactive)
ROOT
ATOM      1  C   UNL d   1       0.011   3.902  -1.111  0.00  0.00     0.023 A 
ATOM      2  C1  UNL d   1      -0.479   2.613  -0.899  0.00  0.00     0.003 A 
ATOM      3  C2  UNL d   1      -0.414   2.041   0.373  0.00  0.00     0.048 A 
ATOM      4  C3  UNL d   1       0.143   2.762   1.428  0.00  0.00     0.023 A 
ATOM      5  C4  UNL d   1       0.634   4.052   1.221  0.00  0.00     0.048 A 
ATOM      6  C5  UNL d   1       0.567   4.620  -0.053  0.00  0.00     0.003 A 
ATOM      7  I   UNL d   1       0.241   1.912   3.322  0.00  0.00    -0.146 I 
ENDROOT
TORSDOF 0
ENDMDL
