MODEL 1
REMARK minimizedAffinity 11.3967371
REMARK minimizedRMSD -1
REMARK  0 active torsions:
REMARK  status: ('A' for Active; 'I' for Inactive)
ROOT
ATOM      1  C   UNL d   1       5.435  -3.871  -0.358  0.00  0.00     0.023 A 
ATOM      2  C1  UNL d   1       5.260  -3.029  -1.457  0.00  0.00     0.003 A 
ATOM      3  C2  UNL d   1       4.872  -3.559  -2.689  0.00  0.00     0.048 A 
ATOM      4  C3  UNL d   1       4.660  -4.932  -2.816  0.00  0.00     0.023 A 
ATOM      5  C4  UNL d   1       4.832  -5.777  -1.719  0.00  0.00     0.048 A 
ATOM      6  C5  UNL d   1       5.221  -5.243  -0.489  0.00  0.00     0.003 A 
ATOM      7  I   UNL d   1       4.082  -5.723  -4.649  0.00  0.00    -0.146 I 
ENDROOT
TORSDOF 0
ENDMDL
