MODEL 1
REMARK minimizedAffinity 4.15804625
REMARK minimizedRMSD -1
REMARK  0 active torsions:
REMARK  status: ('A' for Active; 'I' for Inactive)
ROOT
ATOM      1  C   UNL d   1      -5.955   0.485  -5.922  0.00  0.00     0.023 A 
ATOM      2  C1  UNL d   1      -5.991  -0.293  -4.765  0.00  0.00     0.003 A 
ATOM      3  C2  UNL d   1      -6.000   0.318  -3.510  0.00  0.00     0.048 A 
ATOM      4  C3  UNL d   1      -5.975   1.710  -3.418  0.00  0.00     0.023 A 
ATOM      5  C4  UNL d   1      -5.941   2.493  -4.573  0.00  0.00     0.048 A 
ATOM      6  C5  UNL d   1      -5.930   1.877  -5.826  0.00  0.00     0.003 A 
ATOM      7  I   UNL d   1      -5.989   2.623  -1.551  0.00  0.00    -0.146 I 
ENDROOT
TORSDOF 0
ENDMDL
