MODEL 1
REMARK minimizedAffinity -0.821569443
REMARK minimizedRMSD -1
REMARK  1 active torsions:
REMARK  status: ('A' for Active; 'I' for Inactive)
REMARK    1  A    between atoms: C3_4  and  O_7 
ROOT
ATOM      1  C   UNL d   1       0.688  -1.109  -0.788  0.00  0.00    -0.033 A 
ATOM      2  C1  UNL d   1      -0.104  -2.013  -0.075  0.00  0.00     0.039 A 
ATOM      3  C2  UNL d   1      -1.161  -1.549   0.710  0.00  0.00    -0.080 A 
ATOM      4  C3  UNL d   1      -1.416  -0.182   0.774  0.00  0.00     0.150 A 
ATOM      5  C4  UNL d   1      -0.634   0.723   0.064  0.00  0.00    -0.007 A 
ATOM      6  C5  UNL d   1       0.421   0.259  -0.719  0.00  0.00     0.039 A 
ENDROOT
BRANCH   4   7
ATOM      7  O   UNL d   1      -2.434   0.319   1.531  0.00  0.00    -0.526 OA
ATOM      8  H5  UNL d   1      -2.870  -0.420   1.987  0.00  0.00     0.418 HD
ENDBRANCH   4   7
TORSDOF 1
ENDMDL
