MODEL 1
REMARK minimizedAffinity -3.86163187
REMARK minimizedRMSD -1
REMARK  1 active torsions:
REMARK  status: ('A' for Active; 'I' for Inactive)
REMARK    1  A    between atoms: C3_4  and  O_7 
ROOT
ATOM      1  C   UNL d   1       0.169   1.251  -0.389  0.00  0.00    -0.033 A 
ATOM      2  C1  UNL d   1       1.312   1.879   0.111  0.00  0.00     0.039 A 
ATOM      3  C2  UNL d   1       2.373   1.114   0.600  0.00  0.00    -0.080 A 
ATOM      4  C3  UNL d   1       2.279  -0.275   0.582  0.00  0.00     0.150 A 
ATOM      5  C4  UNL d   1       1.145  -0.906   0.083  0.00  0.00    -0.007 A 
ATOM      6  C5  UNL d   1       0.086  -0.141  -0.404  0.00  0.00     0.039 A 
ENDROOT
BRANCH   4   7
ATOM      7  O   UNL d   1       3.286  -1.063   1.053  0.00  0.00    -0.526 OA
ATOM      8  H5  UNL d   1       3.993  -0.489   1.393  0.00  0.00     0.418 HD
ENDBRANCH   4   7
TORSDOF 1
ENDMDL
