MODEL 1
REMARK minimizedAffinity -4.83416414
REMARK minimizedRMSD -1
REMARK  1 active torsions:
REMARK  status: ('A' for Active; 'I' for Inactive)
REMARK    1  A    between atoms: C3_4  and  O_7 
ROOT
ATOM      1  C   UNL d   1       4.490   0.934   0.566  0.00  0.00    -0.033 A 
ATOM      2  C1  UNL d   1       4.321  -0.420   0.866  0.00  0.00     0.039 A 
ATOM      3  C2  UNL d   1       3.037  -0.962   0.950  0.00  0.00    -0.080 A 
ATOM      4  C3  UNL d   1       1.933  -0.143   0.733  0.00  0.00     0.150 A 
ATOM      5  C4  UNL d   1       2.094   1.205   0.430  0.00  0.00    -0.007 A 
ATOM      6  C5  UNL d   1       3.377   1.746   0.347  0.00  0.00     0.039 A 
ENDROOT
BRANCH   4   7
ATOM      7  O   UNL d   1       0.661  -0.626   0.810  0.00  0.00    -0.526 OA
ATOM      8  H5  UNL d   1       0.703  -1.566   1.055  0.00  0.00     0.418 HD
ENDBRANCH   4   7
TORSDOF 1
ENDMDL
