MODEL 1
REMARK minimizedAffinity 0.118021093
REMARK minimizedRMSD -1
REMARK  1 active torsions:
REMARK  status: ('A' for Active; 'I' for Inactive)
REMARK    1  A    between atoms: C3_4  and  O_7 
ROOT
ATOM      1  C   UNL d   1       0.240  -2.058  -0.644  0.00  0.00    -0.033 A 
ATOM      2  C1  UNL d   1      -0.716  -1.058  -0.457  0.00  0.00     0.039 A 
ATOM      3  C2  UNL d   1      -0.318   0.271  -0.304  0.00  0.00    -0.080 A 
ATOM      4  C3  UNL d   1       1.038   0.587  -0.342  0.00  0.00     0.150 A 
ATOM      5  C4  UNL d   1       1.995  -0.404  -0.532  0.00  0.00    -0.007 A 
ATOM      6  C5  UNL d   1       1.595  -1.731  -0.683  0.00  0.00     0.039 A 
ENDROOT
BRANCH   4   7
ATOM      7  O   UNL d   1       1.475   1.870  -0.193  0.00  0.00    -0.526 OA
ATOM      8  H5  UNL d   1       0.704   2.442  -0.041  0.00  0.00     0.418 HD
ENDBRANCH   4   7
TORSDOF 1
ENDMDL
