MODEL 1
REMARK minimizedAffinity -4.96379662
REMARK minimizedRMSD -1
REMARK  1 active torsions:
REMARK  status: ('A' for Active; 'I' for Inactive)
REMARK    1  A    between atoms: C3_4  and  O_7 
ROOT
ATOM      1  C   UNL d   1       3.132  -0.480   0.626  0.00  0.00    -0.033 A 
ATOM      2  C1  UNL d   1       2.810   0.873   0.510  0.00  0.00     0.039 A 
ATOM      3  C2  UNL d   1       1.497   1.258   0.231  0.00  0.00    -0.080 A 
ATOM      4  C3  UNL d   1       0.517   0.282   0.072  0.00  0.00     0.150 A 
ATOM      5  C4  UNL d   1       0.830  -1.068   0.191  0.00  0.00    -0.007 A 
ATOM      6  C5  UNL d   1       2.142  -1.451   0.468  0.00  0.00     0.039 A 
ENDROOT
BRANCH   4   7
ATOM      7  O   UNL d   1      -0.777   0.609  -0.205  0.00  0.00    -0.526 OA
ATOM      8  H5  UNL d   1      -0.839   1.576  -0.287  0.00  0.00     0.418 HD
ENDBRANCH   4   7
TORSDOF 1
ENDMDL
