MODEL 1
REMARK minimizedAffinity -5.43144131
REMARK minimizedRMSD -1
REMARK  1 active torsions:
REMARK  status: ('A' for Active; 'I' for Inactive)
REMARK    1  A    between atoms: C3_4  and  O_7 
ROOT
ATOM      1  C   UNL d   1       0.088   0.196  -1.047  0.00  0.00    -0.033 A 
ATOM      2  C1  UNL d   1       0.944   1.035  -0.332  0.00  0.00     0.039 A 
ATOM      3  C2  UNL d   1       1.889   0.492   0.541  0.00  0.00    -0.080 A 
ATOM      4  C3  UNL d   1       1.967  -0.890   0.689  0.00  0.00     0.150 A 
ATOM      5  C4  UNL d   1       1.120  -1.732  -0.024  0.00  0.00    -0.007 A 
ATOM      6  C5  UNL d   1       0.177  -1.188  -0.894  0.00  0.00     0.039 A 
ENDROOT
BRANCH   4   7
ATOM      7  O   UNL d   1       2.870  -1.466   1.533  0.00  0.00    -0.526 OA
ATOM      8  H5  UNL d   1       3.368  -0.761   1.979  0.00  0.00     0.418 HD
ENDBRANCH   4   7
TORSDOF 1
ENDMDL
