MODEL 1
REMARK minimizedAffinity -4.91341019
REMARK minimizedRMSD -1
REMARK  1 active torsions:
REMARK  status: ('A' for Active; 'I' for Inactive)
REMARK    1  A    between atoms: C3_4  and  O_7 
ROOT
ATOM      1  C   UNL d   1      -0.543  -0.336  -1.130  0.00  0.00    -0.033 A 
ATOM      2  C1  UNL d   1       0.180  -1.525  -1.243  0.00  0.00     0.039 A 
ATOM      3  C2  UNL d   1       1.424  -1.651  -0.620  0.00  0.00    -0.080 A 
ATOM      4  C3  UNL d   1       1.932  -0.581   0.112  0.00  0.00     0.150 A 
ATOM      5  C4  UNL d   1       1.215   0.605   0.232  0.00  0.00    -0.007 A 
ATOM      6  C5  UNL d   1      -0.026   0.728  -0.392  0.00  0.00     0.039 A 
ENDROOT
BRANCH   4   7
ATOM      7  O   UNL d   1       3.143  -0.655   0.733  0.00  0.00    -0.526 OA
ATOM      8  H5  UNL d   1       3.536  -1.522   0.540  0.00  0.00     0.418 HD
ENDBRANCH   4   7
TORSDOF 1
ENDMDL
