MODEL 1
REMARK minimizedAffinity -5.30665445
REMARK minimizedRMSD -1
REMARK  1 active torsions:
REMARK  status: ('A' for Active; 'I' for Inactive)
REMARK    1  A    between atoms: C3_4  and  O_7 
ROOT
ATOM      1  C   UNL d   1       2.841  -0.811   0.426  0.00  0.00    -0.033 A 
ATOM      2  C1  UNL d   1       2.538   0.502   0.792  0.00  0.00     0.039 A 
ATOM      3  C2  UNL d   1       1.238   0.988   0.641  0.00  0.00    -0.080 A 
ATOM      4  C3  UNL d   1       0.252   0.152   0.124  0.00  0.00     0.150 A 
ATOM      5  C4  UNL d   1       0.546  -1.158  -0.239  0.00  0.00    -0.007 A 
ATOM      6  C5  UNL d   1       1.845  -1.642  -0.088  0.00  0.00     0.039 A 
ENDROOT
BRANCH   4   7
ATOM      7  O   UNL d   1      -1.030   0.584  -0.047  0.00  0.00    -0.526 OA
ATOM      8  H5  UNL d   1      -1.079   1.517   0.220  0.00  0.00     0.418 HD
ENDBRANCH   4   7
TORSDOF 1
ENDMDL
