MODEL 1
REMARK minimizedAffinity 4.40124512
REMARK minimizedRMSD -1
REMARK  1 active torsions:
REMARK  status: ('A' for Active; 'I' for Inactive)
REMARK    1  A    between atoms: C1_2  and  C2_3 
ROOT
ATOM      1  C2  UNL d   1       3.573  -2.476  -2.881  0.00  0.00    -0.073 A 
ATOM      2  C3  UNL d   1       4.846  -1.909  -2.758  0.00  0.00    -0.002 A 
ATOM      3  C4  UNL d   1       5.858  -2.246  -3.659  0.00  0.00     0.004 A 
ATOM      4  C5  UNL d   1       5.604  -3.145  -4.694  0.00  0.00    -0.004 A 
ATOM      5  C6  UNL d   1       4.335  -3.713  -4.841  0.00  0.00    -0.075 A 
ATOM      6  C7  UNL d   1       4.047  -4.684  -5.948  0.00  0.00     0.076 C 
ATOM      7  C8  UNL d   1       3.325  -3.372  -3.930  0.00  0.00     0.001 A 
ENDROOT
BRANCH   1   8
ATOM      8  C1  UNL d   1       2.476  -2.110  -1.914  0.00  0.00     0.053 C 
ATOM      9  C   UNL d   1       1.461  -3.231  -1.754  0.00  0.00     0.018 C 
ENDBRANCH   1   8
TORSDOF 1
ENDMDL
