MODEL 1
REMARK minimizedAffinity 8.01044655
REMARK minimizedRMSD -1
REMARK  1 active torsions:
REMARK  status: ('A' for Active; 'I' for Inactive)
REMARK    1  A    between atoms: C1_2  and  C2_3 
ROOT
ATOM      1  C2  UNL d   1      -1.183   2.188  -2.761  0.00  0.00    -0.073 A 
ATOM      2  C3  UNL d   1      -2.499   2.181  -3.235  0.00  0.00    -0.002 A 
ATOM      3  C4  UNL d   1      -2.851   1.385  -4.327  0.00  0.00     0.004 A 
ATOM      4  C5  UNL d   1      -1.893   0.586  -4.950  0.00  0.00    -0.004 A 
ATOM      5  C6  UNL d   1      -0.575   0.570  -4.484  0.00  0.00    -0.075 A 
ATOM      6  C7  UNL d   1       0.468  -0.283  -5.145  0.00  0.00     0.076 C 
ATOM      7  C8  UNL d   1      -0.229   1.374  -3.389  0.00  0.00     0.001 A 
ENDROOT
BRANCH   1   8
ATOM      8  C1  UNL d   1      -0.800   3.040  -1.579  0.00  0.00     0.053 C 
ATOM      9  C   UNL d   1       0.056   2.277  -0.580  0.00  0.00     0.018 C 
ENDBRANCH   1   8
TORSDOF 1
ENDMDL
