MODEL 1
REMARK minimizedAffinity 12.3065872
REMARK minimizedRMSD -1
REMARK  1 active torsions:
REMARK  status: ('A' for Active; 'I' for Inactive)
REMARK    1  A    between atoms: C1_2  and  C2_3 
ROOT
ATOM      1  C2  UNL d   1      -2.126  -2.817  -5.938  0.00  0.00    -0.073 A 
ATOM      2  C3  UNL d   1      -3.275  -3.608  -5.822  0.00  0.00    -0.002 A 
ATOM      3  C4  UNL d   1      -3.171  -4.998  -5.765  0.00  0.00     0.004 A 
ATOM      4  C5  UNL d   1      -1.919  -5.611  -5.815  0.00  0.00    -0.004 A 
ATOM      5  C6  UNL d   1      -0.758  -4.838  -5.919  0.00  0.00    -0.075 A 
ATOM      6  C7  UNL d   1       0.596  -5.482  -5.977  0.00  0.00     0.076 C 
ATOM      7  C8  UNL d   1      -0.871  -3.442  -5.979  0.00  0.00     0.001 A 
ENDROOT
BRANCH   1   8
ATOM      8  C1  UNL d   1      -2.233  -1.315  -5.994  0.00  0.00     0.053 C 
ATOM      9  C   UNL d   1      -0.868  -0.645  -5.975  0.00  0.00     0.018 C 
ENDBRANCH   1   8
TORSDOF 1
ENDMDL
