MODEL 1
REMARK minimizedAffinity 2.78535843
REMARK minimizedRMSD -1
REMARK  1 active torsions:
REMARK  status: ('A' for Active; 'I' for Inactive)
REMARK    1  A    between atoms: C1_2  and  C2_3 
ROOT
ATOM      1  C2  UNL d   1      -0.035  -1.145  -0.980  0.00  0.00    -0.073 A 
ATOM      2  C3  UNL d   1      -0.660  -0.081  -0.321  0.00  0.00    -0.002 A 
ATOM      3  C4  UNL d   1      -0.807   1.153  -0.956  0.00  0.00     0.004 A 
ATOM      4  C5  UNL d   1      -0.339   1.333  -2.257  0.00  0.00    -0.004 A 
ATOM      5  C6  UNL d   1       0.278   0.278  -2.937  0.00  0.00    -0.075 A 
ATOM      6  C7  UNL d   1       0.790   0.456  -4.336  0.00  0.00     0.076 C 
ATOM      7  C8  UNL d   1       0.425  -0.958  -2.292  0.00  0.00     0.001 A 
ENDROOT
BRANCH   1   8
ATOM      8  C1  UNL d   1       0.121  -2.481  -0.301  0.00  0.00     0.053 C 
ATOM      9  C   UNL d   1      -0.098  -3.639  -1.262  0.00  0.00     0.018 C 
ENDBRANCH   1   8
TORSDOF 1
ENDMDL
