MODEL 1
REMARK minimizedAffinity 9.64412498
REMARK minimizedRMSD -1
REMARK  1 active torsions:
REMARK  status: ('A' for Active; 'I' for Inactive)
REMARK    1  A    between atoms: C1_2  and  C2_3 
ROOT
ATOM      1  C2  UNL d   1       4.185  -1.695  -3.707  0.00  0.00    -0.073 A 
ATOM      2  C3  UNL d   1       4.182  -1.893  -2.322  0.00  0.00    -0.002 A 
ATOM      3  C4  UNL d   1       3.041  -1.605  -1.571  0.00  0.00     0.004 A 
ATOM      4  C5  UNL d   1       1.892  -1.124  -2.198  0.00  0.00    -0.004 A 
ATOM      5  C6  UNL d   1       1.871  -0.930  -3.583  0.00  0.00    -0.075 A 
ATOM      6  C7  UNL d   1       0.644  -0.410  -4.271  0.00  0.00     0.076 C 
ATOM      7  C8  UNL d   1       3.022  -1.219  -4.329  0.00  0.00     0.001 A 
ENDROOT
BRANCH   1   8
ATOM      8  C1  UNL d   1       5.412  -2.011  -4.523  0.00  0.00     0.053 C 
ATOM      9  C   UNL d   1       5.999  -3.367  -4.167  0.00  0.00     0.018 C 
ENDBRANCH   1   8
TORSDOF 1
ENDMDL
