MODEL 1
REMARK minimizedAffinity 5.89736032
REMARK minimizedRMSD -1
REMARK  1 active torsions:
REMARK  status: ('A' for Active; 'I' for Inactive)
REMARK    1  A    between atoms: C1_2  and  C2_3 
ROOT
ATOM      1  C2  UNL d   1      -0.544   3.703  -0.690  0.00  0.00    -0.073 A 
ATOM      2  C3  UNL d   1       0.152   3.227  -1.807  0.00  0.00    -0.002 A 
ATOM      3  C4  UNL d   1      -0.473   3.167  -3.054  0.00  0.00     0.004 A 
ATOM      4  C5  UNL d   1      -1.795   3.587  -3.198  0.00  0.00    -0.004 A 
ATOM      5  C6  UNL d   1      -2.503   4.077  -2.096  0.00  0.00    -0.075 A 
ATOM      6  C7  UNL d   1      -3.927   4.531  -2.233  0.00  0.00     0.076 C 
ATOM      7  C8  UNL d   1      -1.870   4.132  -0.847  0.00  0.00     0.001 A 
ENDROOT
BRANCH   1   8
ATOM      8  C1  UNL d   1       0.128   3.776   0.656  0.00  0.00     0.053 C 
ATOM      9  C   UNL d   1       0.466   2.398   1.200  0.00  0.00     0.018 C 
ENDBRANCH   1   8
TORSDOF 1
ENDMDL
