MODEL 1
REMARK minimizedAffinity 11.4558973
REMARK minimizedRMSD -1
REMARK  1 active torsions:
REMARK  status: ('A' for Active; 'I' for Inactive)
REMARK    1  A    between atoms: C1_2  and  C2_3 
ROOT
ATOM      1  C2  UNL d   1      -3.638  -5.145  -5.048  0.00  0.00    -0.073 A 
ATOM      2  C3  UNL d   1      -4.761  -5.920  -5.359  0.00  0.00    -0.002 A 
ATOM      3  C4  UNL d   1      -5.932  -5.314  -5.815  0.00  0.00     0.004 A 
ATOM      4  C5  UNL d   1      -5.991  -3.929  -5.972  0.00  0.00    -0.004 A 
ATOM      5  C6  UNL d   1      -4.875  -3.138  -5.678  0.00  0.00    -0.075 A 
ATOM      6  C7  UNL d   1      -4.923  -1.647  -5.839  0.00  0.00     0.076 C 
ATOM      7  C8  UNL d   1      -3.704  -3.754  -5.218  0.00  0.00     0.001 A 
ENDROOT
BRANCH   1   8
ATOM      8  C1  UNL d   1      -2.369  -5.796  -4.561  0.00  0.00     0.053 C 
ATOM      9  C   UNL d   1      -1.274  -5.767  -5.615  0.00  0.00     0.018 C 
ENDBRANCH   1   8
TORSDOF 1
ENDMDL
