MODEL 1
REMARK minimizedAffinity 18.9342232
REMARK minimizedRMSD -1
REMARK  1 active torsions:
REMARK  status: ('A' for Active; 'I' for Inactive)
REMARK    1  A    between atoms: C1_2  and  C2_3 
ROOT
ATOM      1  C2  UNL d   1       3.309  -5.002  -1.005  0.00  0.00    -0.073 A 
ATOM      2  C3  UNL d   1       1.957  -5.285  -1.229  0.00  0.00    -0.002 A 
ATOM      3  C4  UNL d   1       0.972  -4.378  -0.833  0.00  0.00     0.004 A 
ATOM      4  C5  UNL d   1       1.329  -3.179  -0.217  0.00  0.00    -0.004 A 
ATOM      5  C6  UNL d   1       2.676  -2.873   0.004  0.00  0.00    -0.075 A 
ATOM      6  C7  UNL d   1       3.077  -1.588   0.668  0.00  0.00     0.076 C 
ATOM      7  C8  UNL d   1       3.659  -3.790  -0.393  0.00  0.00     0.001 A 
ENDROOT
BRANCH   1   8
ATOM      8  C1  UNL d   1       4.376  -5.975  -1.437  0.00  0.00     0.053 C 
ATOM      9  C   UNL d   1       5.703  -5.710  -0.744  0.00  0.00     0.018 C 
ENDBRANCH   1   8
TORSDOF 1
ENDMDL
