MODEL 1
REMARK minimizedAffinity 12.2193174
REMARK minimizedRMSD -1
REMARK  1 active torsions:
REMARK  status: ('A' for Active; 'I' for Inactive)
REMARK    1  A    between atoms: C1_2  and  C2_3 
ROOT
ATOM      1  C2  UNL d   1       4.574  -2.892  -0.577  0.00  0.00    -0.073 A 
ATOM      2  C3  UNL d   1       3.782  -2.328  -1.583  0.00  0.00    -0.002 A 
ATOM      3  C4  UNL d   1       2.495  -1.872  -1.295  0.00  0.00     0.004 A 
ATOM      4  C5  UNL d   1       1.989  -1.969   0.001  0.00  0.00    -0.004 A 
ATOM      5  C6  UNL d   1       2.770  -2.519   1.023  0.00  0.00    -0.075 A 
ATOM      6  C7  UNL d   1       2.240  -2.633   2.422  0.00  0.00     0.076 C 
ATOM      7  C8  UNL d   1       4.060  -2.977   0.726  0.00  0.00     0.001 A 
ENDROOT
BRANCH   1   8
ATOM      8  C1  UNL d   1       5.966  -3.380  -0.881  0.00  0.00     0.053 C 
ATOM      9  C   UNL d   1       6.000  -4.875  -1.153  0.00  0.00     0.018 C 
ENDBRANCH   1   8
TORSDOF 1
ENDMDL
