MODEL 1
REMARK minimizedAffinity 8.6702776
REMARK minimizedRMSD -1
REMARK  1 active torsions:
REMARK  status: ('A' for Active; 'I' for Inactive)
REMARK    1  A    between atoms: C1_2  and  C2_3 
ROOT
ATOM      1  C2  UNL d   1      -0.720   2.406   0.714  0.00  0.00    -0.073 A 
ATOM      2  C3  UNL d   1      -1.350   3.015   1.805  0.00  0.00    -0.002 A 
ATOM      3  C4  UNL d   1      -2.587   3.642   1.646  0.00  0.00     0.004 A 
ATOM      4  C5  UNL d   1      -3.208   3.661   0.398  0.00  0.00    -0.004 A 
ATOM      5  C6  UNL d   1      -2.601   3.047  -0.703  0.00  0.00    -0.075 A 
ATOM      6  C7  UNL d   1      -3.255   3.060  -2.053  0.00  0.00     0.076 C 
ATOM      7  C8  UNL d   1      -1.358   2.422  -0.535  0.00  0.00     0.001 A 
ENDROOT
BRANCH   1   8
ATOM      8  C1  UNL d   1       0.612   1.722   0.883  0.00  0.00     0.053 C 
ATOM      9  C   UNL d   1       1.079   1.733   2.330  0.00  0.00     0.018 C 
ENDBRANCH   1   8
TORSDOF 1
ENDMDL
