MODEL 1
REMARK minimizedAffinity 9.6636095
REMARK minimizedRMSD -1
REMARK  1 active torsions:
REMARK  status: ('A' for Active; 'I' for Inactive)
REMARK    1  A    between atoms: C1_2  and  C2_3 
ROOT
ATOM      1  C2  UNL d   1       1.263  -4.797  -2.633  0.00  0.00    -0.073 A 
ATOM      2  C3  UNL d   1       0.281  -4.130  -3.374  0.00  0.00    -0.002 A 
ATOM      3  C4  UNL d   1       0.456  -3.911  -4.741  0.00  0.00     0.004 A 
ATOM      4  C5  UNL d   1       1.610  -4.363  -5.382  0.00  0.00    -0.004 A 
ATOM      5  C6  UNL d   1       2.597  -5.042  -4.660  0.00  0.00    -0.075 A 
ATOM      6  C7  UNL d   1       3.845  -5.533  -5.334  0.00  0.00     0.076 C 
ATOM      7  C8  UNL d   1       2.415  -5.255  -3.287  0.00  0.00     0.001 A 
ENDROOT
BRANCH   1   8
ATOM      8  C1  UNL d   1       1.074  -5.040  -1.158  0.00  0.00     0.053 C 
ATOM      9  C   UNL d   1       1.422  -3.814  -0.329  0.00  0.00     0.018 C 
ENDBRANCH   1   8
TORSDOF 1
ENDMDL
