MODEL 1
REMARK minimizedAffinity 1.79390931
REMARK minimizedRMSD -1
REMARK  1 active torsions:
REMARK  status: ('A' for Active; 'I' for Inactive)
REMARK    1  A    between atoms: C1_2  and  C2_3 
ROOT
ATOM      1  C2  UNL d   1       2.146  -0.364  -1.165  0.00  0.00    -0.076 A 
ATOM      2  C3  UNL d   1       2.701   0.854  -1.595  0.00  0.00     0.004 A 
ATOM      3  C4  UNL d   1       2.098   2.070  -1.277  0.00  0.00    -0.003 A 
ATOM      4  C5  UNL d   1       0.930   2.087  -0.523  0.00  0.00     0.000 A 
ATOM      5  C6  UNL d   1       0.375   0.890  -0.073  0.00  0.00     0.000 A 
ATOM      6  C7  UNL d   1       0.979  -0.343  -0.371  0.00  0.00    -0.073 A 
ATOM      7  C8  UNL d   1       0.334  -1.604   0.136  0.00  0.00     0.078 C 
ENDROOT
BRANCH   1   8
ATOM      8  C1  UNL d   1       2.829  -1.652  -1.563  0.00  0.00     0.053 C 
ATOM      9  C   UNL d   1       4.214  -1.421  -2.147  0.00  0.00     0.018 C 
ENDBRANCH   1   8
TORSDOF 1
ENDMDL
