MODEL 1
REMARK minimizedAffinity -5.40892839
REMARK minimizedRMSD -1
REMARK  1 active torsions:
REMARK  status: ('A' for Active; 'I' for Inactive)
REMARK    1  A    between atoms: C1_2  and  C2_3 
ROOT
ATOM      1  C2  UNL d   1      -3.095  -1.601  -5.759  0.00  0.00    -0.076 A 
ATOM      2  C3  UNL d   1      -2.389  -0.398  -5.587  0.00  0.00     0.004 A 
ATOM      3  C4  UNL d   1      -3.058   0.823  -5.516  0.00  0.00    -0.003 A 
ATOM      4  C5  UNL d   1      -4.444   0.860  -5.616  0.00  0.00     0.000 A 
ATOM      5  C6  UNL d   1      -5.162  -0.325  -5.769  0.00  0.00     0.000 A 
ATOM      6  C7  UNL d   1      -4.504  -1.566  -5.826  0.00  0.00    -0.073 A 
ATOM      7  C8  UNL d   1      -5.328  -2.812  -5.999  0.00  0.00     0.078 C 
ENDROOT
BRANCH   1   8
ATOM      8  C1  UNL d   1      -2.314  -2.892  -5.856  0.00  0.00     0.053 C 
ATOM      9  C   UNL d   1      -2.025  -3.502  -4.493  0.00  0.00     0.018 C 
ENDBRANCH   1   8
TORSDOF 1
ENDMDL
