MODEL 1
REMARK minimizedAffinity -5.2781167
REMARK minimizedRMSD -1
REMARK  1 active torsions:
REMARK  status: ('A' for Active; 'I' for Inactive)
REMARK    1  A    between atoms: C1_2  and  C2_3 
ROOT
ATOM      1  C2  UNL d   1      -2.234  -4.190  -5.000  0.00  0.00    -0.076 A 
ATOM      2  C3  UNL d   1      -3.111  -4.909  -5.829  0.00  0.00     0.004 A 
ATOM      3  C4  UNL d   1      -4.442  -4.519  -5.975  0.00  0.00    -0.003 A 
ATOM      4  C5  UNL d   1      -4.916  -3.404  -5.293  0.00  0.00     0.000 A 
ATOM      5  C6  UNL d   1      -4.054  -2.669  -4.479  0.00  0.00     0.000 A 
ATOM      6  C7  UNL d   1      -2.706  -3.038  -4.335  0.00  0.00    -0.073 A 
ATOM      7  C8  UNL d   1      -1.823  -2.213  -3.440  0.00  0.00     0.078 C 
ENDROOT
BRANCH   1   8
ATOM      8  C1  UNL d   1      -0.808  -4.676  -4.860  0.00  0.00     0.053 C 
ATOM      9  C   UNL d   1      -0.572  -6.000  -5.569  0.00  0.00     0.018 C 
ENDBRANCH   1   8
TORSDOF 1
ENDMDL
