MODEL 1
REMARK minimizedAffinity 6.82213116
REMARK minimizedRMSD -1
REMARK  1 active torsions:
REMARK  status: ('A' for Active; 'I' for Inactive)
REMARK    1  A    between atoms: C1_2  and  C2_3 
ROOT
ATOM      1  C2  UNL d   1       4.835  -1.992  -3.210  0.00  0.00    -0.076 A 
ATOM      2  C3  UNL d   1       4.714  -0.889  -4.073  0.00  0.00     0.004 A 
ATOM      3  C4  UNL d   1       4.793  -1.047  -5.455  0.00  0.00    -0.003 A 
ATOM      4  C5  UNL d   1       4.994  -2.312  -5.998  0.00  0.00     0.000 A 
ATOM      5  C6  UNL d   1       5.099  -3.419  -5.157  0.00  0.00     0.000 A 
ATOM      6  C7  UNL d   1       5.005  -3.279  -3.762  0.00  0.00    -0.073 A 
ATOM      7  C8  UNL d   1       5.131  -4.508  -2.903  0.00  0.00     0.078 C 
ENDROOT
BRANCH   1   8
ATOM      8  C1  UNL d   1       4.768  -1.755  -1.718  0.00  0.00     0.053 C 
ATOM      9  C   UNL d   1       5.037  -0.305  -1.346  0.00  0.00     0.018 C 
ENDBRANCH   1   8
TORSDOF 1
ENDMDL
