MODEL 1
REMARK minimizedAffinity 1.33620369
REMARK minimizedRMSD -1
REMARK  1 active torsions:
REMARK  status: ('A' for Active; 'I' for Inactive)
REMARK    1  A    between atoms: C1_2  and  C2_3 
ROOT
ATOM      1  C2  UNL d   1       2.505   1.002  -0.608  0.00  0.00    -0.076 A 
ATOM      2  C3  UNL d   1       2.040  -0.233  -1.093  0.00  0.00     0.004 A 
ATOM      3  C4  UNL d   1       0.884  -0.817  -0.577  0.00  0.00    -0.003 A 
ATOM      4  C5  UNL d   1       0.174  -0.174   0.431  0.00  0.00     0.000 A 
ATOM      5  C6  UNL d   1       0.611   1.060   0.912  0.00  0.00     0.000 A 
ATOM      6  C7  UNL d   1       1.766   1.669   0.392  0.00  0.00    -0.073 A 
ATOM      7  C8  UNL d   1       2.195   2.998   0.951  0.00  0.00     0.078 C 
ENDROOT
BRANCH   1   8
ATOM      8  C1  UNL d   1       3.780   1.573  -1.186  0.00  0.00     0.053 C 
ATOM      9  C   UNL d   1       4.864   0.520  -1.360  0.00  0.00     0.018 C 
ENDBRANCH   1   8
TORSDOF 1
ENDMDL
