MODEL 1
REMARK minimizedAffinity -2.79310083
REMARK minimizedRMSD -1
REMARK  1 active torsions:
REMARK  status: ('A' for Active; 'I' for Inactive)
REMARK    1  A    between atoms: C1_2  and  C2_3 
ROOT
ATOM      1  C2  UNL d   1      -3.255  -3.510  -4.846  0.00  0.00    -0.076 A 
ATOM      2  C3  UNL d   1      -4.089  -2.381  -4.914  0.00  0.00     0.004 A 
ATOM      3  C4  UNL d   1      -5.358  -2.460  -5.487  0.00  0.00    -0.003 A 
ATOM      4  C5  UNL d   1      -5.812  -3.669  -6.000  0.00  0.00     0.000 A 
ATOM      5  C6  UNL d   1      -5.005  -4.804  -5.925  0.00  0.00     0.000 A 
ATOM      6  C7  UNL d   1      -3.730  -4.745  -5.336  0.00  0.00    -0.073 A 
ATOM      7  C8  UNL d   1      -2.899  -5.998  -5.288  0.00  0.00     0.078 C 
ENDROOT
BRANCH   1   8
ATOM      8  C1  UNL d   1      -1.878  -3.357  -4.239  0.00  0.00     0.053 C 
ATOM      9  C   UNL d   1      -1.891  -2.517  -2.971  0.00  0.00     0.018 C 
ENDBRANCH   1   8
TORSDOF 1
ENDMDL
