MODEL 1
REMARK minimizedAffinity 5.57286501
REMARK minimizedRMSD -1
REMARK  1 active torsions:
REMARK  status: ('A' for Active; 'I' for Inactive)
REMARK    1  A    between atoms: C1_2  and  C2_3 
ROOT
ATOM      1  C2  UNL d   1      -2.386  -3.674  -4.354  0.00  0.00    -0.076 A 
ATOM      2  C3  UNL d   1      -2.255  -5.067  -4.493  0.00  0.00     0.004 A 
ATOM      3  C4  UNL d   1      -1.012  -5.686  -4.377  0.00  0.00    -0.003 A 
ATOM      4  C5  UNL d   1       0.121  -4.922  -4.118  0.00  0.00     0.000 A 
ATOM      5  C6  UNL d   1       0.008  -3.542  -3.960  0.00  0.00     0.000 A 
ATOM      6  C7  UNL d   1      -1.241  -2.904  -4.058  0.00  0.00    -0.073 A 
ATOM      7  C8  UNL d   1      -1.304  -1.411  -3.883  0.00  0.00     0.078 C 
ENDROOT
BRANCH   1   8
ATOM      8  C1  UNL d   1      -3.755  -3.055  -4.517  0.00  0.00     0.053 C 
ATOM      9  C   UNL d   1      -4.536  -3.665  -5.671  0.00  0.00     0.018 C 
ENDBRANCH   1   8
TORSDOF 1
ENDMDL
