MODEL 1
REMARK minimizedAffinity -3.30011582
REMARK minimizedRMSD -1
REMARK  1 active torsions:
REMARK  status: ('A' for Active; 'I' for Inactive)
REMARK    1  A    between atoms: C1_2  and  C2_3 
ROOT
ATOM      1  C2  UNL d   1      -2.923  -3.106  -4.525  0.00  0.00    -0.076 A 
ATOM      2  C3  UNL d   1      -3.692  -1.946  -4.718  0.00  0.00     0.004 A 
ATOM      3  C4  UNL d   1      -4.877  -1.984  -5.450  0.00  0.00    -0.003 A 
ATOM      4  C5  UNL d   1      -5.314  -3.184  -6.000  0.00  0.00     0.000 A 
ATOM      5  C6  UNL d   1      -4.573  -4.349  -5.803  0.00  0.00     0.000 A 
ATOM      6  C7  UNL d   1      -3.384  -4.331  -5.055  0.00  0.00    -0.073 A 
ATOM      7  C8  UNL d   1      -2.621  -5.615  -4.879  0.00  0.00     0.078 C 
ENDROOT
BRANCH   1   8
ATOM      8  C1  UNL d   1      -1.632  -2.998  -3.746  0.00  0.00     0.053 C 
ATOM      9  C   UNL d   1      -1.691  -1.930  -2.665  0.00  0.00     0.018 C 
ENDBRANCH   1   8
TORSDOF 1
ENDMDL
