MODEL 1
REMARK minimizedAffinity 1.06656468
REMARK minimizedRMSD -1
REMARK  1 active torsions:
REMARK  status: ('A' for Active; 'I' for Inactive)
REMARK    1  A    between atoms: C1_2  and  C2_3 
ROOT
ATOM      1  C2  UNL d   1      -4.330   3.367  -5.805  0.00  0.00    -0.076 A 
ATOM      2  C3  UNL d   1      -3.003   2.918  -5.686  0.00  0.00     0.004 A 
ATOM      3  C4  UNL d   1      -1.941   3.820  -5.661  0.00  0.00    -0.003 A 
ATOM      4  C5  UNL d   1      -2.188   5.185  -5.755  0.00  0.00     0.000 A 
ATOM      5  C6  UNL d   1      -3.499   5.649  -5.856  0.00  0.00     0.000 A 
ATOM      6  C7  UNL d   1      -4.583   4.754  -5.866  0.00  0.00    -0.073 A 
ATOM      7  C8  UNL d   1      -5.976   5.309  -5.983  0.00  0.00     0.078 C 
ENDROOT
BRANCH   1   8
ATOM      8  C1  UNL d   1      -5.440   2.341  -5.854  0.00  0.00     0.053 C 
ATOM      9  C   UNL d   1      -4.950   0.938  -5.532  0.00  0.00     0.018 C 
ENDBRANCH   1   8
TORSDOF 1
ENDMDL
