MODEL 1
REMARK minimizedAffinity 0.745960772
REMARK minimizedRMSD -1
REMARK  1 active torsions:
REMARK  status: ('A' for Active; 'I' for Inactive)
REMARK    1  A    between atoms: C1_2  and  C2_3 
ROOT
ATOM      1  C2  UNL d   1      -4.799   3.195  -5.931  0.00  0.00    -0.076 A 
ATOM      2  C3  UNL d   1      -5.995   3.931  -5.992  0.00  0.00     0.004 A 
ATOM      3  C4  UNL d   1      -5.986   5.322  -5.908  0.00  0.00    -0.003 A 
ATOM      4  C5  UNL d   1      -4.780   6.000  -5.763  0.00  0.00     0.000 A 
ATOM      5  C6  UNL d   1      -3.583   5.287  -5.719  0.00  0.00     0.000 A 
ATOM      6  C7  UNL d   1      -3.573   3.885  -5.818  0.00  0.00    -0.073 A 
ATOM      7  C8  UNL d   1      -2.254   3.166  -5.759  0.00  0.00     0.078 C 
ENDROOT
BRANCH   1   8
ATOM      8  C1  UNL d   1      -4.874   1.686  -6.000  0.00  0.00     0.053 C 
ATOM      9  C   UNL d   1      -5.548   1.080  -4.779  0.00  0.00     0.018 C 
ENDBRANCH   1   8
TORSDOF 1
ENDMDL
