MODEL 1
REMARK minimizedAffinity 1.20609963
REMARK minimizedRMSD -1
REMARK  1 active torsions:
REMARK  status: ('A' for Active; 'I' for Inactive)
REMARK    1  A    between atoms: C1_2  and  C2_3 
ROOT
ATOM      1  C2  UNL d   1       2.260   2.850   1.859  0.00  0.00    -0.076 A 
ATOM      2  C3  UNL d   1       2.929   1.859   2.599  0.00  0.00     0.004 A 
ATOM      3  C4  UNL d   1       3.786   2.199   3.644  0.00  0.00    -0.003 A 
ATOM      4  C5  UNL d   1       3.988   3.537   3.967  0.00  0.00     0.000 A 
ATOM      5  C6  UNL d   1       3.319   4.532   3.256  0.00  0.00     0.000 A 
ATOM      6  C7  UNL d   1       2.439   4.205   2.210  0.00  0.00    -0.073 A 
ATOM      7  C8  UNL d   1       1.749   5.320   1.472  0.00  0.00     0.078 C 
ENDROOT
BRANCH   1   8
ATOM      8  C1  UNL d   1       1.364   2.422   0.719  0.00  0.00     0.053 C 
ATOM      9  C   UNL d   1       1.099   0.924   0.717  0.00  0.00     0.018 C 
ENDBRANCH   1   8
TORSDOF 1
ENDMDL
