MODEL 1
REMARK minimizedAffinity 8.57585239
REMARK minimizedRMSD -1
REMARK  1 active torsions:
REMARK  status: ('A' for Active; 'I' for Inactive)
REMARK    1  A    between atoms: C1_2  and  C2_3 
ROOT
ATOM      1  C2  UNL d   1      -2.936  -4.697  -4.543  0.00  0.00    -0.076 A 
ATOM      2  C3  UNL d   1      -3.998  -5.253  -5.277  0.00  0.00     0.004 A 
ATOM      3  C4  UNL d   1      -5.021  -4.449  -5.778  0.00  0.00    -0.003 A 
ATOM      4  C5  UNL d   1      -4.999  -3.078  -5.552  0.00  0.00     0.000 A 
ATOM      5  C6  UNL d   1      -3.943  -2.507  -4.841  0.00  0.00     0.000 A 
ATOM      6  C7  UNL d   1      -2.895  -3.301  -4.343  0.00  0.00    -0.073 A 
ATOM      7  C8  UNL d   1      -1.786  -2.634  -3.578  0.00  0.00     0.078 C 
ENDROOT
BRANCH   1   8
ATOM      8  C1  UNL d   1      -1.868  -5.621  -4.001  0.00  0.00     0.053 C 
ATOM      9  C   UNL d   1      -0.495  -5.332  -4.587  0.00  0.00     0.018 C 
ENDBRANCH   1   8
TORSDOF 1
ENDMDL
