MODEL 1
REMARK minimizedAffinity 5.89038086
REMARK minimizedRMSD -1
REMARK  1 active torsions:
REMARK  status: ('A' for Active; 'I' for Inactive)
REMARK    1  A    between atoms: C1_2  and  C2_3 
ROOT
ATOM      1  C2  UNL d   1      -4.024  -2.472  -4.888  0.00  0.00    -0.076 A 
ATOM      2  C3  UNL d   1      -2.931  -1.899  -4.215  0.00  0.00     0.004 A 
ATOM      3  C4  UNL d   1      -1.821  -2.666  -3.867  0.00  0.00    -0.003 A 
ATOM      4  C5  UNL d   1      -1.785  -4.019  -4.186  0.00  0.00     0.000 A 
ATOM      5  C6  UNL d   1      -2.853  -4.600  -4.869  0.00  0.00     0.000 A 
ATOM      6  C7  UNL d   1      -3.973  -3.838  -5.242  0.00  0.00    -0.073 A 
ATOM      7  C8  UNL d   1      -5.099  -4.517  -5.972  0.00  0.00     0.078 C 
ENDROOT
BRANCH   1   8
ATOM      8  C1  UNL d   1      -5.212  -1.597  -5.217  0.00  0.00     0.053 C 
ATOM      9  C   UNL d   1      -5.999  -1.194  -3.979  0.00  0.00     0.018 C 
ENDBRANCH   1   8
TORSDOF 1
ENDMDL
