MODEL 1
REMARK minimizedAffinity 1.48568463
REMARK minimizedRMSD -1
REMARK  1 active torsions:
REMARK  status: ('A' for Active; 'I' for Inactive)
REMARK    1  A    between atoms: C1_2  and  C2_3 
ROOT
ATOM      1  C2  UNL d   1      -3.606   4.046  -5.713  0.00  0.00    -0.076 A 
ATOM      2  C3  UNL d   1      -3.383   2.667  -5.870  0.00  0.00     0.004 A 
ATOM      3  C4  UNL d   1      -4.448   1.777  -6.000  0.00  0.00    -0.003 A 
ATOM      4  C5  UNL d   1      -5.755   2.253  -5.975  0.00  0.00     0.000 A 
ATOM      5  C6  UNL d   1      -5.995   3.619  -5.837  0.00  0.00     0.000 A 
ATOM      6  C7  UNL d   1      -4.932   4.531  -5.722  0.00  0.00    -0.073 A 
ATOM      7  C8  UNL d   1      -5.248   5.994  -5.570  0.00  0.00     0.078 C 
ENDROOT
BRANCH   1   8
ATOM      8  C1  UNL d   1      -2.413   4.959  -5.550  0.00  0.00     0.053 C 
ATOM      9  C   UNL d   1      -1.859   4.947  -4.134  0.00  0.00     0.018 C 
ENDBRANCH   1   8
TORSDOF 1
ENDMDL
