MODEL 1
REMARK minimizedAffinity 1.57317865
REMARK minimizedRMSD -1
REMARK  1 active torsions:
REMARK  status: ('A' for Active; 'I' for Inactive)
REMARK    1  A    between atoms: C1_2  and  C2_3 
ROOT
ATOM      1  C2  UNL d   1      -3.880   3.503  -5.922  0.00  0.00    -0.076 A 
ATOM      2  C3  UNL d   1      -5.282   3.591  -5.983  0.00  0.00     0.004 A 
ATOM      3  C4  UNL d   1      -5.924   4.828  -5.976  0.00  0.00    -0.003 A 
ATOM      4  C5  UNL d   1      -5.175   5.998  -5.909  0.00  0.00     0.000 A 
ATOM      5  C6  UNL d   1      -3.783   5.930  -5.865  0.00  0.00     0.000 A 
ATOM      6  C7  UNL d   1      -3.119   4.691  -5.888  0.00  0.00    -0.073 A 
ATOM      7  C8  UNL d   1      -1.616   4.677  -5.832  0.00  0.00     0.078 C 
ENDROOT
BRANCH   1   8
ATOM      8  C1  UNL d   1      -3.240   2.133  -5.904  0.00  0.00     0.053 C 
ATOM      9  C   UNL d   1      -4.267   1.011  -5.871  0.00  0.00     0.018 C 
ENDBRANCH   1   8
TORSDOF 1
ENDMDL
