MODEL 1
REMARK minimizedAffinity 7.73603153
REMARK minimizedRMSD -1
REMARK  1 active torsions:
REMARK  status: ('A' for Active; 'I' for Inactive)
REMARK    1  A    between atoms: C1_2  and  C2_3 
ROOT
ATOM      1  C2  UNL d   1      -0.293  -0.426  -1.195  0.00  0.00    -0.076 A 
ATOM      2  C3  UNL d   1       0.390  -0.466   0.033  0.00  0.00     0.004 A 
ATOM      3  C4  UNL d   1       1.283   0.543   0.390  0.00  0.00    -0.003 A 
ATOM      4  C5  UNL d   1       1.505   1.609  -0.474  0.00  0.00     0.000 A 
ATOM      5  C6  UNL d   1       0.822   1.675  -1.688  0.00  0.00     0.000 A 
ATOM      6  C7  UNL d   1      -0.093   0.674  -2.056  0.00  0.00    -0.073 A 
ATOM      7  C8  UNL d   1      -0.797   0.791  -3.380  0.00  0.00     0.078 C 
ENDROOT
BRANCH   1   8
ATOM      8  C1  UNL d   1      -1.228  -1.563  -1.541  0.00  0.00     0.053 C 
ATOM      9  C   UNL d   1      -1.186  -1.923  -3.018  0.00  0.00     0.018 C 
ENDBRANCH   1   8
TORSDOF 1
ENDMDL
