MODEL 1
REMARK minimizedAffinity 5.57650614
REMARK minimizedRMSD -1
REMARK  1 active torsions:
REMARK  status: ('A' for Active; 'I' for Inactive)
REMARK    1  A    between atoms: C1_2  and  C2_3 
ROOT
ATOM      1  C2  UNL d   1      -2.990   4.551  -5.814  0.00  0.00    -0.076 A 
ATOM      2  C3  UNL d   1      -3.565   5.833  -5.833  0.00  0.00     0.004 A 
ATOM      3  C4  UNL d   1      -4.945   5.999  -5.926  0.00  0.00    -0.003 A 
ATOM      4  C5  UNL d   1      -5.774   4.885  -5.999  0.00  0.00     0.000 A 
ATOM      5  C6  UNL d   1      -5.222   3.605  -5.964  0.00  0.00     0.000 A 
ATOM      6  C7  UNL d   1      -3.833   3.420  -5.854  0.00  0.00    -0.073 A 
ATOM      7  C8  UNL d   1      -3.292   2.017  -5.826  0.00  0.00     0.078 C 
ENDROOT
BRANCH   1   8
ATOM      8  C1  UNL d   1      -1.484   4.433  -5.740  0.00  0.00     0.053 C 
ATOM      9  C   UNL d   1      -0.799   5.786  -5.626  0.00  0.00     0.018 C 
ENDBRANCH   1   8
TORSDOF 1
ENDMDL
