MODEL 1
REMARK minimizedAffinity -0.169663206
REMARK minimizedRMSD -1
REMARK  0 active torsions:
REMARK  status: ('A' for Active; 'I' for Inactive)
ROOT
ATOM      1  C   UNL d   1       0.047  -5.293   5.818  0.00  0.00     0.023 A 
ATOM      2  C1  UNL d   1       1.296  -4.699   6.000  0.00  0.00     0.003 A 
ATOM      3  C2  UNL d   1       1.499  -3.370   5.622  0.00  0.00     0.048 A 
ATOM      4  C3  UNL d   1       0.450  -2.641   5.063  0.00  0.00     0.023 A 
ATOM      5  C4  UNL d   1      -0.802  -3.232   4.880  0.00  0.00     0.048 A 
ATOM      6  C5  UNL d   1      -1.000  -4.561   5.259  0.00  0.00     0.003 A 
ATOM      7  I   UNL d   1       0.750  -0.664   4.500  0.00  0.00    -0.146 I 
ENDROOT
TORSDOF 0
ENDMDL
