MODEL 1
REMARK minimizedAffinity -2.3235023
REMARK minimizedRMSD -1
REMARK  0 active torsions:
REMARK  status: ('A' for Active; 'I' for Inactive)
ROOT
ATOM      1  C   UNL d   1      -3.146   5.999   1.987  0.00  0.00     0.023 A 
ATOM      2  C1  UNL d   1      -2.543   6.000   3.245  0.00  0.00     0.003 A 
ATOM      3  C2  UNL d   1      -3.331   5.984   4.398  0.00  0.00     0.048 A 
ATOM      4  C3  UNL d   1      -4.721   5.966   4.285  0.00  0.00     0.023 A 
ATOM      5  C4  UNL d   1      -5.328   5.964   3.029  0.00  0.00     0.048 A 
ATOM      6  C5  UNL d   1      -4.537   5.981   1.879  0.00  0.00     0.003 A 
ATOM      7  I   UNL d   1      -5.895   5.942   6.000  0.00  0.00    -0.146 I 
ENDROOT
TORSDOF 0
ENDMDL
