MODEL 1
REMARK minimizedAffinity -1.50970733
REMARK minimizedRMSD -1
REMARK  0 active torsions:
REMARK  status: ('A' for Active; 'I' for Inactive)
ROOT
ATOM      1  C   UNL d   1      -4.059   6.000   1.184  0.00  0.00     0.023 A 
ATOM      2  C1  UNL d   1      -3.215   5.998   2.295  0.00  0.00     0.003 A 
ATOM      3  C2  UNL d   1      -3.753   5.984   3.583  0.00  0.00     0.048 A 
ATOM      4  C3  UNL d   1      -5.137   5.970   3.754  0.00  0.00     0.023 A 
ATOM      5  C4  UNL d   1      -5.986   5.970   2.645  0.00  0.00     0.048 A 
ATOM      6  C5  UNL d   1      -5.442   5.986   1.359  0.00  0.00     0.003 A 
ATOM      7  I   UNL d   1      -5.942   5.948   5.670  0.00  0.00    -0.146 I 
ENDROOT
TORSDOF 0
ENDMDL
