MODEL 1
REMARK minimizedAffinity -2.25233865
REMARK minimizedRMSD -1
REMARK  0 active torsions:
REMARK  status: ('A' for Active; 'I' for Inactive)
ROOT
ATOM      1  C   UNL d   1      -4.091   6.000   0.914  0.00  0.00     0.023 A 
ATOM      2  C1  UNL d   1      -5.473   5.995   1.107  0.00  0.00     0.003 A 
ATOM      3  C2  UNL d   1      -5.999   5.990   2.400  0.00  0.00     0.048 A 
ATOM      4  C3  UNL d   1      -5.138   5.991   3.497  0.00  0.00     0.023 A 
ATOM      5  C4  UNL d   1      -3.754   5.996   3.309  0.00  0.00     0.048 A 
ATOM      6  C5  UNL d   1      -3.233   6.000   2.014  0.00  0.00     0.003 A 
ATOM      7  I   UNL d   1      -5.918   5.984   5.423  0.00  0.00    -0.146 I 
ENDROOT
TORSDOF 0
ENDMDL
