MODEL 1
REMARK minimizedAffinity 4.91764212
REMARK minimizedRMSD -1
REMARK  0 active torsions:
REMARK  status: ('A' for Active; 'I' for Inactive)
ROOT
ATOM      1  C   UNL d   1      -6.000   5.432   1.140  0.00  0.00     0.023 A 
ATOM      2  C1  UNL d   1      -4.839   5.826   0.474  0.00  0.00     0.003 A 
ATOM      3  C2  UNL d   1      -3.647   5.990   1.183  0.00  0.00     0.048 A 
ATOM      4  C3  UNL d   1      -3.623   5.757   2.558  0.00  0.00     0.023 A 
ATOM      5  C4  UNL d   1      -4.782   5.362   3.228  0.00  0.00     0.048 A 
ATOM      6  C5  UNL d   1      -5.971   5.201   2.515  0.00  0.00     0.003 A 
ATOM      7  I   UNL d   1      -1.850   6.000   3.615  0.00  0.00    -0.146 I 
ENDROOT
TORSDOF 0
ENDMDL
