MODEL 1
REMARK minimizedAffinity -2.01657319
REMARK minimizedRMSD -1
REMARK  1 active torsions:
REMARK  status: ('A' for Active; 'I' for Inactive)
REMARK    1  A    between atoms: C1_2  and  C2_3 
ROOT
ATOM      1  C2  UNL d   1      -0.681  -0.414   1.179  0.00  0.00    -0.076 A 
ATOM      2  C3  UNL d   1       0.707  -0.450   1.398  0.00  0.00     0.004 A 
ATOM      3  C4  UNL d   1       1.580  -0.884   0.402  0.00  0.00    -0.003 A 
ATOM      4  C5  UNL d   1       1.078  -1.289  -0.831  0.00  0.00     0.000 A 
ATOM      5  C6  UNL d   1      -0.294  -1.243  -1.071  0.00  0.00     0.000 A 
ATOM      6  C7  UNL d   1      -1.186  -0.792  -0.083  0.00  0.00    -0.073 A 
ATOM      7  C8  UNL d   1      -2.658  -0.769  -0.395  0.00  0.00     0.078 C 
ENDROOT
BRANCH   1   8
ATOM      8  C1  UNL d   1      -1.581   0.041   2.306  0.00  0.00     0.053 C 
ATOM      9  C   UNL d   1      -0.945   1.132   3.154  0.00  0.00     0.018 C 
ENDBRANCH   1   8
TORSDOF 1
ENDMDL
