MODEL 1
REMARK minimizedAffinity 1.34916174
REMARK minimizedRMSD -1
REMARK  1 active torsions:
REMARK  status: ('A' for Active; 'I' for Inactive)
REMARK    1  A    between atoms: C1_2  and  C2_3 
ROOT
ATOM      1  C2  UNL d   1      -0.019  -0.806   3.635  0.00  0.00    -0.076 A 
ATOM      2  C3  UNL d   1       1.126  -0.013   3.826  0.00  0.00     0.004 A 
ATOM      3  C4  UNL d   1       1.874  -0.103   4.998  0.00  0.00    -0.003 A 
ATOM      4  C5  UNL d   1       1.491  -0.988   5.999  0.00  0.00     0.000 A 
ATOM      5  C6  UNL d   1       0.368  -1.796   5.820  0.00  0.00     0.000 A 
ATOM      6  C7  UNL d   1      -0.388  -1.729   4.637  0.00  0.00    -0.073 A 
ATOM      7  C8  UNL d   1      -1.593  -2.619   4.499  0.00  0.00     0.078 C 
ENDROOT
BRANCH   1   8
ATOM      8  C1  UNL d   1      -0.807  -0.646   2.355  0.00  0.00     0.053 C 
ATOM      9  C   UNL d   1      -1.494   0.707   2.260  0.00  0.00     0.018 C 
ENDBRANCH   1   8
TORSDOF 1
ENDMDL
