MODEL 1
REMARK minimizedAffinity 8.12777233
REMARK minimizedRMSD -1
REMARK  1 active torsions:
REMARK  status: ('A' for Active; 'I' for Inactive)
REMARK    1  A    between atoms: C1_2  and  C2_3 
ROOT
ATOM      1  C2  UNL d   1      -0.816   0.012   0.633  0.00  0.00    -0.076 A 
ATOM      2  C3  UNL d   1      -0.086   0.638   1.659  0.00  0.00     0.004 A 
ATOM      3  C4  UNL d   1       1.287   0.434   1.790  0.00  0.00    -0.003 A 
ATOM      4  C5  UNL d   1       1.952  -0.399   0.896  0.00  0.00     0.000 A 
ATOM      5  C6  UNL d   1       1.247  -1.013  -0.138  0.00  0.00     0.000 A 
ATOM      6  C7  UNL d   1      -0.134  -0.805  -0.294  0.00  0.00    -0.073 A 
ATOM      7  C8  UNL d   1      -0.846  -1.498  -1.424  0.00  0.00     0.078 C 
ENDROOT
BRANCH   1   8
ATOM      8  C1  UNL d   1      -2.307   0.249   0.557  0.00  0.00     0.053 C 
ATOM      9  C   UNL d   1      -3.009  -0.027   1.878  0.00  0.00     0.018 C 
ENDBRANCH   1   8
TORSDOF 1
ENDMDL
