MODEL 1
REMARK minimizedAffinity 7.70254087
REMARK minimizedRMSD -1
REMARK  1 active torsions:
REMARK  status: ('A' for Active; 'I' for Inactive)
REMARK    1  A    between atoms: C1_2  and  C2_3 
ROOT
ATOM      1  C2  UNL d   1       1.208   2.720   1.007  0.00  0.00    -0.076 A 
ATOM      2  C3  UNL d   1       2.420   3.365   0.704  0.00  0.00     0.004 A 
ATOM      3  C4  UNL d   1       3.460   2.681   0.076  0.00  0.00    -0.003 A 
ATOM      4  C5  UNL d   1       3.304   1.340  -0.259  0.00  0.00     0.000 A 
ATOM      5  C6  UNL d   1       2.103   0.689   0.019  0.00  0.00     0.000 A 
ATOM      6  C7  UNL d   1       1.039   1.369   0.636  0.00  0.00    -0.073 A 
ATOM      7  C8  UNL d   1      -0.233   0.616   0.917  0.00  0.00     0.078 C 
ENDROOT
BRANCH   1   8
ATOM      8  C1  UNL d   1       0.126   3.506   1.713  0.00  0.00     0.053 C 
ATOM      9  C   UNL d   1       0.092   4.965   1.284  0.00  0.00     0.018 C 
ENDBRANCH   1   8
TORSDOF 1
ENDMDL
