MODEL 1
REMARK minimizedAffinity 7.04145527
REMARK minimizedRMSD -1
REMARK  1 active torsions:
REMARK  status: ('A' for Active; 'I' for Inactive)
REMARK    1  A    between atoms: C1_2  and  C2_3 
ROOT
ATOM      1  C2  UNL d   1      -0.356  -0.029  -3.910  0.00  0.00    -0.076 A 
ATOM      2  C3  UNL d   1       0.876   0.602  -3.660  0.00  0.00     0.004 A 
ATOM      3  C4  UNL d   1       1.933   0.493  -4.561  0.00  0.00    -0.003 A 
ATOM      4  C5  UNL d   1       1.777  -0.249  -5.727  0.00  0.00     0.000 A 
ATOM      5  C6  UNL d   1       0.557  -0.867  -5.999  0.00  0.00     0.000 A 
ATOM      6  C7  UNL d   1      -0.525  -0.754  -5.109  0.00  0.00    -0.073 A 
ATOM      7  C8  UNL d   1      -1.816  -1.446  -5.450  0.00  0.00     0.078 C 
ENDROOT
BRANCH   1   8
ATOM      8  C1  UNL d   1      -1.458   0.102  -2.883  0.00  0.00     0.053 C 
ATOM      9  C   UNL d   1      -1.093  -0.535  -1.551  0.00  0.00     0.018 C 
ENDBRANCH   1   8
TORSDOF 1
ENDMDL
