MODEL 1
REMARK minimizedAffinity -2.06424809
REMARK minimizedRMSD -1
REMARK  1 active torsions:
REMARK  status: ('A' for Active; 'I' for Inactive)
REMARK    1  A    between atoms: C1_2  and  C2_3 
ROOT
ATOM      1  C2  UNL d   1      -1.224  -0.341   1.258  0.00  0.00    -0.076 A 
ATOM      2  C3  UNL d   1       0.129  -0.407   1.635  0.00  0.00     0.004 A 
ATOM      3  C4  UNL d   1       1.082  -0.969   0.788  0.00  0.00    -0.003 A 
ATOM      4  C5  UNL d   1       0.699  -1.473  -0.450  0.00  0.00     0.000 A 
ATOM      5  C6  UNL d   1      -0.635  -1.400  -0.847  0.00  0.00     0.000 A 
ATOM      6  C7  UNL d   1      -1.607  -0.822  -0.012  0.00  0.00    -0.073 A 
ATOM      7  C8  UNL d   1      -3.033  -0.775  -0.489  0.00  0.00     0.078 C 
ENDROOT
BRANCH   1   8
ATOM      8  C1  UNL d   1      -2.218   0.255   2.229  0.00  0.00     0.053 C 
ATOM      9  C   UNL d   1      -1.615   1.368   3.071  0.00  0.00     0.018 C 
ENDBRANCH   1   8
TORSDOF 1
ENDMDL
