MODEL 1
REMARK minimizedAffinity 12.0732784
REMARK minimizedRMSD -1
REMARK  1 active torsions:
REMARK  status: ('A' for Active; 'I' for Inactive)
REMARK    1  A    between atoms: C1_2  and  C2_3 
ROOT
ATOM      1  C2  UNL d   1      -1.800   0.039   0.569  0.00  0.00    -0.076 A 
ATOM      2  C3  UNL d   1      -1.923   0.608   1.849  0.00  0.00     0.004 A 
ATOM      3  C4  UNL d   1      -0.814   0.752   2.680  0.00  0.00    -0.003 A 
ATOM      4  C5  UNL d   1       0.438   0.330   2.245  0.00  0.00     0.000 A 
ATOM      5  C6  UNL d   1       0.582  -0.220   0.972  0.00  0.00     0.000 A 
ATOM      6  C7  UNL d   1      -0.524  -0.357   0.115  0.00  0.00    -0.073 A 
ATOM      7  C8  UNL d   1      -0.312  -0.963  -1.246  0.00  0.00     0.078 C 
ENDROOT
BRANCH   1   8
ATOM      8  C1  UNL d   1      -3.043  -0.116  -0.277  0.00  0.00     0.053 C 
ATOM      9  C   UNL d   1      -3.518  -1.559  -0.355  0.00  0.00     0.018 C 
ENDBRANCH   1   8
TORSDOF 1
ENDMDL
