MODEL 1
REMARK minimizedAffinity 6.81185865
REMARK minimizedRMSD -1
REMARK  1 active torsions:
REMARK  status: ('A' for Active; 'I' for Inactive)
REMARK    1  A    between atoms: C1_2  and  C2_3 
ROOT
ATOM      1  C2  UNL d   1       0.671  -0.264   0.505  0.00  0.00    -0.076 A 
ATOM      2  C3  UNL d   1       0.359  -1.292  -0.401  0.00  0.00     0.004 A 
ATOM      3  C4  UNL d   1      -0.955  -1.515  -0.809  0.00  0.00    -0.003 A 
ATOM      4  C5  UNL d   1      -1.979  -0.712  -0.318  0.00  0.00     0.000 A 
ATOM      5  C6  UNL d   1      -1.685   0.325   0.568  0.00  0.00     0.000 A 
ATOM      6  C7  UNL d   1      -0.363   0.572   0.977  0.00  0.00    -0.073 A 
ATOM      7  C8  UNL d   1      -0.104   1.700   1.938  0.00  0.00     0.078 C 
ENDROOT
BRANCH   1   8
ATOM      8  C1  UNL d   1       2.111  -0.088   0.932  0.00  0.00     0.053 C 
ATOM      9  C   UNL d   1       2.940   0.654  -0.106  0.00  0.00     0.018 C 
ENDBRANCH   1   8
TORSDOF 1
ENDMDL
