MODEL 1
REMARK minimizedAffinity 10.9066019
REMARK minimizedRMSD -1
REMARK  1 active torsions:
REMARK  status: ('A' for Active; 'I' for Inactive)
REMARK    1  A    between atoms: N_2  and  C1_3 
ROOT
ATOM      1  C1  UNL d   1       0.848  -2.928  -1.961  0.00  0.00     0.143 A 
ATOM      2  C2  UNL d   1       1.561  -3.857  -2.726  0.00  0.00    -0.057 A 
ATOM      3  C3  UNL d   1       0.901  -4.816  -3.504  0.00  0.00     0.033 A 
ATOM      4  C4  UNL d   1      -0.488  -4.882  -3.507  0.00  0.00    -0.042 A 
ATOM      5  C5  UNL d   1      -1.217  -3.985  -2.734  0.00  0.00     0.033 A 
ATOM      6  C6  UNL d   1      -0.553  -3.025  -1.965  0.00  0.00    -0.057 A 
ENDROOT
BRANCH   1   7
ATOM      7  N   UNL d   1       1.447  -2.014  -1.090  0.00  0.00    -0.732 N 
ATOM      8  C   UNL d   1       1.773  -0.677  -1.536  0.00  0.00     0.284 C 
ATOM      9  H3  UNL d   1       1.053  -2.055  -0.153  0.00  0.00     0.395 HD
ENDBRANCH   1   7
TORSDOF 1
ENDMDL
