MODEL 1
REMARK minimizedAffinity 7.52795172
REMARK minimizedRMSD -1
REMARK  1 active torsions:
REMARK  status: ('A' for Active; 'I' for Inactive)
REMARK    1  A    between atoms: N_2  and  C1_3 
ROOT
ATOM      1  C1  UNL d   1       5.164  -2.836  -5.881  0.00  0.00     0.143 A 
ATOM      2  C2  UNL d   1       5.643  -1.526  -5.988  0.00  0.00    -0.057 A 
ATOM      3  C3  UNL d   1       4.770  -0.432  -5.995  0.00  0.00     0.033 A 
ATOM      4  C4  UNL d   1       3.395  -0.631  -5.924  0.00  0.00    -0.042 A 
ATOM      5  C5  UNL d   1       2.895  -1.926  -5.842  0.00  0.00     0.033 A 
ATOM      6  C6  UNL d   1       3.772  -3.014  -5.829  0.00  0.00    -0.057 A 
ENDROOT
BRANCH   1   7
ATOM      7  N   UNL d   1       5.974  -3.971  -5.968  0.00  0.00    -0.732 N 
ATOM      8  C   UNL d   1       5.968  -4.964  -4.915  0.00  0.00     0.284 C 
ATOM      9  H3  UNL d   1       5.997  -4.361  -6.907  0.00  0.00     0.395 HD
ENDBRANCH   1   7
TORSDOF 1
ENDMDL
