MODEL 1
REMARK minimizedAffinity -2.22946954
REMARK minimizedRMSD -1
REMARK  1 active torsions:
REMARK  status: ('A' for Active; 'I' for Inactive)
REMARK    1  A    between atoms: N_2  and  C1_3 
ROOT
ATOM      1  C1  UNL d   1      -1.680  -4.289  -5.293  0.00  0.00     0.143 A 
ATOM      2  C2  UNL d   1      -2.612  -5.273  -5.638  0.00  0.00    -0.057 A 
ATOM      3  C3  UNL d   1      -3.922  -4.937  -6.000  0.00  0.00     0.033 A 
ATOM      4  C4  UNL d   1      -4.332  -3.608  -5.995  0.00  0.00    -0.042 A 
ATOM      5  C5  UNL d   1      -3.429  -2.615  -5.631  0.00  0.00     0.033 A 
ATOM      6  C6  UNL d   1      -2.121  -2.956  -5.277  0.00  0.00    -0.057 A 
ENDROOT
BRANCH   1   7
ATOM      7  N   UNL d   1      -0.391  -4.567  -4.829  0.00  0.00    -0.732 N 
ATOM      8  C   UNL d   1      -0.109  -4.596  -3.410  0.00  0.00     0.284 C 
ATOM      9  H3  UNL d   1       0.060  -5.310  -5.357  0.00  0.00     0.395 HD
ENDBRANCH   1   7
TORSDOF 1
ENDMDL
