MODEL 1
REMARK minimizedAffinity 6.59613085
REMARK minimizedRMSD -1
REMARK  1 active torsions:
REMARK  status: ('A' for Active; 'I' for Inactive)
REMARK    1  A    between atoms: N_2  and  C1_3 
ROOT
ATOM      1  C1  UNL d   1      -3.387  -3.595  -5.098  0.00  0.00     0.143 A 
ATOM      2  C2  UNL d   1      -2.540  -3.754  -3.997  0.00  0.00    -0.057 A 
ATOM      3  C3  UNL d   1      -1.782  -4.919  -3.826  0.00  0.00     0.033 A 
ATOM      4  C4  UNL d   1      -1.882  -5.961  -4.742  0.00  0.00    -0.042 A 
ATOM      5  C5  UNL d   1      -2.737  -5.835  -5.831  0.00  0.00     0.033 A 
ATOM      6  C6  UNL d   1      -3.485  -4.666  -6.000  0.00  0.00    -0.057 A 
ENDROOT
BRANCH   1   7
ATOM      7  N   UNL d   1      -4.240  -2.502  -5.272  0.00  0.00    -0.732 N 
ATOM      8  C   UNL d   1      -5.483  -2.644  -6.000  0.00  0.00     0.284 C 
ATOM      9  H3  UNL d   1      -4.312  -1.928  -4.435  0.00  0.00     0.395 HD
ENDBRANCH   1   7
TORSDOF 1
ENDMDL
