MODEL 1
REMARK minimizedAffinity 0.126587108
REMARK minimizedRMSD -1
REMARK  1 active torsions:
REMARK  status: ('A' for Active; 'I' for Inactive)
REMARK    1  A    between atoms: N_2  and  C1_3 
ROOT
ATOM      1  C1  UNL d   1      -3.377  -3.477  -5.334  0.00  0.00     0.143 A 
ATOM      2  C2  UNL d   1      -3.083  -4.724  -5.896  0.00  0.00    -0.057 A 
ATOM      3  C3  UNL d   1      -2.289  -5.657  -5.219  0.00  0.00     0.033 A 
ATOM      4  C4  UNL d   1      -1.748  -5.347  -3.975  0.00  0.00    -0.042 A 
ATOM      5  C5  UNL d   1      -2.007  -4.104  -3.408  0.00  0.00     0.033 A 
ATOM      6  C6  UNL d   1      -2.806  -3.179  -4.086  0.00  0.00    -0.057 A 
ENDROOT
BRANCH   1   7
ATOM      7  N   UNL d   1      -4.079  -2.470  -6.000  0.00  0.00    -0.732 N 
ATOM      8  C   UNL d   1      -5.526  -2.449  -5.990  0.00  0.00     0.284 C 
ATOM      9  H3  UNL d   1      -3.649  -1.555  -5.883  0.00  0.00     0.395 HD
ENDBRANCH   1   7
TORSDOF 1
ENDMDL
