MODEL 1
REMARK minimizedAffinity -2.88978529
REMARK minimizedRMSD -1
REMARK  1 active torsions:
REMARK  status: ('A' for Active; 'I' for Inactive)
REMARK    1  A    between atoms: N_2  and  C1_3 
ROOT
ATOM      1  C1  UNL d   1      -2.428  -3.648  -4.887  0.00  0.00     0.143 A 
ATOM      2  C2  UNL d   1      -1.628  -3.673  -3.739  0.00  0.00    -0.057 A 
ATOM      3  C3  UNL d   1      -0.934  -4.829  -3.363  0.00  0.00     0.033 A 
ATOM      4  C4  UNL d   1      -1.052  -5.994  -4.114  0.00  0.00    -0.042 A 
ATOM      5  C5  UNL d   1      -1.862  -6.000  -5.244  0.00  0.00     0.033 A 
ATOM      6  C6  UNL d   1      -2.547  -4.840  -5.619  0.00  0.00    -0.057 A 
ENDROOT
BRANCH   1   7
ATOM      7  N   UNL d   1      -3.220  -2.559  -5.259  0.00  0.00    -0.732 N 
ATOM      8  C   UNL d   1      -4.448  -2.759  -5.999  0.00  0.00     0.284 C 
ATOM      9  H3  UNL d   1      -3.286  -1.858  -4.525  0.00  0.00     0.395 HD
ENDBRANCH   1   7
TORSDOF 1
ENDMDL
