MODEL 1
REMARK minimizedAffinity 3.73284769
REMARK minimizedRMSD -1
REMARK  1 active torsions:
REMARK  status: ('A' for Active; 'I' for Inactive)
REMARK    1  A    between atoms: N_2  and  C1_3 
ROOT
ATOM      1  C1  UNL d   1      -3.247  -3.723  -5.042  0.00  0.00     0.143 A 
ATOM      2  C2  UNL d   1      -3.163  -4.741  -5.998  0.00  0.00    -0.057 A 
ATOM      3  C3  UNL d   1      -2.308  -5.836  -5.818  0.00  0.00     0.033 A 
ATOM      4  C4  UNL d   1      -1.498  -5.916  -4.690  0.00  0.00    -0.042 A 
ATOM      5  C5  UNL d   1      -1.547  -4.903  -3.740  0.00  0.00     0.033 A 
ATOM      6  C6  UNL d   1      -2.407  -3.816  -3.921  0.00  0.00    -0.057 A 
ENDROOT
BRANCH   1   7
ATOM      7  N   UNL d   1      -4.004  -2.560  -5.210  0.00  0.00    -0.732 N 
ATOM      8  C   UNL d   1      -5.216  -2.577  -6.000  0.00  0.00     0.284 C 
ATOM      9  H3  UNL d   1      -4.073  -2.016  -4.353  0.00  0.00     0.395 HD
ENDBRANCH   1   7
TORSDOF 1
ENDMDL
