MODEL 1
REMARK minimizedAffinity 0.610667408
REMARK minimizedRMSD -1
REMARK  1 active torsions:
REMARK  status: ('A' for Active; 'I' for Inactive)
REMARK    1  A    between atoms: N_2  and  C1_3 
ROOT
ATOM      1  C1  UNL d   1      -3.266  -5.425  -5.347  0.00  0.00     0.143 A 
ATOM      2  C2  UNL d   1      -2.250  -4.718  -5.999  0.00  0.00    -0.057 A 
ATOM      3  C3  UNL d   1      -1.221  -4.098  -5.280  0.00  0.00     0.033 A 
ATOM      4  C4  UNL d   1      -1.206  -4.150  -3.891  0.00  0.00    -0.042 A 
ATOM      5  C5  UNL d   1      -2.219  -4.826  -3.220  0.00  0.00     0.033 A 
ATOM      6  C6  UNL d   1      -3.241  -5.449  -3.944  0.00  0.00    -0.057 A 
ENDROOT
BRANCH   1   7
ATOM      7  N   UNL d   1      -4.370  -5.979  -6.000  0.00  0.00    -0.732 N 
ATOM      8  C   UNL d   1      -5.646  -5.296  -6.000  0.00  0.00     0.284 C 
ATOM      9  H3  UNL d   1      -4.123  -6.399  -6.893  0.00  0.00     0.395 HD
ENDBRANCH   1   7
TORSDOF 1
ENDMDL
