MODEL 1
REMARK minimizedAffinity 1.80372047
REMARK minimizedRMSD -1
REMARK  1 active torsions:
REMARK  status: ('A' for Active; 'I' for Inactive)
REMARK    1  A    between atoms: N_2  and  C1_3 
ROOT
ATOM      1  C1  UNL d   1      -3.474  -3.421  -5.375  0.00  0.00     0.143 A 
ATOM      2  C2  UNL d   1      -2.966  -3.181  -4.094  0.00  0.00    -0.057 A 
ATOM      3  C3  UNL d   1      -2.091  -4.084  -3.478  0.00  0.00     0.033 A 
ATOM      4  C4  UNL d   1      -1.730  -5.261  -4.124  0.00  0.00    -0.042 A 
ATOM      5  C5  UNL d   1      -2.241  -5.533  -5.388  0.00  0.00     0.033 A 
ATOM      6  C6  UNL d   1      -3.110  -4.624  -6.000  0.00  0.00    -0.057 A 
ENDROOT
BRANCH   1   7
ATOM      7  N   UNL d   1      -4.425  -2.610  -6.000  0.00  0.00    -0.732 N 
ATOM      8  C   UNL d   1      -5.824  -2.979  -5.997  0.00  0.00     0.284 C 
ATOM      9  H3  UNL d   1      -4.255  -1.620  -5.841  0.00  0.00     0.395 HD
ENDBRANCH   1   7
TORSDOF 1
ENDMDL
