MODEL 1
REMARK minimizedAffinity 1.2007513
REMARK minimizedRMSD -1
REMARK  1 active torsions:
REMARK  status: ('A' for Active; 'I' for Inactive)
REMARK    1  A    between atoms: N_2  and  C1_3 
ROOT
ATOM      1  C1  UNL d   1      -1.930  -4.846  -3.700  0.00  0.00     0.143 A 
ATOM      2  C2  UNL d   1      -2.756  -3.718  -3.678  0.00  0.00    -0.057 A 
ATOM      3  C3  UNL d   1      -3.548  -3.376  -4.781  0.00  0.00     0.033 A 
ATOM      4  C4  UNL d   1      -3.506  -4.145  -5.940  0.00  0.00    -0.042 A 
ATOM      5  C5  UNL d   1      -2.673  -5.257  -5.993  0.00  0.00     0.033 A 
ATOM      6  C6  UNL d   1      -1.889  -5.596  -4.886  0.00  0.00    -0.057 A 
ENDROOT
BRANCH   1   7
ATOM      7  N   UNL d   1      -1.045  -5.182  -2.673  0.00  0.00    -0.732 N 
ATOM      8  C   UNL d   1       0.385  -5.154  -2.893  0.00  0.00     0.284 C 
ATOM      9  H3  UNL d   1      -1.334  -4.807  -1.772  0.00  0.00     0.395 HD
ENDBRANCH   1   7
TORSDOF 1
ENDMDL
