MODEL 1
REMARK minimizedAffinity 3.41871142
REMARK minimizedRMSD -1
REMARK  1 active torsions:
REMARK  status: ('A' for Active; 'I' for Inactive)
REMARK    1  A    between atoms: N_2  and  C1_3 
ROOT
ATOM      1  C1  UNL d   1      -3.336  -3.686  -5.347  0.00  0.00     0.143 A 
ATOM      2  C2  UNL d   1      -3.036  -4.886  -6.000  0.00  0.00    -0.057 A 
ATOM      3  C3  UNL d   1      -2.257  -5.873  -5.384  0.00  0.00     0.033 A 
ATOM      4  C4  UNL d   1      -1.737  -5.663  -4.111  0.00  0.00    -0.042 A 
ATOM      5  C5  UNL d   1      -2.001  -4.467  -3.453  0.00  0.00     0.033 A 
ATOM      6  C6  UNL d   1      -2.786  -3.488  -4.071  0.00  0.00    -0.057 A 
ENDROOT
BRANCH   1   7
ATOM      7  N   UNL d   1      -4.022  -2.626  -5.945  0.00  0.00    -0.732 N 
ATOM      8  C   UNL d   1      -5.469  -2.623  -6.000  0.00  0.00     0.284 C 
ATOM      9  H3  UNL d   1      -3.613  -1.722  -5.720  0.00  0.00     0.395 HD
ENDBRANCH   1   7
TORSDOF 1
ENDMDL
