MODEL 1
REMARK minimizedAffinity 13.9488802
REMARK minimizedRMSD -1
REMARK  2 active torsions:
REMARK  status: ('A' for Active; 'I' for Inactive)
REMARK    1  A    between atoms: C2'_3  and  C1'_4 
REMARK    2  A    between atoms: C1'_4  and  C1_5 
ROOT
ATOM      1  C1  I4B d   1      -0.376   3.440  -3.195  0.00  0.00    -0.075 A 
ATOM      2  C2  I4B d   1      -1.639   2.941  -2.999  0.00  0.00     0.003 A 
ATOM      3  C3  I4B d   1      -2.028   2.465  -1.723  0.00  0.00     0.002 A 
ATOM      4  C4  I4B d   1      -1.112   2.460  -0.692  0.00  0.00    -0.004 A 
ATOM      5  C5  I4B d   1       0.162   2.988  -0.886  0.00  0.00     0.002 A 
ATOM      6  C6  I4B d   1       0.529   3.492  -2.142  0.00  0.00     0.003 A 
ENDROOT
BRANCH   1   7
ATOM      7  C1' I4B d   1       0.012   3.904  -4.563  0.00  0.00     0.060 C 
BRANCH   7   8
ATOM      8  C2' I4B d   1       0.320   5.386  -4.484  0.00  0.00    -0.013 C 
ATOM      9  C4' I4B d   1       1.763   5.625  -4.125  0.00  0.00     0.013 C 
ATOM     10  C3' I4B d   1      -0.018   6.000  -5.809  0.00  0.00     0.013 C 
ENDBRANCH   7   8
ENDBRANCH   1   7
TORSDOF 2
ENDMDL
