MODEL 1
REMARK minimizedAffinity 17.0265579
REMARK minimizedRMSD -1
REMARK  2 active torsions:
REMARK  status: ('A' for Active; 'I' for Inactive)
REMARK    1  A    between atoms: C2'_3  and  C1'_4 
REMARK    2  A    between atoms: C1'_4  and  C1_5 
ROOT
ATOM      1  C1  I4B d   1      -0.134   3.843  -3.064  0.00  0.00    -0.075 A 
ATOM      2  C2  I4B d   1       0.997   3.667  -2.307  0.00  0.00     0.003 A 
ATOM      3  C3  I4B d   1       0.891   3.345  -0.932  0.00  0.00     0.002 A 
ATOM      4  C4  I4B d   1      -0.356   3.259  -0.348  0.00  0.00    -0.004 A 
ATOM      5  C5  I4B d   1      -1.502   3.416  -1.122  0.00  0.00     0.002 A 
ATOM      6  C6  I4B d   1      -1.391   3.697  -2.492  0.00  0.00     0.003 A 
ENDROOT
BRANCH   1   7
ATOM      7  C1' I4B d   1       0.014   4.215  -4.506  0.00  0.00     0.060 C 
BRANCH   7   8
ATOM      8  C2' I4B d   1       0.414   5.674  -4.572  0.00  0.00    -0.013 C 
ATOM      9  C4' I4B d   1       1.582   5.962  -3.667  0.00  0.00     0.013 C 
ATOM     10  C3' I4B d   1       0.742   6.000  -5.999  0.00  0.00     0.013 C 
ENDBRANCH   7   8
ENDBRANCH   1   7
TORSDOF 2
ENDMDL
