MODEL 1
REMARK minimizedAffinity 18.9277229
REMARK minimizedRMSD -1
REMARK  2 active torsions:
REMARK  status: ('A' for Active; 'I' for Inactive)
REMARK    1  A    between atoms: C2'_3  and  C1'_4 
REMARK    2  A    between atoms: C1'_4  and  C1_5 
ROOT
ATOM      1  C1  I4B d   1      -0.809   2.917  -2.119  0.00  0.00    -0.075 A 
ATOM      2  C2  I4B d   1      -1.506   2.278  -1.123  0.00  0.00     0.003 A 
ATOM      3  C3  I4B d   1      -0.911   2.076   0.146  0.00  0.00     0.002 A 
ATOM      4  C4  I4B d   1       0.391   2.481   0.358  0.00  0.00    -0.004 A 
ATOM      5  C5  I4B d   1       1.087   3.149  -0.645  0.00  0.00     0.002 A 
ATOM      6  C6  I4B d   1       0.480   3.379  -1.888  0.00  0.00     0.003 A 
ENDROOT
BRANCH   1   7
ATOM      7  C1' I4B d   1      -1.456   3.084  -3.457  0.00  0.00     0.060 C 
BRANCH   7   8
ATOM      8  C2' I4B d   1      -2.957   3.051  -3.258  0.00  0.00    -0.013 C 
ATOM      9  C4' I4B d   1      -3.574   4.397  -3.537  0.00  0.00     0.013 C 
ATOM     10  C3' I4B d   1      -3.522   1.999  -4.165  0.00  0.00     0.013 C 
ENDBRANCH   7   8
ENDBRANCH   1   7
TORSDOF 2
ENDMDL
