MODEL 1
REMARK minimizedAffinity 21.8099422
REMARK minimizedRMSD -1
REMARK  2 active torsions:
REMARK  status: ('A' for Active; 'I' for Inactive)
REMARK    1  A    between atoms: C2'_3  and  C1'_4 
REMARK    2  A    between atoms: C1'_4  and  C1_5 
ROOT
ATOM      1  C1  I4B d   1      -3.435   4.697  -0.587  0.00  0.00    -0.075 A 
ATOM      2  C2  I4B d   1      -3.611   5.078   0.720  0.00  0.00     0.003 A 
ATOM      3  C3  I4B d   1      -4.809   5.717   1.122  0.00  0.00     0.002 A 
ATOM      4  C4  I4B d   1      -5.777   6.000   0.180  0.00  0.00    -0.004 A 
ATOM      5  C5  I4B d   1      -5.607   5.593  -1.141  0.00  0.00     0.002 A 
ATOM      6  C6  I4B d   1      -4.434   4.926  -1.524  0.00  0.00     0.003 A 
ENDROOT
BRANCH   1   7
ATOM      7  C1' I4B d   1      -2.144   4.054  -0.983  0.00  0.00     0.060 C 
BRANCH   7   8
ATOM      8  C2' I4B d   1      -1.660   3.221   0.186  0.00  0.00    -0.013 C 
ATOM      9  C4' I4B d   1      -2.407   1.916   0.273  0.00  0.00     0.013 C 
ATOM     10  C3' I4B d   1      -0.188   2.992   0.013  0.00  0.00     0.013 C 
ENDBRANCH   7   8
ENDBRANCH   1   7
TORSDOF 2
ENDMDL
