MODEL 1
REMARK minimizedAffinity 25.1494923
REMARK minimizedRMSD -1
REMARK  2 active torsions:
REMARK  status: ('A' for Active; 'I' for Inactive)
REMARK    1  A    between atoms: C2'_3  and  C1'_4 
REMARK    2  A    between atoms: C1'_4  and  C1_5 
ROOT
ATOM      1  C1  I4B d   1       1.877  -4.684  -3.252  0.00  0.00    -0.075 A 
ATOM      2  C2  I4B d   1       2.206  -3.654  -4.096  0.00  0.00     0.003 A 
ATOM      3  C3  I4B d   1       1.996  -3.780  -5.491  0.00  0.00     0.002 A 
ATOM      4  C4  I4B d   1       1.505  -4.964  -6.000  0.00  0.00    -0.004 A 
ATOM      5  C5  I4B d   1       1.150  -6.000  -5.140  0.00  0.00     0.002 A 
ATOM      6  C6  I4B d   1       1.326  -5.855  -3.756  0.00  0.00     0.003 A 
ENDROOT
BRANCH   1   7
ATOM      7  C1' I4B d   1       2.143  -4.530  -1.788  0.00  0.00     0.060 C 
BRANCH   7   8
ATOM      8  C2' I4B d   1       1.751  -3.122  -1.388  0.00  0.00    -0.013 C 
ATOM      9  C4' I4B d   1       0.256  -2.941  -1.426  0.00  0.00     0.013 C 
ATOM     10  C3' I4B d   1       2.293  -2.863  -0.015  0.00  0.00     0.013 C 
ENDBRANCH   7   8
ENDBRANCH   1   7
TORSDOF 2
ENDMDL
