MODEL 1
REMARK minimizedAffinity 25.420784
REMARK minimizedRMSD -1
REMARK  2 active torsions:
REMARK  status: ('A' for Active; 'I' for Inactive)
REMARK    1  A    between atoms: C2'_3  and  C1'_4 
REMARK    2  A    between atoms: C1'_4  and  C1_5 
ROOT
ATOM      1  C1  I4B d   1       1.471  -3.639  -4.231  0.00  0.00    -0.075 A 
ATOM      2  C2  I4B d   1       0.595  -3.007  -5.078  0.00  0.00     0.003 A 
ATOM      3  C3  I4B d   1       1.066  -2.038  -5.996  0.00  0.00     0.002 A 
ATOM      4  C4  I4B d   1       2.403  -1.697  -5.998  0.00  0.00    -0.004 A 
ATOM      5  C5  I4B d   1       3.293  -2.355  -5.155  0.00  0.00     0.002 A 
ATOM      6  C6  I4B d   1       2.827  -3.341  -4.274  0.00  0.00     0.003 A 
ENDROOT
BRANCH   1   7
ATOM      7  C1' I4B d   1       0.935  -4.634  -3.251  0.00  0.00     0.060 C 
BRANCH   7   8
ATOM      8  C2' I4B d   1       1.786  -4.563  -2.000  0.00  0.00    -0.013 C 
ATOM      9  C4' I4B d   1       1.183  -3.631  -0.982  0.00  0.00     0.013 C 
ATOM     10  C3' I4B d   1       1.920  -5.951  -1.450  0.00  0.00     0.013 C 
ENDBRANCH   7   8
ENDBRANCH   1   7
TORSDOF 2
ENDMDL
