MODEL 1
REMARK minimizedAffinity 18.8505516
REMARK minimizedRMSD -1
REMARK  2 active torsions:
REMARK  status: ('A' for Active; 'I' for Inactive)
REMARK    1  A    between atoms: C2'_3  and  C1'_4 
REMARK    2  A    between atoms: C1'_4  and  C1_5 
ROOT
ATOM      1  C1  I4B d   1      -0.514   2.363  -0.207  0.00  0.00    -0.075 A 
ATOM      2  C2  I4B d   1       0.691   2.840  -0.660  0.00  0.00     0.003 A 
ATOM      3  C3  I4B d   1       0.793   3.401  -1.955  0.00  0.00     0.002 A 
ATOM      4  C4  I4B d   1      -0.315   3.419  -2.778  0.00  0.00    -0.004 A 
ATOM      5  C5  I4B d   1      -1.541   2.956  -2.308  0.00  0.00     0.002 A 
ATOM      6  C6  I4B d   1      -1.644   2.436  -1.010  0.00  0.00     0.003 A 
ENDROOT
BRANCH   1   7
ATOM      7  C1' I4B d   1      -0.579   1.746   1.155  0.00  0.00     0.060 C 
BRANCH   7   8
ATOM      8  C2' I4B d   1       0.838   1.447   1.600  0.00  0.00    -0.013 C 
ATOM      9  C4' I4B d   1       1.312   2.448   2.620  0.00  0.00     0.013 C 
ATOM     10  C3' I4B d   1       0.865   0.054   2.154  0.00  0.00     0.013 C 
ENDBRANCH   7   8
ENDBRANCH   1   7
TORSDOF 2
ENDMDL
