MODEL 1
REMARK minimizedAffinity 22.2071819
REMARK minimizedRMSD -1
REMARK  2 active torsions:
REMARK  status: ('A' for Active; 'I' for Inactive)
REMARK    1  A    between atoms: C2'_3  and  C1'_4 
REMARK    2  A    between atoms: C1'_4  and  C1_5 
ROOT
ATOM      1  C1  I4B d   1      -4.967   5.857  -0.507  0.00  0.00    -0.075 A 
ATOM      2  C2  I4B d   1      -5.918   5.942   0.479  0.00  0.00     0.003 A 
ATOM      3  C3  I4B d   1      -5.531   5.999   1.840  0.00  0.00     0.002 A 
ATOM      4  C4  I4B d   1      -4.194   5.918   2.170  0.00  0.00    -0.004 A 
ATOM      5  C5  I4B d   1      -3.230   5.854   1.168  0.00  0.00     0.002 A 
ATOM      6  C6  I4B d   1      -3.618   5.836  -0.180  0.00  0.00     0.003 A 
ENDROOT
BRANCH   1   7
ATOM      7  C1' I4B d   1      -5.413   5.765  -1.932  0.00  0.00     0.060 C 
BRANCH   7   8
ATOM      8  C2' I4B d   1      -4.546   4.735  -2.627  0.00  0.00    -0.013 C 
ATOM      9  C4' I4B d   1      -5.361   3.870  -3.552  0.00  0.00     0.013 C 
ATOM     10  C3' I4B d   1      -3.469   5.464  -3.375  0.00  0.00     0.013 C 
ENDBRANCH   7   8
ENDBRANCH   1   7
TORSDOF 2
ENDMDL
