MODEL 1
REMARK minimizedAffinity 22.2556915
REMARK minimizedRMSD -1
REMARK  2 active torsions:
REMARK  status: ('A' for Active; 'I' for Inactive)
REMARK    1  A    between atoms: C2'_3  and  C1'_4 
REMARK    2  A    between atoms: C1'_4  and  C1_5 
ROOT
ATOM      1  C1  I4B d   1      -5.241   5.792   1.432  0.00  0.00    -0.075 A 
ATOM      2  C2  I4B d   1      -5.939   5.698   0.255  0.00  0.00     0.003 A 
ATOM      3  C3  I4B d   1      -5.250   5.537  -0.972  0.00  0.00     0.002 A 
ATOM      4  C4  I4B d   1      -3.870   5.527  -0.980  0.00  0.00    -0.004 A 
ATOM      5  C5  I4B d   1      -3.164   5.600   0.217  0.00  0.00     0.002 A 
ATOM      6  C6  I4B d   1      -3.854   5.721   1.433  0.00  0.00     0.003 A 
ENDROOT
BRANCH   1   7
ATOM      7  C1' I4B d   1      -5.999   5.993   2.706  0.00  0.00     0.060 C 
BRANCH   7   8
ATOM      8  C2' I4B d   1      -5.489   4.987   3.717  0.00  0.00    -0.013 C 
ATOM      9  C4' I4B d   1      -4.680   3.906   3.050  0.00  0.00     0.013 C 
ATOM     10  C3' I4B d   1      -4.673   5.725   4.735  0.00  0.00     0.013 C 
ENDBRANCH   7   8
ENDBRANCH   1   7
TORSDOF 2
ENDMDL
