MODEL 1
REMARK minimizedAffinity 15.1080675
REMARK minimizedRMSD -1
REMARK  2 active torsions:
REMARK  status: ('A' for Active; 'I' for Inactive)
REMARK    1  A    between atoms: C2'_3  and  C1'_4 
REMARK    2  A    between atoms: C1'_4  and  C1_5 
ROOT
ATOM      1  C1  I4B d   1       2.099  -3.680  -4.003  0.00  0.00    -0.075 A 
ATOM      2  C2  I4B d   1       2.038  -3.757  -2.634  0.00  0.00     0.003 A 
ATOM      3  C3  I4B d   1       1.584  -4.942  -2.006  0.00  0.00     0.002 A 
ATOM      4  C4  I4B d   1       1.155  -6.000  -2.781  0.00  0.00    -0.004 A 
ATOM      5  C5  I4B d   1       1.238  -5.928  -4.169  0.00  0.00     0.002 A 
ATOM      6  C6  I4B d   1       1.725  -4.766  -4.784  0.00  0.00     0.003 A 
ENDROOT
BRANCH   1   7
ATOM      7  C1' I4B d   1       2.552  -2.401  -4.633  0.00  0.00     0.060 C 
BRANCH   7   8
ATOM      8  C2' I4B d   1       1.735  -2.185  -5.890  0.00  0.00    -0.013 C 
ATOM      9  C4' I4B d   1       0.468  -2.999  -5.864  0.00  0.00     0.013 C 
ATOM     10  C3' I4B d   1       1.434  -0.720  -6.000  0.00  0.00     0.013 C 
ENDBRANCH   7   8
ENDBRANCH   1   7
TORSDOF 2
ENDMDL
