MODEL 1
REMARK minimizedAffinity 11.1391087
REMARK minimizedRMSD -1
REMARK  2 active torsions:
REMARK  status: ('A' for Active; 'I' for Inactive)
REMARK    1  A    between atoms: C2'_3  and  C1'_4 
REMARK    2  A    between atoms: C1'_4  and  C1_5 
ROOT
ATOM      1  C1  I4B d   1       2.087  -3.135  -4.282  0.00  0.00    -0.075 A 
ATOM      2  C2  I4B d   1       1.674  -2.119  -5.107  0.00  0.00     0.003 A 
ATOM      3  C3  I4B d   1       2.588  -1.510  -6.000  0.00  0.00     0.002 A 
ATOM      4  C4  I4B d   1       3.909  -1.911  -5.999  0.00  0.00    -0.004 A 
ATOM      5  C5  I4B d   1       4.320  -2.957  -5.178  0.00  0.00     0.002 A 
ATOM      6  C6  I4B d   1       3.401  -3.582  -4.323  0.00  0.00     0.003 A 
ENDROOT
BRANCH   1   7
ATOM      7  C1' I4B d   1       1.102  -3.733  -3.327  0.00  0.00     0.060 C 
BRANCH   7   8
ATOM      8  C2' I4B d   1       1.861  -4.185  -2.096  0.00  0.00    -0.013 C 
ATOM      9  C4' I4B d   1       1.499  -3.351  -0.896  0.00  0.00     0.013 C 
ATOM     10  C3' I4B d   1       1.547  -5.633  -1.864  0.00  0.00     0.013 C 
ENDBRANCH   7   8
ENDBRANCH   1   7
TORSDOF 2
ENDMDL
