MODEL 1
REMARK minimizedAffinity 10.1338243
REMARK minimizedRMSD -1
REMARK  2 active torsions:
REMARK  status: ('A' for Active; 'I' for Inactive)
REMARK    1  A    between atoms: C2'_3  and  C1'_4 
REMARK    2  A    between atoms: C1'_4  and  C1_5 
ROOT
ATOM      1  C1  I4B d   1      -0.311   2.877  -0.536  0.00  0.00    -0.075 A 
ATOM      2  C2  I4B d   1       0.312   4.028  -0.122  0.00  0.00     0.003 A 
ATOM      3  C3  I4B d   1       0.220   5.207  -0.901  0.00  0.00     0.002 A 
ATOM      4  C4  I4B d   1      -0.457   5.178  -2.103  0.00  0.00    -0.004 A 
ATOM      5  C5  I4B d   1      -1.107   4.016  -2.509  0.00  0.00     0.002 A 
ATOM      6  C6  I4B d   1      -1.044   2.862  -1.716  0.00  0.00     0.003 A 
ENDROOT
BRANCH   1   7
ATOM      7  C1' I4B d   1      -0.166   1.641   0.294  0.00  0.00     0.060 C 
BRANCH   7   8
ATOM      8  C2' I4B d   1      -0.878   1.877   1.610  0.00  0.00    -0.013 C 
ATOM      9  C4' I4B d   1      -2.346   1.560   1.501  0.00  0.00     0.013 C 
ATOM     10  C3' I4B d   1      -0.217   1.026   2.653  0.00  0.00     0.013 C 
ENDBRANCH   7   8
ENDBRANCH   1   7
TORSDOF 2
ENDMDL
