MODEL 1
REMARK minimizedAffinity -5.12117052
REMARK minimizedRMSD -1
REMARK  0 active torsions:
REMARK  status: ('A' for Active; 'I' for Inactive)
ROOT
ATOM      1  O1  BZF d   1       0.376   0.225   2.697  0.00  0.00    -0.204 OA
ATOM      2  C2  BZF d   1       1.462  -0.043   1.886  0.00  0.00     0.174 A 
ATOM      3  C3  BZF d   1       1.111   0.004   0.585  0.00  0.00    -0.012 A 
ATOM      4  C3A BZF d   1      -0.260   0.413   0.580  0.00  0.00    -0.107 A 
ATOM      5  C4  BZF d   1      -1.165   0.654  -0.415  0.00  0.00     0.055 A 
ATOM      6  C5  BZF d   1      -2.444   0.967  -0.082  0.00  0.00    -0.016 A 
ATOM      7  C6  BZF d   1      -2.855   1.042   1.233  0.00  0.00     0.022 A 
ATOM      8  C7  BZF d   1      -1.993   0.816   2.254  0.00  0.00     0.029 A 
ATOM      9  C7A BZF d   1      -0.691   0.532   1.921  0.00  0.00     0.058 A 
ENDROOT
TORSDOF 0
ENDMDL
