MODEL 1
REMARK minimizedAffinity 0.0162760261
REMARK minimizedRMSD -1
REMARK  0 active torsions:
REMARK  status: ('A' for Active; 'I' for Inactive)
ROOT
ATOM      1  O1  BZF d   1       4.313  -0.762  -4.016  0.00  0.00    -0.204 OA
ATOM      2  C2  BZF d   1       4.670   0.568  -3.905  0.00  0.00     0.174 A 
ATOM      3  C3  BZF d   1       3.601   1.325  -3.586  0.00  0.00    -0.012 A 
ATOM      4  C3A BZF d   1       2.525   0.399  -3.401  0.00  0.00    -0.107 A 
ATOM      5  C4  BZF d   1       1.212   0.543  -3.057  0.00  0.00     0.055 A 
ATOM      6  C5  BZF d   1       0.411  -0.555  -3.034  0.00  0.00    -0.016 A 
ATOM      7  C6  BZF d   1       0.889  -1.809  -3.354  0.00  0.00     0.022 A 
ATOM      8  C7  BZF d   1       2.186  -2.002  -3.697  0.00  0.00     0.029 A 
ATOM      9  C7A BZF d   1       3.005  -0.899  -3.689  0.00  0.00     0.058 A 
ENDROOT
TORSDOF 0
ENDMDL
