MODEL 1
REMARK minimizedAffinity -0.836099982
REMARK minimizedRMSD -1
REMARK  0 active torsions:
REMARK  status: ('A' for Active; 'I' for Inactive)
ROOT
ATOM      1  O1  BZF d   1       1.363   0.097  -1.323  0.00  0.00    -0.204 OA
ATOM      2  C2  BZF d   1       0.288   0.385  -2.141  0.00  0.00     0.174 A 
ATOM      3  C3  BZF d   1      -0.846   0.496  -1.420  0.00  0.00    -0.012 A 
ATOM      4  C3A BZF d   1      -0.440   0.354  -0.055  0.00  0.00    -0.107 A 
ATOM      5  C4  BZF d   1      -1.112   0.387   1.133  0.00  0.00     0.055 A 
ATOM      6  C5  BZF d   1      -0.432   0.141   2.284  0.00  0.00    -0.016 A 
ATOM      7  C6  BZF d   1       0.917  -0.147   2.282  0.00  0.00     0.022 A 
ATOM      8  C7  BZF d   1       1.628  -0.185   1.129  0.00  0.00     0.029 A 
ATOM      9  C7A BZF d   1       0.950   0.096  -0.032  0.00  0.00     0.058 A 
ENDROOT
TORSDOF 0
ENDMDL
