MODEL 1
REMARK minimizedAffinity -2.25695252
REMARK minimizedRMSD -1
REMARK  0 active torsions:
REMARK  status: ('A' for Active; 'I' for Inactive)
ROOT
ATOM      1  O1  BZF d   1      -0.783   0.349  -0.770  0.00  0.00    -0.204 OA
ATOM      2  C2  BZF d   1       0.593   0.318  -0.890  0.00  0.00     0.174 A 
ATOM      3  C3  BZF d   1       1.182   0.468   0.314  0.00  0.00    -0.012 A 
ATOM      4  C3A BZF d   1       0.106   0.508   1.256  0.00  0.00    -0.107 A 
ATOM      5  C4  BZF d   1       0.052   0.627   2.616  0.00  0.00     0.055 A 
ATOM      6  C5  BZF d   1      -1.160   0.707   3.225  0.00  0.00    -0.016 A 
ATOM      7  C6  BZF d   1      -2.337   0.677   2.506  0.00  0.00     0.022 A 
ATOM      8  C7  BZF d   1      -2.335   0.556   1.156  0.00  0.00     0.029 A 
ATOM      9  C7A BZF d   1      -1.112   0.441   0.541  0.00  0.00     0.058 A 
ENDROOT
TORSDOF 0
ENDMDL
