MODEL 1
REMARK minimizedAffinity -4.48753262
REMARK minimizedRMSD -1
REMARK  0 active torsions:
REMARK  status: ('A' for Active; 'I' for Inactive)
ROOT
ATOM      1  O1  BZF d   1      -2.403   0.949   1.820  0.00  0.00    -0.204 OA
ATOM      2  C2  BZF d   1      -1.740   0.895   3.030  0.00  0.00     0.174 A 
ATOM      3  C3  BZF d   1      -0.431   0.627   2.847  0.00  0.00    -0.012 A 
ATOM      4  C3A BZF d   1      -0.248   0.598   1.428  0.00  0.00    -0.107 A 
ATOM      5  C4  BZF d   1       0.838   0.396   0.625  0.00  0.00     0.055 A 
ATOM      6  C5  BZF d   1       0.665   0.358  -0.722  0.00  0.00    -0.016 A 
ATOM      7  C6  BZF d   1      -0.578   0.515  -1.300  0.00  0.00     0.022 A 
ATOM      8  C7  BZF d   1      -1.684   0.723  -0.545  0.00  0.00     0.029 A 
ATOM      9  C7A BZF d   1      -1.507   0.794   0.816  0.00  0.00     0.058 A 
ENDROOT
TORSDOF 0
ENDMDL
