MODEL 1
REMARK minimizedAffinity -2.68495131
REMARK minimizedRMSD -1
REMARK  0 active torsions:
REMARK  status: ('A' for Active; 'I' for Inactive)
ROOT
ATOM      1  O1  BZF d   1      -2.763   0.830   0.765  0.00  0.00    -0.204 OA
ATOM      2  C2  BZF d   1      -3.409   1.163   1.940  0.00  0.00     0.174 A 
ATOM      3  C3  BZF d   1      -2.577   1.042   2.994  0.00  0.00    -0.012 A 
ATOM      4  C3A BZF d   1      -1.307   0.697   2.434  0.00  0.00    -0.107 A 
ATOM      5  C4  BZF d   1      -0.075   0.458   2.974  0.00  0.00     0.055 A 
ATOM      6  C5  BZF d   1       0.940   0.072   2.158  0.00  0.00    -0.016 A 
ATOM      7  C6  BZF d   1       0.760  -0.090   0.800  0.00  0.00     0.022 A 
ATOM      8  C7  BZF d   1      -0.442   0.140   0.218  0.00  0.00     0.029 A 
ATOM      9  C7A BZF d   1      -1.462   0.562   1.035  0.00  0.00     0.058 A 
ENDROOT
TORSDOF 0
ENDMDL
