MODEL 1
REMARK minimizedAffinity -0.685389102
REMARK minimizedRMSD -1
REMARK  0 active torsions:
REMARK  status: ('A' for Active; 'I' for Inactive)
ROOT
ATOM      1  O1  BZF d   1      -0.234   0.025  -2.914  0.00  0.00    -0.204 OA
ATOM      2  C2  BZF d   1       0.986  -0.326  -3.458  0.00  0.00     0.174 A 
ATOM      3  C3  BZF d   1       1.942  -0.358  -2.508  0.00  0.00    -0.012 A 
ATOM      4  C3A BZF d   1       1.260  -0.095  -1.278  0.00  0.00    -0.107 A 
ATOM      5  C4  BZF d   1       1.667  -0.011   0.022  0.00  0.00     0.055 A 
ATOM      6  C5  BZF d   1       0.763   0.333   0.977  0.00  0.00    -0.016 A 
ATOM      7  C6  BZF d   1      -0.553   0.605   0.666  0.00  0.00     0.022 A 
ATOM      8  C7  BZF d   1      -1.005   0.530  -0.610  0.00  0.00     0.029 A 
ATOM      9  C7A BZF d   1      -0.102   0.150  -1.572  0.00  0.00     0.058 A 
ENDROOT
TORSDOF 0
ENDMDL
