MODEL 1
REMARK minimizedAffinity 0.596622705
REMARK minimizedRMSD -1
REMARK  0 active torsions:
REMARK  status: ('A' for Active; 'I' for Inactive)
ROOT
ATOM      1  O1  BZF d   1      -0.938  -0.405  -1.542  0.00  0.00    -0.204 OA
ATOM      2  C2  BZF d   1      -0.464   0.651  -0.788  0.00  0.00     0.174 A 
ATOM      3  C3  BZF d   1       0.817   0.929  -1.108  0.00  0.00    -0.012 A 
ATOM      4  C3A BZF d   1       1.135   0.049  -2.190  0.00  0.00    -0.107 A 
ATOM      5  C4  BZF d   1       2.254  -0.140  -2.948  0.00  0.00     0.055 A 
ATOM      6  C5  BZF d   1       2.263  -1.131  -3.878  0.00  0.00    -0.016 A 
ATOM      7  C6  BZF d   1       1.174  -1.955  -4.071  0.00  0.00     0.022 A 
ATOM      8  C7  BZF d   1       0.038  -1.803  -3.346  0.00  0.00     0.029 A 
ATOM      9  C7A BZF d   1       0.015  -0.781  -2.429  0.00  0.00     0.058 A 
ENDROOT
TORSDOF 0
ENDMDL
