MODEL 1
REMARK minimizedAffinity -0.105550967
REMARK minimizedRMSD -1
REMARK  0 active torsions:
REMARK  status: ('A' for Active; 'I' for Inactive)
ROOT
ATOM      1  O1  BZF d   1      -1.606   3.139   3.421  0.00  0.00    -0.204 OA
ATOM      2  C2  BZF d   1      -2.841   2.560   3.203  0.00  0.00     0.174 A 
ATOM      3  C3  BZF d   1      -2.704   1.302   2.737  0.00  0.00    -0.012 A 
ATOM      4  C3A BZF d   1      -1.295   1.049   2.745  0.00  0.00    -0.107 A 
ATOM      5  C4  BZF d   1      -0.534  -0.033   2.407  0.00  0.00     0.055 A 
ATOM      6  C5  BZF d   1       0.820   0.069   2.461  0.00  0.00    -0.016 A 
ATOM      7  C6  BZF d   1       1.445   1.238   2.843  0.00  0.00     0.022 A 
ATOM      8  C7  BZF d   1       0.732   2.336   3.193  0.00  0.00     0.029 A 
ATOM      9  C7A BZF d   1      -0.637   2.226   3.171  0.00  0.00     0.058 A 
ENDROOT
TORSDOF 0
ENDMDL
