MODEL 1
REMARK minimizedAffinity -3.16168356
REMARK minimizedRMSD -1
REMARK  0 active torsions:
REMARK  status: ('A' for Active; 'I' for Inactive)
ROOT
ATOM      1  O1  BZF d   1      -2.504   0.820   0.049  0.00  0.00    -0.204 OA
ATOM      2  C2  BZF d   1      -3.208   0.996   1.225  0.00  0.00     0.174 A 
ATOM      3  C3  BZF d   1      -2.405   0.819   2.294  0.00  0.00    -0.012 A 
ATOM      4  C3A BZF d   1      -1.099   0.603   1.752  0.00  0.00    -0.107 A 
ATOM      5  C4  BZF d   1       0.126   0.382   2.315  0.00  0.00     0.055 A 
ATOM      6  C5  BZF d   1       1.190   0.138   1.505  0.00  0.00    -0.016 A 
ATOM      7  C6  BZF d   1       1.065   0.102   0.132  0.00  0.00     0.022 A 
ATOM      8  C7  BZF d   1      -0.129   0.321  -0.472  0.00  0.00     0.029 A 
ATOM      9  C7A BZF d   1      -1.199   0.600   0.342  0.00  0.00     0.058 A 
ENDROOT
TORSDOF 0
ENDMDL
