MODEL 1
REMARK minimizedAffinity -3.34846592
REMARK minimizedRMSD -1
REMARK  0 active torsions:
REMARK  status: ('A' for Active; 'I' for Inactive)
ROOT
ATOM      1  O1  BZF d   1      -1.426   0.618  -0.452  0.00  0.00    -0.204 OA
ATOM      2  C2  BZF d   1      -0.437   0.546  -1.414  0.00  0.00     0.174 A 
ATOM      3  C3  BZF d   1       0.770   0.352  -0.847  0.00  0.00    -0.012 A 
ATOM      4  C3A BZF d   1       0.510   0.207   0.552  0.00  0.00    -0.107 A 
ATOM      5  C4  BZF d   1       1.307  -0.024   1.637  0.00  0.00     0.055 A 
ATOM      6  C5  BZF d   1       0.748  -0.039   2.876  0.00  0.00    -0.016 A 
ATOM      7  C6  BZF d   1      -0.600   0.179   3.067  0.00  0.00     0.022 A 
ATOM      8  C7  BZF d   1      -1.432   0.407   2.021  0.00  0.00     0.029 A 
ATOM      9  C7A BZF d   1      -0.876   0.389   0.765  0.00  0.00     0.058 A 
ENDROOT
TORSDOF 0
ENDMDL
