MODEL 1
REMARK minimizedAffinity -1.95009184
REMARK minimizedRMSD -1
REMARK  0 active torsions:
REMARK  status: ('A' for Active; 'I' for Inactive)
ROOT
ATOM      1  O1  BZF d   1       0.362  -1.098  -0.161  0.00  0.00    -0.204 OA
ATOM      2  C2  BZF d   1       0.416   0.266   0.053  0.00  0.00     0.174 A 
ATOM      3  C3  BZF d   1       0.925   0.899  -1.024  0.00  0.00    -0.012 A 
ATOM      4  C3A BZF d   1       1.120  -0.124  -2.005  0.00  0.00    -0.107 A 
ATOM      5  C4  BZF d   1       1.584  -0.118  -3.289  0.00  0.00     0.055 A 
ATOM      6  C5  BZF d   1       1.719  -1.298  -3.948  0.00  0.00    -0.016 A 
ATOM      7  C6  BZF d   1       1.403  -2.502  -3.354  0.00  0.00     0.022 A 
ATOM      8  C7  BZF d   1       0.933  -2.559  -2.084  0.00  0.00     0.029 A 
ATOM      9  C7A BZF d   1       0.765  -1.365  -1.426  0.00  0.00     0.058 A 
ENDROOT
TORSDOF 0
ENDMDL
