MODEL 1
REMARK minimizedAffinity -0.777695835
REMARK minimizedRMSD -1
REMARK  0 active torsions:
REMARK  status: ('A' for Active; 'I' for Inactive)
ROOT
ATOM      1  O1  BZF d   1      -2.791   0.691   0.789  0.00  0.00    -0.204 OA
ATOM      2  C2  BZF d   1      -3.449   1.209   1.887  0.00  0.00     0.174 A 
ATOM      3  C3  BZF d   1      -2.622   1.283   2.950  0.00  0.00    -0.012 A 
ATOM      4  C3A BZF d   1      -1.343   0.867   2.461  0.00  0.00    -0.107 A 
ATOM      5  C4  BZF d   1      -0.112   0.744   3.039  0.00  0.00     0.055 A 
ATOM      6  C5  BZF d   1       0.915   0.241   2.305  0.00  0.00    -0.016 A 
ATOM      7  C6  BZF d   1       0.745  -0.153   0.994  0.00  0.00     0.022 A 
ATOM      8  C7  BZF d   1      -0.457  -0.045   0.376  0.00  0.00     0.029 A 
ATOM      9  C7A BZF d   1      -1.488   0.494   1.105  0.00  0.00     0.058 A 
ENDROOT
TORSDOF 0
ENDMDL
