MODEL 1
REMARK minimizedAffinity -3.4645915
REMARK minimizedRMSD -1
REMARK  0 active torsions:
REMARK  status: ('A' for Active; 'I' for Inactive)
ROOT
ATOM      1  O1  BZF d   1      -2.478   0.899   2.717  0.00  0.00    -0.204 OA
ATOM      2  C2  BZF d   1      -3.515   0.840   1.807  0.00  0.00     0.174 A 
ATOM      3  C3  BZF d   1      -3.047   0.629   0.560  0.00  0.00    -0.012 A 
ATOM      4  C3A BZF d   1      -1.634   0.459   0.713  0.00  0.00    -0.107 A 
ATOM      5  C4  BZF d   1      -0.619   0.205  -0.165  0.00  0.00     0.055 A 
ATOM      6  C5  BZF d   1       0.659   0.171   0.296  0.00  0.00    -0.016 A 
ATOM      7  C6  BZF d   1       0.958   0.392   1.625  0.00  0.00     0.022 A 
ATOM      8  C7  BZF d   1      -0.016   0.643   2.533  0.00  0.00     0.029 A 
ATOM      9  C7A BZF d   1      -1.311   0.645   2.077  0.00  0.00     0.058 A 
ENDROOT
TORSDOF 0
ENDMDL
