MODEL 1
REMARK minimizedAffinity -3.12707019
REMARK minimizedRMSD -1
REMARK  0 active torsions:
REMARK  status: ('A' for Active; 'I' for Inactive)
ROOT
ATOM      1  O1  BZF d   1      -1.080   0.589  -1.103  0.00  0.00    -0.204 OA
ATOM      2  C2  BZF d   1       0.089   0.612  -1.839  0.00  0.00     0.174 A 
ATOM      3  C3  BZF d   1       1.164   0.484  -1.035  0.00  0.00    -0.012 A 
ATOM      4  C3A BZF d   1       0.629   0.281   0.277  0.00  0.00    -0.107 A 
ATOM      5  C4  BZF d   1       1.199   0.073   1.501  0.00  0.00     0.055 A 
ATOM      6  C5  BZF d   1       0.398  -0.015   2.595  0.00  0.00    -0.016 A 
ATOM      7  C6  BZF d   1      -0.973   0.104   2.504  0.00  0.00     0.022 A 
ATOM      8  C7  BZF d   1      -1.584   0.306   1.311  0.00  0.00     0.029 A 
ATOM      9  C7A BZF d   1      -0.780   0.362   0.198  0.00  0.00     0.058 A 
ENDROOT
TORSDOF 0
ENDMDL
