MODEL 1
REMARK minimizedAffinity -1.44281459
REMARK minimizedRMSD -1
REMARK  0 active torsions:
REMARK  status: ('A' for Active; 'I' for Inactive)
ROOT
ATOM      1  O1  BZF d   1       2.443  -1.602  -2.378  0.00  0.00    -0.204 OA
ATOM      2  C2  BZF d   1       1.716  -2.060  -3.460  0.00  0.00     0.174 A 
ATOM      3  C3  BZF d   1       0.406  -1.777  -3.311  0.00  0.00    -0.012 A 
ATOM      4  C3A BZF d   1       0.320  -1.019  -2.100  0.00  0.00    -0.107 A 
ATOM      5  C4  BZF d   1      -0.716  -0.437  -1.429  0.00  0.00     0.055 A 
ATOM      6  C5  BZF d   1      -0.474   0.168  -0.236  0.00  0.00    -0.016 A 
ATOM      7  C6  BZF d   1       0.790   0.205   0.315  0.00  0.00     0.022 A 
ATOM      8  C7  BZF d   1       1.851  -0.354  -0.316  0.00  0.00     0.029 A 
ATOM      9  C7A BZF d   1       1.615  -0.937  -1.537  0.00  0.00     0.058 A 
ENDROOT
TORSDOF 0
ENDMDL
