MODEL 1
REMARK minimizedAffinity -3.99038863
REMARK minimizedRMSD -1
REMARK  0 active torsions:
REMARK  status: ('A' for Active; 'I' for Inactive)
ROOT
ATOM      1  O1  BZF d   1      -2.887   0.822   0.434  0.00  0.00    -0.204 OA
ATOM      2  C2  BZF d   1      -3.399   0.917   1.714  0.00  0.00     0.174 A 
ATOM      3  C3  BZF d   1      -2.428   0.733   2.632  0.00  0.00    -0.012 A 
ATOM      4  C3A BZF d   1      -1.218   0.602   1.879  0.00  0.00    -0.107 A 
ATOM      5  C4  BZF d   1       0.089   0.415   2.228  0.00  0.00     0.055 A 
ATOM      6  C5  BZF d   1       1.017   0.254   1.248  0.00  0.00    -0.016 A 
ATOM      7  C6  BZF d   1       0.673   0.269  -0.088  0.00  0.00     0.022 A 
ATOM      8  C7  BZF d   1      -0.610   0.456  -0.482  0.00  0.00     0.029 A 
ATOM      9  C7A BZF d   1      -1.545   0.652   0.505  0.00  0.00     0.058 A 
ENDROOT
TORSDOF 0
ENDMDL
