MODEL 1
REMARK minimizedAffinity -2.68739223
REMARK minimizedRMSD -1
REMARK  0 active torsions:
REMARK  status: ('A' for Active; 'I' for Inactive)
ROOT
ATOM      1  O1  BZF d   1       1.448  -0.204  -0.975  0.00  0.00    -0.204 OA
ATOM      2  C2  BZF d   1       0.323   0.039  -1.739  0.00  0.00     0.174 A 
ATOM      3  C3  BZF d   1      -0.750   0.264  -0.953  0.00  0.00    -0.012 A 
ATOM      4  C3A BZF d   1      -0.245   0.247   0.386  0.00  0.00    -0.107 A 
ATOM      5  C4  BZF d   1      -0.824   0.425   1.610  0.00  0.00     0.055 A 
ATOM      6  C5  BZF d   1      -0.067   0.272   2.728  0.00  0.00    -0.016 A 
ATOM      7  C6  BZF d   1       1.270  -0.063   2.659  0.00  0.00     0.022 A 
ATOM      8  C7  BZF d   1       1.890  -0.245   1.467  0.00  0.00     0.029 A 
ATOM      9  C7A BZF d   1       1.134  -0.059   0.335  0.00  0.00     0.058 A 
ENDROOT
TORSDOF 0
ENDMDL
