MODEL 1
REMARK minimizedAffinity 3.6936729
REMARK minimizedRMSD -1
REMARK  1 active torsions:
REMARK  status: ('A' for Active; 'I' for Inactive)
REMARK    1  A    between atoms: C1_2  and  C2_3 
ROOT
ATOM      1  C2  UNL d   1       1.737   5.578   4.527  0.00  0.00    -0.076 A 
ATOM      2  C3  UNL d   1       0.894   5.436   3.411  0.00  0.00     0.004 A 
ATOM      3  C4  UNL d   1       1.388   5.579   2.116  0.00  0.00    -0.003 A 
ATOM      4  C5  UNL d   1       2.734   5.866   1.916  0.00  0.00     0.000 A 
ATOM      5  C6  UNL d   1       3.588   5.993   3.010  0.00  0.00     0.000 A 
ATOM      6  C7  UNL d   1       3.109   5.836   4.322  0.00  0.00    -0.073 A 
ATOM      7  C8  UNL d   1       4.073   5.990   5.466  0.00  0.00     0.078 C 
ENDROOT
BRANCH   1   8
ATOM      8  C1  UNL d   1       1.138   5.439   5.909  0.00  0.00     0.053 C 
ATOM      9  C   UNL d   1      -0.273   6.000   5.992  0.00  0.00     0.018 C 
ENDBRANCH   1   8
TORSDOF 1
ENDMDL
