MODEL 1
REMARK minimizedAffinity 9.47204018
REMARK minimizedRMSD -1
REMARK  1 active torsions:
REMARK  status: ('A' for Active; 'I' for Inactive)
REMARK    1  A    between atoms: C1_2  and  C2_3 
ROOT
ATOM      1  C2  UNL d   1       0.899  -2.860   1.436  0.00  0.00    -0.076 A 
ATOM      2  C3  UNL d   1       1.013  -4.011   0.636  0.00  0.00     0.004 A 
ATOM      3  C4  UNL d   1       2.258  -4.575   0.364  0.00  0.00    -0.003 A 
ATOM      4  C5  UNL d   1       3.410  -3.997   0.887  0.00  0.00     0.000 A 
ATOM      5  C6  UNL d   1       3.314  -2.866   1.696  0.00  0.00     0.000 A 
ATOM      6  C7  UNL d   1       2.065  -2.294   1.994  0.00  0.00    -0.073 A 
ATOM      7  C8  UNL d   1       2.021  -1.070   2.867  0.00  0.00     0.078 C 
ENDROOT
BRANCH   1   8
ATOM      8  C1  UNL d   1      -0.476  -2.278   1.675  0.00  0.00     0.053 C 
ATOM      9  C   UNL d   1      -1.508  -3.341   2.018  0.00  0.00     0.018 C 
ENDBRANCH   1   8
TORSDOF 1
ENDMDL
