MODEL 1
REMARK minimizedAffinity 9.01250648
REMARK minimizedRMSD -1
REMARK  1 active torsions:
REMARK  status: ('A' for Active; 'I' for Inactive)
REMARK    1  A    between atoms: C1_2  and  C2_3 
ROOT
ATOM      1  C2  UNL d   1       4.110   3.680   4.118  0.00  0.00    -0.076 A 
ATOM      2  C3  UNL d   1       3.312   3.963   5.240  0.00  0.00     0.004 A 
ATOM      3  C4  UNL d   1       3.521   5.113   5.999  0.00  0.00    -0.003 A 
ATOM      4  C5  UNL d   1       4.533   6.000   5.648  0.00  0.00     0.000 A 
ATOM      5  C6  UNL d   1       5.323   5.745   4.528  0.00  0.00     0.000 A 
ATOM      6  C7  UNL d   1       5.114   4.598   3.742  0.00  0.00    -0.073 A 
ATOM      7  C8  UNL d   1       6.000   4.370   2.548  0.00  0.00     0.078 C 
ENDROOT
BRANCH   1   8
ATOM      8  C1  UNL d   1       3.854   2.404   3.349  0.00  0.00     0.053 C 
ATOM      9  C   UNL d   1       2.403   1.956   3.432  0.00  0.00     0.018 C 
ENDBRANCH   1   8
TORSDOF 1
ENDMDL
