MODEL 1
REMARK minimizedAffinity 12.050808
REMARK minimizedRMSD -1
REMARK  1 active torsions:
REMARK  status: ('A' for Active; 'I' for Inactive)
REMARK    1  A    between atoms: C1_2  and  C2_3 
ROOT
ATOM      1  C2  UNL d   1       2.572   3.761   4.064  0.00  0.00    -0.076 A 
ATOM      2  C3  UNL d   1       3.459   3.800   5.154  0.00  0.00     0.004 A 
ATOM      3  C4  UNL d   1       3.510   4.907   5.999  0.00  0.00    -0.003 A 
ATOM      4  C5  UNL d   1       2.673   5.993   5.769  0.00  0.00     0.000 A 
ATOM      5  C6  UNL d   1       1.774   5.965   4.704  0.00  0.00     0.000 A 
ATOM      6  C7  UNL d   1       1.699   4.850   3.851  0.00  0.00    -0.073 A 
ATOM      7  C8  UNL d   1       0.715   4.875   2.714  0.00  0.00     0.078 C 
ENDROOT
BRANCH   1   8
ATOM      8  C1  UNL d   1       2.581   2.545   3.165  0.00  0.00     0.053 C 
ATOM      9  C   UNL d   1       2.959   2.883   1.732  0.00  0.00     0.018 C 
ENDBRANCH   1   8
TORSDOF 1
ENDMDL
