MODEL 1
REMARK minimizedAffinity 4.69636869
REMARK minimizedRMSD -1
REMARK  1 active torsions:
REMARK  status: ('A' for Active; 'I' for Inactive)
REMARK    1  A    between atoms: C1_2  and  C2_3 
ROOT
ATOM      1  C2  UNL d   1       0.933  -1.583   1.263  0.00  0.00    -0.076 A 
ATOM      2  C3  UNL d   1       1.290  -1.420   2.613  0.00  0.00     0.004 A 
ATOM      3  C4  UNL d   1       0.449  -0.752   3.502  0.00  0.00    -0.003 A 
ATOM      4  C5  UNL d   1      -0.763  -0.237   3.055  0.00  0.00     0.000 A 
ATOM      5  C6  UNL d   1      -1.141  -0.406   1.724  0.00  0.00     0.000 A 
ATOM      6  C7  UNL d   1      -0.313  -1.090   0.818  0.00  0.00    -0.073 A 
ATOM      7  C8  UNL d   1      -0.768  -1.237  -0.608  0.00  0.00     0.078 C 
ENDROOT
BRANCH   1   8
ATOM      8  C1  UNL d   1       1.897  -2.293   0.340  0.00  0.00     0.053 C 
ATOM      9  C   UNL d   1       2.303  -3.662   0.861  0.00  0.00     0.018 C 
ENDBRANCH   1   8
TORSDOF 1
ENDMDL
