MODEL 1
REMARK minimizedAffinity 8.67963409
REMARK minimizedRMSD -1
REMARK  1 active torsions:
REMARK  status: ('A' for Active; 'I' for Inactive)
REMARK    1  A    between atoms: C1_2  and  C2_3 
ROOT
ATOM      1  C2  UNL d   1       2.989  -2.179   0.501  0.00  0.00    -0.076 A 
ATOM      2  C3  UNL d   1       2.395  -1.129   1.221  0.00  0.00     0.004 A 
ATOM      3  C4  UNL d   1       1.027  -1.127   1.491  0.00  0.00    -0.003 A 
ATOM      4  C5  UNL d   1       0.232  -2.177   1.045  0.00  0.00     0.000 A 
ATOM      5  C6  UNL d   1       0.807  -3.236   0.345  0.00  0.00     0.000 A 
ATOM      6  C7  UNL d   1       2.187  -3.261   0.078  0.00  0.00    -0.073 A 
ATOM      7  C8  UNL d   1       2.753  -4.425  -0.687  0.00  0.00     0.078 C 
ENDROOT
BRANCH   1   8
ATOM      8  C1  UNL d   1       4.472  -2.113   0.214  0.00  0.00     0.053 C 
ATOM      9  C   UNL d   1       4.946  -0.698  -0.079  0.00  0.00     0.018 C 
ENDBRANCH   1   8
TORSDOF 1
ENDMDL
