MODEL 1
REMARK minimizedAffinity 2.02551103
REMARK minimizedRMSD -1
REMARK  1 active torsions:
REMARK  status: ('A' for Active; 'I' for Inactive)
REMARK    1  A    between atoms: C1_2  and  C2_3 
ROOT
ATOM      1  C2  UNL d   1       3.953  -3.539   2.598  0.00  0.00    -0.076 A 
ATOM      2  C3  UNL d   1       3.025  -2.490   2.712  0.00  0.00     0.004 A 
ATOM      3  C4  UNL d   1       2.289  -2.060   1.609  0.00  0.00    -0.003 A 
ATOM      4  C5  UNL d   1       2.468  -2.674   0.374  0.00  0.00     0.000 A 
ATOM      5  C6  UNL d   1       3.372  -3.728   0.247  0.00  0.00     0.000 A 
ATOM      6  C7  UNL d   1       4.110  -4.185   1.352  0.00  0.00    -0.073 A 
ATOM      7  C8  UNL d   1       5.074  -5.322   1.157  0.00  0.00     0.078 C 
ENDROOT
BRANCH   1   8
ATOM      8  C1  UNL d   1       4.743  -3.944   3.822  0.00  0.00     0.053 C 
ATOM      9  C   UNL d   1       4.669  -2.907   4.932  0.00  0.00     0.018 C 
ENDBRANCH   1   8
TORSDOF 1
ENDMDL
