MODEL 1
REMARK minimizedAffinity -1.32010067
REMARK minimizedRMSD -1
REMARK  0 active torsions:
REMARK  status: ('A' for Active; 'I' for Inactive)
ROOT
ATOM      1  C1  DEN d   1      -0.250   2.500  -1.955  0.00  0.00     0.130 A 
ATOM      2  C2  DEN d   1      -0.344   3.895  -1.533  0.00  0.00    -0.031 A 
ATOM      3  C3  DEN d   1      -0.173   3.941  -0.067  0.00  0.00     0.027 A 
ATOM      4  C4  DEN d   1       0.232   1.999   1.581  0.00  0.00     0.027 A 
ATOM      5  C5  DEN d   1       0.377   0.634   1.694  0.00  0.00    -0.003 A 
ATOM      6  C6  DEN d   1       0.290  -0.202   0.612  0.00  0.00     0.001 A 
ATOM      7  C7  DEN d   1       0.096   0.325  -0.638  0.00  0.00     0.017 A 
ATOM      8  C8  DEN d   1      -0.058   1.700  -0.758  0.00  0.00    -0.094 A 
ATOM      9  C9  DEN d   1       0.046   2.528   0.346  0.00  0.00    -0.072 A 
ENDROOT
TORSDOF 0
ENDMDL
