MODEL 1
REMARK minimizedAffinity -3.61020207
REMARK minimizedRMSD -1
REMARK  0 active torsions:
REMARK  status: ('A' for Active; 'I' for Inactive)
ROOT
ATOM      1  C1  DEN d   1       0.035   1.978  -1.612  0.00  0.00     0.130 A 
ATOM      2  C2  DEN d   1      -0.226   3.380  -1.297  0.00  0.00    -0.031 A 
ATOM      3  C3  DEN d   1      -0.184   3.533   0.171  0.00  0.00     0.027 A 
ATOM      4  C4  DEN d   1       0.261   1.746   1.977  0.00  0.00     0.027 A 
ATOM      5  C5  DEN d   1       0.524   0.411   2.195  0.00  0.00    -0.003 A 
ATOM      6  C6  DEN d   1       0.607  -0.493   1.170  0.00  0.00     0.001 A 
ATOM      7  C7  DEN d   1       0.471  -0.067  -0.125  0.00  0.00     0.017 A 
ATOM      8  C8  DEN d   1       0.199   1.276  -0.352  0.00  0.00    -0.094 A 
ATOM      9  C9  DEN d   1       0.131   2.177   0.697  0.00  0.00    -0.072 A 
ENDROOT
TORSDOF 0
ENDMDL
