MODEL 1
REMARK minimizedAffinity -4.87140417
REMARK minimizedRMSD -1
REMARK  0 active torsions:
REMARK  status: ('A' for Active; 'I' for Inactive)
ROOT
ATOM      1  C1  DEN d   1      -0.988   0.051   2.151  0.00  0.00     0.130 A 
ATOM      2  C2  DEN d   1      -1.035   1.463   2.523  0.00  0.00    -0.031 A 
ATOM      3  C3  DEN d   1      -0.797   2.264   1.305  0.00  0.00     0.027 A 
ATOM      4  C4  DEN d   1      -0.368   1.460  -1.108  0.00  0.00     0.027 A 
ATOM      5  C5  DEN d   1      -0.224   0.352  -1.913  0.00  0.00    -0.003 A 
ATOM      6  C6  DEN d   1      -0.291  -0.924  -1.418  0.00  0.00     0.001 A 
ATOM      7  C7  DEN d   1      -0.552  -1.123  -0.088  0.00  0.00     0.017 A 
ATOM      8  C8  DEN d   1      -0.690  -0.011   0.731  0.00  0.00    -0.094 A 
ATOM      9  C9  DEN d   1      -0.632   1.271   0.210  0.00  0.00    -0.072 A 
ENDROOT
TORSDOF 0
ENDMDL
