MODEL 1
REMARK minimizedAffinity -5.05273008
REMARK minimizedRMSD -1
REMARK  0 active torsions:
REMARK  status: ('A' for Active; 'I' for Inactive)
ROOT
ATOM      1  C1  DEN d   1       0.247   1.657  -1.434  0.00  0.00     0.130 A 
ATOM      2  C2  DEN d   1       0.239   3.080  -1.106  0.00  0.00    -0.031 A 
ATOM      3  C3  DEN d   1       0.222   3.210   0.365  0.00  0.00     0.027 A 
ATOM      4  C4  DEN d   1       0.212   1.355   2.156  0.00  0.00     0.027 A 
ATOM      5  C5  DEN d   1       0.202  -0.007   2.362  0.00  0.00    -0.003 A 
ATOM      6  C6  DEN d   1       0.173  -0.902   1.326  0.00  0.00     0.001 A 
ATOM      7  C7  DEN d   1       0.198  -0.446   0.034  0.00  0.00     0.017 A 
ATOM      8  C8  DEN d   1       0.200   0.926  -0.181  0.00  0.00    -0.094 A 
ATOM      9  C9  DEN d   1       0.242   1.814   0.880  0.00  0.00    -0.072 A 
ENDROOT
TORSDOF 0
ENDMDL
