MODEL 1
REMARK minimizedAffinity -4.57758093
REMARK minimizedRMSD -1
REMARK  1 active torsions:
REMARK  status: ('A' for Active; 'I' for Inactive)
REMARK    1  A    between atoms: N_2  and  C1_3 
ROOT
ATOM      1  C1  UNL d   1       0.206  -0.772   0.390  0.00  0.00     0.143 A 
ATOM      2  C2  UNL d   1      -1.143  -0.830   0.020  0.00  0.00    -0.057 A 
ATOM      3  C3  UNL d   1      -2.160  -0.828   0.982  0.00  0.00     0.033 A 
ATOM      4  C4  UNL d   1      -1.844  -0.797   2.337  0.00  0.00    -0.042 A 
ATOM      5  C5  UNL d   1      -0.510  -0.764   2.728  0.00  0.00     0.033 A 
ATOM      6  C6  UNL d   1       0.501  -0.760   1.762  0.00  0.00    -0.057 A 
ENDROOT
BRANCH   1   7
ATOM      7  N   UNL d   1       1.265  -0.871  -0.516  0.00  0.00    -0.732 N 
ATOM      8  C   UNL d   1       1.876  -2.152  -0.798  0.00  0.00     0.284 C 
ATOM      9  H3  UNL d   1       1.131  -0.285  -1.336  0.00  0.00     0.395 HD
ENDBRANCH   1   7
TORSDOF 1
ENDMDL
