MODEL 1
REMARK minimizedAffinity -4.73866558
REMARK minimizedRMSD -1
REMARK  1 active torsions:
REMARK  status: ('A' for Active; 'I' for Inactive)
REMARK    1  A    between atoms: N_2  and  C1_3 
ROOT
ATOM      1  C1  UNL d   1      -0.534  -0.702   0.403  0.00  0.00     0.143 A 
ATOM      2  C2  UNL d   1      -1.838  -0.352   0.036  0.00  0.00    -0.057 A 
ATOM      3  C3  UNL d   1      -2.666   0.372   0.902  0.00  0.00     0.033 A 
ATOM      4  C4  UNL d   1      -2.213   0.737   2.165  0.00  0.00    -0.042 A 
ATOM      5  C5  UNL d   1      -0.929   0.379   2.561  0.00  0.00     0.033 A 
ATOM      6  C6  UNL d   1      -0.104  -0.339   1.689  0.00  0.00    -0.057 A 
ENDROOT
BRANCH   1   7
ATOM      7  N   UNL d   1       0.304  -1.506  -0.374  0.00  0.00    -0.732 N 
ATOM      8  C   UNL d   1       0.300  -1.396  -1.817  0.00  0.00     0.284 C 
ATOM      9  H3  UNL d   1       1.231  -1.609   0.033  0.00  0.00     0.395 HD
ENDBRANCH   1   7
TORSDOF 1
ENDMDL
