MODEL 1
REMARK minimizedAffinity -4.06338549
REMARK minimizedRMSD -1
REMARK  1 active torsions:
REMARK  status: ('A' for Active; 'I' for Inactive)
REMARK    1  A    between atoms: N_2  and  C1_3 
ROOT
ATOM      1  C1  UNL d   1      -1.874  -1.753   0.072  0.00  0.00     0.143 A 
ATOM      2  C2  UNL d   1      -3.184  -1.269   0.003  0.00  0.00    -0.057 A 
ATOM      3  C3  UNL d   1      -3.570  -0.115   0.696  0.00  0.00     0.033 A 
ATOM      4  C4  UNL d   1      -2.655   0.560   1.497  0.00  0.00    -0.042 A 
ATOM      5  C5  UNL d   1      -1.354   0.083   1.601  0.00  0.00     0.033 A 
ATOM      6  C6  UNL d   1      -0.973  -1.065   0.900  0.00  0.00    -0.057 A 
ENDROOT
BRANCH   1   7
ATOM      7  N   UNL d   1      -1.454  -2.949  -0.516  0.00  0.00    -0.732 N 
ATOM      8  C   UNL d   1      -0.098  -3.097  -0.999  0.00  0.00     0.284 C 
ATOM      9  H3  UNL d   1      -1.814  -3.767  -0.029  0.00  0.00     0.395 HD
ENDBRANCH   1   7
TORSDOF 1
ENDMDL
