MODEL 1
REMARK minimizedAffinity -0.802077889
REMARK minimizedRMSD -1
REMARK  1 active torsions:
REMARK  status: ('A' for Active; 'I' for Inactive)
REMARK    1  A    between atoms: N_2  and  C1_3 
ROOT
ATOM      1  C1  UNL d   1      -0.408  -1.034  -4.380  0.00  0.00     0.143 A 
ATOM      2  C2  UNL d   1      -0.643  -2.287  -4.958  0.00  0.00    -0.057 A 
ATOM      3  C3  UNL d   1      -0.505  -3.466  -4.216  0.00  0.00     0.033 A 
ATOM      4  C4  UNL d   1      -0.100  -3.415  -2.886  0.00  0.00    -0.042 A 
ATOM      5  C5  UNL d   1       0.163  -2.183  -2.298  0.00  0.00     0.033 A 
ATOM      6  C6  UNL d   1       0.017  -1.008  -3.042  0.00  0.00    -0.057 A 
ENDROOT
BRANCH   1   7
ATOM      7  N   UNL d   1      -0.433   0.168  -5.091  0.00  0.00    -0.732 N 
ATOM      8  C   UNL d   1       0.788   0.906  -5.333  0.00  0.00     0.284 C 
ATOM      9  H3  UNL d   1      -1.063   0.134  -5.889  0.00  0.00     0.395 HD
ENDBRANCH   1   7
TORSDOF 1
ENDMDL
