MODEL 1
REMARK minimizedAffinity -4.51582575
REMARK minimizedRMSD -1
REMARK  1 active torsions:
REMARK  status: ('A' for Active; 'I' for Inactive)
REMARK    1  A    between atoms: N_2  and  C1_3 
ROOT
ATOM      1  C1  UNL d   1      -0.984  -0.412   1.249  0.00  0.00     0.143 A 
ATOM      2  C2  UNL d   1       0.061  -0.687   2.138  0.00  0.00    -0.057 A 
ATOM      3  C3  UNL d   1       1.208  -1.372   1.720  0.00  0.00     0.033 A 
ATOM      4  C4  UNL d   1       1.318  -1.822   0.409  0.00  0.00    -0.042 A 
ATOM      5  C5  UNL d   1       0.281  -1.583  -0.486  0.00  0.00     0.033 A 
ATOM      6  C6  UNL d   1      -0.859  -0.892  -0.064  0.00  0.00    -0.057 A 
ENDROOT
BRANCH   1   7
ATOM      7  N   UNL d   1      -2.192   0.178   1.628  0.00  0.00    -0.732 N 
ATOM      8  C   UNL d   1      -3.309   0.226   0.709  0.00  0.00     0.284 C 
ATOM      9  H3  UNL d   1      -2.451  -0.047   2.585  0.00  0.00     0.395 HD
ENDBRANCH   1   7
TORSDOF 1
ENDMDL
