MODEL 1
REMARK minimizedAffinity -2.65693665
REMARK minimizedRMSD -1
REMARK  1 active torsions:
REMARK  status: ('A' for Active; 'I' for Inactive)
REMARK    1  A    between atoms: N_2  and  C1_3 
ROOT
ATOM      1  C1  UNL d   1      -0.749  -0.722   1.274  0.00  0.00     0.143 A 
ATOM      2  C2  UNL d   1      -1.435  -0.176   2.364  0.00  0.00    -0.057 A 
ATOM      3  C3  UNL d   1      -2.763   0.252   2.246  0.00  0.00     0.033 A 
ATOM      4  C4  UNL d   1      -3.421   0.167   1.024  0.00  0.00    -0.042 A 
ATOM      5  C5  UNL d   1      -2.751  -0.349  -0.080  0.00  0.00     0.033 A 
ATOM      6  C6  UNL d   1      -1.427  -0.780   0.046  0.00  0.00    -0.057 A 
ENDROOT
BRANCH   1   7
ATOM      7  N   UNL d   1       0.603  -1.073   1.302  0.00  0.00    -0.732 N 
ATOM      8  C   UNL d   1       1.310  -1.182   2.560  0.00  0.00     0.284 C 
ATOM      9  H3  UNL d   1       0.827  -1.807   0.634  0.00  0.00     0.395 HD
ENDBRANCH   1   7
TORSDOF 1
ENDMDL
