MODEL 1
REMARK minimizedAffinity 0.1344679
REMARK minimizedRMSD -1
REMARK  1 active torsions:
REMARK  status: ('A' for Active; 'I' for Inactive)
REMARK    1  A    between atoms: C3_4  and  O_7 
ROOT
ATOM      1  C   UNL d   1       0.211  -1.443  -0.088  0.00  0.00    -0.033 A 
ATOM      2  C1  UNL d   1      -0.138  -2.715  -0.545  0.00  0.00     0.039 A 
ATOM      3  C2  UNL d   1       0.778  -3.765  -0.459  0.00  0.00    -0.080 A 
ATOM      4  C3  UNL d   1       2.038  -3.531   0.085  0.00  0.00     0.150 A 
ATOM      5  C4  UNL d   1       2.391  -2.267   0.546  0.00  0.00    -0.007 A 
ATOM      6  C5  UNL d   1       1.475  -1.219   0.459  0.00  0.00     0.039 A 
ENDROOT
BRANCH   4   7
ATOM      7  O   UNL d   1       2.967  -4.523   0.185  0.00  0.00    -0.526 OA
ATOM      8  H5  UNL d   1       2.594  -5.334  -0.199  0.00  0.00     0.418 HD
ENDBRANCH   4   7
TORSDOF 1
ENDMDL
