MODEL 1
REMARK minimizedAffinity -3.38640356
REMARK minimizedRMSD -1
REMARK  1 active torsions:
REMARK  status: ('A' for Active; 'I' for Inactive)
REMARK    1  A    between atoms: C3_4  and  O_7 
ROOT
ATOM      1  C   UNL d   1       2.544  -3.134  -0.143  0.00  0.00    -0.033 A 
ATOM      2  C1  UNL d   1       2.743  -1.752  -0.128  0.00  0.00     0.039 A 
ATOM      3  C2  UNL d   1       1.745  -0.906   0.360  0.00  0.00    -0.080 A 
ATOM      4  C3  UNL d   1       0.555  -1.454   0.830  0.00  0.00     0.150 A 
ATOM      5  C4  UNL d   1       0.351  -2.830   0.822  0.00  0.00    -0.007 A 
ATOM      6  C5  UNL d   1       1.348  -3.673   0.334  0.00  0.00     0.039 A 
ENDROOT
BRANCH   4   7
ATOM      7  O   UNL d   1      -0.450  -0.668   1.311  0.00  0.00    -0.526 OA
ATOM      8  H5  UNL d   1      -0.180   0.262   1.228  0.00  0.00     0.418 HD
ENDBRANCH   4   7
TORSDOF 1
ENDMDL
