MODEL 1
REMARK minimizedAffinity -3.19060946
REMARK minimizedRMSD -1
REMARK  1 active torsions:
REMARK  status: ('A' for Active; 'I' for Inactive)
REMARK    1  A    between atoms: C3_4  and  O_7 
ROOT
ATOM      1  C   UNL d   1       1.251  -1.846   0.193  0.00  0.00    -0.033 A 
ATOM      2  C1  UNL d   1       2.578  -1.426   0.085  0.00  0.00     0.039 A 
ATOM      3  C2  UNL d   1       3.602  -2.366  -0.046  0.00  0.00    -0.080 A 
ATOM      4  C3  UNL d   1       3.286  -3.722  -0.068  0.00  0.00     0.150 A 
ATOM      5  C4  UNL d   1       1.966  -4.147   0.035  0.00  0.00    -0.007 A 
ATOM      6  C5  UNL d   1       0.945  -3.207   0.167  0.00  0.00     0.039 A 
ENDROOT
BRANCH   4   7
ATOM      7  O   UNL d   1       4.251  -4.676  -0.190  0.00  0.00    -0.526 OA
ATOM      8  H5  UNL d   1       5.117  -4.236  -0.222  0.00  0.00     0.418 HD
ENDBRANCH   4   7
TORSDOF 1
ENDMDL
