MODEL 1
REMARK minimizedAffinity -2.47457814
REMARK minimizedRMSD -1
REMARK  1 active torsions:
REMARK  status: ('A' for Active; 'I' for Inactive)
REMARK    1  A    between atoms: C3_4  and  O_7 
ROOT
ATOM      1  C   UNL d   1      -0.356  -0.786   0.882  0.00  0.00    -0.033 A 
ATOM      2  C1  UNL d   1      -0.807  -1.928   0.216  0.00  0.00     0.039 A 
ATOM      3  C2  UNL d   1      -0.001  -3.066   0.154  0.00  0.00    -0.080 A 
ATOM      4  C3  UNL d   1       1.252  -3.050   0.761  0.00  0.00     0.150 A 
ATOM      5  C4  UNL d   1       1.706  -1.917   1.429  0.00  0.00    -0.007 A 
ATOM      6  C5  UNL d   1       0.900  -0.781   1.489  0.00  0.00     0.039 A 
ENDROOT
BRANCH   4   7
ATOM      7  O   UNL d   1       2.076  -4.135   0.723  0.00  0.00    -0.526 OA
ATOM      8  H5  UNL d   1       1.643  -4.832   0.203  0.00  0.00     0.418 HD
ENDBRANCH   4   7
TORSDOF 1
ENDMDL
