MODEL 1
REMARK minimizedAffinity 0.108380012
REMARK minimizedRMSD -1
REMARK  1 active torsions:
REMARK  status: ('A' for Active; 'I' for Inactive)
REMARK    1  A    between atoms: C3_4  and  O_7 
ROOT
ATOM      1  C   UNL d   1      -0.375  -1.998   0.960  0.00  0.00    -0.033 A 
ATOM      2  C1  UNL d   1       0.487  -2.992   0.492  0.00  0.00     0.039 A 
ATOM      3  C2  UNL d   1       1.868  -2.782   0.504  0.00  0.00    -0.080 A 
ATOM      4  C3  UNL d   1       2.372  -1.578   0.986  0.00  0.00     0.150 A 
ATOM      5  C4  UNL d   1       1.519  -0.585   1.457  0.00  0.00    -0.007 A 
ATOM      6  C5  UNL d   1       0.141  -0.796   1.444  0.00  0.00     0.039 A 
ENDROOT
BRANCH   4   7
ATOM      7  O   UNL d   1       3.712  -1.326   1.013  0.00  0.00    -0.526 OA
ATOM      8  H5  UNL d   1       4.176  -2.089   0.631  0.00  0.00     0.418 HD
ENDBRANCH   4   7
TORSDOF 1
ENDMDL
