MODEL 1
REMARK minimizedAffinity -5.13362026
REMARK minimizedRMSD -1
REMARK  1 active torsions:
REMARK  status: ('A' for Active; 'I' for Inactive)
REMARK    1  A    between atoms: C3_4  and  O_7 
ROOT
ATOM      1  C   UNL d   1       2.508  -2.950   0.298  0.00  0.00    -0.033 A 
ATOM      2  C1  UNL d   1       2.701  -1.569   0.354  0.00  0.00     0.039 A 
ATOM      3  C2  UNL d   1       1.647  -0.729   0.721  0.00  0.00    -0.080 A 
ATOM      4  C3  UNL d   1       0.408  -1.283   1.029  0.00  0.00     0.150 A 
ATOM      5  C4  UNL d   1       0.209  -2.659   0.979  0.00  0.00    -0.007 A 
ATOM      6  C5  UNL d   1       1.262  -3.496   0.612  0.00  0.00     0.039 A 
ENDROOT
BRANCH   4   7
ATOM      7  O   UNL d   1      -0.652  -0.503   1.387  0.00  0.00    -0.526 OA
ATOM      8  H5  UNL d   1      -0.375   0.427   1.351  0.00  0.00     0.418 HD
ENDBRANCH   4   7
TORSDOF 1
ENDMDL
