MODEL 1
REMARK minimizedAffinity 0.482138932
REMARK minimizedRMSD -1
REMARK  1 active torsions:
REMARK  status: ('A' for Active; 'I' for Inactive)
REMARK    1  A    between atoms: C3_4  and  O_7 
ROOT
ATOM      1  C   UNL d   1       0.152  -1.272   0.273  0.00  0.00    -0.033 A 
ATOM      2  C1  UNL d   1       1.415  -1.485  -0.283  0.00  0.00     0.039 A 
ATOM      3  C2  UNL d   1       2.563  -1.153   0.440  0.00  0.00    -0.080 A 
ATOM      4  C3  UNL d   1       2.434  -0.611   1.715  0.00  0.00     0.150 A 
ATOM      5  C4  UNL d   1       1.179  -0.399   2.277  0.00  0.00    -0.007 A 
ATOM      6  C5  UNL d   1       0.034  -0.730   1.553  0.00  0.00     0.039 A 
ENDROOT
BRANCH   4   7
ATOM      7  O   UNL d   1       3.525  -0.267   2.457  0.00  0.00    -0.526 OA
ATOM      8  H5  UNL d   1       4.323  -0.442   1.930  0.00  0.00     0.418 HD
ENDBRANCH   4   7
TORSDOF 1
ENDMDL
