MODEL 1
REMARK minimizedAffinity -2.40513349
REMARK minimizedRMSD -1
REMARK  1 active torsions:
REMARK  status: ('A' for Active; 'I' for Inactive)
REMARK    1  A    between atoms: C3_4  and  O_7 
ROOT
ATOM      1  C   UNL d   1       2.311  -3.296  -0.306  0.00  0.00    -0.033 A 
ATOM      2  C1  UNL d   1       1.119  -3.926   0.060  0.00  0.00     0.039 A 
ATOM      3  C2  UNL d   1       0.075  -3.181   0.613  0.00  0.00    -0.080 A 
ATOM      4  C3  UNL d   1       0.234  -1.810   0.792  0.00  0.00     0.150 A 
ATOM      5  C4  UNL d   1       1.417  -1.176   0.426  0.00  0.00    -0.007 A 
ATOM      6  C5  UNL d   1       2.459  -1.921  -0.124  0.00  0.00     0.039 A 
ENDROOT
BRANCH   4   7
ATOM      7  O   UNL d   1      -0.755  -1.043   1.331  0.00  0.00    -0.526 OA
ATOM      8  H5  UNL d   1      -1.501  -1.620   1.563  0.00  0.00     0.418 HD
ENDBRANCH   4   7
TORSDOF 1
ENDMDL
