MODEL 1
REMARK minimizedAffinity -4.73583984
REMARK minimizedRMSD -1
REMARK  1 active torsions:
REMARK  status: ('A' for Active; 'I' for Inactive)
REMARK    1  A    between atoms: C3_4  and  O_7 
ROOT
ATOM      1  C   UNL d   1      -0.020  -1.107   0.699  0.00  0.00    -0.033 A 
ATOM      2  C1  UNL d   1      -0.640  -2.357   0.649  0.00  0.00     0.039 A 
ATOM      3  C2  UNL d   1       0.123  -3.509   0.448  0.00  0.00    -0.080 A 
ATOM      4  C3  UNL d   1       1.503  -3.398   0.301  0.00  0.00     0.150 A 
ATOM      5  C4  UNL d   1       2.128  -2.157   0.355  0.00  0.00    -0.007 A 
ATOM      6  C5  UNL d   1       1.364  -1.007   0.554  0.00  0.00     0.039 A 
ENDROOT
BRANCH   4   7
ATOM      7  O   UNL d   1       2.289  -4.494   0.099  0.00  0.00    -0.526 OA
ATOM      8  H5  UNL d   1       1.717  -5.279   0.056  0.00  0.00     0.418 HD
ENDBRANCH   4   7
TORSDOF 1
ENDMDL
