MODEL 1
REMARK minimizedAffinity -1.81087506
REMARK minimizedRMSD -1
REMARK  1 active torsions:
REMARK  status: ('A' for Active; 'I' for Inactive)
REMARK    1  A    between atoms: C3_4  and  O_7 
ROOT
ATOM      1  C   UNL d   1       2.535  -3.266   0.242  0.00  0.00    -0.033 A 
ATOM      2  C1  UNL d   1       2.951  -1.941   0.382  0.00  0.00     0.039 A 
ATOM      3  C2  UNL d   1       2.032  -0.953   0.741  0.00  0.00    -0.080 A 
ATOM      4  C3  UNL d   1       0.702  -1.304   0.958  0.00  0.00     0.150 A 
ATOM      5  C4  UNL d   1       0.282  -2.623   0.824  0.00  0.00    -0.007 A 
ATOM      6  C5  UNL d   1       1.201  -3.608   0.464  0.00  0.00     0.039 A 
ENDROOT
BRANCH   4   7
ATOM      7  O   UNL d   1      -0.233  -0.374   1.306  0.00  0.00    -0.526 OA
ATOM      8  H5  UNL d   1       0.196   0.497   1.333  0.00  0.00     0.418 HD
ENDBRANCH   4   7
TORSDOF 1
ENDMDL
