MODEL 1
REMARK minimizedAffinity -2.024055
REMARK minimizedRMSD -1
REMARK  1 active torsions:
REMARK  status: ('A' for Active; 'I' for Inactive)
REMARK    1  A    between atoms: C3_4  and  O_7 
ROOT
ATOM      1  C   UNL d   1      -0.389  -1.539   0.869  0.00  0.00    -0.033 A 
ATOM      2  C1  UNL d   1       0.956  -1.191   1.013  0.00  0.00     0.039 A 
ATOM      3  C2  UNL d   1       1.955  -2.124   0.726  0.00  0.00    -0.080 A 
ATOM      4  C3  UNL d   1       1.596  -3.398   0.295  0.00  0.00     0.150 A 
ATOM      5  C4  UNL d   1       0.258  -3.750   0.145  0.00  0.00    -0.007 A 
ATOM      6  C5  UNL d   1      -0.738  -2.817   0.433  0.00  0.00     0.039 A 
ENDROOT
BRANCH   4   7
ATOM      7  O   UNL d   1       2.534  -4.344   0.007  0.00  0.00    -0.526 OA
ATOM      8  H5  UNL d   1       3.413  -3.969   0.184  0.00  0.00     0.418 HD
ENDBRANCH   4   7
TORSDOF 1
ENDMDL
