MODEL 1
REMARK minimizedAffinity 6.16451502
REMARK minimizedRMSD -1
REMARK  1 active torsions:
REMARK  status: ('A' for Active; 'I' for Inactive)
REMARK    1  A    between atoms: C3_4  and  O_7 
ROOT
ATOM      1  C   UNL d   1      -0.310  -0.541   4.182  0.00  0.00    -0.033 A 
ATOM      2  C1  UNL d   1      -0.385  -0.017   2.890  0.00  0.00     0.039 A 
ATOM      3  C2  UNL d   1      -1.256   1.039   2.613  0.00  0.00    -0.080 A 
ATOM      4  C3  UNL d   1      -2.045   1.561   3.635  0.00  0.00     0.150 A 
ATOM      5  C4  UNL d   1      -1.972   1.046   4.925  0.00  0.00    -0.007 A 
ATOM      6  C5  UNL d   1      -1.103  -0.009   5.200  0.00  0.00     0.039 A 
ENDROOT
BRANCH   4   7
ATOM      7  O   UNL d   1      -2.913   2.588   3.412  0.00  0.00    -0.526 OA
ATOM      8  H5  UNL d   1      -2.877   2.822   2.469  0.00  0.00     0.418 HD
ENDBRANCH   4   7
TORSDOF 1
ENDMDL
