MODEL 1
REMARK minimizedAffinity -0.0964079201
REMARK minimizedRMSD -1
REMARK  1 active torsions:
REMARK  status: ('A' for Active; 'I' for Inactive)
REMARK    1  A    between atoms: C3_4  and  O_7 
ROOT
ATOM      1  C   UNL d   1       1.678  -2.113   0.302  0.00  0.00    -0.033 A 
ATOM      2  C1  UNL d   1       3.049  -1.976   0.080  0.00  0.00     0.039 A 
ATOM      3  C2  UNL d   1       3.844  -3.107  -0.115  0.00  0.00    -0.080 A 
ATOM      4  C3  UNL d   1       3.255  -4.369  -0.086  0.00  0.00     0.150 A 
ATOM      5  C4  UNL d   1       1.889  -4.513   0.131  0.00  0.00    -0.007 A 
ATOM      6  C5  UNL d   1       1.097  -3.382   0.326  0.00  0.00     0.039 A 
ENDROOT
BRANCH   4   7
ATOM      7  O   UNL d   1       3.990  -5.502  -0.266  0.00  0.00    -0.526 OA
ATOM      8  H5  UNL d   1       4.923  -5.250  -0.376  0.00  0.00     0.418 HD
ENDBRANCH   4   7
TORSDOF 1
ENDMDL
