MODEL 1
REMARK minimizedAffinity -4.42364311
REMARK minimizedRMSD -1
REMARK  1 active torsions:
REMARK  status: ('A' for Active; 'I' for Inactive)
REMARK    1  A    between atoms: C3_4  and  O_7 
ROOT
ATOM      1  C   UNL d   1       2.365  -3.107  -0.231  0.00  0.00    -0.033 A 
ATOM      2  C1  UNL d   1       2.504  -1.741   0.024  0.00  0.00     0.039 A 
ATOM      3  C2  UNL d   1       1.371  -0.941   0.183  0.00  0.00    -0.080 A 
ATOM      4  C3  UNL d   1       0.108  -1.518   0.087  0.00  0.00     0.150 A 
ATOM      5  C4  UNL d   1      -0.037  -2.878  -0.163  0.00  0.00    -0.007 A 
ATOM      6  C5  UNL d   1       1.095  -3.676  -0.323  0.00  0.00     0.039 A 
ENDROOT
BRANCH   4   7
ATOM      7  O   UNL d   1      -1.027  -0.776   0.230  0.00  0.00    -0.526 OA
ATOM      8  H5  UNL d   1      -0.773   0.152   0.370  0.00  0.00     0.418 HD
ENDBRANCH   4   7
TORSDOF 1
ENDMDL
