MODEL 1
REMARK minimizedAffinity 1.58685255
REMARK minimizedRMSD -1
REMARK  1 active torsions:
REMARK  status: ('A' for Active; 'I' for Inactive)
REMARK    1  A    between atoms: C3_4  and  O_7 
ROOT
ATOM      1  C   UNL d   1       3.433   3.463  -0.362  0.00  0.00    -0.033 A 
ATOM      2  C1  UNL d   1       4.100   2.277  -0.675  0.00  0.00     0.039 A 
ATOM      3  C2  UNL d   1       3.691   1.512  -1.769  0.00  0.00    -0.080 A 
ATOM      4  C3  UNL d   1       2.616   1.944  -2.541  0.00  0.00     0.150 A 
ATOM      5  C4  UNL d   1       1.949   3.127  -2.237  0.00  0.00    -0.007 A 
ATOM      6  C5  UNL d   1       2.359   3.889  -1.143  0.00  0.00     0.039 A 
ENDROOT
BRANCH   4   7
ATOM      7  O   UNL d   1       2.177   1.229  -3.616  0.00  0.00    -0.526 OA
ATOM      8  H5  UNL d   1       2.713   0.422  -3.688  0.00  0.00     0.418 HD
ENDBRANCH   4   7
TORSDOF 1
ENDMDL
