MODEL 1
REMARK minimizedAffinity -0.00835093856
REMARK minimizedRMSD -1
REMARK  0 active torsions:
REMARK  status: ('A' for Active; 'I' for Inactive)
ROOT
ATOM      1  C2' OXE d   1      -4.625   0.404  -5.950  0.00  0.00     0.078 C 
ATOM      2  C1' OXE d   1      -1.842   0.771  -5.986  0.00  0.00     0.078 C 
ATOM      3  C1  OXE d   1      -2.714   2.001  -5.970  0.00  0.00    -0.078 A 
ATOM      4  C2  OXE d   1      -4.075   1.813  -6.000  0.00  0.00    -0.078 A 
ATOM      5  C3  OXE d   1      -4.925   2.913  -5.931  0.00  0.00     0.003 A 
ATOM      6  C4  OXE d   1      -4.407   4.213  -5.988  0.00  0.00    -0.002 A 
ATOM      7  C5  OXE d   1      -3.025   4.427  -5.998  0.00  0.00    -0.002 A 
ATOM      8  C6  OXE d   1      -2.166   3.335  -5.947  0.00  0.00     0.003 A 
ENDROOT
TORSDOF 0
ENDMDL
