MODEL 1
REMARK minimizedAffinity 2.64820671
REMARK minimizedRMSD -1
REMARK  0 active torsions:
REMARK  status: ('A' for Active; 'I' for Inactive)
ROOT
ATOM      1  C2' OXE d   1      -4.107  -0.685  -5.669  0.00  0.00     0.078 C 
ATOM      2  C1' OXE d   1      -1.494   0.023  -4.926  0.00  0.00     0.078 C 
ATOM      3  C1  OXE d   1      -2.450   1.134  -5.281  0.00  0.00    -0.078 A 
ATOM      4  C2  OXE d   1      -3.712   0.776  -5.689  0.00  0.00    -0.078 A 
ATOM      5  C3  OXE d   1      -4.651   1.764  -5.975  0.00  0.00     0.003 A 
ATOM      6  C4  OXE d   1      -4.275   3.112  -5.999  0.00  0.00    -0.002 A 
ATOM      7  C5  OXE d   1      -2.983   3.496  -5.626  0.00  0.00    -0.002 A 
ATOM      8  C6  OXE d   1      -2.073   2.525  -5.224  0.00  0.00     0.003 A 
ENDROOT
TORSDOF 0
ENDMDL
