MODEL 1
REMARK minimizedAffinity -1.94812393
REMARK minimizedRMSD -1
REMARK  0 active torsions:
REMARK  status: ('A' for Active; 'I' for Inactive)
ROOT
ATOM      1  C2' OXE d   1      -4.909   4.437  -6.000  0.00  0.00     0.078 C 
ATOM      2  C1' OXE d   1      -2.105   4.577  -5.998  0.00  0.00     0.078 C 
ATOM      3  C1  OXE d   1      -2.741   3.210  -5.986  0.00  0.00    -0.078 A 
ATOM      4  C2  OXE d   1      -4.113   3.151  -5.940  0.00  0.00    -0.078 A 
ATOM      5  C3  OXE d   1      -4.752   1.915  -5.982  0.00  0.00     0.003 A 
ATOM      6  C4  OXE d   1      -4.009   0.730  -5.916  0.00  0.00    -0.002 A 
ATOM      7  C5  OXE d   1      -2.610   0.768  -5.922  0.00  0.00    -0.002 A 
ATOM      8  C6  OXE d   1      -1.962   1.996  -6.000  0.00  0.00     0.003 A 
ENDROOT
TORSDOF 0
ENDMDL
