MODEL 1
REMARK minimizedAffinity 5.84615993
REMARK minimizedRMSD -1
REMARK  0 active torsions:
REMARK  status: ('A' for Active; 'I' for Inactive)
ROOT
ATOM      1  C2' OXE d   1       2.188   2.123  -0.758  0.00  0.00     0.078 C 
ATOM      2  C1' OXE d   1       0.991   0.025   0.673  0.00  0.00     0.078 C 
ATOM      3  C1  OXE d   1       0.933  -0.028  -0.834  0.00  0.00    -0.078 A 
ATOM      4  C2  OXE d   1       1.481   1.027  -1.525  0.00  0.00    -0.078 A 
ATOM      5  C3  OXE d   1       1.503   1.002  -2.916  0.00  0.00     0.003 A 
ATOM      6  C4  OXE d   1       0.838  -0.011  -3.618  0.00  0.00    -0.002 A 
ATOM      7  C5  OXE d   1       0.239  -1.074  -2.933  0.00  0.00    -0.002 A 
ATOM      8  C6  OXE d   1       0.315  -1.119  -1.545  0.00  0.00     0.003 A 
ENDROOT
TORSDOF 0
ENDMDL
