MODEL 1
REMARK minimizedAffinity 10.7461367
REMARK minimizedRMSD -1
REMARK  0 active torsions:
REMARK  status: ('A' for Active; 'I' for Inactive)
ROOT
ATOM      1  C2' OXE d   1      -4.870  -1.518  -5.955  0.00  0.00     0.078 C 
ATOM      2  C1' OXE d   1      -2.759  -1.641  -4.108  0.00  0.00     0.078 C 
ATOM      3  C1  OXE d   1      -3.179  -0.281  -4.608  0.00  0.00    -0.078 A 
ATOM      4  C2  OXE d   1      -4.181  -0.234  -5.546  0.00  0.00    -0.078 A 
ATOM      5  C3  OXE d   1      -4.644   0.998  -6.000  0.00  0.00     0.003 A 
ATOM      6  C4  OXE d   1      -3.994   2.180  -5.625  0.00  0.00    -0.002 A 
ATOM      7  C5  OXE d   1      -2.945   2.152  -4.700  0.00  0.00    -0.002 A 
ATOM      8  C6  OXE d   1      -2.554   0.935  -4.151  0.00  0.00     0.003 A 
ENDROOT
TORSDOF 0
ENDMDL
