MODEL 1
REMARK minimizedAffinity 1.29012764
REMARK minimizedRMSD -1
REMARK  0 active torsions:
REMARK  status: ('A' for Active; 'I' for Inactive)
ROOT
ATOM      1  C2' OXE d   1      -1.950   1.439  -6.000  0.00  0.00     0.078 C 
ATOM      2  C1' OXE d   1      -4.259  -0.158  -5.994  0.00  0.00     0.078 C 
ATOM      3  C1  OXE d   1      -4.439   1.339  -5.985  0.00  0.00    -0.078 A 
ATOM      4  C2  OXE d   1      -3.304   2.113  -5.941  0.00  0.00    -0.078 A 
ATOM      5  C3  OXE d   1      -3.413   3.500  -5.986  0.00  0.00     0.003 A 
ATOM      6  C4  OXE d   1      -4.669   4.115  -5.921  0.00  0.00    -0.002 A 
ATOM      7  C5  OXE d   1      -5.837   3.346  -5.925  0.00  0.00    -0.002 A 
ATOM      8  C6  OXE d   1      -5.741   1.960  -6.000  0.00  0.00     0.003 A 
ENDROOT
TORSDOF 0
ENDMDL
