MODEL 1
REMARK minimizedAffinity -2.41537166
REMARK minimizedRMSD -1
REMARK  0 active torsions:
REMARK  status: ('A' for Active; 'I' for Inactive)
ROOT
ATOM      1  C2' OXE d   1      -2.058   1.586  -5.992  0.00  0.00     0.078 C 
ATOM      2  C1' OXE d   1      -4.728   0.721  -5.986  0.00  0.00     0.078 C 
ATOM      3  C1  OXE d   1      -4.470   2.207  -5.981  0.00  0.00    -0.078 A 
ATOM      4  C2  OXE d   1      -3.161   2.621  -5.937  0.00  0.00    -0.078 A 
ATOM      5  C3  OXE d   1      -2.865   3.980  -5.986  0.00  0.00     0.003 A 
ATOM      6  C4  OXE d   1      -3.891   4.931  -5.924  0.00  0.00    -0.002 A 
ATOM      7  C5  OXE d   1      -5.232   4.531  -5.929  0.00  0.00    -0.002 A 
ATOM      8  C6  OXE d   1      -5.538   3.176  -6.000  0.00  0.00     0.003 A 
ENDROOT
TORSDOF 0
ENDMDL
