MODEL 1
REMARK minimizedAffinity 6.60442305
REMARK minimizedRMSD -1
REMARK  0 active torsions:
REMARK  status: ('A' for Active; 'I' for Inactive)
ROOT
ATOM      1  C2' OXE d   1      -2.912  -2.097  -5.800  0.00  0.00     0.078 C 
ATOM      2  C1' OXE d   1      -5.707  -2.271  -6.000  0.00  0.00     0.078 C 
ATOM      3  C1  OXE d   1      -4.924  -3.559  -5.952  0.00  0.00    -0.078 A 
ATOM      4  C2  OXE d   1      -3.554  -3.464  -5.901  0.00  0.00    -0.078 A 
ATOM      5  C3  OXE d   1      -2.787  -4.621  -5.800  0.00  0.00     0.003 A 
ATOM      6  C4  OXE d   1      -3.387  -5.882  -5.905  0.00  0.00    -0.002 A 
ATOM      7  C5  OXE d   1      -4.778  -6.000  -5.997  0.00  0.00    -0.002 A 
ATOM      8  C6  OXE d   1      -5.562  -4.852  -5.979  0.00  0.00     0.003 A 
ENDROOT
TORSDOF 0
ENDMDL
