MODEL 1
REMARK minimizedAffinity 4.24237585
REMARK minimizedRMSD -1
REMARK  0 active torsions:
REMARK  status: ('A' for Active; 'I' for Inactive)
ROOT
ATOM      1  C2' OXE d   1      -1.832   2.252  -5.944  0.00  0.00     0.078 C 
ATOM      2  C1' OXE d   1      -4.474   3.201  -5.980  0.00  0.00     0.078 C 
ATOM      3  C1  OXE d   1      -4.262   1.707  -5.963  0.00  0.00    -0.078 A 
ATOM      4  C2  OXE d   1      -2.966   1.252  -5.993  0.00  0.00    -0.078 A 
ATOM      5  C3  OXE d   1      -2.714  -0.115  -5.924  0.00  0.00     0.003 A 
ATOM      6  C4  OXE d   1      -3.769  -1.034  -5.979  0.00  0.00    -0.002 A 
ATOM      7  C5  OXE d   1      -5.096  -0.592  -5.989  0.00  0.00    -0.002 A 
ATOM      8  C6  OXE d   1      -5.360   0.772  -5.939  0.00  0.00     0.003 A 
ENDROOT
TORSDOF 0
ENDMDL
