MODEL 1
REMARK minimizedAffinity -0.338547111
REMARK minimizedRMSD -1
REMARK  0 active torsions:
REMARK  status: ('A' for Active; 'I' for Inactive)
ROOT
ATOM      1  C2' OXE d   1      -2.787  -4.874  -5.999  0.00  0.00     0.078 C 
ATOM      2  C1' OXE d   1      -5.562  -5.296  -5.982  0.00  0.00     0.078 C 
ATOM      3  C1  OXE d   1      -5.067  -3.871  -5.982  0.00  0.00    -0.078 A 
ATOM      4  C2  OXE d   1      -3.708  -3.674  -5.943  0.00  0.00    -0.078 A 
ATOM      5  C3  OXE d   1      -3.197  -2.381  -5.997  0.00  0.00     0.003 A 
ATOM      6  C4  OXE d   1      -4.055  -1.276  -5.935  0.00  0.00    -0.002 A 
ATOM      7  C5  OXE d   1      -5.442  -1.455  -5.933  0.00  0.00    -0.002 A 
ATOM      8  C6  OXE d   1      -5.964  -2.742  -6.000  0.00  0.00     0.003 A 
ENDROOT
TORSDOF 0
ENDMDL
