MODEL 1
REMARK minimizedAffinity -1.86620474
REMARK minimizedRMSD -1
REMARK  0 active torsions:
REMARK  status: ('A' for Active; 'I' for Inactive)
ROOT
ATOM      1  C2' OXE d   1      -4.502  -0.187  -5.983  0.00  0.00     0.078 C 
ATOM      2  C1' OXE d   1      -1.943   0.960  -5.855  0.00  0.00     0.078 C 
ATOM      3  C1  OXE d   1      -3.130   1.890  -5.888  0.00  0.00    -0.078 A 
ATOM      4  C2  OXE d   1      -4.376   1.321  -5.997  0.00  0.00    -0.078 A 
ATOM      5  C3  OXE d   1      -5.507   2.131  -5.976  0.00  0.00     0.003 A 
ATOM      6  C4  OXE d   1      -5.382   3.526  -6.000  0.00  0.00    -0.002 A 
ATOM      7  C5  OXE d   1      -4.120   4.126  -5.929  0.00  0.00    -0.002 A 
ATOM      8  C6  OXE d   1      -2.989   3.324  -5.830  0.00  0.00     0.003 A 
ENDROOT
TORSDOF 0
ENDMDL
