MODEL 1
REMARK minimizedAffinity 4.49449539
REMARK minimizedRMSD -1
REMARK  0 active torsions:
REMARK  status: ('A' for Active; 'I' for Inactive)
ROOT
ATOM      1  C2' OXE d   1       1.173  -1.254  -3.396  0.00  0.00     0.078 C 
ATOM      2  C1' OXE d   1      -1.267   0.119  -3.599  0.00  0.00     0.078 C 
ATOM      3  C1  OXE d   1      -0.465   0.294  -2.334  0.00  0.00    -0.078 A 
ATOM      4  C2  OXE d   1       0.705  -0.419  -2.224  0.00  0.00    -0.078 A 
ATOM      5  C3  OXE d   1       1.510  -0.252  -1.101  0.00  0.00     0.003 A 
ATOM      6  C4  OXE d   1       1.065   0.515  -0.017  0.00  0.00    -0.002 A 
ATOM      7  C5  OXE d   1      -0.142   1.217  -0.093  0.00  0.00    -0.002 A 
ATOM      8  C6  OXE d   1      -0.897   1.151  -1.258  0.00  0.00     0.003 A 
ENDROOT
TORSDOF 0
ENDMDL
