MODEL 1
REMARK minimizedAffinity -1.83205342
REMARK minimizedRMSD -1
REMARK  0 active torsions:
REMARK  status: ('A' for Active; 'I' for Inactive)
ROOT
ATOM      1  C2' OXE d   1      -5.757   3.317  -5.902  0.00  0.00     0.078 C 
ATOM      2  C1' OXE d   1      -3.008   3.884  -5.879  0.00  0.00     0.078 C 
ATOM      3  C1  OXE d   1      -3.427   2.436  -5.933  0.00  0.00    -0.078 A 
ATOM      4  C2  OXE d   1      -4.774   2.166  -5.897  0.00  0.00    -0.078 A 
ATOM      5  C3  OXE d   1      -5.216   0.850  -5.999  0.00  0.00     0.003 A 
ATOM      6  C4  OXE d   1      -4.300  -0.208  -5.984  0.00  0.00    -0.002 A 
ATOM      7  C5  OXE d   1      -2.924   0.043  -5.982  0.00  0.00    -0.002 A 
ATOM      8  C6  OXE d   1      -2.471   1.358  -5.999  0.00  0.00     0.003 A 
ENDROOT
TORSDOF 0
ENDMDL
