MODEL 1
REMARK minimizedAffinity -1.359128
REMARK minimizedRMSD -1
REMARK  0 active torsions:
REMARK  status: ('A' for Active; 'I' for Inactive)
ROOT
ATOM      1  C2' OXE d   1      -3.268   3.618  -5.947  0.00  0.00     0.078 C 
ATOM      2  C1' OXE d   1      -5.954   2.801  -5.970  0.00  0.00     0.078 C 
ATOM      3  C1  OXE d   1      -4.893   1.729  -5.961  0.00  0.00    -0.078 A 
ATOM      4  C2  OXE d   1      -3.581   2.138  -5.998  0.00  0.00    -0.078 A 
ATOM      5  C3  OXE d   1      -2.562   1.191  -5.936  0.00  0.00     0.003 A 
ATOM      6  C4  OXE d   1      -2.860  -0.176  -5.993  0.00  0.00    -0.002 A 
ATOM      7  C5  OXE d   1      -4.189  -0.613  -5.997  0.00  0.00    -0.002 A 
ATOM      8  C6  OXE d   1      -5.215   0.323  -5.938  0.00  0.00     0.003 A 
ENDROOT
TORSDOF 0
ENDMDL
