MODEL 1
REMARK minimizedAffinity 5.83430243
REMARK minimizedRMSD -1
REMARK  0 active torsions:
REMARK  status: ('A' for Active; 'I' for Inactive)
ROOT
ATOM      1  C2' OXE d   1      -1.825   0.953  -5.825  0.00  0.00     0.078 C 
ATOM      2  C1' OXE d   1      -3.804  -1.037  -5.821  0.00  0.00     0.078 C 
ATOM      3  C1  OXE d   1      -4.253   0.401  -5.899  0.00  0.00    -0.078 A 
ATOM      4  C2  OXE d   1      -3.279   1.370  -5.853  0.00  0.00    -0.078 A 
ATOM      5  C3  OXE d   1      -3.634   2.710  -5.976  0.00  0.00     0.003 A 
ATOM      6  C4  OXE d   1      -4.982   3.088  -5.992  0.00  0.00    -0.002 A 
ATOM      7  C5  OXE d   1      -5.991   2.118  -5.999  0.00  0.00    -0.002 A 
ATOM      8  C6  OXE d   1      -5.643   0.772  -5.996  0.00  0.00     0.003 A 
ENDROOT
TORSDOF 0
ENDMDL
