MODEL 1
REMARK minimizedAffinity 1.16704333
REMARK minimizedRMSD -1
REMARK  0 active torsions:
REMARK  status: ('A' for Active; 'I' for Inactive)
ROOT
ATOM      1  C2' OXE d   1      -2.183   2.432  -5.968  0.00  0.00     0.078 C 
ATOM      2  C1' OXE d   1      -4.557   3.929  -5.920  0.00  0.00     0.078 C 
ATOM      3  C1  OXE d   1      -4.673   2.425  -5.928  0.00  0.00    -0.078 A 
ATOM      4  C2  OXE d   1      -3.507   1.701  -5.999  0.00  0.00    -0.078 A 
ATOM      5  C3  OXE d   1      -3.555   0.311  -5.954  0.00  0.00     0.003 A 
ATOM      6  C4  OXE d   1      -4.785  -0.358  -5.993  0.00  0.00    -0.002 A 
ATOM      7  C5  OXE d   1      -5.985   0.361  -5.962  0.00  0.00    -0.002 A 
ATOM      8  C6  OXE d   1      -5.946   1.748  -5.886  0.00  0.00     0.003 A 
ENDROOT
TORSDOF 0
ENDMDL
