MODEL 1
REMARK minimizedAffinity -0.398087204
REMARK minimizedRMSD -1
REMARK  0 active torsions:
REMARK  status: ('A' for Active; 'I' for Inactive)
ROOT
ATOM      1  C2' OXE d   1      -1.883   1.111  -6.000  0.00  0.00     0.078 C 
ATOM      2  C1' OXE d   1      -4.415  -0.102  -5.985  0.00  0.00     0.078 C 
ATOM      3  C1  OXE d   1      -4.357   1.405  -5.983  0.00  0.00    -0.078 A 
ATOM      4  C2  OXE d   1      -3.114   1.990  -5.943  0.00  0.00    -0.078 A 
ATOM      5  C3  OXE d   1      -3.002   3.376  -5.994  0.00  0.00     0.003 A 
ATOM      6  C4  OXE d   1      -4.145   4.182  -5.931  0.00  0.00    -0.002 A 
ATOM      7  C5  OXE d   1      -5.420   3.607  -5.932  0.00  0.00    -0.002 A 
ATOM      8  C6  OXE d   1      -5.544   2.224  -6.000  0.00  0.00     0.003 A 
ENDROOT
TORSDOF 0
ENDMDL
