MODEL 1
REMARK minimizedAffinity -0.229162931
REMARK minimizedRMSD -1
REMARK  0 active torsions:
REMARK  status: ('A' for Active; 'I' for Inactive)
ROOT
ATOM      1  C2' OXE d   1      -5.528  -1.865  -5.946  0.00  0.00     0.078 C 
ATOM      2  C1' OXE d   1      -2.814  -2.581  -5.962  0.00  0.00     0.078 C 
ATOM      3  C1  OXE d   1      -3.154  -1.112  -5.958  0.00  0.00    -0.078 A 
ATOM      4  C2  OXE d   1      -4.485  -0.771  -5.998  0.00  0.00    -0.078 A 
ATOM      5  C3  OXE d   1      -4.854   0.570  -5.941  0.00  0.00     0.003 A 
ATOM      6  C4  OXE d   1      -3.882   1.576  -5.999  0.00  0.00    -0.002 A 
ATOM      7  C5  OXE d   1      -2.522   1.250  -6.000  0.00  0.00    -0.002 A 
ATOM      8  C6  OXE d   1      -2.141  -0.086  -5.937  0.00  0.00     0.003 A 
ENDROOT
TORSDOF 0
ENDMDL
