MODEL 1
REMARK minimizedAffinity 9.03291225
REMARK minimizedRMSD -1
REMARK  0 active torsions:
REMARK  status: ('A' for Active; 'I' for Inactive)
ROOT
ATOM      1  C   UNL d   1       5.998   0.004   1.258  0.00  0.00     0.023 A 
ATOM      2  C1  UNL d   1       5.714  -1.314   0.900  0.00  0.00     0.003 A 
ATOM      3  C2  UNL d   1       4.579  -1.603   0.140  0.00  0.00     0.048 A 
ATOM      4  C3  UNL d   1       3.733  -0.569  -0.260  0.00  0.00     0.023 A 
ATOM      5  C4  UNL d   1       4.013   0.751   0.095  0.00  0.00     0.048 A 
ATOM      6  C5  UNL d   1       5.149   1.035   0.856  0.00  0.00     0.003 A 
ATOM      7  I   UNL d   1       2.043  -0.997  -1.392  0.00  0.00    -0.146 I 
ENDROOT
TORSDOF 0
ENDMDL
