MODEL 1
REMARK minimizedAffinity 1.5253433
REMARK minimizedRMSD -1
REMARK  0 active torsions:
REMARK  status: ('A' for Active; 'I' for Inactive)
ROOT
ATOM      1  C   UNL d   1      -4.287  -2.591  -2.477  0.00  0.00     0.023 A 
ATOM      2  C1  UNL d   1      -5.359  -2.128  -3.240  0.00  0.00     0.003 A 
ATOM      3  C2  UNL d   1      -5.186  -1.043  -4.102  0.00  0.00     0.048 A 
ATOM      4  C3  UNL d   1      -3.938  -0.428  -4.198  0.00  0.00     0.023 A 
ATOM      5  C4  UNL d   1      -2.862  -0.889  -3.437  0.00  0.00     0.048 A 
ATOM      6  C5  UNL d   1      -3.040  -1.973  -2.575  0.00  0.00     0.003 A 
ATOM      7  I   UNL d   1      -3.678   1.186  -5.482  0.00  0.00    -0.146 I 
ENDROOT
TORSDOF 0
ENDMDL
