MODEL 1
REMARK minimizedAffinity 8.44141006
REMARK minimizedRMSD -1
REMARK  0 active torsions:
REMARK  status: ('A' for Active; 'I' for Inactive)
ROOT
ATOM      1  C   UNL d   1      -0.680  -1.016   3.356  0.00  0.00     0.023 A 
ATOM      2  C1  UNL d   1       0.455  -1.821   3.254  0.00  0.00     0.003 A 
ATOM      3  C2  UNL d   1       1.187  -1.852   2.066  0.00  0.00     0.048 A 
ATOM      4  C3  UNL d   1       0.779  -1.074   0.983  0.00  0.00     0.023 A 
ATOM      5  C4  UNL d   1      -0.355  -0.266   1.080  0.00  0.00     0.048 A 
ATOM      6  C5  UNL d   1      -1.084  -0.240   2.270  0.00  0.00     0.003 A 
ATOM      7  I   UNL d   1       1.867  -1.117  -0.788  0.00  0.00    -0.146 I 
ENDROOT
TORSDOF 0
ENDMDL
