MODEL 1
REMARK minimizedAffinity 11.944809
REMARK minimizedRMSD -1
REMARK  0 active torsions:
REMARK  status: ('A' for Active; 'I' for Inactive)
ROOT
ATOM      1  C   UNL d   1      -4.874  -0.433  -5.734  0.00  0.00     0.023 A 
ATOM      2  C1  UNL d   1      -5.970   0.022  -5.001  0.00  0.00     0.003 A 
ATOM      3  C2  UNL d   1      -6.000   1.337  -4.531  0.00  0.00     0.048 A 
ATOM      4  C3  UNL d   1      -4.931   2.191  -4.798  0.00  0.00     0.023 A 
ATOM      5  C4  UNL d   1      -3.833   1.741  -5.532  0.00  0.00     0.048 A 
ATOM      6  C5  UNL d   1      -3.807   0.425  -6.000  0.00  0.00     0.003 A 
ATOM      7  I   UNL d   1      -4.973   4.148  -4.100  0.00  0.00    -0.146 I 
ENDROOT
TORSDOF 0
ENDMDL
