MODEL 1
REMARK minimizedAffinity 7.45400143
REMARK minimizedRMSD -1
REMARK  0 active torsions:
REMARK  status: ('A' for Active; 'I' for Inactive)
ROOT
ATOM      1  C   UNL d   1      -4.256   0.104   2.399  0.00  0.00     0.023 A 
ATOM      2  C1  UNL d   1      -5.429   0.421   3.085  0.00  0.00     0.003 A 
ATOM      3  C2  UNL d   1      -5.403   1.359   4.119  0.00  0.00     0.048 A 
ATOM      4  C3  UNL d   1      -4.201   1.978   4.461  0.00  0.00     0.023 A 
ATOM      5  C4  UNL d   1      -3.025   1.665   3.777  0.00  0.00     0.048 A 
ATOM      6  C5  UNL d   1      -3.056   0.725   2.745  0.00  0.00     0.003 A 
ATOM      7  I   UNL d   1      -4.160   3.375   6.000  0.00  0.00    -0.146 I 
ENDROOT
TORSDOF 0
ENDMDL
