MODEL 1
REMARK minimizedAffinity 1.75634015
REMARK minimizedRMSD -1
REMARK  0 active torsions:
REMARK  status: ('A' for Active; 'I' for Inactive)
ROOT
ATOM      1  C   UNL d   1       1.944   1.862  -1.552  0.00  0.00     0.023 A 
ATOM      2  C1  UNL d   1       2.904   1.618  -0.569  0.00  0.00     0.003 A 
ATOM      3  C2  UNL d   1       2.903   0.406   0.124  0.00  0.00     0.048 A 
ATOM      4  C3  UNL d   1       1.940  -0.558  -0.171  0.00  0.00     0.023 A 
ATOM      5  C4  UNL d   1       0.978  -0.319  -1.153  0.00  0.00     0.048 A 
ATOM      6  C5  UNL d   1       0.982   0.895  -1.843  0.00  0.00     0.003 A 
ATOM      7  I   UNL d   1       1.936  -2.363   0.860  0.00  0.00    -0.146 I 
ENDROOT
TORSDOF 0
ENDMDL
