MODEL 1
REMARK minimizedAffinity 3.39618802
REMARK minimizedRMSD -1
REMARK  0 active torsions:
REMARK  status: ('A' for Active; 'I' for Inactive)
ROOT
ATOM      1  C   UNL d   1      -1.438   2.076  -2.918  0.00  0.00     0.023 A 
ATOM      2  C1  UNL d   1      -0.791   0.939  -2.435  0.00  0.00     0.003 A 
ATOM      3  C2  UNL d   1       0.544   1.012  -2.030  0.00  0.00     0.048 A 
ATOM      4  C3  UNL d   1       1.225   2.226  -2.110  0.00  0.00     0.023 A 
ATOM      5  C4  UNL d   1       0.581   3.367  -2.592  0.00  0.00     0.048 A 
ATOM      6  C5  UNL d   1      -0.753   3.288  -2.997  0.00  0.00     0.003 A 
ATOM      7  I   UNL d   1       3.211   2.338  -1.508  0.00  0.00    -0.146 I 
ENDROOT
TORSDOF 0
ENDMDL
