MODEL 1
REMARK minimizedAffinity 1.07889032
REMARK minimizedRMSD -1
REMARK  1 active torsions:
REMARK  status: ('A' for Active; 'I' for Inactive)
REMARK    1  A    between atoms: C1_2  and  C2_3 
ROOT
ATOM      1  C2  UNL d   1       0.472  -1.034  -0.627  0.00  0.00    -0.077 A 
ATOM      2  C3  UNL d   1       1.833  -0.953  -0.301  0.00  0.00     0.002 A 
ATOM      3  C4  UNL d   1       2.240  -0.348   0.890  0.00  0.00     0.002 A 
ATOM      4  C5  UNL d   1       1.291   0.175   1.766  0.00  0.00    -0.004 A 
ATOM      5  C6  UNL d   1      -0.065   0.101   1.450  0.00  0.00     0.002 A 
ATOM      6  C7  UNL d   1      -0.472  -0.502   0.260  0.00  0.00     0.002 A 
ENDROOT
BRANCH   1   7
ATOM      7  C1  UNL d   1       0.029  -1.730  -1.888  0.00  0.00     0.055 C 
ATOM      8  C   UNL d   1      -0.445  -3.147  -1.601  0.00  0.00     0.019 C 
ENDBRANCH   1   7
TORSDOF 1
ENDMDL
