MODEL 1
REMARK minimizedAffinity -5.03015852
REMARK minimizedRMSD -1
REMARK  1 active torsions:
REMARK  status: ('A' for Active; 'I' for Inactive)
REMARK    1  A    between atoms: C1_2  and  C2_3 
ROOT
ATOM      1  C2  UNL d   1      -1.962  -0.383   0.456  0.00  0.00    -0.077 A 
ATOM      2  C3  UNL d   1      -2.032   0.216   1.722  0.00  0.00     0.002 A 
ATOM      3  C4  UNL d   1      -0.882   0.726   2.327  0.00  0.00     0.002 A 
ATOM      4  C5  UNL d   1       0.346   0.645   1.673  0.00  0.00    -0.004 A 
ATOM      5  C6  UNL d   1       0.427   0.049   0.415  0.00  0.00     0.002 A 
ATOM      6  C7  UNL d   1      -0.722  -0.462  -0.191  0.00  0.00     0.002 A 
ENDROOT
BRANCH   1   7
ATOM      7  C1  UNL d   1      -3.209  -0.890  -0.220  0.00  0.00     0.055 C 
ATOM      8  C   UNL d   1      -2.983  -2.258  -0.847  0.00  0.00     0.019 C 
ENDBRANCH   1   7
TORSDOF 1
ENDMDL
