MODEL 1
REMARK minimizedAffinity -5.00210094
REMARK minimizedRMSD -1
REMARK  1 active torsions:
REMARK  status: ('A' for Active; 'I' for Inactive)
REMARK    1  A    between atoms: C1_2  and  C2_3 
ROOT
ATOM      1  C2  UNL d   1      -1.395  -0.168   0.907  0.00  0.00    -0.077 A 
ATOM      2  C3  UNL d   1      -1.659   0.292   2.205  0.00  0.00     0.002 A 
ATOM      3  C4  UNL d   1      -0.662   0.931   2.945  0.00  0.00     0.002 A 
ATOM      4  C5  UNL d   1       0.604   1.120   2.394  0.00  0.00    -0.004 A 
ATOM      5  C6  UNL d   1       0.877   0.665   1.105  0.00  0.00     0.002 A 
ATOM      6  C7  UNL d   1      -0.118   0.025   0.364  0.00  0.00     0.002 A 
ENDROOT
BRANCH   1   7
ATOM      7  C1  UNL d   1      -2.483  -0.813   0.090  0.00  0.00     0.055 C 
ATOM      8  C   UNL d   1      -2.059  -2.186  -0.411  0.00  0.00     0.019 C 
ENDBRANCH   1   7
TORSDOF 1
ENDMDL
