MODEL 1
REMARK minimizedAffinity -4.44934654
REMARK minimizedRMSD -1
REMARK  1 active torsions:
REMARK  status: ('A' for Active; 'I' for Inactive)
REMARK    1  A    between atoms: C1_2  and  C2_3 
ROOT
ATOM      1  C2  UNL d   1       0.222   0.928   1.811  0.00  0.00    -0.077 A 
ATOM      2  C3  UNL d   1      -0.398   0.662   0.582  0.00  0.00     0.002 A 
ATOM      3  C4  UNL d   1       0.252  -0.109  -0.385  0.00  0.00     0.002 A 
ATOM      4  C5  UNL d   1       1.522  -0.622  -0.130  0.00  0.00    -0.004 A 
ATOM      5  C6  UNL d   1       2.147  -0.362   1.088  0.00  0.00     0.002 A 
ATOM      6  C7  UNL d   1       1.500   0.409   2.055  0.00  0.00     0.002 A 
ENDROOT
BRANCH   1   7
ATOM      7  C1  UNL d   1      -0.497   1.718   2.873  0.00  0.00     0.055 C 
ATOM      8  C   UNL d   1      -1.651   0.923   3.467  0.00  0.00     0.019 C 
ENDBRANCH   1   7
TORSDOF 1
ENDMDL
