MODEL 1
REMARK minimizedAffinity -3.54437375
REMARK minimizedRMSD -1
REMARK  1 active torsions:
REMARK  status: ('A' for Active; 'I' for Inactive)
REMARK    1  A    between atoms: C1_2  and  C2_3 
ROOT
ATOM      1  C2  UNL d   1       0.809   0.368  -4.237  0.00  0.00    -0.077 A 
ATOM      2  C3  UNL d   1       0.139  -0.697  -3.620  0.00  0.00     0.002 A 
ATOM      3  C4  UNL d   1      -1.051  -1.191  -4.160  0.00  0.00     0.002 A 
ATOM      4  C5  UNL d   1      -1.577  -0.628  -5.321  0.00  0.00    -0.004 A 
ATOM      5  C6  UNL d   1      -0.919   0.434  -5.941  0.00  0.00     0.002 A 
ATOM      6  C7  UNL d   1       0.269   0.929  -5.402  0.00  0.00     0.002 A 
ENDROOT
BRANCH   1   7
ATOM      7  C1  UNL d   1       2.118   0.869  -3.684  0.00  0.00     0.055 C 
ATOM      8  C   UNL d   1       3.132  -0.258  -3.554  0.00  0.00     0.019 C 
ENDBRANCH   1   7
TORSDOF 1
ENDMDL
