MODEL 1
REMARK minimizedAffinity 3.95339108
REMARK minimizedRMSD -1
REMARK  0 active torsions:
REMARK  status: ('A' for Active; 'I' for Inactive)
ROOT
ATOM      1  C   UNL d   1       1.902   5.592  -2.632  0.00  0.00     0.078 C 
ATOM      2  C1  UNL d   1       3.333   5.218  -2.879  0.00  0.00    -0.077 A 
ATOM      3  C2  UNL d   1       4.380   5.999  -2.374  0.00  0.00    -0.001 A 
ATOM      4  C3  UNL d   1       5.707   5.645  -2.620  0.00  0.00     0.003 A 
ATOM      5  C4  UNL d   1       6.000   4.510  -3.373  0.00  0.00    -0.005 A 
ATOM      6  C5  UNL d   1       4.965   3.727  -3.881  0.00  0.00     0.003 A 
ATOM      7  C6  UNL d   1       3.637   4.080  -3.636  0.00  0.00    -0.001 A 
ENDROOT
TORSDOF 0
ENDMDL
