MODEL 1
REMARK minimizedAffinity -0.493934393
REMARK minimizedRMSD -1
REMARK  0 active torsions:
REMARK  status: ('A' for Active; 'I' for Inactive)
ROOT
ATOM      1  C   UNL d   1       2.516   4.500  -1.638  0.00  0.00     0.078 C 
ATOM      2  C1  UNL d   1       3.737   4.659  -2.494  0.00  0.00    -0.077 A 
ATOM      3  C2  UNL d   1       4.864   5.343  -2.022  0.00  0.00    -0.001 A 
ATOM      4  C3  UNL d   1       5.990   5.492  -2.834  0.00  0.00     0.003 A 
ATOM      5  C4  UNL d   1       5.999   4.961  -4.122  0.00  0.00    -0.005 A 
ATOM      6  C5  UNL d   1       4.881   4.281  -4.601  0.00  0.00     0.003 A 
ATOM      7  C6  UNL d   1       3.755   4.131  -3.791  0.00  0.00    -0.001 A 
ENDROOT
TORSDOF 0
ENDMDL
