MODEL 1
REMARK minimizedAffinity -1.65907848
REMARK minimizedRMSD -1
REMARK  0 active torsions:
REMARK  status: ('A' for Active; 'I' for Inactive)
ROOT
ATOM      1  C   UNL d   1       6.000  -3.953   5.986  0.00  0.00     0.078 C 
ATOM      2  C1  UNL d   1       4.928  -3.170   5.288  0.00  0.00    -0.077 A 
ATOM      3  C2  UNL d   1       4.667  -3.361   3.926  0.00  0.00    -0.001 A 
ATOM      4  C3  UNL d   1       3.672  -2.618   3.287  0.00  0.00     0.003 A 
ATOM      5  C4  UNL d   1       2.932  -1.679   4.003  0.00  0.00    -0.005 A 
ATOM      6  C5  UNL d   1       3.186  -1.481   5.358  0.00  0.00     0.003 A 
ATOM      7  C6  UNL d   1       4.180  -2.223   5.999  0.00  0.00    -0.001 A 
ENDROOT
TORSDOF 0
ENDMDL
