MODEL 1
REMARK minimizedAffinity -1.28037834
REMARK minimizedRMSD -1
REMARK  0 active torsions:
REMARK  status: ('A' for Active; 'I' for Inactive)
ROOT
ATOM      1  C   UNL d   1       3.517  -3.002   2.103  0.00  0.00     0.078 C 
ATOM      2  C1  UNL d   1       4.135  -3.097   3.466  0.00  0.00    -0.077 A 
ATOM      3  C2  UNL d   1       3.731  -2.248   4.503  0.00  0.00    -0.001 A 
ATOM      4  C3  UNL d   1       4.322  -2.342   5.764  0.00  0.00     0.003 A 
ATOM      5  C4  UNL d   1       5.322  -3.283   5.999  0.00  0.00    -0.005 A 
ATOM      6  C5  UNL d   1       5.733  -4.131   4.973  0.00  0.00     0.003 A 
ATOM      7  C6  UNL d   1       5.143  -4.039   3.711  0.00  0.00    -0.001 A 
ENDROOT
TORSDOF 0
ENDMDL
