MODEL 1
REMARK minimizedAffinity 17.5112362
REMARK minimizedRMSD -1
REMARK  0 active torsions:
REMARK  status: ('A' for Active; 'I' for Inactive)
ROOT
ATOM      1  C   UNL d   1       5.995  -4.869   5.976  0.00  0.00     0.078 C 
ATOM      2  C1  UNL d   1       5.132  -3.857   5.283  0.00  0.00    -0.077 A 
ATOM      3  C2  UNL d   1       4.519  -2.821   5.999  0.00  0.00    -0.001 A 
ATOM      4  C3  UNL d   1       3.711  -1.892   5.342  0.00  0.00     0.003 A 
ATOM      5  C4  UNL d   1       3.506  -1.990   3.967  0.00  0.00    -0.005 A 
ATOM      6  C5  UNL d   1       4.110  -3.019   3.247  0.00  0.00     0.003 A 
ATOM      7  C6  UNL d   1       4.919  -3.949   3.902  0.00  0.00    -0.001 A 
ENDROOT
TORSDOF 0
ENDMDL
