MODEL 1
REMARK minimizedAffinity -1.24930203
REMARK minimizedRMSD -1
REMARK  0 active torsions:
REMARK  status: ('A' for Active; 'I' for Inactive)
ROOT
ATOM      1  C   UNL d   1       5.404   5.988  -1.545  0.00  0.00     0.078 C 
ATOM      2  C1  UNL d   1       5.399   5.343  -2.899  0.00  0.00    -0.077 A 
ATOM      3  C2  UNL d   1       4.825   4.081  -3.095  0.00  0.00    -0.001 A 
ATOM      4  C3  UNL d   1       4.836   3.489  -4.359  0.00  0.00     0.003 A 
ATOM      5  C4  UNL d   1       5.422   4.151  -5.437  0.00  0.00    -0.005 A 
ATOM      6  C5  UNL d   1       5.998   5.406  -5.251  0.00  0.00     0.003 A 
ATOM      7  C6  UNL d   1       5.988   5.999  -3.988  0.00  0.00    -0.001 A 
ENDROOT
TORSDOF 0
ENDMDL
