MODEL 1
REMARK minimizedAffinity 1.96704686
REMARK minimizedRMSD -1
REMARK  0 active torsions:
REMARK  status: ('A' for Active; 'I' for Inactive)
ROOT
ATOM      1  C   UNL d   1       5.998  -4.450   5.799  0.00  0.00     0.078 C 
ATOM      2  C1  UNL d   1       5.188  -3.311   5.257  0.00  0.00    -0.077 A 
ATOM      3  C2  UNL d   1       4.559  -3.401   4.009  0.00  0.00    -0.001 A 
ATOM      4  C3  UNL d   1       3.817  -2.329   3.513  0.00  0.00     0.003 A 
ATOM      5  C4  UNL d   1       3.696  -1.157   4.258  0.00  0.00    -0.005 A 
ATOM      6  C5  UNL d   1       4.320  -1.057   5.500  0.00  0.00     0.003 A 
ATOM      7  C6  UNL d   1       5.064  -2.128   5.997  0.00  0.00    -0.001 A 
ENDROOT
TORSDOF 0
ENDMDL
