MODEL 1
REMARK minimizedAffinity 0.315061152
REMARK minimizedRMSD -1
REMARK  0 active torsions:
REMARK  status: ('A' for Active; 'I' for Inactive)
ROOT
ATOM      1  C   UNL d   1       0.186  -2.156  -2.929  0.00  0.00     0.078 C 
ATOM      2  C1  UNL d   1      -0.625  -2.357  -1.684  0.00  0.00    -0.077 A 
ATOM      3  C2  UNL d   1      -0.320  -1.664  -0.506  0.00  0.00    -0.001 A 
ATOM      4  C3  UNL d   1      -1.078  -1.867   0.648  0.00  0.00     0.003 A 
ATOM      5  C4  UNL d   1      -2.144  -2.765   0.637  0.00  0.00    -0.005 A 
ATOM      6  C5  UNL d   1      -2.452  -3.461  -0.530  0.00  0.00     0.003 A 
ATOM      7  C6  UNL d   1      -1.696  -3.259  -1.686  0.00  0.00    -0.001 A 
ENDROOT
TORSDOF 0
ENDMDL
