MODEL 1
REMARK minimizedAffinity -0.642664194
REMARK minimizedRMSD -1
REMARK  0 active torsions:
REMARK  status: ('A' for Active; 'I' for Inactive)
ROOT
ATOM      1  C   UNL d   1       5.996   2.756  -4.540  0.00  0.00     0.078 C 
ATOM      2  C1  UNL d   1       5.303   3.879  -3.828  0.00  0.00    -0.077 A 
ATOM      3  C2  UNL d   1       3.965   4.189  -4.101  0.00  0.00    -0.001 A 
ATOM      4  C3  UNL d   1       3.336   5.243  -3.437  0.00  0.00     0.003 A 
ATOM      5  C4  UNL d   1       4.036   5.997  -2.498  0.00  0.00    -0.005 A 
ATOM      6  C5  UNL d   1       5.369   5.698  -2.222  0.00  0.00     0.003 A 
ATOM      7  C6  UNL d   1       6.000   4.644  -2.884  0.00  0.00    -0.001 A 
ENDROOT
TORSDOF 0
ENDMDL
