MODEL 1
REMARK minimizedAffinity 1.37717772
REMARK minimizedRMSD -1
REMARK  0 active torsions:
REMARK  status: ('A' for Active; 'I' for Inactive)
ROOT
ATOM      1  C   UNL d   1       0.002  -2.626  -1.921  0.00  0.00     0.078 C 
ATOM      2  C1  UNL d   1      -0.120  -3.077  -3.346  0.00  0.00    -0.077 A 
ATOM      3  C2  UNL d   1      -0.367  -2.158  -4.374  0.00  0.00    -0.001 A 
ATOM      4  C3  UNL d   1      -0.488  -2.593  -5.695  0.00  0.00     0.003 A 
ATOM      5  C4  UNL d   1      -0.365  -3.947  -6.000  0.00  0.00    -0.005 A 
ATOM      6  C5  UNL d   1      -0.121  -4.868  -4.984  0.00  0.00     0.003 A 
ATOM      7  C6  UNL d   1      -0.000  -4.436  -3.662  0.00  0.00    -0.001 A 
ENDROOT
TORSDOF 0
ENDMDL
