MODEL 1
REMARK minimizedAffinity -0.264407903
REMARK minimizedRMSD -1
REMARK  0 active torsions:
REMARK  status: ('A' for Active; 'I' for Inactive)
ROOT
ATOM      1  C   UNL d   1       2.132   5.999  -3.024  0.00  0.00     0.078 C 
ATOM      2  C1  UNL d   1       3.481   5.344  -3.037  0.00  0.00    -0.077 A 
ATOM      3  C2  UNL d   1       4.556   5.893  -2.327  0.00  0.00    -0.001 A 
ATOM      4  C3  UNL d   1       5.809   5.279  -2.356  0.00  0.00     0.003 A 
ATOM      5  C4  UNL d   1       5.999   4.112  -3.094  0.00  0.00    -0.005 A 
ATOM      6  C5  UNL d   1       4.936   3.559  -3.805  0.00  0.00     0.003 A 
ATOM      7  C6  UNL d   1       3.682   4.173  -3.777  0.00  0.00    -0.001 A 
ENDROOT
TORSDOF 0
ENDMDL
