MODEL 1
REMARK minimizedAffinity 1.03677547
REMARK minimizedRMSD -1
REMARK  0 active torsions:
REMARK  status: ('A' for Active; 'I' for Inactive)
ROOT
ATOM      1  C   UNL d   1      -0.883   1.962   0.679  0.00  0.00     0.078 C 
ATOM      2  C1  UNL d   1      -1.240   0.569   1.106  0.00  0.00    -0.077 A 
ATOM      3  C2  UNL d   1      -0.927  -0.534   0.303  0.00  0.00    -0.001 A 
ATOM      4  C3  UNL d   1      -1.274  -1.824   0.709  0.00  0.00     0.003 A 
ATOM      5  C4  UNL d   1      -1.937  -2.022   1.918  0.00  0.00    -0.005 A 
ATOM      6  C5  UNL d   1      -2.255  -0.930   2.723  0.00  0.00     0.003 A 
ATOM      7  C6  UNL d   1      -1.909   0.360   2.319  0.00  0.00    -0.001 A 
ENDROOT
TORSDOF 0
ENDMDL
