MODEL 1
REMARK minimizedAffinity 2.73233962
REMARK minimizedRMSD -1
REMARK  0 active torsions:
REMARK  status: ('A' for Active; 'I' for Inactive)
ROOT
ATOM      1  C   UNL d   1       2.909  -2.413  -3.104  0.00  0.00     0.078 C 
ATOM      2  C1  UNL d   1       1.459  -2.584  -2.766  0.00  0.00    -0.077 A 
ATOM      3  C2  UNL d   1       0.873  -1.863  -1.718  0.00  0.00    -0.001 A 
ATOM      4  C3  UNL d   1      -0.477  -2.039  -1.408  0.00  0.00     0.003 A 
ATOM      5  C4  UNL d   1      -1.251  -2.937  -2.140  0.00  0.00    -0.005 A 
ATOM      6  C5  UNL d   1      -0.677  -3.661  -3.182  0.00  0.00     0.003 A 
ATOM      7  C6  UNL d   1       0.673  -3.486  -3.494  0.00  0.00    -0.001 A 
ENDROOT
TORSDOF 0
ENDMDL
