MODEL 1
REMARK minimizedAffinity -1.23177087
REMARK minimizedRMSD -1
REMARK  0 active torsions:
REMARK  status: ('A' for Active; 'I' for Inactive)
ROOT
ATOM      1  C   UNL d   1       2.257   6.000  -3.262  0.00  0.00     0.078 C 
ATOM      2  C1  UNL d   1       3.562   5.269  -3.361  0.00  0.00    -0.077 A 
ATOM      3  C2  UNL d   1       3.919   4.586  -4.531  0.00  0.00    -0.001 A 
ATOM      4  C3  UNL d   1       5.133   3.902  -4.606  0.00  0.00     0.003 A 
ATOM      5  C4  UNL d   1       6.000   3.892  -3.515  0.00  0.00    -0.005 A 
ATOM      6  C5  UNL d   1       5.653   4.567  -2.347  0.00  0.00     0.003 A 
ATOM      7  C6  UNL d   1       4.439   5.252  -2.269  0.00  0.00    -0.001 A 
ENDROOT
TORSDOF 0
ENDMDL
