MODEL 1
REMARK minimizedAffinity 0.895428836
REMARK minimizedRMSD -1
REMARK  0 active torsions:
REMARK  status: ('A' for Active; 'I' for Inactive)
ROOT
ATOM      1  C   UNL d   1       4.140   5.578  -5.993  0.00  0.00     0.078 C 
ATOM      2  C1  UNL d   1       4.795   5.132  -4.720  0.00  0.00    -0.077 A 
ATOM      3  C2  UNL d   1       5.347   3.850  -4.603  0.00  0.00    -0.001 A 
ATOM      4  C3  UNL d   1       5.945   3.445  -3.409  0.00  0.00     0.003 A 
ATOM      5  C4  UNL d   1       5.996   4.315  -2.322  0.00  0.00    -0.005 A 
ATOM      6  C5  UNL d   1       5.449   5.592  -2.428  0.00  0.00     0.003 A 
ATOM      7  C6  UNL d   1       4.850   5.999  -3.621  0.00  0.00    -0.001 A 
ENDROOT
TORSDOF 0
ENDMDL
