MODEL 1
REMARK minimizedAffinity 4.05676031
REMARK minimizedRMSD -1
REMARK  0 active torsions:
REMARK  status: ('A' for Active; 'I' for Inactive)
ROOT
ATOM      1  C   UNL d   1      -0.240  -5.213  -3.736  0.00  0.00     0.078 C 
ATOM      2  C1  UNL d   1      -0.097  -3.882  -3.062  0.00  0.00    -0.077 A 
ATOM      3  C2  UNL d   1       0.649  -2.852  -3.649  0.00  0.00    -0.001 A 
ATOM      4  C3  UNL d   1       0.782  -1.621  -3.005  0.00  0.00     0.003 A 
ATOM      5  C4  UNL d   1       0.173  -1.408  -1.770  0.00  0.00    -0.005 A 
ATOM      6  C5  UNL d   1      -0.569  -2.428  -1.176  0.00  0.00     0.003 A 
ATOM      7  C6  UNL d   1      -0.703  -3.659  -1.819  0.00  0.00    -0.001 A 
ENDROOT
TORSDOF 0
ENDMDL
