MODEL 1
REMARK minimizedAffinity 2.27875185
REMARK minimizedRMSD -1
REMARK  0 active torsions:
REMARK  status: ('A' for Active; 'I' for Inactive)
ROOT
ATOM      1  C   UNL d   1       2.299   5.997  -3.751  0.00  0.00     0.078 C 
ATOM      2  C1  UNL d   1       3.589   5.313  -3.411  0.00  0.00    -0.077 A 
ATOM      3  C2  UNL d   1       4.618   5.999  -2.755  0.00  0.00    -0.001 A 
ATOM      4  C3  UNL d   1       5.817   5.353  -2.453  0.00  0.00     0.003 A 
ATOM      5  C4  UNL d   1       6.000   4.017  -2.804  0.00  0.00    -0.005 A 
ATOM      6  C5  UNL d   1       4.982   3.326  -3.459  0.00  0.00     0.003 A 
ATOM      7  C6  UNL d   1       3.782   3.971  -3.762  0.00  0.00    -0.001 A 
ENDROOT
TORSDOF 0
ENDMDL
