MODEL 1
REMARK minimizedAffinity 1.99945724
REMARK minimizedRMSD -1
REMARK  0 active torsions:
REMARK  status: ('A' for Active; 'I' for Inactive)
ROOT
ATOM      1  C   UNL d   1       3.010  -2.242   2.187  0.00  0.00     0.078 C 
ATOM      2  C1  UNL d   1       3.693  -2.291   3.521  0.00  0.00    -0.077 A 
ATOM      3  C2  UNL d   1       3.048  -1.840   4.679  0.00  0.00    -0.001 A 
ATOM      4  C3  UNL d   1       3.700  -1.883   5.913  0.00  0.00     0.003 A 
ATOM      5  C4  UNL d   1       5.001  -2.376   6.000  0.00  0.00    -0.005 A 
ATOM      6  C5  UNL d   1       5.651  -2.826   4.853  0.00  0.00     0.003 A 
ATOM      7  C6  UNL d   1       5.001  -2.783   3.618  0.00  0.00    -0.001 A 
ENDROOT
TORSDOF 0
ENDMDL
