MODEL 1
REMARK minimizedAffinity -4.21302462
REMARK minimizedRMSD -1
REMARK  1 active torsions:
REMARK  status: ('A' for Active; 'I' for Inactive)
REMARK    1  A    between atoms: C1_2  and  C2_3 
ROOT
ATOM      1  C2  UNL d   1      -0.169   0.037  -0.470  0.00  0.00    -0.076 A 
ATOM      2  C3  UNL d   1       0.035  -0.398   0.851  0.00  0.00     0.004 A 
ATOM      3  C4  UNL d   1      -0.184   0.457   1.930  0.00  0.00    -0.003 A 
ATOM      4  C5  UNL d   1      -0.612   1.761   1.705  0.00  0.00     0.000 A 
ATOM      5  C6  UNL d   1      -0.836   2.204   0.402  0.00  0.00     0.000 A 
ATOM      6  C7  UNL d   1      -0.635   1.350  -0.696  0.00  0.00    -0.073 A 
ATOM      7  C8  UNL d   1      -0.886   1.882  -2.080  0.00  0.00     0.078 C 
ENDROOT
BRANCH   1   8
ATOM      8  C1  UNL d   1       0.112  -0.926  -1.601  0.00  0.00     0.053 C 
ATOM      9  C   UNL d   1      -0.335  -2.344  -1.283  0.00  0.00     0.018 C 
ENDBRANCH   1   8
TORSDOF 1
ENDMDL
