MODEL 1
REMARK minimizedAffinity -2.1491828
REMARK minimizedRMSD -1
REMARK  1 active torsions:
REMARK  status: ('A' for Active; 'I' for Inactive)
REMARK    1  A    between atoms: C1_2  and  C2_3 
ROOT
ATOM      1  C2  UNL d   1      -0.109   0.304  -0.218  0.00  0.00    -0.076 A 
ATOM      2  C3  UNL d   1       0.614   0.022   0.954  0.00  0.00     0.004 A 
ATOM      3  C4  UNL d   1       0.470   0.812   2.094  0.00  0.00    -0.003 A 
ATOM      4  C5  UNL d   1      -0.401   1.896   2.080  0.00  0.00     0.000 A 
ATOM      5  C6  UNL d   1      -1.139   2.180   0.932  0.00  0.00     0.000 A 
ATOM      6  C7  UNL d   1      -1.018   1.384  -0.220  0.00  0.00    -0.073 A 
ATOM      7  C8  UNL d   1      -1.834   1.739  -1.433  0.00  0.00     0.078 C 
ENDROOT
BRANCH   1   8
ATOM      8  C1  UNL d   1       0.109  -0.572  -1.431  0.00  0.00     0.053 C 
ATOM      9  C   UNL d   1       0.107  -2.053  -1.089  0.00  0.00     0.018 C 
ENDBRANCH   1   8
TORSDOF 1
ENDMDL
