MODEL 1
REMARK minimizedAffinity -4.78241682
REMARK minimizedRMSD -1
REMARK  1 active torsions:
REMARK  status: ('A' for Active; 'I' for Inactive)
REMARK    1  A    between atoms: C1_2  and  C2_3 
ROOT
ATOM      1  C2  UNL d   1      -0.433   0.540   0.243  0.00  0.00    -0.076 A 
ATOM      2  C3  UNL d   1      -0.991   1.451  -0.671  0.00  0.00     0.004 A 
ATOM      3  C4  UNL d   1      -1.381   2.726  -0.265  0.00  0.00    -0.003 A 
ATOM      4  C5  UNL d   1      -1.218   3.111   1.061  0.00  0.00     0.000 A 
ATOM      5  C6  UNL d   1      -0.650   2.227   1.977  0.00  0.00     0.000 A 
ATOM      6  C7  UNL d   1      -0.237   0.943   1.581  0.00  0.00    -0.073 A 
ATOM      7  C8  UNL d   1       0.364   0.028   2.612  0.00  0.00     0.078 C 
ENDROOT
BRANCH   1   8
ATOM      8  C1  UNL d   1      -0.054  -0.839  -0.249  0.00  0.00     0.053 C 
ATOM      9  C   UNL d   1       1.093  -0.807  -1.246  0.00  0.00     0.018 C 
ENDBRANCH   1   8
TORSDOF 1
ENDMDL
