MODEL 1
REMARK minimizedAffinity -3.78795385
REMARK minimizedRMSD -1
REMARK  1 active torsions:
REMARK  status: ('A' for Active; 'I' for Inactive)
REMARK    1  A    between atoms: C1_2  and  C2_3 
ROOT
ATOM      1  C2  UNL d   1      -0.423   0.108  -0.006  0.00  0.00    -0.076 A 
ATOM      2  C3  UNL d   1      -1.638   0.761  -0.281  0.00  0.00     0.004 A 
ATOM      3  C4  UNL d   1      -2.086   1.809   0.520  0.00  0.00    -0.003 A 
ATOM      4  C5  UNL d   1      -1.328   2.223   1.609  0.00  0.00     0.000 A 
ATOM      5  C6  UNL d   1      -0.112   1.599   1.887  0.00  0.00     0.000 A 
ATOM      6  C7  UNL d   1       0.363   0.551   1.079  0.00  0.00    -0.073 A 
ATOM      7  C8  UNL d   1       1.678  -0.090   1.428  0.00  0.00     0.078 C 
ENDROOT
BRANCH   1   8
ATOM      8  C1  UNL d   1      -0.001  -1.041  -0.894  0.00  0.00     0.053 C 
ATOM      9  C   UNL d   1      -0.548  -2.377  -0.417  0.00  0.00     0.018 C 
ENDBRANCH   1   8
TORSDOF 1
ENDMDL
