MODEL 1
REMARK minimizedAffinity 7.81768417
REMARK minimizedRMSD -1
REMARK  0 active torsions:
REMARK  status: ('A' for Active; 'I' for Inactive)
ROOT
ATOM      1  N1  IND d   1       1.861   1.660   0.231  0.00  0.00    -0.196 N 
ATOM      2  C2  IND d   1       2.543   2.761   0.669  0.00  0.00     0.054 A 
ATOM      3  C3  IND d   1       3.610   2.388   1.412  0.00  0.00    -0.031 A 
ATOM      4  C4  IND d   1       4.482   0.027   1.952  0.00  0.00     0.051 A 
ATOM      5  C5  IND d   1       4.172  -1.296   1.803  0.00  0.00    -0.031 A 
ATOM      6  C6  IND d   1       3.055  -1.710   1.106  0.00  0.00     0.015 A 
ATOM      7  C7  IND d   1       2.208  -0.812   0.520  0.00  0.00    -0.016 A 
ATOM      8  C8  IND d   1       2.516   0.532   0.675  0.00  0.00    -0.047 A 
ATOM      9  C9  IND d   1       3.625   0.959   1.417  0.00  0.00    -0.096 A 
ATOM     10  HN1 IND d   1       1.143   1.670  -0.242  0.00  0.00     0.298 HD
ENDROOT
TORSDOF 0
ENDMDL
