MODEL 1
REMARK minimizedAffinity 2.23313785
REMARK minimizedRMSD -1
REMARK  0 active torsions:
REMARK  status: ('A' for Active; 'I' for Inactive)
ROOT
ATOM      1  N1  IND d   1       1.062   3.029  -0.154  0.00  0.00    -0.196 N 
ATOM      2  C2  IND d   1      -0.196   2.529  -0.341  0.00  0.00     0.054 A 
ATOM      3  C3  IND d   1      -0.165   1.178  -0.379  0.00  0.00    -0.031 A 
ATOM      4  C4  IND d   1       1.826  -0.422  -0.052  0.00  0.00     0.051 A 
ATOM      5  C5  IND d   1       3.183  -0.434   0.111  0.00  0.00    -0.031 A 
ATOM      6  C6  IND d   1       3.917   0.732   0.198  0.00  0.00     0.015 A 
ATOM      7  C7  IND d   1       3.317   1.958   0.137  0.00  0.00    -0.016 A 
ATOM      8  C8  IND d   1       1.940   1.973  -0.035  0.00  0.00    -0.047 A 
ATOM      9  C9  IND d   1       1.195   0.794  -0.167  0.00  0.00    -0.096 A 
ATOM     10  HN1 IND d   1       1.271   3.862  -0.117  0.00  0.00     0.298 HD
ENDROOT
TORSDOF 0
ENDMDL
