MODEL 1
REMARK minimizedAffinity 4.71876907
REMARK minimizedRMSD -1
REMARK  0 active torsions:
REMARK  status: ('A' for Active; 'I' for Inactive)
ROOT
ATOM      1  N1  IND d   1       1.462   2.810   0.336  0.00  0.00    -0.196 N 
ATOM      2  C2  IND d   1       0.204   2.286   0.232  0.00  0.00     0.054 A 
ATOM      3  C3  IND d   1       0.254   0.935   0.251  0.00  0.00    -0.031 A 
ATOM      4  C4  IND d   1       2.283  -0.622   0.550  0.00  0.00     0.051 A 
ATOM      5  C5  IND d   1       3.646  -0.608   0.647  0.00  0.00    -0.031 A 
ATOM      6  C6  IND d   1       4.365   0.570   0.649  0.00  0.00     0.015 A 
ATOM      7  C7  IND d   1       3.744   1.784   0.564  0.00  0.00    -0.016 A 
ATOM      8  C8  IND d   1       2.360   1.773   0.458  0.00  0.00    -0.047 A 
ATOM      9  C9  IND d   1       1.628   0.580   0.413  0.00  0.00    -0.096 A 
ATOM     10  HN1 IND d   1       1.658   3.647   0.328  0.00  0.00     0.298 HD
ENDROOT
TORSDOF 0
ENDMDL
