MODEL 1
REMARK minimizedAffinity 4.50260878
REMARK minimizedRMSD -1
REMARK  0 active torsions:
REMARK  status: ('A' for Active; 'I' for Inactive)
ROOT
ATOM      1  N1  IND d   1       1.520   2.543  -0.085  0.00  0.00    -0.196 N 
ATOM      2  C2  IND d   1       0.257   2.152  -0.436  0.00  0.00     0.054 A 
ATOM      3  C3  IND d   1       0.199   0.808  -0.564  0.00  0.00    -0.031 A 
ATOM      4  C4  IND d   1       2.028  -0.955  -0.148  0.00  0.00     0.051 A 
ATOM      5  C5  IND d   1       3.356  -1.080   0.153  0.00  0.00    -0.031 A 
ATOM      6  C6  IND d   1       4.154   0.018   0.397  0.00  0.00     0.015 A 
ATOM      7  C7  IND d   1       3.651   1.287   0.360  0.00  0.00    -0.016 A 
ATOM      8  C8  IND d   1       2.305   1.418   0.049  0.00  0.00    -0.047 A 
ATOM      9  C9  IND d   1       1.499   0.310  -0.242  0.00  0.00    -0.096 A 
ATOM     10  HN1 IND d   1       1.780   3.354   0.031  0.00  0.00     0.298 HD
ENDROOT
TORSDOF 0
ENDMDL
