MODEL 1
REMARK minimizedAffinity 5.77292585
REMARK minimizedRMSD -1
REMARK  0 active torsions:
REMARK  status: ('A' for Active; 'I' for Inactive)
ROOT
ATOM      1  N1  IND d   1       1.080   1.738  -0.102  0.00  0.00    -0.196 N 
ATOM      2  C2  IND d   1       1.751   2.763   0.505  0.00  0.00     0.054 A 
ATOM      3  C3  IND d   1       2.986   2.360   0.879  0.00  0.00    -0.031 A 
ATOM      4  C4  IND d   1       4.151   0.095   0.505  0.00  0.00     0.051 A 
ATOM      5  C5  IND d   1       3.927  -1.166   0.028  0.00  0.00    -0.031 A 
ATOM      6  C6  IND d   1       2.718  -1.530  -0.530  0.00  0.00     0.015 A 
ATOM      7  C7  IND d   1       1.689  -0.639  -0.643  0.00  0.00    -0.016 A 
ATOM      8  C8  IND d   1       1.911   0.640  -0.154  0.00  0.00    -0.047 A 
ATOM      9  C9  IND d   1       3.121   1.003   0.452  0.00  0.00    -0.096 A 
ATOM     10  HN1 IND d   1       0.275   1.774  -0.401  0.00  0.00     0.298 HD
ENDROOT
TORSDOF 0
ENDMDL
