MODEL 1
REMARK minimizedAffinity 7.62290335
REMARK minimizedRMSD -1
REMARK  0 active torsions:
REMARK  status: ('A' for Active; 'I' for Inactive)
ROOT
ATOM      1  N1  IND d   1       2.703   1.347  -0.165  0.00  0.00    -0.196 N 
ATOM      2  C2  IND d   1       3.504   0.488   0.535  0.00  0.00     0.054 A 
ATOM      3  C3  IND d   1       2.934   0.174   1.719  0.00  0.00    -0.031 A 
ATOM      4  C4  IND d   1       0.645   0.872   2.670  0.00  0.00     0.051 A 
ATOM      5  C5  IND d   1      -0.428   1.678   2.411  0.00  0.00    -0.031 A 
ATOM      6  C6  IND d   1      -0.516   2.427   1.256  0.00  0.00     0.015 A 
ATOM      7  C7  IND d   1       0.466   2.390   0.307  0.00  0.00    -0.016 A 
ATOM      8  C8  IND d   1       1.561   1.579   0.569  0.00  0.00    -0.047 A 
ATOM      9  C9  IND d   1       1.675   0.849   1.759  0.00  0.00    -0.096 A 
ATOM     10  HN1 IND d   1       2.883   1.686  -0.935  0.00  0.00     0.298 HD
ENDROOT
TORSDOF 0
ENDMDL
