MODEL 1
REMARK minimizedAffinity 8.0874567
REMARK minimizedRMSD -1
REMARK  0 active torsions:
REMARK  status: ('A' for Active; 'I' for Inactive)
ROOT
ATOM      1  N1  IND d   1       3.447  -1.169   0.256  0.00  0.00    -0.196 N 
ATOM      2  C2  IND d   1       2.546  -2.142  -0.079  0.00  0.00     0.054 A 
ATOM      3  C3  IND d   1       1.354  -1.589  -0.396  0.00  0.00    -0.031 A 
ATOM      4  C4  IND d   1       0.686   0.893  -0.532  0.00  0.00     0.051 A 
ATOM      5  C5  IND d   1       1.158   2.151  -0.282  0.00  0.00    -0.031 A 
ATOM      6  C6  IND d   1       2.444   2.371   0.166  0.00  0.00     0.015 A 
ATOM      7  C7  IND d   1       3.314   1.337   0.372  0.00  0.00    -0.016 A 
ATOM      8  C8  IND d   1       2.835   0.058   0.126  0.00  0.00    -0.047 A 
ATOM      9  C9  IND d   1       1.518  -0.174  -0.289  0.00  0.00    -0.096 A 
ATOM     10  HN1 IND d   1       4.259  -1.302   0.506  0.00  0.00     0.298 HD
ENDROOT
TORSDOF 0
ENDMDL
