MODEL 1
REMARK minimizedAffinity 8.06576061
REMARK minimizedRMSD -1
REMARK  0 active torsions:
REMARK  status: ('A' for Active; 'I' for Inactive)
ROOT
ATOM      1  N1  IND d   1       1.025  -0.899   0.576  0.00  0.00    -0.196 N 
ATOM      2  C2  IND d   1       1.645  -1.998   0.048  0.00  0.00     0.054 A 
ATOM      3  C3  IND d   1       2.882  -1.673  -0.390  0.00  0.00    -0.031 A 
ATOM      4  C4  IND d   1       4.130   0.574  -0.251  0.00  0.00     0.051 A 
ATOM      5  C5  IND d   1       3.960   1.880   0.114  0.00  0.00    -0.031 A 
ATOM      6  C6  IND d   1       2.780   2.335   0.665  0.00  0.00     0.015 A 
ATOM      7  C7  IND d   1       1.725   1.494   0.883  0.00  0.00    -0.016 A 
ATOM      8  C8  IND d   1       1.892   0.169   0.507  0.00  0.00    -0.047 A 
ATOM      9  C9  IND d   1       3.072  -0.289  -0.092  0.00  0.00    -0.096 A 
ATOM     10  HN1 IND d   1       0.227  -0.879   0.896  0.00  0.00     0.298 HD
ENDROOT
TORSDOF 0
ENDMDL
