MODEL 1
REMARK minimizedAffinity -1.05715466
REMARK minimizedRMSD -1
REMARK  0 active torsions:
REMARK  status: ('A' for Active; 'I' for Inactive)
ROOT
ATOM      1  N1  IND d   1       2.574   1.884  -0.654  0.00  0.00    -0.196 N 
ATOM      2  C2  IND d   1       3.623   1.100  -0.262  0.00  0.00     0.054 A 
ATOM      3  C3  IND d   1       3.305   0.415   0.859  0.00  0.00    -0.031 A 
ATOM      4  C4  IND d   1       1.086   0.349   2.162  0.00  0.00     0.051 A 
ATOM      5  C5  IND d   1      -0.153   0.924   2.209  0.00  0.00    -0.031 A 
ATOM      6  C6  IND d   1      -0.555   1.865   1.284  0.00  0.00     0.015 A 
ATOM      7  C7  IND d   1       0.266   2.260   0.266  0.00  0.00    -0.016 A 
ATOM      8  C8  IND d   1       1.527   1.684   0.219  0.00  0.00    -0.047 A 
ATOM      9  C9  IND d   1       1.957   0.759   1.180  0.00  0.00    -0.096 A 
ATOM     10  HN1 IND d   1       2.568   2.413  -1.332  0.00  0.00     0.298 HD
ENDROOT
TORSDOF 0
ENDMDL
