MODEL 1
REMARK minimizedAffinity 2.75879025
REMARK minimizedRMSD -1
REMARK  0 active torsions:
REMARK  status: ('A' for Active; 'I' for Inactive)
ROOT
ATOM      1  N1  IND d   1       0.564  -1.722  -1.211  0.00  0.00    -0.196 N 
ATOM      2  C2  IND d   1       0.817  -3.054  -1.043  0.00  0.00     0.054 A 
ATOM      3  C3  IND d   1       1.968  -3.231  -0.356  0.00  0.00    -0.031 A 
ATOM      4  C4  IND d   1       3.542  -1.476   0.679  0.00  0.00     0.051 A 
ATOM      5  C5  IND d   1       3.747  -0.127   0.758  0.00  0.00    -0.031 A 
ATOM      6  C6  IND d   1       2.883   0.777   0.175  0.00  0.00     0.015 A 
ATOM      7  C7  IND d   1       1.771   0.365  -0.502  0.00  0.00    -0.016 A 
ATOM      8  C8  IND d   1       1.562  -1.004  -0.590  0.00  0.00    -0.047 A 
ATOM      9  C9  IND d   1       2.458  -1.928  -0.037  0.00  0.00    -0.096 A 
ATOM     10  HN1 IND d   1      -0.106  -1.388  -1.634  0.00  0.00     0.298 HD
ENDROOT
TORSDOF 0
ENDMDL
