MODEL 1
REMARK minimizedAffinity -0.336820424
REMARK minimizedRMSD -1
REMARK  0 active torsions:
REMARK  status: ('A' for Active; 'I' for Inactive)
ROOT
ATOM      1  N1  IND d   1       0.221   1.103  -0.905  0.00  0.00    -0.196 N 
ATOM      2  C2  IND d   1       0.514   2.204  -0.149  0.00  0.00     0.054 A 
ATOM      3  C3  IND d   1       1.634   1.992   0.577  0.00  0.00    -0.031 A 
ATOM      4  C4  IND d   1       3.205  -0.048   0.602  0.00  0.00     0.051 A 
ATOM      5  C5  IND d   1       3.333  -1.315   0.106  0.00  0.00    -0.031 A 
ATOM      6  C6  IND d   1       2.413  -1.851  -0.772  0.00  0.00     0.015 A 
ATOM      7  C7  IND d   1       1.332  -1.132  -1.198  0.00  0.00    -0.016 A 
ATOM      8  C8  IND d   1       1.195   0.153  -0.690  0.00  0.00    -0.047 A 
ATOM      9  C9  IND d   1       2.102   0.686   0.234  0.00  0.00    -0.096 A 
ATOM     10  HN1 IND d   1      -0.458   1.018  -1.426  0.00  0.00     0.298 HD
ENDROOT
TORSDOF 0
ENDMDL
