MODEL 1
REMARK minimizedAffinity 4.60864496
REMARK minimizedRMSD -1
REMARK  0 active torsions:
REMARK  status: ('A' for Active; 'I' for Inactive)
ROOT
ATOM      1  N1  IND d   1       1.241   1.301  -0.441  0.00  0.00    -0.196 N 
ATOM      2  C2  IND d   1       2.588   1.522  -0.373  0.00  0.00     0.054 A 
ATOM      3  C3  IND d   1       3.261   0.351  -0.430  0.00  0.00    -0.031 A 
ATOM      4  C4  IND d   1       2.358  -2.040  -0.739  0.00  0.00     0.051 A 
ATOM      5  C5  IND d   1       1.193  -2.751  -0.813  0.00  0.00    -0.031 A 
ATOM      6  C6  IND d   1      -0.041  -2.134  -0.769  0.00  0.00     0.015 A 
ATOM      7  C7  IND d   1      -0.156  -0.777  -0.660  0.00  0.00    -0.016 A 
ATOM      8  C8  IND d   1       1.025  -0.053  -0.577  0.00  0.00    -0.047 A 
ATOM      9  C9  IND d   1       2.280  -0.677  -0.579  0.00  0.00    -0.096 A 
ATOM     10  HN1 IND d   1       0.630   1.905  -0.405  0.00  0.00     0.298 HD
ENDROOT
TORSDOF 0
ENDMDL
