MODEL 1
REMARK minimizedAffinity -2.83839202
REMARK minimizedRMSD -1
REMARK  1 active torsions:
REMARK  status: ('A' for Active; 'I' for Inactive)
REMARK    1  A    between atoms: C1_2  and  C2_3 
ROOT
ATOM      1  C2  UNL d   1      -1.311  -2.374  -1.643  0.00  0.00    -0.077 A 
ATOM      2  C3  UNL d   1      -0.848  -3.562  -1.062  0.00  0.00     0.002 A 
ATOM      3  C4  UNL d   1      -0.695  -4.714  -1.836  0.00  0.00     0.002 A 
ATOM      4  C5  UNL d   1      -0.998  -4.687  -3.196  0.00  0.00    -0.004 A 
ATOM      5  C6  UNL d   1      -1.460  -3.510  -3.783  0.00  0.00     0.002 A 
ATOM      6  C7  UNL d   1      -1.616  -2.358  -3.010  0.00  0.00     0.002 A 
ENDROOT
BRANCH   1   7
ATOM      7  C1  UNL d   1      -1.430  -1.117  -0.820  0.00  0.00     0.055 C 
ATOM      8  C   UNL d   1      -0.092  -0.725  -0.211  0.00  0.00     0.019 C 
ENDBRANCH   1   7
TORSDOF 1
ENDMDL
