MODEL 1
REMARK minimizedAffinity 0.68682301
REMARK minimizedRMSD -1
REMARK  1 active torsions:
REMARK  status: ('A' for Active; 'I' for Inactive)
REMARK    1  A    between atoms: C1_2  and  C2_3 
ROOT
ATOM      1  C2  UNL d   1      -1.211  -3.500  -2.120  0.00  0.00    -0.077 A 
ATOM      2  C3  UNL d   1      -0.041  -3.163  -1.423  0.00  0.00     0.002 A 
ATOM      3  C4  UNL d   1       0.069  -1.927  -0.785  0.00  0.00     0.002 A 
ATOM      4  C5  UNL d   1      -0.988  -1.019  -0.832  0.00  0.00    -0.004 A 
ATOM      5  C6  UNL d   1      -2.154  -1.344  -1.524  0.00  0.00     0.002 A 
ATOM      6  C7  UNL d   1      -2.265  -2.579  -2.164  0.00  0.00     0.002 A 
ENDROOT
BRANCH   1   7
ATOM      7  C1  UNL d   1      -1.350  -4.853  -2.768  0.00  0.00     0.055 C 
ATOM      8  C   UNL d   1      -0.008  -5.368  -3.267  0.00  0.00     0.019 C 
ENDBRANCH   1   7
TORSDOF 1
ENDMDL
