MODEL 1
REMARK minimizedAffinity -0.927541435
REMARK minimizedRMSD -1
REMARK  1 active torsions:
REMARK  status: ('A' for Active; 'I' for Inactive)
REMARK    1  A    between atoms: C1_2  and  C2_3 
ROOT
ATOM      1  C2  UNL d   1       1.825   0.652   1.386  0.00  0.00    -0.077 A 
ATOM      2  C3  UNL d   1       2.958   0.015   0.862  0.00  0.00     0.002 A 
ATOM      3  C4  UNL d   1       2.821  -1.068  -0.009  0.00  0.00     0.002 A 
ATOM      4  C5  UNL d   1       1.552  -1.519  -0.368  0.00  0.00    -0.004 A 
ATOM      5  C6  UNL d   1       0.419  -0.892   0.149  0.00  0.00     0.002 A 
ATOM      6  C7  UNL d   1       0.554   0.189   1.021  0.00  0.00     0.002 A 
ENDROOT
BRANCH   1   7
ATOM      7  C1  UNL d   1       1.970   1.851   2.287  0.00  0.00     0.055 C 
ATOM      8  C   UNL d   1       3.168   1.703   3.215  0.00  0.00     0.019 C 
ENDBRANCH   1   7
TORSDOF 1
ENDMDL
