MODEL 1
REMARK minimizedAffinity 0.802220523
REMARK minimizedRMSD -1
REMARK  1 active torsions:
REMARK  status: ('A' for Active; 'I' for Inactive)
REMARK    1  A    between atoms: C1_2  and  C2_3 
ROOT
ATOM      1  C2  UNL d   1       1.756   1.262  -0.830  0.00  0.00    -0.077 A 
ATOM      2  C3  UNL d   1       1.938   1.303  -2.220  0.00  0.00     0.002 A 
ATOM      3  C4  UNL d   1       2.425   2.458  -2.834  0.00  0.00     0.002 A 
ATOM      4  C5  UNL d   1       2.739   3.578  -2.067  0.00  0.00    -0.004 A 
ATOM      5  C6  UNL d   1       2.559   3.548  -0.685  0.00  0.00     0.002 A 
ATOM      6  C7  UNL d   1       2.071   2.395  -0.069  0.00  0.00     0.002 A 
ENDROOT
BRANCH   1   7
ATOM      7  C1  UNL d   1       1.277   0.001  -0.160  0.00  0.00     0.055 C 
ATOM      8  C   UNL d   1      -0.114  -0.387  -0.640  0.00  0.00     0.019 C 
ENDBRANCH   1   7
TORSDOF 1
ENDMDL
