MODEL 1
REMARK minimizedAffinity 4.97712564
REMARK minimizedRMSD -1
REMARK  1 active torsions:
REMARK  status: ('A' for Active; 'I' for Inactive)
REMARK    1  A    between atoms: C1_2  and  C2_3 
ROOT
ATOM      1  C2  UNL d   1      -0.763  -5.251  -3.914  0.00  0.00    -0.077 A 
ATOM      2  C3  UNL d   1       0.589  -5.531  -4.156  0.00  0.00     0.002 A 
ATOM      3  C4  UNL d   1       1.301  -4.805  -5.114  0.00  0.00     0.002 A 
ATOM      4  C5  UNL d   1       0.670  -3.793  -5.833  0.00  0.00    -0.004 A 
ATOM      5  C6  UNL d   1      -0.675  -3.508  -5.601  0.00  0.00     0.002 A 
ATOM      6  C7  UNL d   1      -1.388  -4.233  -4.646  0.00  0.00     0.002 A 
ENDROOT
BRANCH   1   7
ATOM      7  C1  UNL d   1      -1.519  -6.000  -2.848  0.00  0.00     0.055 C 
ATOM      8  C   UNL d   1      -0.760  -6.000  -1.529  0.00  0.00     0.019 C 
ENDBRANCH   1   7
TORSDOF 1
ENDMDL
