MODEL 1
REMARK minimizedAffinity 2.52393985
REMARK minimizedRMSD -1
REMARK  1 active torsions:
REMARK  status: ('A' for Active; 'I' for Inactive)
REMARK    1  A    between atoms: C1_2  and  C2_3 
ROOT
ATOM      1  C2  UNL d   1      -3.607   0.016   0.173  0.00  0.00    -0.077 A 
ATOM      2  C3  UNL d   1      -3.326  -1.308   0.539  0.00  0.00     0.002 A 
ATOM      3  C4  UNL d   1      -2.664  -1.585   1.737  0.00  0.00     0.002 A 
ATOM      4  C5  UNL d   1      -2.282  -0.543   2.581  0.00  0.00    -0.004 A 
ATOM      5  C6  UNL d   1      -2.556   0.777   2.225  0.00  0.00     0.002 A 
ATOM      6  C7  UNL d   1      -3.216   1.055   1.027  0.00  0.00     0.002 A 
ENDROOT
BRANCH   1   7
ATOM      7  C1  UNL d   1      -4.364   0.313  -1.095  0.00  0.00     0.055 C 
ATOM      8  C   UNL d   1      -3.858  -0.534  -2.253  0.00  0.00     0.019 C 
ENDBRANCH   1   7
TORSDOF 1
ENDMDL
