MODEL 1
REMARK minimizedAffinity 14.0371275
REMARK minimizedRMSD -1
REMARK  1 active torsions:
REMARK  status: ('A' for Active; 'I' for Inactive)
REMARK    1  A    between atoms: N_2  and  C1_3 
ROOT
ATOM      1  C1  UNL d   1       1.802  -0.078   2.226  0.00  0.00     0.143 A 
ATOM      2  C2  UNL d   1       1.974  -0.727   3.453  0.00  0.00    -0.057 A 
ATOM      3  C3  UNL d   1       1.619  -2.072   3.620  0.00  0.00     0.033 A 
ATOM      4  C4  UNL d   1       1.057  -2.784   2.566  0.00  0.00    -0.042 A 
ATOM      5  C5  UNL d   1       0.854  -2.152   1.344  0.00  0.00     0.033 A 
ATOM      6  C6  UNL d   1       1.217  -0.812   1.182  0.00  0.00    -0.057 A 
ENDROOT
BRANCH   1   7
ATOM      7  N   UNL d   1       2.044   1.283   2.025  0.00  0.00    -0.732 N 
ATOM      8  C   UNL d   1       1.960   2.217   3.128  0.00  0.00     0.284 C 
ATOM      9  H3  UNL d   1       2.827   1.450   1.398  0.00  0.00     0.395 HD
ENDBRANCH   1   7
TORSDOF 1
ENDMDL
