MODEL 1
REMARK minimizedAffinity 13.2167435
REMARK minimizedRMSD -1
REMARK  1 active torsions:
REMARK  status: ('A' for Active; 'I' for Inactive)
REMARK    1  A    between atoms: N_2  and  C1_3 
ROOT
ATOM      1  C1  UNL d   1      -3.010   2.078  -0.607  0.00  0.00     0.143 A 
ATOM      2  C2  UNL d   1      -2.690   0.750  -0.910  0.00  0.00    -0.057 A 
ATOM      3  C3  UNL d   1      -2.813   0.253  -2.213  0.00  0.00     0.033 A 
ATOM      4  C4  UNL d   1      -3.288   1.069  -3.234  0.00  0.00    -0.042 A 
ATOM      5  C5  UNL d   1      -3.637   2.385  -2.951  0.00  0.00     0.033 A 
ATOM      6  C6  UNL d   1      -3.505   2.878  -1.649  0.00  0.00    -0.057 A 
ENDROOT
BRANCH   1   7
ATOM      7  N   UNL d   1      -3.003   2.604   0.687  0.00  0.00    -0.732 N 
ATOM      8  C   UNL d   1      -4.219   3.117   1.281  0.00  0.00     0.284 C 
ATOM      9  H3  UNL d   1      -2.427   2.059   1.324  0.00  0.00     0.395 HD
ENDBRANCH   1   7
TORSDOF 1
ENDMDL
