MODEL 1
REMARK minimizedAffinity 9.12744045
REMARK minimizedRMSD -1
REMARK  1 active torsions:
REMARK  status: ('A' for Active; 'I' for Inactive)
REMARK    1  A    between atoms: N_2  and  C1_3 
ROOT
ATOM      1  C1  UNL d   1       4.196  -3.213   4.188  0.00  0.00     0.143 A 
ATOM      2  C2  UNL d   1       3.039  -2.434   4.301  0.00  0.00    -0.057 A 
ATOM      3  C3  UNL d   1       1.797  -2.913   3.867  0.00  0.00     0.033 A 
ATOM      4  C4  UNL d   1       1.695  -4.172   3.286  0.00  0.00    -0.042 A 
ATOM      5  C5  UNL d   1       2.835  -4.953   3.141  0.00  0.00     0.033 A 
ATOM      6  C6  UNL d   1       4.072  -4.472   3.581  0.00  0.00    -0.057 A 
ENDROOT
BRANCH   1   7
ATOM      7  N   UNL d   1       5.476  -2.755   4.510  0.00  0.00    -0.732 N 
ATOM      8  C   UNL d   1       5.997  -2.905   5.852  0.00  0.00     0.284 C 
ATOM      9  H3  UNL d   1       6.154  -2.949   3.776  0.00  0.00     0.395 HD
ENDBRANCH   1   7
TORSDOF 1
ENDMDL
