MODEL 1
REMARK minimizedAffinity 4.32381773
REMARK minimizedRMSD -1
REMARK  1 active torsions:
REMARK  status: ('A' for Active; 'I' for Inactive)
REMARK    1  A    between atoms: N_2  and  C1_3 
ROOT
ATOM      1  C1  UNL d   1       4.323  -5.178   2.551  0.00  0.00     0.143 A 
ATOM      2  C2  UNL d   1       5.624  -4.666   2.618  0.00  0.00    -0.057 A 
ATOM      3  C3  UNL d   1       5.999  -3.767   3.624  0.00  0.00     0.033 A 
ATOM      4  C4  UNL d   1       5.069  -3.340   4.566  0.00  0.00    -0.042 A 
ATOM      5  C5  UNL d   1       3.764  -3.816   4.504  0.00  0.00     0.033 A 
ATOM      6  C6  UNL d   1       3.397  -4.719   3.501  0.00  0.00    -0.057 A 
ENDROOT
BRANCH   1   7
ATOM      7  N   UNL d   1       3.863  -5.998   1.518  0.00  0.00    -0.732 N 
ATOM      8  C   UNL d   1       2.464  -6.000   1.147  0.00  0.00     0.284 C 
ATOM      9  H3  UNL d   1       4.503  -6.023   0.727  0.00  0.00     0.395 HD
ENDBRANCH   1   7
TORSDOF 1
ENDMDL
