MODEL 1
REMARK minimizedAffinity 2.15178347
REMARK minimizedRMSD -1
REMARK  1 active torsions:
REMARK  status: ('A' for Active; 'I' for Inactive)
REMARK    1  A    between atoms: N_2  and  C1_3 
ROOT
ATOM      1  C1  UNL d   1       4.013  -2.984   3.757  0.00  0.00     0.143 A 
ATOM      2  C2  UNL d   1       3.122  -3.357   4.769  0.00  0.00    -0.057 A 
ATOM      3  C3  UNL d   1       1.774  -2.980   4.726  0.00  0.00     0.033 A 
ATOM      4  C4  UNL d   1       1.298  -2.196   3.680  0.00  0.00    -0.042 A 
ATOM      5  C5  UNL d   1       2.171  -1.793   2.675  0.00  0.00     0.033 A 
ATOM      6  C6  UNL d   1       3.514  -2.178   2.721  0.00  0.00    -0.057 A 
ENDROOT
BRANCH   1   7
ATOM      7  N   UNL d   1       5.385  -3.244   3.793  0.00  0.00    -0.732 N 
ATOM      8  C   UNL d   1       6.000  -4.097   2.799  0.00  0.00     0.284 C 
ATOM      9  H3  UNL d   1       5.931  -2.418   4.027  0.00  0.00     0.395 HD
ENDBRANCH   1   7
TORSDOF 1
ENDMDL
