MODEL 1
REMARK minimizedAffinity 12.4278994
REMARK minimizedRMSD -1
REMARK  0 active torsions:
REMARK  status: ('A' for Active; 'I' for Inactive)
ROOT
ATOM      1  C   UNL d   1       0.858   3.534   0.484  0.00  0.00     0.124 A 
ATOM      2  C1  UNL d   1       0.468   2.270   0.064  0.00  0.00     0.062 A 
ATOM      3  C2  UNL d   1      -0.779   1.766   0.424  0.00  0.00     0.162 A 
ATOM      4  C3  UNL d   1      -1.646   2.528   1.208  0.00  0.00    -0.034 A 
ATOM      5  C4  UNL d   1      -1.246   3.798   1.627  0.00  0.00     0.162 A 
ATOM      6  C5  UNL d   1       0.001   4.297   1.264  0.00  0.00     0.062 A 
ATOM      7  F   UNL d   1       0.376   5.518   1.671  0.00  0.00    -0.097 F 
ATOM      8  F1  UNL d   1      -2.055   4.557   2.381  0.00  0.00    -0.096 F 
ATOM      9  I   UNL d   1      -3.511   1.779   1.748  0.00  0.00    -0.060 I 
ATOM     10  F2  UNL d   1      -1.129   0.541   0.005  0.00  0.00    -0.096 F 
ATOM     11  F3  UNL d   1       1.294   1.530  -0.689  0.00  0.00    -0.097 F 
ATOM     12  F4  UNL d   1       2.058   4.015   0.137  0.00  0.00    -0.092 F 
ENDROOT
TORSDOF 0
ENDMDL
