MODEL 1
REMARK minimizedAffinity 12.1430645
REMARK minimizedRMSD -1
REMARK  0 active torsions:
REMARK  status: ('A' for Active; 'I' for Inactive)
ROOT
ATOM      1  C   UNL d   1      -0.161  -3.965  -0.997  0.00  0.00     0.124 A 
ATOM      2  C1  UNL d   1      -0.664  -2.749  -1.440  0.00  0.00     0.062 A 
ATOM      3  C2  UNL d   1       0.101  -1.592  -1.327  0.00  0.00     0.162 A 
ATOM      4  C3  UNL d   1       1.378  -1.645  -0.770  0.00  0.00    -0.034 A 
ATOM      5  C4  UNL d   1       1.877  -2.870  -0.325  0.00  0.00     0.162 A 
ATOM      6  C5  UNL d   1       1.109  -4.024  -0.440  0.00  0.00     0.062 A 
ATOM      7  F   UNL d   1       1.596  -5.197  -0.011  0.00  0.00    -0.097 F 
ATOM      8  F1  UNL d   1       3.101  -2.957   0.216  0.00  0.00    -0.096 F 
ATOM      9  I   UNL d   1       2.525   0.084  -0.599  0.00  0.00    -0.060 I 
ATOM     10  F2  UNL d   1      -0.411  -0.432  -1.764  0.00  0.00    -0.096 F 
ATOM     11  F3  UNL d   1      -1.891  -2.689  -1.977  0.00  0.00    -0.097 F 
ATOM     12  F4  UNL d   1      -0.900  -5.077  -1.105  0.00  0.00    -0.092 F 
ENDROOT
TORSDOF 0
ENDMDL
