MODEL 1
REMARK minimizedAffinity 1.46158969
REMARK minimizedRMSD -1
REMARK  0 active torsions:
REMARK  status: ('A' for Active; 'I' for Inactive)
ROOT
ATOM      1  C   UNL d   1      -0.245   2.050   1.172  0.00  0.00     0.124 A 
ATOM      2  C1  UNL d   1      -1.373   2.333   1.930  0.00  0.00     0.062 A 
ATOM      3  C2  UNL d   1      -2.639   2.026   1.441  0.00  0.00     0.162 A 
ATOM      4  C3  UNL d   1      -2.785   1.431   0.187  0.00  0.00    -0.034 A 
ATOM      5  C4  UNL d   1      -1.646   1.150  -0.569  0.00  0.00     0.162 A 
ATOM      6  C5  UNL d   1      -0.382   1.459  -0.076  0.00  0.00     0.062 A 
ATOM      7  F   UNL d   1       0.707   1.185  -0.810  0.00  0.00    -0.097 F 
ATOM      8  F1  UNL d   1      -1.749   0.579  -1.778  0.00  0.00    -0.096 F 
ATOM      9  I   UNL d   1      -4.677   0.971  -0.547  0.00  0.00    -0.060 I 
ATOM     10  F2  UNL d   1      -3.712   2.310   2.195  0.00  0.00    -0.096 F 
ATOM     11  F3  UNL d   1      -1.243   2.904   3.136  0.00  0.00    -0.097 F 
ATOM     12  F4  UNL d   1       0.973   2.347   1.644  0.00  0.00    -0.092 F 
ENDROOT
TORSDOF 0
ENDMDL
