MODEL 1
REMARK minimizedAffinity 13.2392368
REMARK minimizedRMSD -1
REMARK  0 active torsions:
REMARK  status: ('A' for Active; 'I' for Inactive)
ROOT
ATOM      1  C   UNL d   1       0.082  -3.712  -0.267  0.00  0.00     0.124 A 
ATOM      2  C1  UNL d   1       1.331  -3.554   0.319  0.00  0.00     0.062 A 
ATOM      3  C2  UNL d   1       1.970  -2.318   0.282  0.00  0.00     0.162 A 
ATOM      4  C3  UNL d   1       1.360  -1.228  -0.341  0.00  0.00    -0.034 A 
ATOM      5  C4  UNL d   1       0.105  -1.395  -0.928  0.00  0.00     0.162 A 
ATOM      6  C5  UNL d   1      -0.529  -2.633  -0.889  0.00  0.00     0.062 A 
ATOM      7  F   UNL d   1      -1.736  -2.784  -1.455  0.00  0.00    -0.097 F 
ATOM      8  F1  UNL d   1      -0.510  -0.369  -1.536  0.00  0.00    -0.096 F 
ATOM      9  I   UNL d   1       2.312   0.621  -0.397  0.00  0.00    -0.060 I 
ATOM     10  F2  UNL d   1       3.176  -2.194   0.856  0.00  0.00    -0.096 F 
ATOM     11  F3  UNL d   1       1.924  -4.595   0.920  0.00  0.00    -0.097 F 
ATOM     12  F4  UNL d   1      -0.530  -4.902  -0.231  0.00  0.00    -0.092 F 
ENDROOT
TORSDOF 0
ENDMDL
