MODEL 1
REMARK minimizedAffinity 14.15382
REMARK minimizedRMSD -1
REMARK  0 active torsions:
REMARK  status: ('A' for Active; 'I' for Inactive)
ROOT
ATOM      1  C   UNL d   1      -1.872   3.205   2.353  0.00  0.00     0.124 A 
ATOM      2  C1  UNL d   1      -1.229   2.244   3.120  0.00  0.00     0.062 A 
ATOM      3  C2  UNL d   1      -0.072   1.630   2.649  0.00  0.00     0.162 A 
ATOM      4  C3  UNL d   1       0.450   1.977   1.403  0.00  0.00    -0.034 A 
ATOM      5  C4  UNL d   1      -0.202   2.944   0.636  0.00  0.00     0.162 A 
ATOM      6  C5  UNL d   1      -1.358   3.554   1.112  0.00  0.00     0.062 A 
ATOM      7  F   UNL d   1      -1.978   4.483   0.369  0.00  0.00    -0.097 F 
ATOM      8  F1  UNL d   1       0.273   3.302  -0.566  0.00  0.00    -0.096 F 
ATOM      9  I   UNL d   1       2.180   1.062   0.693  0.00  0.00    -0.060 I 
ATOM     10  F2  UNL d   1       0.528   0.705   3.411  0.00  0.00    -0.096 F 
ATOM     11  F3  UNL d   1      -1.724   1.904   4.319  0.00  0.00    -0.097 F 
ATOM     12  F4  UNL d   1      -2.986   3.793   2.809  0.00  0.00    -0.092 F 
ENDROOT
TORSDOF 0
ENDMDL
