MODEL 1
REMARK minimizedAffinity 11.5757637
REMARK minimizedRMSD -1
REMARK  0 active torsions:
REMARK  status: ('A' for Active; 'I' for Inactive)
ROOT
ATOM      1  C   UNL d   1       1.862  -2.274  -0.248  0.00  0.00     0.124 A 
ATOM      2  C1  UNL d   1       2.673  -1.341   0.383  0.00  0.00     0.062 A 
ATOM      3  C2  UNL d   1       2.317   0.004   0.393  0.00  0.00     0.162 A 
ATOM      4  C3  UNL d   1       1.142   0.426  -0.231  0.00  0.00    -0.034 A 
ATOM      5  C4  UNL d   1       0.332  -0.518  -0.865  0.00  0.00     0.162 A 
ATOM      6  C5  UNL d   1       0.693  -1.861  -0.872  0.00  0.00     0.062 A 
ATOM      7  F   UNL d   1      -0.092  -2.760  -1.483  0.00  0.00    -0.097 F 
ATOM      8  F1  UNL d   1      -0.803  -0.147  -1.475  0.00  0.00    -0.096 F 
ATOM      9  I   UNL d   1       0.606   2.437  -0.219  0.00  0.00    -0.060 I 
ATOM     10  F2  UNL d   1       3.119   0.883   1.011  0.00  0.00    -0.096 F 
ATOM     11  F3  UNL d   1       3.803  -1.737   0.986  0.00  0.00    -0.097 F 
ATOM     12  F4  UNL d   1       2.207  -3.568  -0.257  0.00  0.00    -0.092 F 
ENDROOT
TORSDOF 0
ENDMDL
