MODEL 1
REMARK minimizedAffinity 14.2051249
REMARK minimizedRMSD -1
REMARK  0 active torsions:
REMARK  status: ('A' for Active; 'I' for Inactive)
ROOT
ATOM      1  C   UNL d   1       3.041  -1.349  -1.342  0.00  0.00     0.124 A 
ATOM      2  C1  UNL d   1       3.399  -0.640  -0.204  0.00  0.00     0.062 A 
ATOM      3  C2  UNL d   1       4.242   0.463  -0.303  0.00  0.00     0.162 A 
ATOM      4  C3  UNL d   1       4.731   0.866  -1.546  0.00  0.00    -0.034 A 
ATOM      5  C4  UNL d   1       4.367   0.147  -2.686  0.00  0.00     0.162 A 
ATOM      6  C5  UNL d   1       3.525  -0.955  -2.582  0.00  0.00     0.062 A 
ATOM      7  F   UNL d   1       3.180  -1.639  -3.682  0.00  0.00    -0.097 F 
ATOM      8  F1  UNL d   1       4.819   0.506  -3.896  0.00  0.00    -0.096 F 
ATOM      9  I   UNL d   1       5.991   2.515  -1.698  0.00  0.00    -0.060 I 
ATOM     10  F2  UNL d   1       4.571   1.130   0.813  0.00  0.00    -0.096 F 
ATOM     11  F3  UNL d   1       2.934  -1.019   0.995  0.00  0.00    -0.097 F 
ATOM     12  F4  UNL d   1       2.231  -2.411  -1.244  0.00  0.00    -0.092 F 
ENDROOT
TORSDOF 0
ENDMDL
