MODEL 1
REMARK minimizedAffinity -1.11828792
REMARK minimizedRMSD -1
REMARK  0 active torsions:
REMARK  status: ('A' for Active; 'I' for Inactive)
ROOT
ATOM      1  C1  BNZ d   1       2.102   0.057   2.228  0.00  0.00     0.000 A 
ATOM      2  C2  BNZ d   1       1.401  -0.924   2.877  0.00  0.00     0.000 A 
ATOM      3  C3  BNZ d   1       0.042  -0.849   2.998  0.00  0.00     0.000 A 
ATOM      4  C4  BNZ d   1      -0.610   0.224   2.507  0.00  0.00     0.000 A 
ATOM      5  C5  BNZ d   1       0.084   1.226   1.858  0.00  0.00     0.000 A 
ATOM      6  C6  BNZ d   1       1.448   1.129   1.703  0.00  0.00     0.000 A 
ENDROOT
TORSDOF 0
ENDMDL
