MODEL 1
REMARK minimizedAffinity -0.754549146
REMARK minimizedRMSD -1
REMARK  0 active torsions:
REMARK  status: ('A' for Active; 'I' for Inactive)
ROOT
ATOM      1  C1  BNZ d   1      -2.136   0.393   0.753  0.00  0.00     0.000 A 
ATOM      2  C2  BNZ d   1      -3.420   0.684   1.128  0.00  0.00     0.000 A 
ATOM      3  C3  BNZ d   1      -3.768   0.739   2.449  0.00  0.00     0.000 A 
ATOM      4  C4  BNZ d   1      -2.843   0.462   3.390  0.00  0.00     0.000 A 
ATOM      5  C5  BNZ d   1      -1.546   0.157   3.028  0.00  0.00     0.000 A 
ATOM      6  C6  BNZ d   1      -1.190   0.142   1.699  0.00  0.00     0.000 A 
ENDROOT
TORSDOF 0
ENDMDL
