MODEL 1
REMARK minimizedAffinity 2.53153515
REMARK minimizedRMSD -1
REMARK  0 active torsions:
REMARK  status: ('A' for Active; 'I' for Inactive)
ROOT
ATOM      1  C1  BNZ d   1       0.697   2.246  -3.779  0.00  0.00     0.000 A 
ATOM      2  C2  BNZ d   1       0.382   2.993  -4.883  0.00  0.00     0.000 A 
ATOM      3  C3  BNZ d   1       1.170   2.957  -6.000  0.00  0.00     0.000 A 
ATOM      4  C4  BNZ d   1       2.291   2.207  -5.997  0.00  0.00     0.000 A 
ATOM      5  C5  BNZ d   1       2.626   1.456  -4.888  0.00  0.00     0.000 A 
ATOM      6  C6  BNZ d   1       1.810   1.464  -3.780  0.00  0.00     0.000 A 
ENDROOT
TORSDOF 0
ENDMDL
