MODEL 1
REMARK minimizedAffinity 3.21270633
REMARK minimizedRMSD -1
REMARK  0 active torsions:
REMARK  status: ('A' for Active; 'I' for Inactive)
ROOT
ATOM      1  C1  BNZ d   1      -1.487   0.458   0.407  0.00  0.00     0.000 A 
ATOM      2  C2  BNZ d   1      -0.946   0.248   1.648  0.00  0.00     0.000 A 
ATOM      3  C3  BNZ d   1      -1.746  -0.009   2.726  0.00  0.00     0.000 A 
ATOM      4  C4  BNZ d   1      -3.086  -0.016   2.570  0.00  0.00     0.000 A 
ATOM      5  C5  BNZ d   1      -3.647   0.203   1.328  0.00  0.00     0.000 A 
ATOM      6  C6  BNZ d   1      -2.837   0.423   0.238  0.00  0.00     0.000 A 
ENDROOT
TORSDOF 0
ENDMDL
