MODEL 1
REMARK minimizedAffinity -3.58382773
REMARK minimizedRMSD -1
REMARK  0 active torsions:
REMARK  status: ('A' for Active; 'I' for Inactive)
ROOT
ATOM      1  C1  BNZ d   1      -2.397  -0.978   3.742  0.00  0.00     0.000 A 
ATOM      2  C2  BNZ d   1      -3.555  -0.776   3.040  0.00  0.00     0.000 A 
ATOM      3  C3  BNZ d   1      -3.535  -0.162   1.819  0.00  0.00     0.000 A 
ATOM      4  C4  BNZ d   1      -2.364   0.284   1.320  0.00  0.00     0.000 A 
ATOM      5  C5  BNZ d   1      -1.189   0.096   2.020  0.00  0.00     0.000 A 
ATOM      6  C6  BNZ d   1      -1.208  -0.557   3.231  0.00  0.00     0.000 A 
ENDROOT
TORSDOF 0
ENDMDL
