MODEL 1
REMARK minimizedAffinity -4.9761591
REMARK minimizedRMSD -1
REMARK  0 active torsions:
REMARK  status: ('A' for Active; 'I' for Inactive)
ROOT
ATOM      1  C1  BNZ d   1      -2.800  -0.808   4.065  0.00  0.00     0.000 A 
ATOM      2  C2  BNZ d   1      -2.572  -0.433   2.768  0.00  0.00     0.000 A 
ATOM      3  C3  BNZ d   1      -1.297  -0.282   2.297  0.00  0.00     0.000 A 
ATOM      4  C4  BNZ d   1      -0.256  -0.465   3.133  0.00  0.00     0.000 A 
ATOM      5  C5  BNZ d   1      -0.470  -0.834   4.447  0.00  0.00     0.000 A 
ATOM      6  C6  BNZ d   1      -1.753  -1.024   4.906  0.00  0.00     0.000 A 
ENDROOT
TORSDOF 0
ENDMDL
