MODEL 1
REMARK minimizedAffinity -1.41171694
REMARK minimizedRMSD -1
REMARK  0 active torsions:
REMARK  status: ('A' for Active; 'I' for Inactive)
ROOT
ATOM      1  C1  BNZ d   1      -1.134  -0.048   0.943  0.00  0.00     0.000 A 
ATOM      2  C2  BNZ d   1      -2.437   0.373   0.973  0.00  0.00     0.000 A 
ATOM      3  C3  BNZ d   1      -3.083   0.566   2.162  0.00  0.00     0.000 A 
ATOM      4  C4  BNZ d   1      -2.440   0.301   3.317  0.00  0.00     0.000 A 
ATOM      5  C5  BNZ d   1      -1.129  -0.133   3.303  0.00  0.00     0.000 A 
ATOM      6  C6  BNZ d   1      -0.469  -0.289   2.106  0.00  0.00     0.000 A 
ENDROOT
TORSDOF 0
ENDMDL
