MODEL 1
REMARK minimizedAffinity 3.07338214
REMARK minimizedRMSD -1
REMARK  0 active torsions:
REMARK  status: ('A' for Active; 'I' for Inactive)
ROOT
ATOM      1  C1  BNZ d   1      -2.416   0.916   2.949  0.00  0.00     0.000 A 
ATOM      2  C2  BNZ d   1      -3.480   1.001   2.091  0.00  0.00     0.000 A 
ATOM      3  C3  BNZ d   1      -3.391   0.521   0.815  0.00  0.00     0.000 A 
ATOM      4  C4  BNZ d   1      -2.226  -0.006   0.384  0.00  0.00     0.000 A 
ATOM      5  C5  BNZ d   1      -1.141  -0.090   1.234  0.00  0.00     0.000 A 
ATOM      6  C6  BNZ d   1      -1.247   0.359   2.530  0.00  0.00     0.000 A 
ENDROOT
TORSDOF 0
ENDMDL
