MODEL 1
REMARK minimizedAffinity 3.43052077
REMARK minimizedRMSD -1
REMARK  0 active torsions:
REMARK  status: ('A' for Active; 'I' for Inactive)
ROOT
ATOM      1  C1  BNZ d   1       5.940  -1.584   2.781  0.00  0.00     0.000 A 
ATOM      2  C2  BNZ d   1       5.941  -0.448   2.018  0.00  0.00     0.000 A 
ATOM      3  C3  BNZ d   1       5.990   0.787   2.601  0.00  0.00     0.000 A 
ATOM      4  C4  BNZ d   1       5.998   0.885   3.946  0.00  0.00     0.000 A 
ATOM      5  C5  BNZ d   1       5.988  -0.252   4.730  0.00  0.00     0.000 A 
ATOM      6  C6  BNZ d   1       5.979  -1.494   4.138  0.00  0.00     0.000 A 
ENDROOT
TORSDOF 0
ENDMDL
