MODEL 1
REMARK minimizedAffinity 3.164994
REMARK minimizedRMSD -1
REMARK  0 active torsions:
REMARK  status: ('A' for Active; 'I' for Inactive)
ROOT
ATOM      1  C1  BNZ d   1      -1.133  -0.746   0.371  0.00  0.00     0.000 A 
ATOM      2  C2  BNZ d   1      -2.245   0.014   0.622  0.00  0.00     0.000 A 
ATOM      3  C3  BNZ d   1      -3.248   0.113  -0.302  0.00  0.00     0.000 A 
ATOM      4  C4  BNZ d   1      -3.119  -0.514  -1.490  0.00  0.00     0.000 A 
ATOM      5  C5  BNZ d   1      -2.000  -1.276  -1.760  0.00  0.00     0.000 A 
ATOM      6  C6  BNZ d   1      -1.011  -1.405  -0.813  0.00  0.00     0.000 A 
ENDROOT
TORSDOF 0
ENDMDL
