MODEL 1
REMARK minimizedAffinity 4.19559431
REMARK minimizedRMSD -1
REMARK  0 active torsions:
REMARK  status: ('A' for Active; 'I' for Inactive)
ROOT
ATOM      1  C1  BNZ d   1       1.321  -5.981   3.678  0.00  0.00     0.000 A 
ATOM      2  C2  BNZ d   1       0.366  -5.259   3.012  0.00  0.00     0.000 A 
ATOM      3  C3  BNZ d   1       0.679  -4.559   1.881  0.00  0.00     0.000 A 
ATOM      4  C4  BNZ d   1       1.954  -4.549   1.440  0.00  0.00     0.000 A 
ATOM      5  C5  BNZ d   1       2.930  -5.264   2.105  0.00  0.00     0.000 A 
ATOM      6  C6  BNZ d   1       2.602  -5.999   3.221  0.00  0.00     0.000 A 
ENDROOT
TORSDOF 0
ENDMDL
