MODEL 1
REMARK minimizedAffinity 12.057869
REMARK minimizedRMSD -1
REMARK  0 active torsions:
REMARK  status: ('A' for Active; 'I' for Inactive)
ROOT
ATOM      1  C1  BNZ d   1       0.382   0.027   2.433  0.00  0.00     0.000 A 
ATOM      2  C2  BNZ d   1      -0.437  -0.085   3.524  0.00  0.00     0.000 A 
ATOM      3  C3  BNZ d   1      -1.180   0.979   3.954  0.00  0.00     0.000 A 
ATOM      4  C4  BNZ d   1      -1.072   2.164   3.318  0.00  0.00     0.000 A 
ATOM      5  C5  BNZ d   1      -0.243   2.295   2.222  0.00  0.00     0.000 A 
ATOM      6  C6  BNZ d   1       0.474   1.211   1.768  0.00  0.00     0.000 A 
ENDROOT
TORSDOF 0
ENDMDL
