MODEL 1
REMARK minimizedAffinity 1.20662618
REMARK minimizedRMSD -1
REMARK  0 active torsions:
REMARK  status: ('A' for Active; 'I' for Inactive)
ROOT
ATOM      1  C1  BNZ d   1      -0.667  -2.121  -1.716  0.00  0.00     0.000 A 
ATOM      2  C2  BNZ d   1      -0.931  -0.777  -1.713  0.00  0.00     0.000 A 
ATOM      3  C3  BNZ d   1      -1.713  -0.220  -0.741  0.00  0.00     0.000 A 
ATOM      4  C4  BNZ d   1      -2.262  -1.011   0.204  0.00  0.00     0.000 A 
ATOM      5  C5  BNZ d   1      -2.012  -2.369   0.209  0.00  0.00     0.000 A 
ATOM      6  C6  BNZ d   1      -1.193  -2.920  -0.748  0.00  0.00     0.000 A 
ENDROOT
TORSDOF 0
ENDMDL
