MODEL 1
REMARK minimizedAffinity 1.02208674
REMARK minimizedRMSD -1
REMARK  0 active torsions:
REMARK  status: ('A' for Active; 'I' for Inactive)
ROOT
ATOM      1  C1  BNZ d   1      -1.118  -2.569  -1.320  0.00  0.00     0.000 A 
ATOM      2  C2  BNZ d   1      -1.555  -1.751  -0.313  0.00  0.00     0.000 A 
ATOM      3  C3  BNZ d   1      -2.467  -0.763  -0.559  0.00  0.00     0.000 A 
ATOM      4  C4  BNZ d   1      -2.910  -0.569  -1.818  0.00  0.00     0.000 A 
ATOM      5  C5  BNZ d   1      -2.472  -1.380  -2.846  0.00  0.00     0.000 A 
ATOM      6  C6  BNZ d   1      -1.583  -2.398  -2.587  0.00  0.00     0.000 A 
ENDROOT
TORSDOF 0
ENDMDL
