MODEL 1
REMARK minimizedAffinity 2.49580717
REMARK minimizedRMSD -1
REMARK  0 active torsions:
REMARK  status: ('A' for Active; 'I' for Inactive)
ROOT
ATOM      1  C1  BNZ d   1      -1.293  -0.883  -2.065  0.00  0.00     0.000 A 
ATOM      2  C2  BNZ d   1      -0.809  -2.122  -2.390  0.00  0.00     0.000 A 
ATOM      3  C3  BNZ d   1      -1.044  -3.199  -1.582  0.00  0.00     0.000 A 
ATOM      4  C4  BNZ d   1      -1.727  -3.028  -0.431  0.00  0.00     0.000 A 
ATOM      5  C5  BNZ d   1      -2.213  -1.783  -0.085  0.00  0.00     0.000 A 
ATOM      6  C6  BNZ d   1      -2.009  -0.709  -0.921  0.00  0.00     0.000 A 
ENDROOT
TORSDOF 0
ENDMDL
