MODEL 1
REMARK minimizedAffinity -0.73053354
REMARK minimizedRMSD -1
REMARK  0 active torsions:
REMARK  status: ('A' for Active; 'I' for Inactive)
ROOT
ATOM      1  C1  BNZ d   1       1.956   5.189  -4.515  0.00  0.00     0.000 A 
ATOM      2  C2  BNZ d   1       2.995   4.799  -5.317  0.00  0.00     0.000 A 
ATOM      3  C3  BNZ d   1       3.382   3.489  -5.373  0.00  0.00     0.000 A 
ATOM      4  C4  BNZ d   1       2.758   2.579  -4.597  0.00  0.00     0.000 A 
ATOM      5  C5  BNZ d   1       1.715   2.959  -3.777  0.00  0.00     0.000 A 
ATOM      6  C6  BNZ d   1       1.302   4.271  -3.752  0.00  0.00     0.000 A 
ENDROOT
TORSDOF 0
ENDMDL
