MODEL 1
REMARK minimizedAffinity 3.61982179
REMARK minimizedRMSD -1
REMARK  0 active torsions:
REMARK  status: ('A' for Active; 'I' for Inactive)
ROOT
ATOM      1  C   UNL d   1      -0.751   2.507  -5.998  0.00  0.00     0.172 C 
ATOM      2  N   UNL d   1      -1.894   3.388  -5.996  0.00  0.00    -0.070 N 
ATOM      3  C1  UNL d   1      -3.206   2.994  -5.997  0.00  0.00    -0.004 A 
ATOM      4  C2  UNL d   1      -3.987   4.129  -5.994  0.00  0.00    -0.047 A 
ATOM      5  C3  UNL d   1      -3.115   5.244  -5.992  0.00  0.00    -0.047 A 
ATOM      6  C4  UNL d   1      -1.825   4.756  -5.993  0.00  0.00    -0.004 A 
ENDROOT
TORSDOF 0
ENDMDL
