MODEL 1
REMARK minimizedAffinity 0.497684687
REMARK minimizedRMSD -1
REMARK  0 active torsions:
REMARK  status: ('A' for Active; 'I' for Inactive)
ROOT
ATOM      1  C   UNL d   1       0.257   2.408  -5.985  0.00  0.00     0.172 C 
ATOM      2  N   UNL d   1      -1.004   3.112  -5.989  0.00  0.00    -0.070 N 
ATOM      3  C1  UNL d   1      -2.243   2.530  -5.985  0.00  0.00    -0.004 A 
ATOM      4  C2  UNL d   1      -3.183   3.538  -5.991  0.00  0.00    -0.047 A 
ATOM      5  C3  UNL d   1      -2.484   4.768  -6.000  0.00  0.00    -0.047 A 
ATOM      6  C4  UNL d   1      -1.137   4.475  -5.998  0.00  0.00    -0.004 A 
ENDROOT
TORSDOF 0
ENDMDL
