MODEL 1
REMARK minimizedAffinity -2.08113909
REMARK minimizedRMSD -1
REMARK  0 active torsions:
REMARK  status: ('A' for Active; 'I' for Inactive)
ROOT
ATOM      1  C   UNL d   1      -3.025   2.738  -5.998  0.00  0.00     0.172 C 
ATOM      2  N   UNL d   1      -3.914   3.877  -5.999  0.00  0.00    -0.070 N 
ATOM      3  C1  UNL d   1      -5.282   3.822  -6.000  0.00  0.00    -0.004 A 
ATOM      4  C2  UNL d   1      -5.756   5.116  -6.000  0.00  0.00    -0.047 A 
ATOM      5  C3  UNL d   1      -4.634   5.979  -6.000  0.00  0.00    -0.047 A 
ATOM      6  C4  UNL d   1      -3.506   5.185  -5.999  0.00  0.00    -0.004 A 
ENDROOT
TORSDOF 0
ENDMDL
