MODEL 1
REMARK minimizedAffinity 5.83721733
REMARK minimizedRMSD -1
REMARK  0 active torsions:
REMARK  status: ('A' for Active; 'I' for Inactive)
ROOT
ATOM      1  C   UNL d   1      -2.359   3.383   4.145  0.00  0.00     0.172 C 
ATOM      2  N   UNL d   1      -1.172   3.150   3.356  0.00  0.00    -0.070 N 
ATOM      3  C1  UNL d   1      -1.139   2.959   2.000  0.00  0.00    -0.004 A 
ATOM      4  C2  UNL d   1       0.176   2.771   1.632  0.00  0.00    -0.047 A 
ATOM      5  C3  UNL d   1       0.960   2.851   2.808  0.00  0.00    -0.047 A 
ATOM      6  C4  UNL d   1       0.100   3.086   3.860  0.00  0.00    -0.004 A 
ENDROOT
TORSDOF 0
ENDMDL
