MODEL 1
REMARK minimizedAffinity 2.39959383
REMARK minimizedRMSD -1
REMARK  0 active torsions:
REMARK  status: ('A' for Active; 'I' for Inactive)
ROOT
ATOM      1  C   UNL d   1      -1.009   2.612  -5.999  0.00  0.00     0.172 C 
ATOM      2  N   UNL d   1      -2.174   3.466  -5.984  0.00  0.00    -0.070 N 
ATOM      3  C1  UNL d   1      -2.160   4.835  -5.995  0.00  0.00    -0.004 A 
ATOM      4  C2  UNL d   1      -3.468   5.270  -5.975  0.00  0.00    -0.047 A 
ATOM      5  C3  UNL d   1      -4.296   4.123  -5.951  0.00  0.00    -0.047 A 
ATOM      6  C4  UNL d   1      -3.469   3.019  -5.957  0.00  0.00    -0.004 A 
ENDROOT
TORSDOF 0
ENDMDL
