MODEL 1
REMARK minimizedAffinity -0.563647449
REMARK minimizedRMSD -1
REMARK  0 active torsions:
REMARK  status: ('A' for Active; 'I' for Inactive)
ROOT
ATOM      1  C   UNL d   1      -2.530   3.187  -6.000  0.00  0.00     0.172 C 
ATOM      2  N   UNL d   1      -3.704   4.027  -6.000  0.00  0.00    -0.070 N 
ATOM      3  C1  UNL d   1      -3.706   5.397  -5.999  0.00  0.00    -0.004 A 
ATOM      4  C2  UNL d   1      -5.019   5.817  -6.000  0.00  0.00    -0.047 A 
ATOM      5  C3  UNL d   1      -5.834   4.660  -6.000  0.00  0.00    -0.047 A 
ATOM      6  C4  UNL d   1      -4.994   3.566  -6.000  0.00  0.00    -0.004 A 
ENDROOT
TORSDOF 0
ENDMDL
