MODEL 1
REMARK minimizedAffinity -0.511460364
REMARK minimizedRMSD -1
REMARK  0 active torsions:
REMARK  status: ('A' for Active; 'I' for Inactive)
ROOT
ATOM      1  C   UNL d   1      -1.485   2.922  -5.999  0.00  0.00     0.172 C 
ATOM      2  N   UNL d   1      -2.484   3.965  -5.987  0.00  0.00    -0.070 N 
ATOM      3  C1  UNL d   1      -2.232   5.311  -5.964  0.00  0.00    -0.004 A 
ATOM      4  C2  UNL d   1      -3.444   5.967  -5.960  0.00  0.00    -0.047 A 
ATOM      5  C3  UNL d   1      -4.459   4.981  -5.981  0.00  0.00    -0.047 A 
ATOM      6  C4  UNL d   1      -3.837   3.751  -5.997  0.00  0.00    -0.004 A 
ENDROOT
TORSDOF 0
ENDMDL
