MODEL 1
REMARK minimizedAffinity -1.93904459
REMARK minimizedRMSD -1
REMARK  0 active torsions:
REMARK  status: ('A' for Active; 'I' for Inactive)
ROOT
ATOM      1  C   UNL d   1      -2.061   2.566  -6.000  0.00  0.00     0.172 C 
ATOM      2  N   UNL d   1      -2.282   3.824  -5.325  0.00  0.00    -0.070 N 
ATOM      3  C1  UNL d   1      -2.936   3.985  -4.133  0.00  0.00    -0.004 A 
ATOM      4  C2  UNL d   1      -2.936   5.330  -3.830  0.00  0.00    -0.047 A 
ATOM      5  C3  UNL d   1      -2.259   5.999  -4.877  0.00  0.00    -0.047 A 
ATOM      6  C4  UNL d   1      -1.865   5.043  -5.789  0.00  0.00    -0.004 A 
ENDROOT
TORSDOF 0
ENDMDL
