MODEL 1
REMARK minimizedAffinity 1.87430775
REMARK minimizedRMSD -1
REMARK  0 active torsions:
REMARK  status: ('A' for Active; 'I' for Inactive)
ROOT
ATOM      1  C   UNL d   1      -2.907   5.989  -5.997  0.00  0.00     0.172 C 
ATOM      2  N   UNL d   1      -2.344   4.659  -5.996  0.00  0.00    -0.070 N 
ATOM      3  C1  UNL d   1      -3.058   3.491  -5.994  0.00  0.00    -0.004 A 
ATOM      4  C2  UNL d   1      -2.159   2.446  -5.994  0.00  0.00    -0.047 A 
ATOM      5  C3  UNL d   1      -0.860   3.007  -5.997  0.00  0.00    -0.047 A 
ATOM      6  C4  UNL d   1      -1.004   4.378  -5.998  0.00  0.00    -0.004 A 
ENDROOT
TORSDOF 0
ENDMDL
