MODEL 1
REMARK minimizedAffinity -1.23291862
REMARK minimizedRMSD -1
REMARK  0 active torsions:
REMARK  status: ('A' for Active; 'I' for Inactive)
ROOT
ATOM      1  C   UNL d   1      -4.110   3.397  -5.999  0.00  0.00     0.172 C 
ATOM      2  N   UNL d   1      -2.916   3.985  -5.440  0.00  0.00    -0.070 N 
ATOM      3  C1  UNL d   1      -2.260   3.549  -4.320  0.00  0.00    -0.004 A 
ATOM      4  C2  UNL d   1      -1.173   4.372  -4.119  0.00  0.00    -0.047 A 
ATOM      5  C3  UNL d   1      -1.176   5.338  -5.154  0.00  0.00    -0.047 A 
ATOM      6  C4  UNL d   1      -2.266   5.075  -5.957  0.00  0.00    -0.004 A 
ENDROOT
TORSDOF 0
ENDMDL
