MODEL 1
REMARK minimizedAffinity -1.69245708
REMARK minimizedRMSD -1
REMARK  0 active torsions:
REMARK  status: ('A' for Active; 'I' for Inactive)
ROOT
ATOM      1  C   UNL d   1      -2.094   3.014  -5.999  0.00  0.00     0.172 C 
ATOM      2  N   UNL d   1      -3.191   3.953  -5.993  0.00  0.00    -0.070 N 
ATOM      3  C1  UNL d   1      -4.521   3.627  -5.982  0.00  0.00    -0.004 A 
ATOM      4  C2  UNL d   1      -5.244   4.800  -5.979  0.00  0.00    -0.047 A 
ATOM      5  C3  UNL d   1      -4.316   5.869  -5.989  0.00  0.00    -0.047 A 
ATOM      6  C4  UNL d   1      -3.053   5.316  -5.998  0.00  0.00    -0.004 A 
ENDROOT
TORSDOF 0
ENDMDL
