MODEL 1
REMARK minimizedAffinity 2.56049657
REMARK minimizedRMSD -1
REMARK  0 active torsions:
REMARK  status: ('A' for Active; 'I' for Inactive)
ROOT
ATOM      1  C   UNL d   1       0.009   3.574  -5.983  0.00  0.00     0.172 C 
ATOM      2  N   UNL d   1      -1.435   3.598  -5.989  0.00  0.00    -0.070 N 
ATOM      3  C1  UNL d   1      -2.251   2.498  -5.996  0.00  0.00    -0.004 A 
ATOM      4  C2  UNL d   1      -3.556   2.941  -5.999  0.00  0.00    -0.047 A 
ATOM      5  C3  UNL d   1      -3.523   4.356  -5.996  0.00  0.00    -0.047 A 
ATOM      6  C4  UNL d   1      -2.197   4.736  -5.989  0.00  0.00    -0.004 A 
ENDROOT
TORSDOF 0
ENDMDL
