MODEL 1
REMARK minimizedAffinity -2.497648
REMARK minimizedRMSD -1
REMARK  0 active torsions:
REMARK  status: ('A' for Active; 'I' for Inactive)
ROOT
ATOM      1  C   UNL d   1      -2.659   2.913  -6.000  0.00  0.00     0.172 C 
ATOM      2  N   UNL d   1      -3.637   3.975  -5.990  0.00  0.00    -0.070 N 
ATOM      3  C1  UNL d   1      -3.360   5.316  -6.000  0.00  0.00    -0.004 A 
ATOM      4  C2  UNL d   1      -4.560   5.995  -5.986  0.00  0.00    -0.047 A 
ATOM      5  C3  UNL d   1      -5.593   5.029  -5.966  0.00  0.00    -0.047 A 
ATOM      6  C4  UNL d   1      -4.994   3.787  -5.970  0.00  0.00    -0.004 A 
ENDROOT
TORSDOF 0
ENDMDL
