MODEL 1
REMARK minimizedAffinity -0.487382025
REMARK minimizedRMSD -1
REMARK  0 active torsions:
REMARK  status: ('A' for Active; 'I' for Inactive)
ROOT
ATOM      1  C   UNL d   1      -2.596   2.633  -6.000  0.00  0.00     0.172 C 
ATOM      2  N   UNL d   1      -3.338   3.834  -5.697  0.00  0.00    -0.070 N 
ATOM      3  C1  UNL d   1      -4.554   3.884  -5.069  0.00  0.00    -0.004 A 
ATOM      4  C2  UNL d   1      -4.922   5.209  -4.968  0.00  0.00    -0.047 A 
ATOM      5  C3  UNL d   1      -3.893   5.981  -5.557  0.00  0.00    -0.047 A 
ATOM      6  C4  UNL d   1      -2.925   5.105  -6.000  0.00  0.00    -0.004 A 
ENDROOT
TORSDOF 0
ENDMDL
