MODEL 1
REMARK minimizedAffinity -0.468233168
REMARK minimizedRMSD -1
REMARK  0 active torsions:
REMARK  status: ('A' for Active; 'I' for Inactive)
ROOT
ATOM      1  C   UNL d   1       2.115   4.875  -5.746  0.00  0.00     0.172 C 
ATOM      2  N   UNL d   1       0.864   4.157  -5.808  0.00  0.00    -0.070 N 
ATOM      3  C1  UNL d   1      -0.382   4.711  -5.685  0.00  0.00    -0.004 A 
ATOM      4  C2  UNL d   1      -1.309   3.698  -5.801  0.00  0.00    -0.047 A 
ATOM      5  C3  UNL d   1      -0.595   2.492  -6.000  0.00  0.00    -0.047 A 
ATOM      6  C4  UNL d   1       0.748   2.805  -6.000  0.00  0.00    -0.004 A 
ENDROOT
TORSDOF 0
ENDMDL
