MODEL 1
REMARK minimizedAffinity 5.89861822
REMARK minimizedRMSD -1
REMARK  0 active torsions:
REMARK  status: ('A' for Active; 'I' for Inactive)
ROOT
ATOM      1  C   UNL d   1      -0.463  -5.999  -3.087  0.00  0.00     0.172 C 
ATOM      2  N   UNL d   1      -1.153  -4.920  -2.421  0.00  0.00    -0.070 N 
ATOM      3  C1  UNL d   1      -0.928  -3.584  -2.622  0.00  0.00    -0.004 A 
ATOM      4  C2  UNL d   1      -1.785  -2.883  -1.802  0.00  0.00    -0.047 A 
ATOM      5  C3  UNL d   1      -2.552  -3.830  -1.082  0.00  0.00    -0.047 A 
ATOM      6  C4  UNL d   1      -2.140  -5.083  -1.485  0.00  0.00    -0.004 A 
ENDROOT
TORSDOF 0
ENDMDL
