MODEL 1
REMARK minimizedAffinity 2.26131344
REMARK minimizedRMSD -1
REMARK  0 active torsions:
REMARK  status: ('A' for Active; 'I' for Inactive)
ROOT
ATOM      1  C   UNL d   1       1.844   0.710  -0.050  0.00  0.00     0.172 C 
ATOM      2  N   UNL d   1       0.462   0.850   0.343  0.00  0.00    -0.070 N 
ATOM      3  C1  UNL d   1      -0.385  -0.178   0.663  0.00  0.00    -0.004 A 
ATOM      4  C2  UNL d   1      -1.610   0.368   0.981  0.00  0.00    -0.047 A 
ATOM      5  C3  UNL d   1      -1.495   1.772   0.847  0.00  0.00    -0.047 A 
ATOM      6  C4  UNL d   1      -0.202   2.043   0.451  0.00  0.00    -0.004 A 
ENDROOT
TORSDOF 0
ENDMDL
