MODEL 1
REMARK minimizedAffinity -3.88643098
REMARK minimizedRMSD -1
REMARK  2 active torsions:
REMARK  status: ('A' for Active; 'I' for Inactive)
REMARK    1  A    between atoms: C1_2  and  C2_3 
REMARK    2  A    between atoms: C2_3  and  C3_4 
ROOT
ATOM      1  C3  UNL d   1      -0.289  -0.254  -0.101  0.00  0.00    -0.075 A 
ATOM      2  C4  UNL d   1      -0.611  -0.727   1.179  0.00  0.00     0.002 A 
ATOM      3  C5  UNL d   1      -0.520   0.113   2.289  0.00  0.00     0.002 A 
ATOM      4  C6  UNL d   1      -0.097   1.432   2.134  0.00  0.00    -0.004 A 
ATOM      5  C7  UNL d   1       0.241   1.908   0.869  0.00  0.00     0.002 A 
ATOM      6  C8  UNL d   1       0.147   1.070  -0.243  0.00  0.00     0.002 A 
ENDROOT
BRANCH   1   7
ATOM      7  C2  UNL d   1      -0.414  -1.151  -1.310  0.00  0.00     0.056 C 
BRANCH   7   8
ATOM      8  C1  UNL d   1      -1.845  -1.283  -1.844  0.00  0.00     0.007 C 
ATOM      9  C   UNL d   1      -1.924  -1.244  -3.364  0.00  0.00     0.009 C 
ENDBRANCH   7   8
ENDBRANCH   1   7
TORSDOF 2
ENDMDL
