MODEL 1
REMARK minimizedAffinity -3.81946087
REMARK minimizedRMSD -1
REMARK  2 active torsions:
REMARK  status: ('A' for Active; 'I' for Inactive)
REMARK    1  A    between atoms: C1_2  and  C2_3 
REMARK    2  A    between atoms: C2_3  and  C3_4 
ROOT
ATOM      1  C3  UNL d   1      -0.970  -1.003  -1.204  0.00  0.00    -0.075 A 
ATOM      2  C4  UNL d   1      -0.626  -2.287  -1.652  0.00  0.00     0.002 A 
ATOM      3  C5  UNL d   1      -1.366  -2.907  -2.659  0.00  0.00     0.002 A 
ATOM      4  C6  UNL d   1      -2.461  -2.257  -3.224  0.00  0.00    -0.004 A 
ATOM      5  C7  UNL d   1      -2.821  -0.988  -2.776  0.00  0.00     0.002 A 
ATOM      6  C8  UNL d   1      -2.081  -0.363  -1.771  0.00  0.00     0.002 A 
ENDROOT
BRANCH   1   7
ATOM      7  C2  UNL d   1      -0.156  -0.314  -0.135  0.00  0.00     0.056 C 
BRANCH   7   8
ATOM      8  C1  UNL d   1      -0.998   0.332   0.971  0.00  0.00     0.007 C 
ATOM      9  C   UNL d   1      -0.176   1.172   1.938  0.00  0.00     0.009 C 
ENDBRANCH   7   8
ENDBRANCH   1   7
TORSDOF 2
ENDMDL
