MODEL 1
REMARK minimizedAffinity -3.34865737
REMARK minimizedRMSD -1
REMARK  2 active torsions:
REMARK  status: ('A' for Active; 'I' for Inactive)
REMARK    1  A    between atoms: C1_2  and  C2_3 
REMARK    2  A    between atoms: C2_3  and  C3_4 
ROOT
ATOM      1  C3  UNL d   1      -0.168   0.528   0.961  0.00  0.00    -0.075 A 
ATOM      2  C4  UNL d   1      -1.082   0.994   0.004  0.00  0.00     0.002 A 
ATOM      3  C5  UNL d   1      -1.377   0.229  -1.125  0.00  0.00     0.002 A 
ATOM      4  C6  UNL d   1      -0.756  -1.003  -1.317  0.00  0.00    -0.004 A 
ATOM      5  C7  UNL d   1       0.166  -1.468  -0.382  0.00  0.00     0.002 A 
ATOM      6  C8  UNL d   1       0.460  -0.707   0.751  0.00  0.00     0.002 A 
ENDROOT
BRANCH   1   7
ATOM      7  C2  UNL d   1       0.133   1.337   2.200  0.00  0.00     0.056 C 
BRANCH   7   8
ATOM      8  C1  UNL d   1       1.050   2.539   1.952  0.00  0.00     0.007 C 
ATOM      9  C   UNL d   1       2.492   2.145   1.658  0.00  0.00     0.009 C 
ENDBRANCH   7   8
ENDBRANCH   1   7
TORSDOF 2
ENDMDL
