MODEL 1
REMARK minimizedAffinity -4.10703468
REMARK minimizedRMSD -1
REMARK  2 active torsions:
REMARK  status: ('A' for Active; 'I' for Inactive)
REMARK    1  A    between atoms: C1_2  and  C2_3 
REMARK    2  A    between atoms: C2_3  and  C3_4 
ROOT
ATOM      1  C3  UNL d   1      -0.728  -0.869  -0.562  0.00  0.00    -0.075 A 
ATOM      2  C4  UNL d   1      -0.238  -0.604  -1.849  0.00  0.00     0.002 A 
ATOM      3  C5  UNL d   1      -0.901  -1.092  -2.974  0.00  0.00     0.002 A 
ATOM      4  C6  UNL d   1      -2.055  -1.860  -2.828  0.00  0.00    -0.004 A 
ATOM      5  C7  UNL d   1      -2.542  -2.144  -1.554  0.00  0.00     0.002 A 
ATOM      6  C8  UNL d   1      -1.883  -1.652  -0.426  0.00  0.00     0.002 A 
ENDROOT
BRANCH   1   7
ATOM      7  C2  UNL d   1      -0.032  -0.318   0.659  0.00  0.00     0.056 C 
BRANCH   7   8
ATOM      8  C1  UNL d   1       0.437   1.133   0.509  0.00  0.00     0.007 C 
ATOM      9  C   UNL d   1       1.091   1.686   1.768  0.00  0.00     0.009 C 
ENDBRANCH   7   8
ENDBRANCH   1   7
TORSDOF 2
ENDMDL
