MODEL 1
REMARK minimizedAffinity -4.49453878
REMARK minimizedRMSD -1
REMARK  2 active torsions:
REMARK  status: ('A' for Active; 'I' for Inactive)
REMARK    1  A    between atoms: C1_2  and  C2_3 
REMARK    2  A    between atoms: C2_3  and  C3_4 
ROOT
ATOM      1  C3  UNL d   1      -0.889  -1.039  -1.232  0.00  0.00    -0.075 A 
ATOM      2  C4  UNL d   1      -1.811  -2.089  -1.346  0.00  0.00     0.002 A 
ATOM      3  C5  UNL d   1      -2.739  -2.108  -2.387  0.00  0.00     0.002 A 
ATOM      4  C6  UNL d   1      -2.764  -1.074  -3.321  0.00  0.00    -0.004 A 
ATOM      5  C7  UNL d   1      -1.864  -0.017  -3.208  0.00  0.00     0.002 A 
ATOM      6  C8  UNL d   1      -0.931   0.002  -2.170  0.00  0.00     0.002 A 
ENDROOT
BRANCH   1   7
ATOM      7  C2  UNL d   1       0.137  -1.027  -0.124  0.00  0.00     0.056 C 
BRANCH   7   8
ATOM      8  C1  UNL d   1       0.504   0.375   0.371  0.00  0.00     0.007 C 
ATOM      9  C   UNL d   1      -0.493   0.937   1.376  0.00  0.00     0.009 C 
ENDBRANCH   7   8
ENDBRANCH   1   7
TORSDOF 2
ENDMDL
