MODEL 1
REMARK minimizedAffinity -4.14886665
REMARK minimizedRMSD -1
REMARK  2 active torsions:
REMARK  status: ('A' for Active; 'I' for Inactive)
REMARK    1  A    between atoms: C1_2  and  C2_3 
REMARK    2  A    between atoms: C2_3  and  C3_4 
ROOT
ATOM      1  C3  UNL d   1      -0.141  -0.357   0.051  0.00  0.00    -0.075 A 
ATOM      2  C4  UNL d   1       1.015   0.437   0.027  0.00  0.00     0.002 A 
ATOM      3  C5  UNL d   1       1.229   1.406   1.007  0.00  0.00     0.002 A 
ATOM      4  C6  UNL d   1       0.289   1.601   2.016  0.00  0.00    -0.004 A 
ATOM      5  C7  UNL d   1      -0.871   0.829   2.041  0.00  0.00     0.002 A 
ATOM      6  C8  UNL d   1      -1.086  -0.144   1.064  0.00  0.00     0.002 A 
ENDROOT
BRANCH   1   7
ATOM      7  C2  UNL d   1      -0.365  -1.427  -0.990  0.00  0.00     0.056 C 
BRANCH   7   8
ATOM      8  C1  UNL d   1      -1.820  -1.553  -1.452  0.00  0.00     0.007 C 
ATOM      9  C   UNL d   1      -1.992  -1.365  -2.954  0.00  0.00     0.009 C 
ENDBRANCH   7   8
ENDBRANCH   1   7
TORSDOF 2
ENDMDL
