MODEL 1
REMARK minimizedAffinity -1.95663524
REMARK minimizedRMSD -1
REMARK  2 active torsions:
REMARK  status: ('A' for Active; 'I' for Inactive)
REMARK    1  A    between atoms: C1_2  and  C2_3 
REMARK    2  A    between atoms: C2_3  and  C3_4 
ROOT
ATOM      1  C3  UNL d   1      -0.731  -1.074  -0.340  0.00  0.00    -0.075 A 
ATOM      2  C4  UNL d   1      -1.359  -0.392   0.712  0.00  0.00     0.002 A 
ATOM      3  C5  UNL d   1      -0.688   0.617   1.402  0.00  0.00     0.002 A 
ATOM      4  C6  UNL d   1       0.621   0.949   1.058  0.00  0.00    -0.004 A 
ATOM      5  C7  UNL d   1       1.260   0.266   0.026  0.00  0.00     0.002 A 
ATOM      6  C8  UNL d   1       0.589  -0.741  -0.670  0.00  0.00     0.002 A 
ENDROOT
BRANCH   1   7
ATOM      7  C2  UNL d   1      -1.463  -2.147  -1.111  0.00  0.00     0.056 C 
BRANCH   7   8
ATOM      8  C1  UNL d   1      -2.333  -1.611  -2.253  0.00  0.00     0.007 C 
ATOM      9  C   UNL d   1      -1.579  -1.478  -3.570  0.00  0.00     0.009 C 
ENDBRANCH   7   8
ENDBRANCH   1   7
TORSDOF 2
ENDMDL
