MODEL 1
REMARK minimizedAffinity -4.57550049
REMARK minimizedRMSD -1
REMARK  2 active torsions:
REMARK  status: ('A' for Active; 'I' for Inactive)
REMARK    1  A    between atoms: C1_2  and  C2_3 
REMARK    2  A    between atoms: C2_3  and  C3_4 
ROOT
ATOM      1  C3  UNL d   1      -0.620  -0.351   0.217  0.00  0.00    -0.075 A 
ATOM      2  C4  UNL d   1      -1.374   0.454   1.084  0.00  0.00     0.002 A 
ATOM      3  C5  UNL d   1      -0.750   1.412   1.883  0.00  0.00     0.002 A 
ATOM      4  C6  UNL d   1       0.633   1.571   1.834  0.00  0.00    -0.004 A 
ATOM      5  C7  UNL d   1       1.394   0.766   0.989  0.00  0.00     0.002 A 
ATOM      6  C8  UNL d   1       0.772  -0.191   0.185  0.00  0.00     0.002 A 
ENDROOT
BRANCH   1   7
ATOM      7  C2  UNL d   1      -1.292  -1.369  -0.672  0.00  0.00     0.056 C 
BRANCH   7   8
ATOM      8  C1  UNL d   1      -1.263  -1.012  -2.162  0.00  0.00     0.007 C 
ATOM      9  C   UNL d   1      -2.583  -1.287  -2.871  0.00  0.00     0.009 C 
ENDBRANCH   7   8
ENDBRANCH   1   7
TORSDOF 2
ENDMDL
