MODEL 1
REMARK minimizedAffinity -1.5674603
REMARK minimizedRMSD -1
REMARK  2 active torsions:
REMARK  status: ('A' for Active; 'I' for Inactive)
REMARK    1  A    between atoms: C1_2  and  C2_3 
REMARK    2  A    between atoms: C2_3  and  C3_4 
ROOT
ATOM      1  C3  UNL d   1      -0.893  -1.022  -0.843  0.00  0.00    -0.075 A 
ATOM      2  C4  UNL d   1      -0.415  -0.730  -2.128  0.00  0.00     0.002 A 
ATOM      3  C5  UNL d   1      -1.113  -1.156  -3.258  0.00  0.00     0.002 A 
ATOM      4  C6  UNL d   1      -2.291  -1.886  -3.119  0.00  0.00    -0.004 A 
ATOM      5  C7  UNL d   1      -2.767  -2.197  -1.847  0.00  0.00     0.002 A 
ATOM      6  C8  UNL d   1      -2.073  -1.768  -0.714  0.00  0.00     0.002 A 
ENDROOT
BRANCH   1   7
ATOM      7  C2  UNL d   1      -0.158  -0.539   0.384  0.00  0.00     0.056 C 
BRANCH   7   8
ATOM      8  C1  UNL d   1      -0.884   0.572   1.149  0.00  0.00     0.007 C 
ATOM      9  C   UNL d   1       0.002   1.280   2.166  0.00  0.00     0.009 C 
ENDBRANCH   7   8
ENDBRANCH   1   7
TORSDOF 2
ENDMDL
