MODEL 1
REMARK minimizedAffinity -2.25678396
REMARK minimizedRMSD -1
REMARK  2 active torsions:
REMARK  status: ('A' for Active; 'I' for Inactive)
REMARK    1  A    between atoms: C1_2  and  C2_3 
REMARK    2  A    between atoms: C2_3  and  C3_4 
ROOT
ATOM      1  C3  UNL d   1      -1.171  -0.112  -0.181  0.00  0.00    -0.075 A 
ATOM      2  C4  UNL d   1      -1.598   1.084   0.413  0.00  0.00     0.002 A 
ATOM      3  C5  UNL d   1      -0.782   1.752   1.327  0.00  0.00     0.002 A 
ATOM      4  C6  UNL d   1       0.464   1.228   1.665  0.00  0.00    -0.004 A 
ATOM      5  C7  UNL d   1       0.891   0.032   1.093  0.00  0.00     0.002 A 
ATOM      6  C8  UNL d   1       0.079  -0.636   0.175  0.00  0.00     0.002 A 
ENDROOT
BRANCH   1   7
ATOM      7  C2  UNL d   1      -2.036  -0.824  -1.193  0.00  0.00     0.056 C 
BRANCH   7   8
ATOM      8  C1  UNL d   1      -1.328  -1.969  -1.924  0.00  0.00     0.007 C 
ATOM      9  C   UNL d   1      -1.378  -1.836  -3.440  0.00  0.00     0.009 C 
ENDBRANCH   7   8
ENDBRANCH   1   7
TORSDOF 2
ENDMDL
