MODEL 1
REMARK minimizedAffinity -3.79957795
REMARK minimizedRMSD -1
REMARK  2 active torsions:
REMARK  status: ('A' for Active; 'I' for Inactive)
REMARK    1  A    between atoms: C1_2  and  C2_3 
REMARK    2  A    between atoms: C2_3  and  C3_4 
ROOT
ATOM      1  C3  UNL d   1      -0.762  -0.896  -1.317  0.00  0.00    -0.075 A 
ATOM      2  C4  UNL d   1      -0.293  -0.615  -2.609  0.00  0.00     0.002 A 
ATOM      3  C5  UNL d   1      -1.064  -0.933  -3.727  0.00  0.00     0.002 A 
ATOM      4  C6  UNL d   1      -2.306  -1.545  -3.570  0.00  0.00    -0.004 A 
ATOM      5  C7  UNL d   1      -2.774  -1.845  -2.292  0.00  0.00     0.002 A 
ATOM      6  C8  UNL d   1      -2.007  -1.523  -1.171  0.00  0.00     0.002 A 
ENDROOT
BRANCH   1   7
ATOM      7  C2  UNL d   1       0.054  -0.527  -0.102  0.00  0.00     0.056 C 
BRANCH   7   8
ATOM      8  C1  UNL d   1      -0.782  -0.047   1.089  0.00  0.00     0.007 C 
ATOM      9  C   UNL d   1      -0.399   1.346   1.570  0.00  0.00     0.009 C 
ENDBRANCH   7   8
ENDBRANCH   1   7
TORSDOF 2
ENDMDL
