MODEL 1
REMARK minimizedAffinity -4.2364378
REMARK minimizedRMSD -1
REMARK  2 active torsions:
REMARK  status: ('A' for Active; 'I' for Inactive)
REMARK    1  A    between atoms: C1_2  and  C2_3 
REMARK    2  A    between atoms: C2_3  and  C3_4 
ROOT
ATOM      1  C3  UNL d   1      -0.559  -0.349   0.320  0.00  0.00    -0.075 A 
ATOM      2  C4  UNL d   1       0.804  -0.221   0.018  0.00  0.00     0.002 A 
ATOM      3  C5  UNL d   1       1.561   0.805   0.583  0.00  0.00     0.002 A 
ATOM      4  C6  UNL d   1       0.965   1.721   1.447  0.00  0.00    -0.004 A 
ATOM      5  C7  UNL d   1      -0.393   1.612   1.742  0.00  0.00     0.002 A 
ATOM      6  C8  UNL d   1      -1.152   0.584   1.181  0.00  0.00     0.002 A 
ENDROOT
BRANCH   1   7
ATOM      7  C2  UNL d   1      -1.378  -1.475  -0.265  0.00  0.00     0.056 C 
BRANCH   7   8
ATOM      8  C1  UNL d   1      -1.837  -1.229  -1.706  0.00  0.00     0.007 C 
ATOM      9  C   UNL d   1      -3.289  -1.621  -1.949  0.00  0.00     0.009 C 
ENDBRANCH   7   8
ENDBRANCH   1   7
TORSDOF 2
ENDMDL
