MODEL 1
REMARK minimizedAffinity -2.67739344
REMARK minimizedRMSD -1
REMARK  1 active torsions:
REMARK  status: ('A' for Active; 'I' for Inactive)
REMARK    1  A    between atoms: C1_2  and  C2_3 
ROOT
ATOM      1  C2  UNL d   1       0.517  -1.918  -0.953  0.00  0.00    -0.073 A 
ATOM      2  C3  UNL d   1      -0.283  -1.906  -2.101  0.00  0.00    -0.002 A 
ATOM      3  C4  UNL d   1      -0.686  -3.103  -2.693  0.00  0.00     0.004 A 
ATOM      4  C5  UNL d   1      -0.301  -4.324  -2.139  0.00  0.00    -0.004 A 
ATOM      5  C6  UNL d   1       0.489  -4.358  -0.985  0.00  0.00    -0.075 A 
ATOM      6  C7  UNL d   1       0.914  -5.663  -0.379  0.00  0.00     0.076 C 
ATOM      7  C8  UNL d   1       0.892  -3.151  -0.399  0.00  0.00     0.001 A 
ENDROOT
BRANCH   1   8
ATOM      8  C1  UNL d   1       0.950  -0.627  -0.307  0.00  0.00     0.053 C 
ATOM      9  C   UNL d   1      -0.087  -0.106   0.674  0.00  0.00     0.018 C 
ENDBRANCH   1   8
TORSDOF 1
ENDMDL
