MODEL 1
REMARK minimizedAffinity -2.61102128
REMARK minimizedRMSD -1
REMARK  1 active torsions:
REMARK  status: ('A' for Active; 'I' for Inactive)
REMARK    1  A    between atoms: C1_2  and  C2_3 
ROOT
ATOM      1  C2  UNL d   1       0.679  -1.461  -1.284  0.00  0.00    -0.073 A 
ATOM      2  C3  UNL d   1       0.257  -1.304  -2.609  0.00  0.00    -0.002 A 
ATOM      3  C4  UNL d   1      -0.047  -2.421  -3.389  0.00  0.00     0.004 A 
ATOM      4  C5  UNL d   1       0.059  -3.703  -2.851  0.00  0.00    -0.004 A 
ATOM      5  C6  UNL d   1       0.467  -3.880  -1.525  0.00  0.00    -0.075 A 
ATOM      6  C7  UNL d   1       0.589  -5.253  -0.932  0.00  0.00     0.076 C 
ATOM      7  C8  UNL d   1       0.774  -2.754  -0.749  0.00  0.00     0.001 A 
ENDROOT
BRANCH   1   8
ATOM      8  C1  UNL d   1       1.003  -0.259  -0.436  0.00  0.00     0.053 C 
ATOM      9  C   UNL d   1       0.464  -0.397   0.979  0.00  0.00     0.018 C 
ENDBRANCH   1   8
TORSDOF 1
ENDMDL
