MODEL 1
REMARK minimizedAffinity -1.78176463
REMARK minimizedRMSD -1
REMARK  1 active torsions:
REMARK  status: ('A' for Active; 'I' for Inactive)
REMARK    1  A    between atoms: C1_2  and  C2_3 
ROOT
ATOM      1  C2  UNL d   1       0.703   1.556  -0.267  0.00  0.00    -0.073 A 
ATOM      2  C3  UNL d   1       1.572   0.557  -0.719  0.00  0.00    -0.002 A 
ATOM      3  C4  UNL d   1       1.652  -0.664  -0.049  0.00  0.00     0.004 A 
ATOM      4  C5  UNL d   1       0.859  -0.902   1.073  0.00  0.00    -0.004 A 
ATOM      5  C6  UNL d   1      -0.025   0.080   1.533  0.00  0.00    -0.075 A 
ATOM      6  C7  UNL d   1      -0.883  -0.159   2.741  0.00  0.00     0.076 C 
ATOM      7  C8  UNL d   1      -0.097   1.305   0.857  0.00  0.00     0.001 A 
ENDROOT
BRANCH   1   8
ATOM      8  C1  UNL d   1       0.609   2.875  -0.991  0.00  0.00     0.053 C 
ATOM      9  C   UNL d   1       0.221   4.011  -0.059  0.00  0.00     0.018 C 
ENDBRANCH   1   8
TORSDOF 1
ENDMDL
