MODEL 1
REMARK minimizedAffinity -2.72472405
REMARK minimizedRMSD -1
REMARK  1 active torsions:
REMARK  status: ('A' for Active; 'I' for Inactive)
REMARK    1  A    between atoms: C1_2  and  C2_3 
ROOT
ATOM      1  C2  UNL d   1       0.288  -1.009  -1.096  0.00  0.00    -0.073 A 
ATOM      2  C3  UNL d   1      -0.019  -0.956  -2.460  0.00  0.00    -0.002 A 
ATOM      3  C4  UNL d   1       0.223  -2.058  -3.281  0.00  0.00     0.004 A 
ATOM      4  C5  UNL d   1       0.767  -3.226  -2.746  0.00  0.00    -0.004 A 
ATOM      5  C6  UNL d   1       1.069  -3.303  -1.383  0.00  0.00    -0.075 A 
ATOM      6  C7  UNL d   1       1.656  -4.551  -0.792  0.00  0.00     0.076 C 
ATOM      7  C8  UNL d   1       0.826  -2.191  -0.565  0.00  0.00     0.001 A 
ENDROOT
BRANCH   1   8
ATOM      8  C1  UNL d   1       0.022   0.176  -0.204  0.00  0.00     0.053 C 
ATOM      9  C   UNL d   1      -0.337  -0.245   1.212  0.00  0.00     0.018 C 
ENDBRANCH   1   8
TORSDOF 1
ENDMDL
