MODEL 1
REMARK minimizedAffinity -1.75801671
REMARK minimizedRMSD -1
REMARK  1 active torsions:
REMARK  status: ('A' for Active; 'I' for Inactive)
REMARK    1  A    between atoms: C1_2  and  C2_3 
ROOT
ATOM      1  C2  UNL d   1       0.738  -1.664  -1.388  0.00  0.00    -0.073 A 
ATOM      2  C3  UNL d   1       0.140  -1.546  -2.648  0.00  0.00    -0.002 A 
ATOM      3  C4  UNL d   1      -0.298  -2.683  -3.329  0.00  0.00     0.004 A 
ATOM      4  C5  UNL d   1      -0.148  -3.946  -2.756  0.00  0.00    -0.004 A 
ATOM      5  C6  UNL d   1       0.436  -4.083  -1.493  0.00  0.00    -0.075 A 
ATOM      6  C7  UNL d   1       0.606  -5.434  -0.864  0.00  0.00     0.076 C 
ATOM      7  C8  UNL d   1       0.875  -2.937  -0.816  0.00  0.00     0.001 A 
ENDROOT
BRANCH   1   8
ATOM      8  C1  UNL d   1       1.206  -0.439  -0.645  0.00  0.00     0.053 C 
ATOM      9  C   UNL d   1       0.226  -0.021   0.439  0.00  0.00     0.018 C 
ENDBRANCH   1   8
TORSDOF 1
ENDMDL
