MODEL 1
REMARK minimizedAffinity -2.24631763
REMARK minimizedRMSD -1
REMARK  1 active torsions:
REMARK  status: ('A' for Active; 'I' for Inactive)
REMARK    1  A    between atoms: C1_2  and  C2_3 
ROOT
ATOM      1  C2  UNL d   1       0.054   0.266   0.315  0.00  0.00    -0.073 A 
ATOM      2  C3  UNL d   1      -0.475  -0.011   1.581  0.00  0.00    -0.002 A 
ATOM      3  C4  UNL d   1      -0.899   1.028   2.411  0.00  0.00     0.004 A 
ATOM      4  C5  UNL d   1      -0.804   2.351   1.983  0.00  0.00    -0.004 A 
ATOM      5  C6  UNL d   1      -0.289   2.648   0.717  0.00  0.00    -0.075 A 
ATOM      6  C7  UNL d   1      -0.179   4.067   0.242  0.00  0.00     0.076 C 
ATOM      7  C8  UNL d   1       0.137   1.600  -0.110  0.00  0.00     0.001 A 
ENDROOT
BRANCH   1   8
ATOM      8  C1  UNL d   1       0.506  -0.853  -0.587  0.00  0.00     0.053 C 
ATOM      9  C   UNL d   1       1.708  -0.455  -1.429  0.00  0.00     0.018 C 
ENDBRANCH   1   8
TORSDOF 1
ENDMDL
