MODEL 1
REMARK minimizedAffinity -4.31115341
REMARK minimizedRMSD -1
REMARK  1 active torsions:
REMARK  status: ('A' for Active; 'I' for Inactive)
REMARK    1  A    between atoms: C1_2  and  C2_3 
ROOT
ATOM      1  C2  UNL d   1       0.217  -0.426   0.042  0.00  0.00    -0.073 A 
ATOM      2  C3  UNL d   1      -0.407  -0.920   1.193  0.00  0.00    -0.002 A 
ATOM      3  C4  UNL d   1      -1.055  -0.050   2.072  0.00  0.00     0.004 A 
ATOM      4  C5  UNL d   1      -1.093   1.318   1.805  0.00  0.00    -0.004 A 
ATOM      5  C6  UNL d   1      -0.486   1.829   0.653  0.00  0.00    -0.075 A 
ATOM      6  C7  UNL d   1      -0.516   3.299   0.353  0.00  0.00     0.076 C 
ATOM      7  C8  UNL d   1       0.165   0.950  -0.223  0.00  0.00     0.001 A 
ENDROOT
BRANCH   1   8
ATOM      8  C1  UNL d   1       0.912  -1.361  -0.913  0.00  0.00     0.053 C 
ATOM      9  C   UNL d   1      -0.009  -1.823  -2.032  0.00  0.00     0.018 C 
ENDBRANCH   1   8
TORSDOF 1
ENDMDL
