MODEL 1
REMARK minimizedAffinity -3.48822999
REMARK minimizedRMSD -1
REMARK  1 active torsions:
REMARK  status: ('A' for Active; 'I' for Inactive)
REMARK    1  A    between atoms: C1_2  and  C2_3 
ROOT
ATOM      1  C2  UNL d   1      -0.293   0.383   0.556  0.00  0.00    -0.073 A 
ATOM      2  C3  UNL d   1      -1.013   1.003   1.583  0.00  0.00    -0.002 A 
ATOM      3  C4  UNL d   1      -1.286   2.370   1.526  0.00  0.00     0.004 A 
ATOM      4  C5  UNL d   1      -0.848   3.129   0.441  0.00  0.00    -0.004 A 
ATOM      5  C6  UNL d   1      -0.137   2.526  -0.601  0.00  0.00    -0.075 A 
ATOM      6  C7  UNL d   1       0.343   3.328  -1.774  0.00  0.00     0.076 C 
ATOM      7  C8  UNL d   1       0.136   1.152  -0.535  0.00  0.00     0.001 A 
ENDROOT
BRANCH   1   8
ATOM      8  C1  UNL d   1      -0.001  -1.095   0.609  0.00  0.00     0.053 C 
ATOM      9  C   UNL d   1       0.829  -1.555  -0.578  0.00  0.00     0.018 C 
ENDBRANCH   1   8
TORSDOF 1
ENDMDL
