MODEL 1
REMARK minimizedAffinity -4.04136324
REMARK minimizedRMSD -1
REMARK  1 active torsions:
REMARK  status: ('A' for Active; 'I' for Inactive)
REMARK    1  A    between atoms: C1_2  and  C2_3 
ROOT
ATOM      1  C2  UNL d   1       0.232  -0.128  -0.175  0.00  0.00    -0.073 A 
ATOM      2  C3  UNL d   1      -0.466  -0.514   0.975  0.00  0.00    -0.002 A 
ATOM      3  C4  UNL d   1      -0.996   0.449   1.835  0.00  0.00     0.004 A 
ATOM      4  C5  UNL d   1      -0.840   1.806   1.551  0.00  0.00    -0.004 A 
ATOM      5  C6  UNL d   1      -0.156   2.211   0.400  0.00  0.00    -0.075 A 
ATOM      6  C7  UNL d   1       0.022   3.667   0.081  0.00  0.00     0.076 C 
ATOM      7  C8  UNL d   1       0.375   1.238  -0.457  0.00  0.00     0.001 A 
ENDROOT
BRANCH   1   8
ATOM      8  C1  UNL d   1       0.800  -1.164  -1.109  0.00  0.00     0.053 C 
ATOM      9  C   UNL d   1      -0.290  -1.937  -1.834  0.00  0.00     0.018 C 
ENDBRANCH   1   8
TORSDOF 1
ENDMDL
