MODEL 1
REMARK minimizedAffinity 0.971155405
REMARK minimizedRMSD -1
REMARK  1 active torsions:
REMARK  status: ('A' for Active; 'I' for Inactive)
REMARK    1  A    between atoms: C1_2  and  C2_3 
ROOT
ATOM      1  C2  UNL d   1       0.146  -1.374  -0.731  0.00  0.00    -0.073 A 
ATOM      2  C3  UNL d   1      -0.621  -1.695  -1.856  0.00  0.00    -0.002 A 
ATOM      3  C4  UNL d   1      -0.504  -2.950  -2.455  0.00  0.00     0.004 A 
ATOM      4  C5  UNL d   1       0.376  -3.898  -1.932  0.00  0.00    -0.004 A 
ATOM      5  C6  UNL d   1       1.142  -3.600  -0.801  0.00  0.00    -0.075 A 
ATOM      6  C7  UNL d   1       2.094  -4.608  -0.226  0.00  0.00     0.076 C 
ATOM      7  C8  UNL d   1       1.021  -2.336  -0.207  0.00  0.00     0.001 A 
ENDROOT
BRANCH   1   8
ATOM      8  C1  UNL d   1       0.018  -0.022  -0.077  0.00  0.00     0.053 C 
ATOM      9  C   UNL d   1      -0.146  -0.131   1.430  0.00  0.00     0.018 C 
ENDBRANCH   1   8
TORSDOF 1
ENDMDL
