MODEL 1
REMARK minimizedAffinity -4.63967371
REMARK minimizedRMSD -1
REMARK  1 active torsions:
REMARK  status: ('A' for Active; 'I' for Inactive)
REMARK    1  A    between atoms: C1_2  and  C2_3 
ROOT
ATOM      1  C2  UNL d   1       0.310  -0.558  -0.143  0.00  0.00    -0.073 A 
ATOM      2  C3  UNL d   1      -0.350  -0.847   1.057  0.00  0.00    -0.002 A 
ATOM      3  C4  UNL d   1      -1.076   0.144   1.719  0.00  0.00     0.004 A 
ATOM      4  C5  UNL d   1      -1.156   1.430   1.186  0.00  0.00    -0.004 A 
ATOM      5  C6  UNL d   1      -0.513   1.736  -0.018  0.00  0.00    -0.075 A 
ATOM      6  C7  UNL d   1      -0.587   3.116  -0.604  0.00  0.00     0.076 C 
ATOM      7  C8  UNL d   1       0.216   0.736  -0.676  0.00  0.00     0.001 A 
ENDROOT
BRANCH   1   8
ATOM      8  C1  UNL d   1       1.089  -1.626  -0.865  0.00  0.00     0.053 C 
ATOM      9  C   UNL d   1       0.345  -2.150  -2.083  0.00  0.00     0.018 C 
ENDBRANCH   1   8
TORSDOF 1
ENDMDL
