MODEL 1
REMARK minimizedAffinity -1.3704679
REMARK minimizedRMSD -1
REMARK  0 active torsions:
REMARK  status: ('A' for Active; 'I' for Inactive)
ROOT
ATOM      1  C   UNL d   1       0.336  -2.532   0.204  0.00  0.00     0.020 A 
ATOM      2  C1  UNL d   1       1.179  -1.871  -0.689  0.00  0.00     0.020 A 
ATOM      3  C2  UNL d   1       1.034  -0.499  -0.900  0.00  0.00     0.034 A 
ATOM      4  C3  UNL d   1       0.043   0.218  -0.218  0.00  0.00     0.017 A 
ATOM      5  C4  UNL d   1      -0.802  -0.447   0.677  0.00  0.00     0.017 A 
ATOM      6  C5  UNL d   1      -0.652  -1.822   0.885  0.00  0.00     0.034 A 
ATOM      7 Cl   UNL d   1      -2.048   0.369   1.555  0.00  0.00    -0.070 Cl
ATOM      8 Cl1  UNL d   1      -0.080   1.913  -0.528  0.00  0.00    -0.070 Cl
ENDROOT
TORSDOF 0
ENDMDL
