MODEL 1
REMARK minimizedAffinity -5.7344985
REMARK minimizedRMSD -1
REMARK  0 active torsions:
REMARK  status: ('A' for Active; 'I' for Inactive)
ROOT
ATOM      1  C   UNL d   1      -0.509  -2.490   1.161  0.00  0.00     0.020 A 
ATOM      2  C1  UNL d   1      -0.187  -3.531   0.291  0.00  0.00     0.020 A 
ATOM      3  C2  UNL d   1       0.110  -3.257  -1.046  0.00  0.00     0.034 A 
ATOM      4  C3  UNL d   1       0.084  -1.939  -1.517  0.00  0.00     0.017 A 
ATOM      5  C4  UNL d   1      -0.240  -0.895  -0.643  0.00  0.00     0.017 A 
ATOM      6  C5  UNL d   1      -0.536  -1.175   0.695  0.00  0.00     0.034 A 
ATOM      7 Cl   UNL d   1      -0.291   0.756  -1.151  0.00  0.00    -0.070 Cl
ATOM      8 Cl1  UNL d   1       0.462  -1.674  -3.182  0.00  0.00    -0.070 Cl
ENDROOT
TORSDOF 0
ENDMDL
