MODEL 1
REMARK minimizedAffinity -2.2637434
REMARK minimizedRMSD -1
REMARK  0 active torsions:
REMARK  status: ('A' for Active; 'I' for Inactive)
ROOT
ATOM      1  C   UNL d   1      -0.497   1.133   1.218  0.00  0.00     0.020 A 
ATOM      2  C1  UNL d   1       0.069   1.750   0.103  0.00  0.00     0.020 A 
ATOM      3  C2  UNL d   1       0.536   0.976  -0.961  0.00  0.00     0.034 A 
ATOM      4  C3  UNL d   1       0.438  -0.419  -0.913  0.00  0.00     0.017 A 
ATOM      5  C4  UNL d   1      -0.131  -1.038   0.206  0.00  0.00     0.017 A 
ATOM      6  C5  UNL d   1      -0.597  -0.258   1.269  0.00  0.00     0.034 A 
ATOM      7 Cl   UNL d   1      -0.287  -2.754   0.337  0.00  0.00    -0.070 Cl
ATOM      8 Cl1  UNL d   1       1.035  -1.314  -2.265  0.00  0.00    -0.070 Cl
ENDROOT
TORSDOF 0
ENDMDL
