MODEL 1
REMARK minimizedAffinity -3.1971693
REMARK minimizedRMSD -1
REMARK  0 active torsions:
REMARK  status: ('A' for Active; 'I' for Inactive)
ROOT
ATOM      1  C   UNL d   1       0.771  -2.812  -0.404  0.00  0.00     0.020 A 
ATOM      2  C1  UNL d   1      -0.306  -3.307   0.330  0.00  0.00     0.020 A 
ATOM      3  C2  UNL d   1      -1.208  -2.424   0.928  0.00  0.00     0.034 A 
ATOM      4  C3  UNL d   1      -1.035  -1.042   0.793  0.00  0.00     0.017 A 
ATOM      5  C4  UNL d   1       0.046  -0.546   0.055  0.00  0.00     0.017 A 
ATOM      6  C5  UNL d   1       0.946  -1.435  -0.542  0.00  0.00     0.034 A 
ATOM      7 Cl   UNL d   1       0.326   1.146  -0.156  0.00  0.00    -0.070 Cl
ATOM      8 Cl1  UNL d   1      -2.188  -0.009   1.559  0.00  0.00    -0.070 Cl
ENDROOT
TORSDOF 0
ENDMDL
