MODEL 1
REMARK minimizedAffinity -3.59676027
REMARK minimizedRMSD -1
REMARK  0 active torsions:
REMARK  status: ('A' for Active; 'I' for Inactive)
ROOT
ATOM      1  C   UNL d   1      -0.171   1.270  -0.220  0.00  0.00     0.020 A 
ATOM      2  C1  UNL d   1      -0.792   0.696   0.889  0.00  0.00     0.020 A 
ATOM      3  C2  UNL d   1      -0.679  -0.677   1.119  0.00  0.00     0.034 A 
ATOM      4  C3  UNL d   1       0.055  -1.480   0.240  0.00  0.00     0.017 A 
ATOM      5  C4  UNL d   1       0.678  -0.903  -0.873  0.00  0.00     0.017 A 
ATOM      6  C5  UNL d   1       0.562   0.472  -1.099  0.00  0.00     0.034 A 
ATOM      7 Cl   UNL d   1       1.601  -1.830  -2.003  0.00  0.00    -0.070 Cl
ATOM      8 Cl1  UNL d   1       0.153  -3.170   0.587  0.00  0.00    -0.070 Cl
ENDROOT
TORSDOF 0
ENDMDL
