MODEL 1
REMARK minimizedAffinity -4.39010286
REMARK minimizedRMSD -1
REMARK  0 active torsions:
REMARK  status: ('A' for Active; 'I' for Inactive)
ROOT
ATOM      1  C   UNL d   1       1.030  -0.463  -2.626  0.00  0.00     0.020 A 
ATOM      2  C1  UNL d   1       0.589   0.726  -2.047  0.00  0.00     0.020 A 
ATOM      3  C2  UNL d   1       0.190   0.745  -0.709  0.00  0.00     0.034 A 
ATOM      4  C3  UNL d   1       0.232  -0.427   0.055  0.00  0.00     0.017 A 
ATOM      5  C4  UNL d   1       0.674  -1.620  -0.528  0.00  0.00     0.017 A 
ATOM      6  C5  UNL d   1       1.072  -1.634  -1.868  0.00  0.00     0.034 A 
ATOM      7 Cl   UNL d   1       0.754  -3.107   0.351  0.00  0.00    -0.070 Cl
ATOM      8 Cl1  UNL d   1      -0.275  -0.330   1.704  0.00  0.00    -0.070 Cl
ENDROOT
TORSDOF 0
ENDMDL
