MODEL 1
REMARK minimizedAffinity -4.18622065
REMARK minimizedRMSD -1
REMARK  0 active torsions:
REMARK  status: ('A' for Active; 'I' for Inactive)
ROOT
ATOM      1  C   UNL d   1      -0.255  -3.026  -0.051  0.00  0.00     0.020 A 
ATOM      2  C1  UNL d   1       0.340  -2.355  -1.118  0.00  0.00     0.020 A 
ATOM      3  C2  UNL d   1       0.508  -0.969  -1.064  0.00  0.00     0.034 A 
ATOM      4  C3  UNL d   1       0.082  -0.251   0.059  0.00  0.00     0.017 A 
ATOM      5  C4  UNL d   1      -0.514  -0.927   1.130  0.00  0.00     0.017 A 
ATOM      6  C5  UNL d   1      -0.681  -2.314   1.071  0.00  0.00     0.034 A 
ATOM      7 Cl   UNL d   1      -1.065  -0.109   2.550  0.00  0.00    -0.070 Cl
ATOM      8 Cl1  UNL d   1       0.323   1.460   0.058  0.00  0.00    -0.070 Cl
ENDROOT
TORSDOF 0
ENDMDL
