MODEL 1
REMARK minimizedAffinity 1.02141953
REMARK minimizedRMSD -1
REMARK  0 active torsions:
REMARK  status: ('A' for Active; 'I' for Inactive)
ROOT
ATOM      1  C   UNL d   1      -0.409   1.322  -0.426  0.00  0.00     0.020 A 
ATOM      2  C1  UNL d   1      -0.598   0.668   0.791  0.00  0.00     0.020 A 
ATOM      3  C2  UNL d   1      -0.219  -0.669   0.932  0.00  0.00     0.034 A 
ATOM      4  C3  UNL d   1       0.351  -1.356  -0.146  0.00  0.00     0.017 A 
ATOM      5  C4  UNL d   1       0.540  -0.699  -1.367  0.00  0.00     0.017 A 
ATOM      6  C5  UNL d   1       0.159   0.640  -1.502  0.00  0.00     0.034 A 
ATOM      7 Cl   UNL d   1       1.236  -1.481  -2.743  0.00  0.00    -0.070 Cl
ATOM      8 Cl1  UNL d   1       0.796  -3.008   0.099  0.00  0.00    -0.070 Cl
ENDROOT
TORSDOF 0
ENDMDL
