MODEL 1
REMARK minimizedAffinity -1.4952656
REMARK minimizedRMSD -1
REMARK  0 active torsions:
REMARK  status: ('A' for Active; 'I' for Inactive)
ROOT
ATOM      1  C   UNL d   1      -0.915   0.383   1.023  0.00  0.00     0.020 A 
ATOM      2  C1  UNL d   1      -0.595   1.025  -0.172  0.00  0.00     0.020 A 
ATOM      3  C2  UNL d   1      -0.094   0.288  -1.247  0.00  0.00     0.034 A 
ATOM      4  C3  UNL d   1       0.089  -1.095  -1.129  0.00  0.00     0.017 A 
ATOM      5  C4  UNL d   1      -0.233  -1.738   0.072  0.00  0.00     0.017 A 
ATOM      6  C5  UNL d   1      -0.735  -0.995   1.145  0.00  0.00     0.034 A 
ATOM      7 Cl   UNL d   1      -0.036  -3.441   0.293  0.00  0.00    -0.070 Cl
ATOM      8 Cl1  UNL d   1       0.712  -1.943  -2.499  0.00  0.00    -0.070 Cl
ENDROOT
TORSDOF 0
ENDMDL
