MODEL 1
REMARK minimizedAffinity -5.63657522
REMARK minimizedRMSD -1
REMARK  0 active torsions:
REMARK  status: ('A' for Active; 'I' for Inactive)
ROOT
ATOM      1  C   UNL d   1       0.055  -3.468  -1.144  0.00  0.00     0.020 A 
ATOM      2  C1  UNL d   1      -0.042  -3.134   0.206  0.00  0.00     0.020 A 
ATOM      3  C2  UNL d   1      -0.113  -1.793   0.590  0.00  0.00     0.034 A 
ATOM      4  C3  UNL d   1      -0.088  -0.782  -0.377  0.00  0.00     0.017 A 
ATOM      5  C4  UNL d   1       0.009  -1.118  -1.732  0.00  0.00     0.017 A 
ATOM      6  C5  UNL d   1       0.080  -2.462  -2.111  0.00  0.00     0.034 A 
ATOM      7 Cl   UNL d   1       0.046   0.074  -2.983  0.00  0.00    -0.070 Cl
ATOM      8 Cl1  UNL d   1      -0.181   0.855   0.169  0.00  0.00    -0.070 Cl
ENDROOT
TORSDOF 0
ENDMDL
