MODEL 1
REMARK minimizedAffinity -2.53889441
REMARK minimizedRMSD -1
REMARK  0 active torsions:
REMARK  status: ('A' for Active; 'I' for Inactive)
ROOT
ATOM      1  C   UNL d   1      -0.603   1.083  -0.225  0.00  0.00     0.020 A 
ATOM      2  C1  UNL d   1      -1.177   0.423   0.861  0.00  0.00     0.020 A 
ATOM      3  C2  UNL d   1      -0.964  -0.946   1.038  0.00  0.00     0.034 A 
ATOM      4  C3  UNL d   1      -0.177  -1.659   0.127  0.00  0.00     0.017 A 
ATOM      5  C4  UNL d   1       0.398  -0.996  -0.963  0.00  0.00     0.017 A 
ATOM      6  C5  UNL d   1       0.183   0.375  -1.135  0.00  0.00     0.034 A 
ATOM      7 Cl   UNL d   1       1.382  -1.809  -2.129  0.00  0.00    -0.070 Cl
ATOM      8 Cl1  UNL d   1       0.044  -3.350   0.407  0.00  0.00    -0.070 Cl
ENDROOT
TORSDOF 0
ENDMDL
