MODEL 1
REMARK minimizedAffinity -4.59326982
REMARK minimizedRMSD -1
REMARK  0 active torsions:
REMARK  status: ('A' for Active; 'I' for Inactive)
ROOT
ATOM      1  C   UNL d   1       0.459  -3.018  -0.471  0.00  0.00     0.020 A 
ATOM      2  C1  UNL d   1      -0.271  -3.063   0.716  0.00  0.00     0.020 A 
ATOM      3  C2  UNL d   1      -0.854  -1.900   1.222  0.00  0.00     0.034 A 
ATOM      4  C3  UNL d   1      -0.708  -0.686   0.540  0.00  0.00     0.017 A 
ATOM      5  C4  UNL d   1       0.025  -0.641  -0.651  0.00  0.00     0.017 A 
ATOM      6  C5  UNL d   1       0.607  -1.809  -1.153  0.00  0.00     0.034 A 
ATOM      7 Cl   UNL d   1       0.248   0.819  -1.548  0.00  0.00    -0.070 Cl
ATOM      8 Cl1  UNL d   1      -1.457   0.714   1.223  0.00  0.00    -0.070 Cl
ENDROOT
TORSDOF 0
ENDMDL
