MODEL 1
REMARK minimizedAffinity -4.36295414
REMARK minimizedRMSD -1
REMARK  0 active torsions:
REMARK  status: ('A' for Active; 'I' for Inactive)
ROOT
ATOM      1  C   UNL d   1      -0.554  -3.507  -0.821  0.00  0.00     0.020 A 
ATOM      2  C1  UNL d   1      -0.137  -2.790  -1.942  0.00  0.00     0.020 A 
ATOM      3  C2  UNL d   1       0.057  -1.409  -1.855  0.00  0.00     0.034 A 
ATOM      4  C3  UNL d   1      -0.165  -0.742  -0.645  0.00  0.00     0.017 A 
ATOM      5  C4  UNL d   1      -0.583  -1.463   0.479  0.00  0.00     0.017 A 
ATOM      6  C5  UNL d   1      -0.776  -2.845   0.387  0.00  0.00     0.034 A 
ATOM      7 Cl   UNL d   1      -0.876  -0.709   2.007  0.00  0.00    -0.070 Cl
ATOM      8 Cl1  UNL d   1       0.095   0.966  -0.610  0.00  0.00    -0.070 Cl
ENDROOT
TORSDOF 0
ENDMDL
