MODEL 1
REMARK minimizedAffinity -3.89856791
REMARK minimizedRMSD -1
REMARK  0 active torsions:
REMARK  status: ('A' for Active; 'I' for Inactive)
ROOT
ATOM      1  C   UNL d   1       0.063  -3.243   0.569  0.00  0.00     0.020 A 
ATOM      2  C1  UNL d   1       1.014  -2.867  -0.378  0.00  0.00     0.020 A 
ATOM      3  C2  UNL d   1       1.096  -1.537  -0.797  0.00  0.00     0.034 A 
ATOM      4  C3  UNL d   1       0.224  -0.578  -0.268  0.00  0.00     0.017 A 
ATOM      5  C4  UNL d   1      -0.730  -0.956   0.683  0.00  0.00     0.017 A 
ATOM      6  C5  UNL d   1      -0.808  -2.289   1.099  0.00  0.00     0.034 A 
ATOM      7 Cl   UNL d   1      -1.840   0.171   1.382  0.00  0.00    -0.070 Cl
ATOM      8 Cl1  UNL d   1       0.382   1.048  -0.830  0.00  0.00    -0.070 Cl
ENDROOT
TORSDOF 0
ENDMDL
