MODEL 1
REMARK minimizedAffinity -3.44469643
REMARK minimizedRMSD -1
REMARK  0 active torsions:
REMARK  status: ('A' for Active; 'I' for Inactive)
ROOT
ATOM      1  C   UNL d   1      -0.206  -2.863   0.479  0.00  0.00     0.020 A 
ATOM      2  C1  UNL d   1       1.076  -2.401   0.184  0.00  0.00     0.020 A 
ATOM      3  C2  UNL d   1       1.343  -1.031   0.189  0.00  0.00     0.034 A 
ATOM      4  C3  UNL d   1       0.327  -0.116   0.490  0.00  0.00     0.017 A 
ATOM      5  C4  UNL d   1      -0.960  -0.580   0.786  0.00  0.00     0.017 A 
ATOM      6  C5  UNL d   1      -1.222  -1.954   0.779  0.00  0.00     0.034 A 
ATOM      7 Cl   UNL d   1      -2.265   0.487   1.167  0.00  0.00    -0.070 Cl
ATOM      8 Cl1  UNL d   1       0.729   1.564   0.479  0.00  0.00    -0.070 Cl
ENDROOT
TORSDOF 0
ENDMDL
