MODEL 1
REMARK minimizedAffinity -2.96444368
REMARK minimizedRMSD -1
REMARK  0 active torsions:
REMARK  status: ('A' for Active; 'I' for Inactive)
ROOT
ATOM      1  C   UNL d   1      -0.176  -2.425   0.202  0.00  0.00     0.020 A 
ATOM      2  C1  UNL d   1       0.659  -1.716  -0.661  0.00  0.00     0.020 A 
ATOM      3  C2  UNL d   1       0.774  -0.329  -0.539  0.00  0.00     0.034 A 
ATOM      4  C3  UNL d   1       0.054   0.352   0.449  0.00  0.00     0.017 A 
ATOM      5  C4  UNL d   1      -0.784  -0.360   1.315  0.00  0.00     0.017 A 
ATOM      6  C5  UNL d   1      -0.896  -1.748   1.188  0.00  0.00     0.034 A 
ATOM      7 Cl   UNL d   1      -1.704   0.412   2.558  0.00  0.00    -0.070 Cl
ATOM      8 Cl1  UNL d   1       0.245   2.067   0.543  0.00  0.00    -0.070 Cl
ENDROOT
TORSDOF 0
ENDMDL
