MODEL 1
REMARK minimizedAffinity -2.34203625
REMARK minimizedRMSD -1
REMARK  0 active torsions:
REMARK  status: ('A' for Active; 'I' for Inactive)
ROOT
ATOM      1  C   UNL d   1      -0.375   1.472  -0.432  0.00  0.00     0.020 A 
ATOM      2  C1  UNL d   1      -0.803   0.941   0.784  0.00  0.00     0.020 A 
ATOM      3  C2  UNL d   1      -0.690  -0.429   1.026  0.00  0.00     0.034 A 
ATOM      4  C3  UNL d   1      -0.147  -1.274   0.051  0.00  0.00     0.017 A 
ATOM      5  C4  UNL d   1       0.283  -0.741  -1.169  0.00  0.00     0.017 A 
ATOM      6  C5  UNL d   1       0.167   0.632  -1.407  0.00  0.00     0.034 A 
ATOM      7 Cl   UNL d   1       0.962  -1.720  -2.421  0.00  0.00    -0.070 Cl
ATOM      8 Cl1  UNL d   1      -0.037  -2.959   0.419  0.00  0.00    -0.070 Cl
ENDROOT
TORSDOF 0
ENDMDL
