MODEL 1
REMARK minimizedAffinity -2.91437244
REMARK minimizedRMSD -1
REMARK  0 active torsions:
REMARK  status: ('A' for Active; 'I' for Inactive)
ROOT
ATOM      1  C   UNL d   1      -0.169  -2.768   0.424  0.00  0.00     0.020 A 
ATOM      2  C1  UNL d   1       1.086  -2.274   0.071  0.00  0.00     0.020 A 
ATOM      3  C2  UNL d   1       1.279  -0.898  -0.071  0.00  0.00     0.034 A 
ATOM      4  C3  UNL d   1       0.217  -0.012   0.141  0.00  0.00     0.017 A 
ATOM      5  C4  UNL d   1      -1.042  -0.509   0.496  0.00  0.00     0.017 A 
ATOM      6  C5  UNL d   1      -1.231  -1.888   0.637  0.00  0.00     0.034 A 
ATOM      7 Cl   UNL d   1      -2.401   0.522   0.774  0.00  0.00    -0.070 Cl
ATOM      8 Cl1  UNL d   1       0.528   1.677  -0.051  0.00  0.00    -0.070 Cl
ENDROOT
TORSDOF 0
ENDMDL
