MODEL 1
REMARK minimizedAffinity -3.83656669
REMARK minimizedRMSD -1
REMARK  0 active torsions:
REMARK  status: ('A' for Active; 'I' for Inactive)
ROOT
ATOM      1  C   UNL d   1       0.411  -1.230   0.394  0.00  0.00     0.172 C 
ATOM      2  N   UNL d   1       0.229   0.202   0.351  0.00  0.00    -0.070 N 
ATOM      3  C1  UNL d   1       1.164   1.114  -0.060  0.00  0.00    -0.004 A 
ATOM      4  C2  UNL d   1       0.606   2.369   0.046  0.00  0.00    -0.047 A 
ATOM      5  C3  UNL d   1      -0.710   2.207   0.540  0.00  0.00    -0.047 A 
ATOM      6  C4  UNL d   1      -0.918   0.855   0.720  0.00  0.00    -0.004 A 
ENDROOT
TORSDOF 0
ENDMDL
