MODEL 1
REMARK minimizedAffinity -1.14728773
REMARK minimizedRMSD -1
REMARK  0 active torsions:
REMARK  status: ('A' for Active; 'I' for Inactive)
ROOT
ATOM      1  C   UNL d   1      -0.276   2.572   0.870  0.00  0.00     0.172 C 
ATOM      2  N   UNL d   1       0.154   1.229   0.559  0.00  0.00    -0.070 N 
ATOM      3  C1  UNL d   1       1.431   0.750   0.687  0.00  0.00    -0.004 A 
ATOM      4  C2  UNL d   1       1.428  -0.570   0.291  0.00  0.00    -0.047 A 
ATOM      5  C3  UNL d   1       0.104  -0.895  -0.089  0.00  0.00    -0.047 A 
ATOM      6  C4  UNL d   1      -0.664   0.237   0.087  0.00  0.00    -0.004 A 
ENDROOT
TORSDOF 0
ENDMDL
