MODEL 1
REMARK minimizedAffinity -2.77091694
REMARK minimizedRMSD -1
REMARK  0 active torsions:
REMARK  status: ('A' for Active; 'I' for Inactive)
ROOT
ATOM      1  C   UNL d   1      -0.041  -0.904  -0.199  0.00  0.00     0.172 C 
ATOM      2  N   UNL d   1      -0.404   0.463   0.096  0.00  0.00    -0.070 N 
ATOM      3  C1  UNL d   1      -1.586   0.873   0.653  0.00  0.00    -0.004 A 
ATOM      4  C2  UNL d   1      -1.543   2.245   0.772  0.00  0.00    -0.047 A 
ATOM      5  C3  UNL d   1      -0.292   2.675   0.268  0.00  0.00    -0.047 A 
ATOM      6  C4  UNL d   1       0.393   1.551  -0.143  0.00  0.00    -0.004 A 
ENDROOT
TORSDOF 0
ENDMDL
