MODEL 1
REMARK minimizedAffinity -3.28442454
REMARK minimizedRMSD -1
REMARK  0 active torsions:
REMARK  status: ('A' for Active; 'I' for Inactive)
ROOT
ATOM      1  C   UNL d   1       0.668  -2.258   0.375  0.00  0.00     0.172 C 
ATOM      2  N   UNL d   1      -0.075  -1.091  -0.041  0.00  0.00    -0.070 N 
ATOM      3  C1  UNL d   1      -0.174  -0.624  -1.324  0.00  0.00    -0.004 A 
ATOM      4  C2  UNL d   1      -0.968   0.503  -1.302  0.00  0.00    -0.047 A 
ATOM      5  C3  UNL d   1      -1.358   0.720   0.041  0.00  0.00    -0.047 A 
ATOM      6  C4  UNL d   1      -0.792  -0.281   0.800  0.00  0.00    -0.004 A 
ENDROOT
TORSDOF 0
ENDMDL
