MODEL 1
REMARK minimizedAffinity -2.07637787
REMARK minimizedRMSD -1
REMARK  0 active torsions:
REMARK  status: ('A' for Active; 'I' for Inactive)
ROOT
ATOM      1  C   UNL d   1      -0.407  -3.255  -1.719  0.00  0.00     0.172 C 
ATOM      2  N   UNL d   1      -0.202  -2.080  -0.906  0.00  0.00    -0.070 N 
ATOM      3  C1  UNL d   1      -0.962  -0.941  -0.942  0.00  0.00    -0.004 A 
ATOM      4  C2  UNL d   1      -0.445  -0.059  -0.018  0.00  0.00    -0.047 A 
ATOM      5  C3  UNL d   1       0.665  -0.689   0.594  0.00  0.00    -0.047 A 
ATOM      6  C4  UNL d   1       0.793  -1.939   0.026  0.00  0.00    -0.004 A 
ENDROOT
TORSDOF 0
ENDMDL
