MODEL 1
REMARK minimizedAffinity -2.14544964
REMARK minimizedRMSD -1
REMARK  0 active torsions:
REMARK  status: ('A' for Active; 'I' for Inactive)
ROOT
ATOM      1  C   UNL d   1      -1.115   1.033   0.170  0.00  0.00     0.172 C 
ATOM      2  N   UNL d   1      -0.075   0.031   0.153  0.00  0.00    -0.070 N 
ATOM      3  C1  UNL d   1       1.272   0.278   0.178  0.00  0.00    -0.004 A 
ATOM      4  C2  UNL d   1       1.924  -0.936   0.151  0.00  0.00    -0.047 A 
ATOM      5  C3  UNL d   1       0.934  -1.947   0.108  0.00  0.00    -0.047 A 
ATOM      6  C4  UNL d   1      -0.294  -1.321   0.111  0.00  0.00    -0.004 A 
ENDROOT
TORSDOF 0
ENDMDL
