MODEL 1
REMARK minimizedAffinity -2.91041732
REMARK minimizedRMSD -1
REMARK  0 active torsions:
REMARK  status: ('A' for Active; 'I' for Inactive)
ROOT
ATOM      1  C   UNL d   1       0.480  -1.727   0.338  0.00  0.00     0.172 C 
ATOM      2  N   UNL d   1      -0.331  -0.555   0.107  0.00  0.00    -0.070 N 
ATOM      3  C1  UNL d   1      -0.415   0.138  -1.071  0.00  0.00    -0.004 A 
ATOM      4  C2  UNL d   1      -1.291   1.185  -0.883  0.00  0.00    -0.047 A 
ATOM      5  C3  UNL d   1      -1.749   1.119   0.454  0.00  0.00    -0.047 A 
ATOM      6  C4  UNL d   1      -1.138   0.033   1.044  0.00  0.00    -0.004 A 
ENDROOT
TORSDOF 0
ENDMDL
