MODEL 1
REMARK minimizedAffinity -2.24052811
REMARK minimizedRMSD -1
REMARK  0 active torsions:
REMARK  status: ('A' for Active; 'I' for Inactive)
ROOT
ATOM      1  C   UNL d   1      -0.022  -2.611  -1.932  0.00  0.00     0.172 C 
ATOM      2  N   UNL d   1      -0.096  -1.511  -0.999  0.00  0.00    -0.070 N 
ATOM      3  C1  UNL d   1       0.330  -1.538   0.302  0.00  0.00    -0.004 A 
ATOM      4  C2  UNL d   1       0.087  -0.297   0.851  0.00  0.00    -0.047 A 
ATOM      5  C3  UNL d   1      -0.507   0.502  -0.154  0.00  0.00    -0.047 A 
ATOM      6  C4  UNL d   1      -0.608  -0.274  -1.289  0.00  0.00    -0.004 A 
ENDROOT
TORSDOF 0
ENDMDL
