MODEL 1
REMARK minimizedAffinity -3.2865212
REMARK minimizedRMSD -1
REMARK  0 active torsions:
REMARK  status: ('A' for Active; 'I' for Inactive)
ROOT
ATOM      1  C   UNL d   1      -3.102  -4.601   0.364  0.00  0.00     0.172 C 
ATOM      2  N   UNL d   1      -2.034  -4.154  -0.499  0.00  0.00    -0.070 N 
ATOM      3  C1  UNL d   1      -2.081  -4.104  -1.867  0.00  0.00    -0.004 A 
ATOM      4  C2  UNL d   1      -0.869  -3.623  -2.313  0.00  0.00    -0.047 A 
ATOM      5  C3  UNL d   1      -0.066  -3.376  -1.174  0.00  0.00    -0.047 A 
ATOM      6  C4  UNL d   1      -0.812  -3.713  -0.065  0.00  0.00    -0.004 A 
ENDROOT
TORSDOF 0
ENDMDL
