MODEL 1
REMARK minimizedAffinity -2.17708921
REMARK minimizedRMSD -1
REMARK  0 active torsions:
REMARK  status: ('A' for Active; 'I' for Inactive)
ROOT
ATOM      1  C   UNL d   1       2.463   2.806   1.361  0.00  0.00     0.172 C 
ATOM      2  N   UNL d   1       1.212   2.267   0.880  0.00  0.00    -0.070 N 
ATOM      3  C1  UNL d   1      -0.000   2.901   0.925  0.00  0.00    -0.004 A 
ATOM      4  C2  UNL d   1      -0.939   2.058   0.370  0.00  0.00    -0.047 A 
ATOM      5  C3  UNL d   1      -0.267   0.876  -0.022  0.00  0.00    -0.047 A 
ATOM      6  C4  UNL d   1       1.064   1.032   0.305  0.00  0.00    -0.004 A 
ENDROOT
TORSDOF 0
ENDMDL
