MODEL 1
REMARK minimizedAffinity -3.1383636
REMARK minimizedRMSD -1
REMARK  0 active torsions:
REMARK  status: ('A' for Active; 'I' for Inactive)
ROOT
ATOM      1  C   UNL d   1      -0.569  -2.471  -1.101  0.00  0.00     0.172 C 
ATOM      2  N   UNL d   1      -0.747  -1.163  -0.517  0.00  0.00    -0.070 N 
ATOM      3  C1  UNL d   1       0.144  -0.529   0.309  0.00  0.00    -0.004 A 
ATOM      4  C2  UNL d   1      -0.392   0.694   0.648  0.00  0.00    -0.047 A 
ATOM      5  C3  UNL d   1      -1.649   0.799   0.006  0.00  0.00    -0.047 A 
ATOM      6  C4  UNL d   1      -1.843  -0.364  -0.709  0.00  0.00    -0.004 A 
ENDROOT
TORSDOF 0
ENDMDL
