MODEL 1
REMARK minimizedAffinity -0.896009266
REMARK minimizedRMSD -1
REMARK  0 active torsions:
REMARK  status: ('A' for Active; 'I' for Inactive)
ROOT
ATOM      1  C   UNL d   1       0.795   3.094   1.258  0.00  0.00     0.172 C 
ATOM      2  N   UNL d   1      -0.015   2.009   0.755  0.00  0.00    -0.070 N 
ATOM      3  C1  UNL d   1      -1.330   2.100   0.385  0.00  0.00    -0.004 A 
ATOM      4  C2  UNL d   1      -1.737   0.852  -0.037  0.00  0.00    -0.047 A 
ATOM      5  C3  UNL d   1      -0.627  -0.018   0.084  0.00  0.00    -0.047 A 
ATOM      6  C4  UNL d   1       0.425   0.724   0.577  0.00  0.00    -0.004 A 
ENDROOT
TORSDOF 0
ENDMDL
