MODEL 1
REMARK minimizedAffinity -1.01384258
REMARK minimizedRMSD -1
REMARK  0 active torsions:
REMARK  status: ('A' for Active; 'I' for Inactive)
ROOT
ATOM      1  C   UNL d   1       0.280  -1.283  -0.015  0.00  0.00     0.172 C 
ATOM      2  N   UNL d   1      -0.097   0.104   0.122  0.00  0.00    -0.070 N 
ATOM      3  C1  UNL d   1      -1.166   0.705  -0.487  0.00  0.00    -0.004 A 
ATOM      4  C2  UNL d   1      -1.183   2.028  -0.102  0.00  0.00    -0.047 A 
ATOM      5  C3  UNL d   1      -0.085   2.230   0.768  0.00  0.00    -0.047 A 
ATOM      6  C4  UNL d   1       0.570   1.023   0.889  0.00  0.00    -0.004 A 
ENDROOT
TORSDOF 0
ENDMDL
