MODEL 1
REMARK minimizedAffinity -3.79927731
REMARK minimizedRMSD -1
REMARK  0 active torsions:
REMARK  status: ('A' for Active; 'I' for Inactive)
ROOT
ATOM      1  C   UNL d   1       0.277  -0.789   0.655  0.00  0.00     0.172 C 
ATOM      2  N   UNL d   1       0.204   0.599   0.264  0.00  0.00    -0.070 N 
ATOM      3  C1  UNL d   1      -0.923   1.375   0.282  0.00  0.00    -0.004 A 
ATOM      4  C2  UNL d   1      -0.577   2.633  -0.162  0.00  0.00    -0.047 A 
ATOM      5  C3  UNL d   1       0.807   2.612  -0.458  0.00  0.00    -0.047 A 
ATOM      6  C4  UNL d   1       1.265   1.340  -0.185  0.00  0.00    -0.004 A 
ENDROOT
TORSDOF 0
ENDMDL
