MODEL 1
REMARK minimizedAffinity -0.513484716
REMARK minimizedRMSD -1
REMARK  0 active torsions:
REMARK  status: ('A' for Active; 'I' for Inactive)
ROOT
ATOM      1  C   UNL d   1      -1.062   1.365   0.628  0.00  0.00     0.172 C 
ATOM      2  N   UNL d   1      -0.543   0.046   0.353  0.00  0.00    -0.070 N 
ATOM      3  C1  UNL d   1      -0.038  -0.379  -0.846  0.00  0.00    -0.004 A 
ATOM      4  C2  UNL d   1       0.351  -1.693  -0.698  0.00  0.00    -0.047 A 
ATOM      5  C3  UNL d   1       0.069  -2.071   0.636  0.00  0.00    -0.047 A 
ATOM      6  C4  UNL d   1      -0.484  -0.975   1.265  0.00  0.00    -0.004 A 
ENDROOT
TORSDOF 0
ENDMDL
