MODEL 1
REMARK minimizedAffinity -3.26190829
REMARK minimizedRMSD -1
REMARK  0 active torsions:
REMARK  status: ('A' for Active; 'I' for Inactive)
ROOT
ATOM      1  C   UNL d   1       0.942   1.152   0.002  0.00  0.00     0.020 A 
ATOM      2  C1  UNL d   1       1.600  -0.070   0.137  0.00  0.00     0.020 A 
ATOM      3  C2  UNL d   1       0.979  -1.248  -0.285  0.00  0.00     0.034 A 
ATOM      4  C3  UNL d   1      -0.303  -1.206  -0.844  0.00  0.00     0.017 A 
ATOM      5  C4  UNL d   1      -0.962   0.021  -0.980  0.00  0.00     0.017 A 
ATOM      6  C5  UNL d   1      -0.336   1.197  -0.555  0.00  0.00     0.034 A 
ATOM      7 Cl   UNL d   1      -2.546   0.153  -1.660  0.00  0.00    -0.070 Cl
ATOM      8 Cl1  UNL d   1      -1.010  -2.701  -1.346  0.00  0.00    -0.070 Cl
ENDROOT
TORSDOF 0
ENDMDL
