MODEL 1
REMARK minimizedAffinity -4.3185153
REMARK minimizedRMSD -1
REMARK  0 active torsions:
REMARK  status: ('A' for Active; 'I' for Inactive)
ROOT
ATOM      1  C   UNL d   1       1.994  -1.461  -0.042  0.00  0.00     0.020 A 
ATOM      2  C1  UNL d   1       2.965  -0.464   0.041  0.00  0.00     0.020 A 
ATOM      3  C2  UNL d   1       2.590   0.880   0.010  0.00  0.00     0.034 A 
ATOM      4  C3  UNL d   1       1.240   1.232  -0.106  0.00  0.00     0.017 A 
ATOM      5  C4  UNL d   1       0.266   0.231  -0.190  0.00  0.00     0.017 A 
ATOM      6  C5  UNL d   1       0.647  -1.114  -0.158  0.00  0.00     0.034 A 
ATOM      7 Cl   UNL d   1      -1.419   0.587  -0.334  0.00  0.00    -0.070 Cl
ATOM      8 Cl1  UNL d   1       0.848   2.915  -0.139  0.00  0.00    -0.070 Cl
ENDROOT
TORSDOF 0
ENDMDL
