MODEL 1
REMARK minimizedAffinity -2.94043231
REMARK minimizedRMSD -1
REMARK  0 active torsions:
REMARK  status: ('A' for Active; 'I' for Inactive)
ROOT
ATOM      1  C   UNL d   1       1.743  -2.042  -0.914  0.00  0.00     0.020 A 
ATOM      2  C1  UNL d   1       0.482  -2.636  -0.898  0.00  0.00     0.020 A 
ATOM      3  C2  UNL d   1      -0.661  -1.844  -0.769  0.00  0.00     0.034 A 
ATOM      4  C3  UNL d   1      -0.545  -0.454  -0.656  0.00  0.00     0.017 A 
ATOM      5  C4  UNL d   1       0.722   0.141  -0.672  0.00  0.00     0.017 A 
ATOM      6  C5  UNL d   1       1.863  -0.657  -0.801  0.00  0.00     0.034 A 
ATOM      7 Cl   UNL d   1       0.945   1.850  -0.536  0.00  0.00    -0.070 Cl
ATOM      8 Cl1  UNL d   1      -2.000   0.464  -0.500  0.00  0.00    -0.070 Cl
ENDROOT
TORSDOF 0
ENDMDL
