MODEL 1
REMARK minimizedAffinity -2.15732861
REMARK minimizedRMSD -1
REMARK  0 active torsions:
REMARK  status: ('A' for Active; 'I' for Inactive)
ROOT
ATOM      1  C   UNL d   1       0.832  -2.838  -0.204  0.00  0.00     0.020 A 
ATOM      2  C1  UNL d   1      -0.502  -2.550  -0.490  0.00  0.00     0.020 A 
ATOM      3  C2  UNL d   1      -0.910  -1.225  -0.659  0.00  0.00     0.034 A 
ATOM      4  C3  UNL d   1       0.017  -0.183  -0.543  0.00  0.00     0.017 A 
ATOM      5  C4  UNL d   1       1.356  -0.473  -0.256  0.00  0.00     0.017 A 
ATOM      6  C5  UNL d   1       1.759  -1.802  -0.087  0.00  0.00     0.034 A 
ATOM      7 Cl   UNL d   1       2.558   0.759  -0.097  0.00  0.00    -0.070 Cl
ATOM      8 Cl1  UNL d   1      -0.556   1.431  -0.765  0.00  0.00    -0.070 Cl
ENDROOT
TORSDOF 0
ENDMDL
