MODEL 1
REMARK minimizedAffinity -2.33506846
REMARK minimizedRMSD -1
REMARK  0 active torsions:
REMARK  status: ('A' for Active; 'I' for Inactive)
ROOT
ATOM      1  C   UNL d   1       2.777  -1.805  -0.360  0.00  0.00     0.020 A 
ATOM      2  C1  UNL d   1       1.470  -2.265  -0.517  0.00  0.00     0.020 A 
ATOM      3  C2  UNL d   1       0.403  -1.365  -0.468  0.00  0.00     0.034 A 
ATOM      4  C3  UNL d   1       0.641  -0.002  -0.262  0.00  0.00     0.017 A 
ATOM      5  C4  UNL d   1       1.953   0.459  -0.105  0.00  0.00     0.017 A 
ATOM      6  C5  UNL d   1       3.018  -0.446  -0.154  0.00  0.00     0.034 A 
ATOM      7 Cl   UNL d   1       2.325   2.127   0.153  0.00  0.00    -0.070 Cl
ATOM      8 Cl1  UNL d   1      -0.726   1.054  -0.214  0.00  0.00    -0.070 Cl
ENDROOT
TORSDOF 0
ENDMDL
