MODEL 1
REMARK minimizedAffinity -3.88048196
REMARK minimizedRMSD -1
REMARK  0 active torsions:
REMARK  status: ('A' for Active; 'I' for Inactive)
ROOT
ATOM      1  C   UNL d   1       2.321  -2.166   0.092  0.00  0.00     0.020 A 
ATOM      2  C1  UNL d   1       3.529  -1.477   0.188  0.00  0.00     0.020 A 
ATOM      3  C2  UNL d   1       3.541  -0.081   0.144  0.00  0.00     0.034 A 
ATOM      4  C3  UNL d   1       2.344   0.630   0.004  0.00  0.00     0.017 A 
ATOM      5  C4  UNL d   1       1.132  -0.064  -0.092  0.00  0.00     0.017 A 
ATOM      6  C5  UNL d   1       1.125  -1.461  -0.048  0.00  0.00     0.034 A 
ATOM      7 Cl   UNL d   1      -0.387   0.743  -0.267  0.00  0.00    -0.070 Cl
ATOM      8 Cl1  UNL d   1       2.433   2.354  -0.043  0.00  0.00    -0.070 Cl
ENDROOT
TORSDOF 0
ENDMDL
