MODEL 1
REMARK minimizedAffinity -2.64383531
REMARK minimizedRMSD -1
REMARK  0 active torsions:
REMARK  status: ('A' for Active; 'I' for Inactive)
ROOT
ATOM      1  C   UNL d   1      -0.773   1.825  -0.419  0.00  0.00     0.020 A 
ATOM      2  C1  UNL d   1       0.511   2.155   0.014  0.00  0.00     0.020 A 
ATOM      3  C2  UNL d   1       1.492   1.166   0.109  0.00  0.00     0.034 A 
ATOM      4  C3  UNL d   1       1.191  -0.159  -0.229  0.00  0.00     0.017 A 
ATOM      5  C4  UNL d   1      -0.098  -0.489  -0.663  0.00  0.00     0.017 A 
ATOM      6  C5  UNL d   1      -1.076   0.506  -0.756  0.00  0.00     0.034 A 
ATOM      7 Cl   UNL d   1      -0.545  -2.101  -1.098  0.00  0.00    -0.070 Cl
ATOM      8 Cl1  UNL d   1       2.453  -1.331  -0.087  0.00  0.00    -0.070 Cl
ENDROOT
TORSDOF 0
ENDMDL
