MODEL 1
REMARK minimizedAffinity -2.37220478
REMARK minimizedRMSD -1
REMARK  0 active torsions:
REMARK  status: ('A' for Active; 'I' for Inactive)
ROOT
ATOM      1  C   UNL d   1       0.713  -2.405  -0.785  0.00  0.00     0.020 A 
ATOM      2  C1  UNL d   1      -0.401  -1.569  -0.718  0.00  0.00     0.020 A 
ATOM      3  C2  UNL d   1      -0.236  -0.203  -0.481  0.00  0.00     0.034 A 
ATOM      4  C3  UNL d   1       1.046   0.332  -0.311  0.00  0.00     0.017 A 
ATOM      5  C4  UNL d   1       2.164  -0.507  -0.378  0.00  0.00     0.017 A 
ATOM      6  C5  UNL d   1       1.993  -1.875  -0.616  0.00  0.00     0.034 A 
ATOM      7 Cl   UNL d   1       3.777   0.079  -0.178  0.00  0.00    -0.070 Cl
ATOM      8 Cl1  UNL d   1       1.176   2.031  -0.022  0.00  0.00    -0.070 Cl
ENDROOT
TORSDOF 0
ENDMDL
