MODEL 1
REMARK minimizedAffinity -3.17611146
REMARK minimizedRMSD -1
REMARK  0 active torsions:
REMARK  status: ('A' for Active; 'I' for Inactive)
ROOT
ATOM      1  C   UNL d   1      -0.653   0.948  -0.033  0.00  0.00     0.020 A 
ATOM      2  C1  UNL d   1      -0.788  -0.438  -0.092  0.00  0.00     0.020 A 
ATOM      3  C2  UNL d   1       0.348  -1.250  -0.109  0.00  0.00     0.034 A 
ATOM      4  C3  UNL d   1       1.624  -0.676  -0.067  0.00  0.00     0.017 A 
ATOM      5  C4  UNL d   1       1.758   0.716  -0.008  0.00  0.00     0.017 A 
ATOM      6  C5  UNL d   1       0.617   1.524   0.009  0.00  0.00     0.034 A 
ATOM      7 Cl   UNL d   1       3.299   1.497   0.046  0.00  0.00    -0.070 Cl
ATOM      8 Cl1  UNL d   1       2.985  -1.741  -0.091  0.00  0.00    -0.070 Cl
ENDROOT
TORSDOF 0
ENDMDL
