MODEL 1
REMARK minimizedAffinity 3.11625504
REMARK minimizedRMSD -1
REMARK  0 active torsions:
REMARK  status: ('A' for Active; 'I' for Inactive)
ROOT
ATOM      1  C   UNL d   1      -4.383   0.881   0.405  0.00  0.00     0.020 A 
ATOM      2  C1  UNL d   1      -4.143   0.502   1.725  0.00  0.00     0.020 A 
ATOM      3  C2  UNL d   1      -2.874   0.057   2.104  0.00  0.00     0.034 A 
ATOM      4  C3  UNL d   1      -1.841  -0.009   1.162  0.00  0.00     0.017 A 
ATOM      5  C4  UNL d   1      -2.083   0.373  -0.162  0.00  0.00     0.017 A 
ATOM      6  C5  UNL d   1      -3.355   0.817  -0.536  0.00  0.00     0.034 A 
ATOM      7 Cl   UNL d   1      -0.858   0.319  -1.381  0.00  0.00    -0.070 Cl
ATOM      8 Cl1  UNL d   1      -0.297  -0.567   1.701  0.00  0.00    -0.070 Cl
ENDROOT
TORSDOF 0
ENDMDL
