MODEL 1
REMARK minimizedAffinity -4.99312687
REMARK minimizedRMSD -1
REMARK  0 active torsions:
REMARK  status: ('A' for Active; 'I' for Inactive)
ROOT
ATOM      1  C   UNL d   1       0.059   0.880  -0.036  0.00  0.00     0.078 C 
ATOM      2  C1  UNL d   1      -0.526  -0.443   0.358  0.00  0.00    -0.077 A 
ATOM      3  C2  UNL d   1       0.297  -1.539   0.645  0.00  0.00    -0.001 A 
ATOM      4  C3  UNL d   1      -0.261  -2.767   1.001  0.00  0.00     0.003 A 
ATOM      5  C4  UNL d   1      -1.645  -2.913   1.072  0.00  0.00    -0.005 A 
ATOM      6  C5  UNL d   1      -2.473  -1.829   0.786  0.00  0.00     0.003 A 
ATOM      7  C6  UNL d   1      -1.916  -0.599   0.430  0.00  0.00    -0.001 A 
ENDROOT
TORSDOF 0
ENDMDL
