MODEL 1
REMARK minimizedAffinity -0.249509454
REMARK minimizedRMSD -1
REMARK  0 active torsions:
REMARK  status: ('A' for Active; 'I' for Inactive)
ROOT
ATOM      1  C   UNL d   1       0.142  -0.044   0.390  0.00  0.00     0.078 C 
ATOM      2  C1  UNL d   1       1.594  -0.113   0.756  0.00  0.00    -0.077 A 
ATOM      3  C2  UNL d   1       2.248  -1.344   0.887  0.00  0.00    -0.001 A 
ATOM      4  C3  UNL d   1       3.598  -1.393   1.237  0.00  0.00     0.003 A 
ATOM      5  C4  UNL d   1       4.306  -0.214   1.460  0.00  0.00    -0.005 A 
ATOM      6  C5  UNL d   1       3.664   1.016   1.334  0.00  0.00     0.003 A 
ATOM      7  C6  UNL d   1       2.314   1.067   0.984  0.00  0.00    -0.001 A 
ENDROOT
TORSDOF 0
ENDMDL
