MODEL 1
REMARK minimizedAffinity -5.44956684
REMARK minimizedRMSD -1
REMARK  0 active torsions:
REMARK  status: ('A' for Active; 'I' for Inactive)
ROOT
ATOM      1  C   UNL d   1      -1.947  -2.602   1.461  0.00  0.00     0.078 C 
ATOM      2  C1  UNL d   1      -0.884  -1.602   1.115  0.00  0.00    -0.077 A 
ATOM      3  C2  UNL d   1      -1.198  -0.250   0.934  0.00  0.00    -0.001 A 
ATOM      4  C3  UNL d   1      -0.201   0.668   0.603  0.00  0.00     0.003 A 
ATOM      5  C4  UNL d   1       1.117   0.244   0.447  0.00  0.00    -0.005 A 
ATOM      6  C5  UNL d   1       1.439  -1.101   0.622  0.00  0.00     0.003 A 
ATOM      7  C6  UNL d   1       0.443  -2.020   0.954  0.00  0.00    -0.001 A 
ENDROOT
TORSDOF 0
ENDMDL
