MODEL 1
REMARK minimizedAffinity -2.34697342
REMARK minimizedRMSD -1
REMARK  0 active torsions:
REMARK  status: ('A' for Active; 'I' for Inactive)
ROOT
ATOM      1  C   UNL d   1      -0.723   2.222   0.374  0.00  0.00     0.078 C 
ATOM      2  C1  UNL d   1      -0.890   0.735   0.276  0.00  0.00    -0.077 A 
ATOM      3  C2  UNL d   1      -2.142   0.165   0.016  0.00  0.00    -0.001 A 
ATOM      4  C3  UNL d   1      -2.284  -1.221  -0.062  0.00  0.00     0.003 A 
ATOM      5  C4  UNL d   1      -1.179  -2.050   0.120  0.00  0.00    -0.005 A 
ATOM      6  C5  UNL d   1       0.071  -1.492   0.382  0.00  0.00     0.003 A 
ATOM      7  C6  UNL d   1       0.215  -0.106   0.461  0.00  0.00    -0.001 A 
ENDROOT
TORSDOF 0
ENDMDL
