MODEL 1
REMARK minimizedAffinity -5.00058317
REMARK minimizedRMSD -1
REMARK  0 active torsions:
REMARK  status: ('A' for Active; 'I' for Inactive)
ROOT
ATOM      1  C   UNL d   1      -1.856   1.060   1.128  0.00  0.00     0.078 C 
ATOM      2  C1  UNL d   1      -1.120  -0.209   0.818  0.00  0.00    -0.077 A 
ATOM      3  C2  UNL d   1      -1.777  -1.445   0.831  0.00  0.00    -0.001 A 
ATOM      4  C3  UNL d   1      -1.077  -2.620   0.549  0.00  0.00     0.003 A 
ATOM      5  C4  UNL d   1       0.284  -2.570   0.254  0.00  0.00    -0.005 A 
ATOM      6  C5  UNL d   1       0.947  -1.344   0.241  0.00  0.00     0.003 A 
ATOM      7  C6  UNL d   1       0.249  -0.169   0.522  0.00  0.00    -0.001 A 
ENDROOT
TORSDOF 0
ENDMDL
