MODEL 1
REMARK minimizedAffinity -3.74826598
REMARK minimizedRMSD -1
REMARK  0 active torsions:
REMARK  status: ('A' for Active; 'I' for Inactive)
ROOT
ATOM      1  C   UNL d   1      -1.414   1.407   1.044  0.00  0.00     0.078 C 
ATOM      2  C1  UNL d   1      -0.810   0.040   0.913  0.00  0.00    -0.077 A 
ATOM      3  C2  UNL d   1       0.411  -0.149   0.256  0.00  0.00    -0.001 A 
ATOM      4  C3  UNL d   1       0.957  -1.428   0.133  0.00  0.00     0.003 A 
ATOM      5  C4  UNL d   1       0.286  -2.528   0.665  0.00  0.00    -0.005 A 
ATOM      6  C5  UNL d   1      -0.931  -2.350   1.318  0.00  0.00     0.003 A 
ATOM      7  C6  UNL d   1      -1.478  -1.072   1.442  0.00  0.00    -0.001 A 
ENDROOT
TORSDOF 0
ENDMDL
