MODEL 1
REMARK minimizedAffinity -4.7883997
REMARK minimizedRMSD -1
REMARK  0 active torsions:
REMARK  status: ('A' for Active; 'I' for Inactive)
ROOT
ATOM      1  C   UNL d   1       0.343   0.863  -0.044  0.00  0.00     0.078 C 
ATOM      2  C1  UNL d   1      -0.369  -0.386   0.384  0.00  0.00    -0.077 A 
ATOM      3  C2  UNL d   1      -1.761  -0.493   0.284  0.00  0.00    -0.001 A 
ATOM      4  C3  UNL d   1      -2.411  -1.658   0.695  0.00  0.00     0.003 A 
ATOM      5  C4  UNL d   1      -1.677  -2.724   1.210  0.00  0.00    -0.005 A 
ATOM      6  C5  UNL d   1      -0.291  -2.626   1.315  0.00  0.00     0.003 A 
ATOM      7  C6  UNL d   1       0.361  -1.462   0.905  0.00  0.00    -0.001 A 
ENDROOT
TORSDOF 0
ENDMDL
