MODEL 1
REMARK minimizedAffinity -2.91970158
REMARK minimizedRMSD -1
REMARK  0 active torsions:
REMARK  status: ('A' for Active; 'I' for Inactive)
ROOT
ATOM      1  C   UNL d   1      -2.207   1.164  -0.113  0.00  0.00     0.078 C 
ATOM      2  C1  UNL d   1      -1.696  -0.057   0.590  0.00  0.00    -0.077 A 
ATOM      3  C2  UNL d   1      -0.866  -0.974  -0.068  0.00  0.00    -0.001 A 
ATOM      4  C3  UNL d   1      -0.405  -2.112   0.597  0.00  0.00     0.003 A 
ATOM      5  C4  UNL d   1      -0.769  -2.344   1.922  0.00  0.00    -0.005 A 
ATOM      6  C5  UNL d   1      -1.595  -1.439   2.584  0.00  0.00     0.003 A 
ATOM      7  C6  UNL d   1      -2.057  -0.300   1.921  0.00  0.00    -0.001 A 
ENDROOT
TORSDOF 0
ENDMDL
