MODEL 1
REMARK minimizedAffinity -3.35534596
REMARK minimizedRMSD -1
REMARK  0 active torsions:
REMARK  status: ('A' for Active; 'I' for Inactive)
ROOT
ATOM      1  C   UNL d   1       1.480  -1.475   0.415  0.00  0.00     0.078 C 
ATOM      2  C1  UNL d   1       0.557  -1.768   1.560  0.00  0.00    -0.077 A 
ATOM      3  C2  UNL d   1       0.771  -2.871   2.396  0.00  0.00    -0.001 A 
ATOM      4  C3  UNL d   1      -0.101  -3.136   3.452  0.00  0.00     0.003 A 
ATOM      5  C4  UNL d   1      -1.195  -2.304   3.682  0.00  0.00    -0.005 A 
ATOM      6  C5  UNL d   1      -1.418  -1.205   2.855  0.00  0.00     0.003 A 
ATOM      7  C6  UNL d   1      -0.546  -0.938   1.798  0.00  0.00    -0.001 A 
ENDROOT
TORSDOF 0
ENDMDL
