MODEL 1
REMARK minimizedAffinity 1.07248771
REMARK minimizedRMSD -1
REMARK  0 active torsions:
REMARK  status: ('A' for Active; 'I' for Inactive)
ROOT
ATOM      1  C   UNL d   1       0.075   4.974  -4.324  0.00  0.00     0.078 C 
ATOM      2  C1  UNL d   1      -0.971   4.137  -3.650  0.00  0.00    -0.077 A 
ATOM      3  C2  UNL d   1      -2.280   4.608  -3.491  0.00  0.00    -0.001 A 
ATOM      4  C3  UNL d   1      -3.241   3.821  -2.853  0.00  0.00     0.003 A 
ATOM      5  C4  UNL d   1      -2.902   2.560  -2.368  0.00  0.00    -0.005 A 
ATOM      6  C5  UNL d   1      -1.602   2.084  -2.519  0.00  0.00     0.003 A 
ATOM      7  C6  UNL d   1      -0.640   2.868  -3.157  0.00  0.00    -0.001 A 
ENDROOT
TORSDOF 0
ENDMDL
