MODEL 1
REMARK minimizedAffinity -4.25566769
REMARK minimizedRMSD -1
REMARK  0 active torsions:
REMARK  status: ('A' for Active; 'I' for Inactive)
ROOT
ATOM      1  C   UNL d   1       0.262  -0.091   0.521  0.00  0.00     0.078 C 
ATOM      2  C1  UNL d   1      -0.109  -1.102   1.565  0.00  0.00    -0.077 A 
ATOM      3  C2  UNL d   1       0.386  -2.411   1.509  0.00  0.00    -0.001 A 
ATOM      4  C3  UNL d   1       0.025  -3.344   2.482  0.00  0.00     0.003 A 
ATOM      5  C4  UNL d   1      -0.834  -2.979   3.517  0.00  0.00    -0.005 A 
ATOM      6  C5  UNL d   1      -1.333  -1.680   3.580  0.00  0.00     0.003 A 
ATOM      7  C6  UNL d   1      -0.973  -0.745   2.607  0.00  0.00    -0.001 A 
ENDROOT
TORSDOF 0
ENDMDL
