MODEL 1
REMARK minimizedAffinity -3.26516199
REMARK minimizedRMSD -1
REMARK  0 active torsions:
REMARK  status: ('A' for Active; 'I' for Inactive)
ROOT
ATOM      1  C   UNL d   1       0.642  -0.966   0.754  0.00  0.00     0.078 C 
ATOM      2  C1  UNL d   1      -0.246  -1.447   1.862  0.00  0.00    -0.077 A 
ATOM      3  C2  UNL d   1      -0.650  -2.786   1.934  0.00  0.00    -0.001 A 
ATOM      4  C3  UNL d   1      -1.484  -3.217   2.966  0.00  0.00     0.003 A 
ATOM      5  C4  UNL d   1      -1.925  -2.316   3.933  0.00  0.00    -0.005 A 
ATOM      6  C5  UNL d   1      -1.531  -0.981   3.869  0.00  0.00     0.003 A 
ATOM      7  C6  UNL d   1      -0.696  -0.548   2.838  0.00  0.00    -0.001 A 
ENDROOT
TORSDOF 0
ENDMDL
