MODEL 1
REMARK minimizedAffinity -1.0410738
REMARK minimizedRMSD -1
REMARK  0 active torsions:
REMARK  status: ('A' for Active; 'I' for Inactive)
ROOT
ATOM      1  C   UNL d   1      -3.230  -2.059  -5.682  0.00  0.00     0.078 C 
ATOM      2  C1  UNL d   1      -2.645  -3.435  -5.800  0.00  0.00    -0.077 A 
ATOM      3  C2  UNL d   1      -3.469  -4.563  -5.901  0.00  0.00    -0.001 A 
ATOM      4  C3  UNL d   1      -2.911  -5.838  -6.000  0.00  0.00     0.003 A 
ATOM      5  C4  UNL d   1      -1.527  -5.998  -5.997  0.00  0.00    -0.005 A 
ATOM      6  C5  UNL d   1      -0.699  -4.882  -5.895  0.00  0.00     0.003 A 
ATOM      7  C6  UNL d   1      -1.255  -3.606  -5.796  0.00  0.00    -0.001 A 
ENDROOT
TORSDOF 0
ENDMDL
