MODEL 1
REMARK minimizedAffinity 0.28563413
REMARK minimizedRMSD -1
REMARK  0 active torsions:
REMARK  status: ('A' for Active; 'I' for Inactive)
ROOT
ATOM      1  C   UNL d   1      -3.975  -2.291  -5.625  0.00  0.00     0.078 C 
ATOM      2  C1  UNL d   1      -3.212  -3.579  -5.717  0.00  0.00    -0.077 A 
ATOM      3  C2  UNL d   1      -1.814  -3.596  -5.637  0.00  0.00    -0.001 A 
ATOM      4  C3  UNL d   1      -1.116  -4.801  -5.735  0.00  0.00     0.003 A 
ATOM      5  C4  UNL d   1      -1.807  -5.997  -5.914  0.00  0.00    -0.005 A 
ATOM      6  C5  UNL d   1      -3.198  -5.990  -5.997  0.00  0.00     0.003 A 
ATOM      7  C6  UNL d   1      -3.898  -4.786  -5.900  0.00  0.00    -0.001 A 
ENDROOT
TORSDOF 0
ENDMDL
