MODEL 1
REMARK minimizedAffinity -3.37814188
REMARK minimizedRMSD -1
REMARK  0 active torsions:
REMARK  status: ('A' for Active; 'I' for Inactive)
ROOT
ATOM      1  C   UNL d   1      -5.372  -5.936  -5.942  0.00  0.00     0.078 C 
ATOM      2  C1  UNL d   1      -4.341  -4.848  -5.954  0.00  0.00    -0.077 A 
ATOM      3  C2  UNL d   1      -2.974  -5.149  -5.908  0.00  0.00    -0.001 A 
ATOM      4  C3  UNL d   1      -2.025  -4.125  -5.910  0.00  0.00     0.003 A 
ATOM      5  C4  UNL d   1      -2.433  -2.793  -5.956  0.00  0.00    -0.005 A 
ATOM      6  C5  UNL d   1      -3.791  -2.484  -6.000  0.00  0.00     0.003 A 
ATOM      7  C6  UNL d   1      -4.741  -3.506  -5.998  0.00  0.00    -0.001 A 
ENDROOT
TORSDOF 0
ENDMDL
