MODEL 1
REMARK minimizedAffinity 2.07788587
REMARK minimizedRMSD -1
REMARK  0 active torsions:
REMARK  status: ('A' for Active; 'I' for Inactive)
ROOT
ATOM      1  C   UNL d   1      -0.081  -1.144  -0.074  0.00  0.00     0.078 C 
ATOM      2  C1  UNL d   1       0.117  -1.762   1.277  0.00  0.00    -0.077 A 
ATOM      3  C2  UNL d   1       1.037  -2.801   1.467  0.00  0.00    -0.001 A 
ATOM      4  C3  UNL d   1       1.204  -3.373   2.729  0.00  0.00     0.003 A 
ATOM      5  C4  UNL d   1       0.455  -2.915   3.811  0.00  0.00    -0.005 A 
ATOM      6  C5  UNL d   1      -0.464  -1.883   3.631  0.00  0.00     0.003 A 
ATOM      7  C6  UNL d   1      -0.633  -1.309   2.370  0.00  0.00    -0.001 A 
ENDROOT
TORSDOF 0
ENDMDL
