MODEL 1
REMARK minimizedAffinity 0.553948998
REMARK minimizedRMSD -1
REMARK  0 active torsions:
REMARK  status: ('A' for Active; 'I' for Inactive)
ROOT
ATOM      1  C   UNL d   1       1.040  -2.212   0.601  0.00  0.00     0.078 C 
ATOM      2  C1  UNL d   1       0.611  -2.388   2.027  0.00  0.00    -0.077 A 
ATOM      3  C2  UNL d   1      -0.538  -1.754   2.517  0.00  0.00    -0.001 A 
ATOM      4  C3  UNL d   1      -0.920  -1.918   3.850  0.00  0.00     0.003 A 
ATOM      5  C4  UNL d   1      -0.159  -2.715   4.703  0.00  0.00    -0.005 A 
ATOM      6  C5  UNL d   1       0.987  -3.348   4.224  0.00  0.00     0.003 A 
ATOM      7  C6  UNL d   1       1.371  -3.185   2.892  0.00  0.00    -0.001 A 
ENDROOT
TORSDOF 0
ENDMDL
