MODEL 1
REMARK minimizedAffinity -1.60596144
REMARK minimizedRMSD -1
REMARK  0 active torsions:
REMARK  status: ('A' for Active; 'I' for Inactive)
ROOT
ATOM      1  C   UNL d   1      -1.906   1.490  -3.202  0.00  0.00     0.078 C 
ATOM      2  C1  UNL d   1      -1.252   1.276  -1.870  0.00  0.00    -0.077 A 
ATOM      3  C2  UNL d   1      -0.166   0.403  -1.731  0.00  0.00    -0.001 A 
ATOM      4  C3  UNL d   1       0.427   0.206  -0.483  0.00  0.00     0.003 A 
ATOM      5  C4  UNL d   1      -0.060   0.878   0.636  0.00  0.00    -0.005 A 
ATOM      6  C5  UNL d   1      -1.141   1.747   0.509  0.00  0.00     0.003 A 
ATOM      7  C6  UNL d   1      -1.736   1.945  -0.738  0.00  0.00    -0.001 A 
ENDROOT
TORSDOF 0
ENDMDL
