MODEL 1
REMARK minimizedAffinity -3.6478374
REMARK minimizedRMSD -1
REMARK  0 active torsions:
REMARK  status: ('A' for Active; 'I' for Inactive)
ROOT
ATOM      1  C   UNL d   1       0.075  -1.831   3.374  0.00  0.00     0.078 C 
ATOM      2  C1  UNL d   1       0.497  -1.451   1.986  0.00  0.00    -0.077 A 
ATOM      3  C2  UNL d   1      -0.204  -0.481   1.259  0.00  0.00    -0.001 A 
ATOM      4  C3  UNL d   1       0.194  -0.144  -0.036  0.00  0.00     0.003 A 
ATOM      5  C4  UNL d   1       1.293  -0.774  -0.616  0.00  0.00    -0.005 A 
ATOM      6  C5  UNL d   1       1.995  -1.743   0.098  0.00  0.00     0.003 A 
ATOM      7  C6  UNL d   1       1.599  -2.081   1.393  0.00  0.00    -0.001 A 
ENDROOT
TORSDOF 0
ENDMDL
