MODEL 1
REMARK minimizedAffinity -0.160987198
REMARK minimizedRMSD -1
REMARK  0 active torsions:
REMARK  status: ('A' for Active; 'I' for Inactive)
ROOT
ATOM      1  C   UNL d   1      -0.973  -1.484   3.357  0.00  0.00     0.078 C 
ATOM      2  C1  UNL d   1      -0.107  -1.160   2.176  0.00  0.00    -0.077 A 
ATOM      3  C2  UNL d   1      -0.561  -0.309   1.161  0.00  0.00    -0.001 A 
ATOM      4  C3  UNL d   1       0.252  -0.023   0.063  0.00  0.00     0.003 A 
ATOM      5  C4  UNL d   1       1.523  -0.586  -0.031  0.00  0.00    -0.005 A 
ATOM      6  C5  UNL d   1       1.983  -1.436   0.973  0.00  0.00     0.003 A 
ATOM      7  C6  UNL d   1       1.171  -1.722   2.071  0.00  0.00    -0.001 A 
ENDROOT
TORSDOF 0
ENDMDL
