MODEL 1
REMARK minimizedAffinity -3.46713877
REMARK minimizedRMSD -1
REMARK  0 active torsions:
REMARK  status: ('A' for Active; 'I' for Inactive)
ROOT
ATOM      1  C   UNL d   1      -0.277   0.644   0.101  0.00  0.00     0.078 C 
ATOM      2  C1  UNL d   1      -1.247   1.224  -0.886  0.00  0.00    -0.077 A 
ATOM      3  C2  UNL d   1      -1.963   0.399  -1.762  0.00  0.00    -0.001 A 
ATOM      4  C3  UNL d   1      -2.855   0.954  -2.682  0.00  0.00     0.003 A 
ATOM      5  C4  UNL d   1      -3.038   2.334  -2.735  0.00  0.00    -0.005 A 
ATOM      6  C5  UNL d   1      -2.328   3.162  -1.868  0.00  0.00     0.003 A 
ATOM      7  C6  UNL d   1      -1.435   2.610  -0.948  0.00  0.00    -0.001 A 
ENDROOT
TORSDOF 0
ENDMDL
