MODEL 1
REMARK minimizedAffinity -2.37961745
REMARK minimizedRMSD -1
REMARK  0 active torsions:
REMARK  status: ('A' for Active; 'I' for Inactive)
ROOT
ATOM      1  C   UNL d   1      -0.183   1.234  -0.090  0.00  0.00     0.078 C 
ATOM      2  C1  UNL d   1      -1.175   1.567  -1.164  0.00  0.00    -0.077 A 
ATOM      3  C2  UNL d   1      -2.430   0.948  -1.204  0.00  0.00    -0.001 A 
ATOM      4  C3  UNL d   1      -3.339   1.261  -2.216  0.00  0.00     0.003 A 
ATOM      5  C4  UNL d   1      -3.002   2.192  -3.196  0.00  0.00    -0.005 A 
ATOM      6  C5  UNL d   1      -1.754   2.811  -3.166  0.00  0.00     0.003 A 
ATOM      7  C6  UNL d   1      -0.844   2.500  -2.155  0.00  0.00    -0.001 A 
ENDROOT
TORSDOF 0
ENDMDL
