MODEL 1
REMARK minimizedAffinity -1.62017286
REMARK minimizedRMSD -1
REMARK  0 active torsions:
REMARK  status: ('A' for Active; 'I' for Inactive)
ROOT
ATOM      1  C   UNL d   1      -0.140   0.984  -0.014  0.00  0.00     0.078 C 
ATOM      2  C1  UNL d   1      -0.968   1.278  -1.229  0.00  0.00    -0.077 A 
ATOM      3  C2  UNL d   1      -2.197   0.640  -1.436  0.00  0.00    -0.001 A 
ATOM      4  C3  UNL d   1      -2.953   0.916  -2.576  0.00  0.00     0.003 A 
ATOM      5  C4  UNL d   1      -2.487   1.830  -3.520  0.00  0.00    -0.005 A 
ATOM      6  C5  UNL d   1      -1.263   2.467  -3.324  0.00  0.00     0.003 A 
ATOM      7  C6  UNL d   1      -0.507   2.192  -2.184  0.00  0.00    -0.001 A 
ENDROOT
TORSDOF 0
ENDMDL
