MODEL 1
REMARK minimizedAffinity -2.2349143
REMARK minimizedRMSD -1
REMARK  0 active torsions:
REMARK  status: ('A' for Active; 'I' for Inactive)
ROOT
ATOM      1  C   UNL d   1       1.023  -0.445  -0.342  0.00  0.00     0.078 C 
ATOM      2  C1  UNL d   1      -0.164   0.412  -0.665  0.00  0.00    -0.077 A 
ATOM      3  C2  UNL d   1      -1.027   0.860   0.343  0.00  0.00    -0.001 A 
ATOM      4  C3  UNL d   1      -2.133   1.649   0.026  0.00  0.00     0.003 A 
ATOM      5  C4  UNL d   1      -2.388   1.997  -1.299  0.00  0.00    -0.005 A 
ATOM      6  C5  UNL d   1      -1.537   1.555  -2.309  0.00  0.00     0.003 A 
ATOM      7  C6  UNL d   1      -0.430   0.765  -1.994  0.00  0.00    -0.001 A 
ENDROOT
TORSDOF 0
ENDMDL
