MODEL 1
REMARK minimizedAffinity -5.32718229
REMARK minimizedRMSD -1
REMARK  0 active torsions:
REMARK  status: ('A' for Active; 'I' for Inactive)
ROOT
ATOM      1  C   UNL d   1       0.464  -0.050  -0.799  0.00  0.00     0.078 C 
ATOM      2  C1  UNL d   1       0.445  -0.748   0.528  0.00  0.00    -0.077 A 
ATOM      3  C2  UNL d   1       1.544  -1.497   0.964  0.00  0.00    -0.001 A 
ATOM      4  C3  UNL d   1       1.509  -2.149   2.197  0.00  0.00     0.003 A 
ATOM      5  C4  UNL d   1       0.376  -2.060   3.004  0.00  0.00    -0.005 A 
ATOM      6  C5  UNL d   1      -0.724  -1.319   2.577  0.00  0.00     0.003 A 
ATOM      7  C6  UNL d   1      -0.690  -0.665   1.344  0.00  0.00    -0.001 A 
ENDROOT
TORSDOF 0
ENDMDL
