MODEL 1
REMARK minimizedAffinity -5.47454548
REMARK minimizedRMSD -1
REMARK  0 active torsions:
REMARK  status: ('A' for Active; 'I' for Inactive)
ROOT
ATOM      1  C   UNL d   1      -0.737   0.969  -0.753  0.00  0.00     0.078 C 
ATOM      2  C1  UNL d   1       0.018  -0.062   0.032  0.00  0.00    -0.077 A 
ATOM      3  C2  UNL d   1      -0.599  -0.771   1.071  0.00  0.00    -0.001 A 
ATOM      4  C3  UNL d   1       0.118  -1.721   1.800  0.00  0.00     0.003 A 
ATOM      5  C4  UNL d   1       1.456  -1.970   1.500  0.00  0.00    -0.005 A 
ATOM      6  C5  UNL d   1       2.078  -1.268   0.470  0.00  0.00     0.003 A 
ATOM      7  C6  UNL d   1       1.363  -0.318  -0.261  0.00  0.00    -0.001 A 
ENDROOT
TORSDOF 0
ENDMDL
