MODEL 1
REMARK minimizedAffinity -4.38359451
REMARK minimizedRMSD -1
REMARK  0 active torsions:
REMARK  status: ('A' for Active; 'I' for Inactive)
ROOT
ATOM      1  C   UNL d   1       0.040   0.099   0.225  0.00  0.00     0.078 C 
ATOM      2  C1  UNL d   1      -0.886   0.634  -0.826  0.00  0.00    -0.077 A 
ATOM      3  C2  UNL d   1      -0.989   2.010  -1.063  0.00  0.00    -0.001 A 
ATOM      4  C3  UNL d   1      -1.862   2.495  -2.038  0.00  0.00     0.003 A 
ATOM      5  C4  UNL d   1      -2.641   1.611  -2.782  0.00  0.00    -0.005 A 
ATOM      6  C5  UNL d   1      -2.548   0.240  -2.551  0.00  0.00     0.003 A 
ATOM      7  C6  UNL d   1      -1.675  -0.247  -1.577  0.00  0.00    -0.001 A 
ENDROOT
TORSDOF 0
ENDMDL
