MODEL 1
REMARK minimizedAffinity -1.68615246
REMARK minimizedRMSD -1
REMARK  0 active torsions:
REMARK  status: ('A' for Active; 'I' for Inactive)
ROOT
ATOM      1  C   UNL d   1      -0.486   0.107   0.370  0.00  0.00     0.078 C 
ATOM      2  C1  UNL d   1      -1.099   0.866  -0.769  0.00  0.00    -0.077 A 
ATOM      3  C2  UNL d   1      -2.221   0.371  -1.444  0.00  0.00    -0.001 A 
ATOM      4  C3  UNL d   1      -2.775   1.084  -2.509  0.00  0.00     0.003 A 
ATOM      5  C4  UNL d   1      -2.214   2.295  -2.908  0.00  0.00    -0.005 A 
ATOM      6  C5  UNL d   1      -1.096   2.795  -2.243  0.00  0.00     0.003 A 
ATOM      7  C6  UNL d   1      -0.540   2.084  -1.178  0.00  0.00    -0.001 A 
ENDROOT
TORSDOF 0
ENDMDL
