MODEL 1
REMARK minimizedAffinity 4.13838577
REMARK minimizedRMSD -1
REMARK  0 active torsions:
REMARK  status: ('A' for Active; 'I' for Inactive)
ROOT
ATOM      1  C   UNL d   1       2.710   0.150  -3.276  0.00  0.00     0.078 C 
ATOM      2  C1  UNL d   1       1.337   0.751  -3.323  0.00  0.00    -0.077 A 
ATOM      3  C2  UNL d   1       0.207  -0.049  -3.534  0.00  0.00    -0.001 A 
ATOM      4  C3  UNL d   1      -1.064   0.525  -3.584  0.00  0.00     0.003 A 
ATOM      5  C4  UNL d   1      -1.218   1.901  -3.425  0.00  0.00    -0.005 A 
ATOM      6  C5  UNL d   1      -0.099   2.705  -3.217  0.00  0.00     0.003 A 
ATOM      7  C6  UNL d   1       1.173   2.133  -3.166  0.00  0.00    -0.001 A 
ENDROOT
TORSDOF 0
ENDMDL
