MODEL 1
REMARK minimizedAffinity 3.00871897
REMARK minimizedRMSD -1
REMARK  0 active torsions:
REMARK  status: ('A' for Active; 'I' for Inactive)
ROOT
ATOM      1  C   UNL d   1       2.021   1.818  -0.949  0.00  0.00     0.078 C 
ATOM      2  C1  UNL d   1       2.501   1.048  -2.142  0.00  0.00    -0.077 A 
ATOM      3  C2  UNL d   1       2.046  -0.252  -2.393  0.00  0.00    -0.001 A 
ATOM      4  C3  UNL d   1       2.509  -0.961  -3.503  0.00  0.00     0.003 A 
ATOM      5  C4  UNL d   1       3.431  -0.378  -4.371  0.00  0.00    -0.005 A 
ATOM      6  C5  UNL d   1       3.891   0.915  -4.128  0.00  0.00     0.003 A 
ATOM      7  C6  UNL d   1       3.429   1.625  -3.019  0.00  0.00    -0.001 A 
ENDROOT
TORSDOF 0
ENDMDL
