MODEL 1
REMARK minimizedAffinity 2.38468289
REMARK minimizedRMSD -1
REMARK  0 active torsions:
REMARK  status: ('A' for Active; 'I' for Inactive)
ROOT
ATOM      1  C   UNL d   1       2.828   2.427  -4.872  0.00  0.00     0.078 C 
ATOM      2  C1  UNL d   1       1.993   3.672  -4.907  0.00  0.00    -0.077 A 
ATOM      3  C2  UNL d   1       0.956   3.871  -3.987  0.00  0.00    -0.001 A 
ATOM      4  C3  UNL d   1       0.181   5.031  -4.038  0.00  0.00     0.003 A 
ATOM      5  C4  UNL d   1       0.432   5.999  -5.008  0.00  0.00    -0.005 A 
ATOM      6  C5  UNL d   1       1.460   5.808  -5.929  0.00  0.00     0.003 A 
ATOM      7  C6  UNL d   1       2.237   4.650  -5.880  0.00  0.00    -0.001 A 
ENDROOT
TORSDOF 0
ENDMDL
