MODEL 1
REMARK minimizedAffinity 5.91649628
REMARK minimizedRMSD -1
REMARK  0 active torsions:
REMARK  status: ('A' for Active; 'I' for Inactive)
ROOT
ATOM      1  C   UNL d   1       4.006  -0.262  -4.124  0.00  0.00     0.078 C 
ATOM      2  C1  UNL d   1       3.011   0.831  -3.872  0.00  0.00    -0.077 A 
ATOM      3  C2  UNL d   1       2.211   0.828  -2.722  0.00  0.00    -0.001 A 
ATOM      4  C3  UNL d   1       1.283   1.847  -2.505  0.00  0.00     0.003 A 
ATOM      5  C4  UNL d   1       1.143   2.876  -3.434  0.00  0.00    -0.005 A 
ATOM      6  C5  UNL d   1       1.933   2.887  -4.582  0.00  0.00     0.003 A 
ATOM      7  C6  UNL d   1       2.862   1.868  -4.801  0.00  0.00    -0.001 A 
ENDROOT
TORSDOF 0
ENDMDL
