MODEL 1
REMARK minimizedAffinity 9.54702377
REMARK minimizedRMSD -1
REMARK  0 active torsions:
REMARK  status: ('A' for Active; 'I' for Inactive)
ROOT
ATOM      1  C   UNL d   1      -3.239   1.761  -4.686  0.00  0.00     0.078 C 
ATOM      2  C1  UNL d   1      -2.274   1.682  -3.541  0.00  0.00    -0.077 A 
ATOM      3  C2  UNL d   1      -1.191   2.565  -3.449  0.00  0.00    -0.001 A 
ATOM      4  C3  UNL d   1      -0.294   2.474  -2.383  0.00  0.00     0.003 A 
ATOM      5  C4  UNL d   1      -0.471   1.502  -1.401  0.00  0.00    -0.005 A 
ATOM      6  C5  UNL d   1      -1.545   0.618  -1.485  0.00  0.00     0.003 A 
ATOM      7  C6  UNL d   1      -2.442   0.707  -2.550  0.00  0.00    -0.001 A 
ENDROOT
TORSDOF 0
ENDMDL
