MODEL 1
REMARK minimizedAffinity 6.45782995
REMARK minimizedRMSD -1
REMARK  0 active torsions:
REMARK  status: ('A' for Active; 'I' for Inactive)
ROOT
ATOM      1  C   UNL d   1       2.536   1.128  -0.490  0.00  0.00     0.078 C 
ATOM      2  C1  UNL d   1       2.691   0.321  -1.745  0.00  0.00    -0.077 A 
ATOM      3  C2  UNL d   1       1.764  -0.673  -2.082  0.00  0.00    -0.001 A 
ATOM      4  C3  UNL d   1       1.926  -1.423  -3.248  0.00  0.00     0.003 A 
ATOM      5  C4  UNL d   1       3.014  -1.188  -4.085  0.00  0.00    -0.005 A 
ATOM      6  C5  UNL d   1       3.943  -0.203  -3.757  0.00  0.00     0.003 A 
ATOM      7  C6  UNL d   1       3.783   0.548  -2.591  0.00  0.00    -0.001 A 
ENDROOT
TORSDOF 0
ENDMDL
