MODEL 1
REMARK minimizedAffinity -2.70747209
REMARK minimizedRMSD -1
REMARK  0 active torsions:
REMARK  status: ('A' for Active; 'I' for Inactive)
ROOT
ATOM      1  C   UNL d   1       1.034  -1.940   2.109  0.00  0.00     0.078 C 
ATOM      2  C1  UNL d   1       1.992  -0.838   1.770  0.00  0.00    -0.077 A 
ATOM      3  C2  UNL d   1       1.597   0.239   0.966  0.00  0.00    -0.001 A 
ATOM      4  C3  UNL d   1       2.503   1.253   0.650  0.00  0.00     0.003 A 
ATOM      5  C4  UNL d   1       3.809   1.200   1.133  0.00  0.00    -0.005 A 
ATOM      6  C5  UNL d   1       4.211   0.132   1.932  0.00  0.00     0.003 A 
ATOM      7  C6  UNL d   1       3.307  -0.883   2.249  0.00  0.00    -0.001 A 
ENDROOT
TORSDOF 0
ENDMDL
