MODEL 1
REMARK minimizedAffinity 5.87118721
REMARK minimizedRMSD -1
REMARK  0 active torsions:
REMARK  status: ('A' for Active; 'I' for Inactive)
ROOT
ATOM      1  C   UNL d   1      -2.113  -5.601   0.390  0.00  0.00     0.078 C 
ATOM      2  C1  UNL d   1      -0.792  -5.700   1.094  0.00  0.00    -0.077 A 
ATOM      3  C2  UNL d   1       0.412  -5.618   0.385  0.00  0.00    -0.001 A 
ATOM      4  C3  UNL d   1       1.633  -5.720   1.052  0.00  0.00     0.003 A 
ATOM      5  C4  UNL d   1       1.662  -5.907   2.433  0.00  0.00    -0.005 A 
ATOM      6  C5  UNL d   1       0.469  -5.992   3.147  0.00  0.00     0.003 A 
ATOM      7  C6  UNL d   1      -0.753  -5.890   2.481  0.00  0.00    -0.001 A 
ENDROOT
TORSDOF 0
ENDMDL
