MODEL 1
REMARK minimizedAffinity 1.69273305
REMARK minimizedRMSD -1
REMARK  0 active torsions:
REMARK  status: ('A' for Active; 'I' for Inactive)
ROOT
ATOM      1  C   UNL d   1       5.879   0.119   1.111  0.00  0.00     0.078 C 
ATOM      2  C1  UNL d   1       4.451   0.566   1.219  0.00  0.00    -0.077 A 
ATOM      3  C2  UNL d   1       3.727   0.386   2.403  0.00  0.00    -0.001 A 
ATOM      4  C3  UNL d   1       2.396   0.798   2.486  0.00  0.00     0.003 A 
ATOM      5  C4  UNL d   1       1.777   1.391   1.387  0.00  0.00    -0.005 A 
ATOM      6  C5  UNL d   1       2.489   1.572   0.203  0.00  0.00     0.003 A 
ATOM      7  C6  UNL d   1       3.820   1.161   0.119  0.00  0.00    -0.001 A 
ENDROOT
TORSDOF 0
ENDMDL
