MODEL 1
REMARK minimizedAffinity 7.79138613
REMARK minimizedRMSD -1
REMARK  0 active torsions:
REMARK  status: ('A' for Active; 'I' for Inactive)
ROOT
ATOM      1  C   UNL d   1      -4.288   1.917   2.181  0.00  0.00     0.078 C 
ATOM      2  C1  UNL d   1      -4.842   1.497   3.509  0.00  0.00    -0.077 A 
ATOM      3  C2  UNL d   1      -5.480   0.261   3.667  0.00  0.00    -0.001 A 
ATOM      4  C3  UNL d   1      -6.000  -0.112   4.908  0.00  0.00     0.003 A 
ATOM      5  C4  UNL d   1      -5.888   0.746   6.000  0.00  0.00    -0.005 A 
ATOM      6  C5  UNL d   1      -5.256   1.979   5.852  0.00  0.00     0.003 A 
ATOM      7  C6  UNL d   1      -4.736   2.354   4.612  0.00  0.00    -0.001 A 
ENDROOT
TORSDOF 0
ENDMDL
