MODEL 1
REMARK minimizedAffinity 4.78317738
REMARK minimizedRMSD -1
REMARK  0 active torsions:
REMARK  status: ('A' for Active; 'I' for Inactive)
ROOT
ATOM      1  C   UNL d   1       2.643   1.211  -1.376  0.00  0.00     0.078 C 
ATOM      2  C1  UNL d   1       2.666   1.928  -2.693  0.00  0.00    -0.077 A 
ATOM      3  C2  UNL d   1       3.626   1.620  -3.664  0.00  0.00    -0.001 A 
ATOM      4  C3  UNL d   1       3.641   2.302  -4.882  0.00  0.00     0.003 A 
ATOM      5  C4  UNL d   1       2.700   3.297  -5.139  0.00  0.00    -0.005 A 
ATOM      6  C5  UNL d   1       1.742   3.611  -4.177  0.00  0.00     0.003 A 
ATOM      7  C6  UNL d   1       1.725   2.931  -2.959  0.00  0.00    -0.001 A 
ENDROOT
TORSDOF 0
ENDMDL
