MODEL 1
REMARK minimizedAffinity 0.118447691
REMARK minimizedRMSD -1
REMARK  0 active torsions:
REMARK  status: ('A' for Active; 'I' for Inactive)
ROOT
ATOM      1  C   UNL d   1       0.833   2.312  -2.974  0.00  0.00     0.078 C 
ATOM      2  C1  UNL d   1      -0.437   1.597  -3.329  0.00  0.00    -0.077 A 
ATOM      3  C2  UNL d   1      -1.095   0.789  -2.394  0.00  0.00    -0.001 A 
ATOM      4  C3  UNL d   1      -2.271   0.122  -2.742  0.00  0.00     0.003 A 
ATOM      5  C4  UNL d   1      -2.797   0.255  -4.026  0.00  0.00    -0.005 A 
ATOM      6  C5  UNL d   1      -2.148   1.055  -4.963  0.00  0.00     0.003 A 
ATOM      7  C6  UNL d   1      -0.972   1.723  -4.617  0.00  0.00    -0.001 A 
ENDROOT
TORSDOF 0
ENDMDL
