MODEL 1
REMARK minimizedAffinity 0.302169502
REMARK minimizedRMSD -1
REMARK  0 active torsions:
REMARK  status: ('A' for Active; 'I' for Inactive)
ROOT
ATOM      1  C   UNL d   1      -1.254   1.518   0.419  0.00  0.00     0.078 C 
ATOM      2  C1  UNL d   1      -2.523   0.720   0.379  0.00  0.00    -0.077 A 
ATOM      3  C2  UNL d   1      -2.585  -0.503  -0.300  0.00  0.00    -0.001 A 
ATOM      4  C3  UNL d   1      -3.775  -1.231  -0.337  0.00  0.00     0.003 A 
ATOM      5  C4  UNL d   1      -4.913  -0.743   0.303  0.00  0.00    -0.005 A 
ATOM      6  C5  UNL d   1      -4.862   0.474   0.980  0.00  0.00     0.003 A 
ATOM      7  C6  UNL d   1      -3.672   1.203   1.017  0.00  0.00    -0.001 A 
ENDROOT
TORSDOF 0
ENDMDL
