MODEL 1
REMARK minimizedAffinity 4.08914232
REMARK minimizedRMSD -1
REMARK  0 active torsions:
REMARK  status: ('A' for Active; 'I' for Inactive)
ROOT
ATOM      1  C   UNL d   1      -1.893  -5.429   0.772  0.00  0.00     0.078 C 
ATOM      2  C1  UNL d   1      -0.455  -5.635   1.144  0.00  0.00    -0.077 A 
ATOM      3  C2  UNL d   1      -0.051  -5.638   2.485  0.00  0.00    -0.001 A 
ATOM      4  C3  UNL d   1       1.292  -5.820   2.817  0.00  0.00     0.003 A 
ATOM      5  C4  UNL d   1       2.243  -6.000   1.814  0.00  0.00    -0.005 A 
ATOM      6  C5  UNL d   1       1.850  -5.996   0.477  0.00  0.00     0.003 A 
ATOM      7  C6  UNL d   1       0.507  -5.814   0.143  0.00  0.00    -0.001 A 
ENDROOT
TORSDOF 0
ENDMDL
