MODEL 1
REMARK minimizedAffinity 8.96817493
REMARK minimizedRMSD -1
REMARK  0 active torsions:
REMARK  status: ('A' for Active; 'I' for Inactive)
ROOT
ATOM      1  C   UNL d   1       2.870   2.539  -0.063  0.00  0.00     0.078 C 
ATOM      2  C1  UNL d   1       3.783   1.697   0.777  0.00  0.00    -0.077 A 
ATOM      3  C2  UNL d   1       3.305   1.024   1.909  0.00  0.00    -0.001 A 
ATOM      4  C3  UNL d   1       4.168   0.252   2.687  0.00  0.00     0.003 A 
ATOM      5  C4  UNL d   1       5.515   0.146   2.344  0.00  0.00    -0.005 A 
ATOM      6  C5  UNL d   1       5.999   0.813   1.221  0.00  0.00     0.003 A 
ATOM      7  C6  UNL d   1       5.138   1.586   0.441  0.00  0.00    -0.001 A 
ENDROOT
TORSDOF 0
ENDMDL
