MODEL 1
REMARK minimizedAffinity -4.83613968
REMARK minimizedRMSD -1
REMARK  0 active torsions:
REMARK  status: ('A' for Active; 'I' for Inactive)
ROOT
ATOM      1  C1  BNZ d   1       0.366  -1.861  -0.129  0.00  0.00     0.000 A 
ATOM      2  C2  BNZ d   1       1.646  -1.871  -0.617  0.00  0.00     0.000 A 
ATOM      3  C3  BNZ d   1       2.252  -0.713  -1.017  0.00  0.00     0.000 A 
ATOM      4  C4  BNZ d   1       1.564   0.447  -0.967  0.00  0.00     0.000 A 
ATOM      5  C5  BNZ d   1       0.270   0.472  -0.486  0.00  0.00     0.000 A 
ATOM      6  C6  BNZ d   1      -0.323  -0.690  -0.048  0.00  0.00     0.000 A 
ENDROOT
TORSDOF 0
ENDMDL
