MODEL 1
REMARK minimizedAffinity -1.44571602
REMARK minimizedRMSD -1
REMARK  0 active torsions:
REMARK  status: ('A' for Active; 'I' for Inactive)
ROOT
ATOM      1  C1  BNZ d   1      -2.327  -0.710   3.752  0.00  0.00     0.000 A 
ATOM      2  C2  BNZ d   1      -1.783   0.498   4.101  0.00  0.00     0.000 A 
ATOM      3  C3  BNZ d   1      -1.399   1.394   3.143  0.00  0.00     0.000 A 
ATOM      4  C4  BNZ d   1      -1.520   1.066   1.841  0.00  0.00     0.000 A 
ATOM      5  C5  BNZ d   1      -2.057  -0.152   1.474  0.00  0.00     0.000 A 
ATOM      6  C6  BNZ d   1      -2.480  -1.036   2.440  0.00  0.00     0.000 A 
ENDROOT
TORSDOF 0
ENDMDL
