MODEL 1
REMARK minimizedAffinity -0.937567532
REMARK minimizedRMSD -1
REMARK  0 active torsions:
REMARK  status: ('A' for Active; 'I' for Inactive)
ROOT
ATOM      1  C1  BNZ d   1       1.443   0.412  -0.082  0.00  0.00     0.000 A 
ATOM      2  C2  BNZ d   1       0.551  -0.514   0.388  0.00  0.00     0.000 A 
ATOM      3  C3  BNZ d   1      -0.773  -0.442   0.056  0.00  0.00     0.000 A 
ATOM      4  C4  BNZ d   1      -1.210   0.577  -0.711  0.00  0.00     0.000 A 
ATOM      5  C5  BNZ d   1      -0.324   1.525  -1.185  0.00  0.00     0.000 A 
ATOM      6  C6  BNZ d   1       1.014   1.427  -0.881  0.00  0.00     0.000 A 
ENDROOT
TORSDOF 0
ENDMDL
