MODEL 1
REMARK minimizedAffinity -4.64398527
REMARK minimizedRMSD -1
REMARK  0 active torsions:
REMARK  status: ('A' for Active; 'I' for Inactive)
ROOT
ATOM      1  C1  BNZ d   1       1.141  -1.651  -0.053  0.00  0.00     0.000 A 
ATOM      2  C2  BNZ d   1       2.303  -1.758  -0.769  0.00  0.00     0.000 A 
ATOM      3  C3  BNZ d   1       2.872  -0.659  -1.349  0.00  0.00     0.000 A 
ATOM      4  C4  BNZ d   1       2.258   0.537  -1.247  0.00  0.00     0.000 A 
ATOM      5  C5  BNZ d   1       1.081   0.660  -0.536  0.00  0.00     0.000 A 
ATOM      6  C6  BNZ d   1       0.532  -0.441   0.080  0.00  0.00     0.000 A 
ENDROOT
TORSDOF 0
ENDMDL
