MODEL 1
REMARK minimizedAffinity -3.4090364
REMARK minimizedRMSD -1
REMARK  0 active torsions:
REMARK  status: ('A' for Active; 'I' for Inactive)
ROOT
ATOM      1  C1  BNZ d   1       0.916  -1.796  -0.633  0.00  0.00     0.000 A 
ATOM      2  C2  BNZ d   1       2.168  -1.962  -1.163  0.00  0.00     0.000 A 
ATOM      3  C3  BNZ d   1       3.046  -0.917  -1.228  0.00  0.00     0.000 A 
ATOM      4  C4  BNZ d   1       2.658   0.302  -0.799  0.00  0.00     0.000 A 
ATOM      5  C5  BNZ d   1       1.396   0.488  -0.270  0.00  0.00     0.000 A 
ATOM      6  C6  BNZ d   1       0.529  -0.575  -0.171  0.00  0.00     0.000 A 
ENDROOT
TORSDOF 0
ENDMDL
