MODEL 1
REMARK minimizedAffinity -4.57224989
REMARK minimizedRMSD -1
REMARK  0 active torsions:
REMARK  status: ('A' for Active; 'I' for Inactive)
ROOT
ATOM      1  C1  BNZ d   1       2.671  -1.212  -1.119  0.00  0.00     0.000 A 
ATOM      2  C2  BNZ d   1       2.411   0.131  -1.052  0.00  0.00     0.000 A 
ATOM      3  C3  BNZ d   1       1.150   0.587  -0.790  0.00  0.00     0.000 A 
ATOM      4  C4  BNZ d   1       0.144  -0.297  -0.634  0.00  0.00     0.000 A 
ATOM      5  C5  BNZ d   1       0.388  -1.654  -0.708  0.00  0.00     0.000 A 
ATOM      6  C6  BNZ d   1       1.666  -2.111  -0.934  0.00  0.00     0.000 A 
ENDROOT
TORSDOF 0
ENDMDL
