MODEL 1
REMARK minimizedAffinity -3.29655647
REMARK minimizedRMSD -1
REMARK  0 active torsions:
REMARK  status: ('A' for Active; 'I' for Inactive)
ROOT
ATOM      1  C1  BNZ d   1       0.462   0.172  -0.202  0.00  0.00     0.000 A 
ATOM      2  C2  BNZ d   1       1.726   0.185  -0.729  0.00  0.00     0.000 A 
ATOM      3  C3  BNZ d   1       2.412  -0.979  -0.933  0.00  0.00     0.000 A 
ATOM      4  C4  BNZ d   1       1.849  -2.151  -0.573  0.00  0.00     0.000 A 
ATOM      5  C5  BNZ d   1       0.580  -2.181  -0.032  0.00  0.00     0.000 A 
ATOM      6  C6  BNZ d   1      -0.123  -1.009   0.136  0.00  0.00     0.000 A 
ENDROOT
TORSDOF 0
ENDMDL
