MODEL 1
REMARK minimizedAffinity -5.23225164
REMARK minimizedRMSD -1
REMARK  0 active torsions:
REMARK  status: ('A' for Active; 'I' for Inactive)
ROOT
ATOM      1  C1  BNZ d   1       0.549   1.317  -1.553  0.00  0.00     0.000 A 
ATOM      2  C2  BNZ d   1       1.648   1.301  -2.369  0.00  0.00     0.000 A 
ATOM      3  C3  BNZ d   1       2.650   0.390  -2.176  0.00  0.00     0.000 A 
ATOM      4  C4  BNZ d   1       2.569  -0.475  -1.145  0.00  0.00     0.000 A 
ATOM      5  C5  BNZ d   1       1.472  -0.464  -0.307  0.00  0.00     0.000 A 
ATOM      6  C6  BNZ d   1       0.448   0.428  -0.528  0.00  0.00     0.000 A 
ENDROOT
TORSDOF 0
ENDMDL
