MODEL 1
REMARK minimizedAffinity -3.51947474
REMARK minimizedRMSD -1
REMARK  0 active torsions:
REMARK  status: ('A' for Active; 'I' for Inactive)
ROOT
ATOM      1  C1  BNZ d   1       1.441   0.265  -0.836  0.00  0.00     0.000 A 
ATOM      2  C2  BNZ d   1       1.804   1.118  -1.844  0.00  0.00     0.000 A 
ATOM      3  C3  BNZ d   1       2.939   0.898  -2.572  0.00  0.00     0.000 A 
ATOM      4  C4  BNZ d   1       3.731  -0.150  -2.266  0.00  0.00     0.000 A 
ATOM      5  C5  BNZ d   1       3.383  -1.014  -1.246  0.00  0.00     0.000 A 
ATOM      6  C6  BNZ d   1       2.219  -0.811  -0.541  0.00  0.00     0.000 A 
ENDROOT
TORSDOF 0
ENDMDL
