MODEL 1
REMARK minimizedAffinity -4.15403461
REMARK minimizedRMSD -1
REMARK  0 active torsions:
REMARK  status: ('A' for Active; 'I' for Inactive)
ROOT
ATOM      1  C1  BNZ d   1       2.686  -0.594  -1.447  0.00  0.00     0.000 A 
ATOM      2  C2  BNZ d   1       2.979   0.407  -2.335  0.00  0.00     0.000 A 
ATOM      3  C3  BNZ d   1       2.174   1.507  -2.439  0.00  0.00     0.000 A 
ATOM      4  C4  BNZ d   1       1.058   1.586  -1.686  0.00  0.00     0.000 A 
ATOM      5  C5  BNZ d   1       0.744   0.580  -0.793  0.00  0.00     0.000 A 
ATOM      6  C6  BNZ d   1       1.577  -0.507  -0.663  0.00  0.00     0.000 A 
ENDROOT
TORSDOF 0
ENDMDL
