MODEL 1
REMARK minimizedAffinity -4.51043701
REMARK minimizedRMSD -1
REMARK  0 active torsions:
REMARK  status: ('A' for Active; 'I' for Inactive)
ROOT
ATOM      1  C1  BNZ d   1       0.315   1.697  -1.456  0.00  0.00     0.000 A 
ATOM      2  C2  BNZ d   1       1.440   1.770  -2.233  0.00  0.00     0.000 A 
ATOM      3  C3  BNZ d   1       2.474   0.894  -2.053  0.00  0.00     0.000 A 
ATOM      4  C4  BNZ d   1       2.398  -0.027  -1.071  0.00  0.00     0.000 A 
ATOM      5  C5  BNZ d   1       1.274  -0.108  -0.273  0.00  0.00     0.000 A 
ATOM      6  C6  BNZ d   1       0.219   0.751  -0.483  0.00  0.00     0.000 A 
ENDROOT
TORSDOF 0
ENDMDL
