MODEL 1
REMARK minimizedAffinity -4.61036348
REMARK minimizedRMSD -1
REMARK  0 active torsions:
REMARK  status: ('A' for Active; 'I' for Inactive)
ROOT
ATOM      1  C1  BNZ d   1       1.591  -1.729  -1.133  0.00  0.00     0.000 A 
ATOM      2  C2  BNZ d   1       0.266  -1.723  -0.788  0.00  0.00     0.000 A 
ATOM      3  C3  BNZ d   1      -0.289  -0.644  -0.159  0.00  0.00     0.000 A 
ATOM      4  C4  BNZ d   1       0.490   0.410   0.160  0.00  0.00     0.000 A 
ATOM      5  C5  BNZ d   1       1.830   0.415  -0.172  0.00  0.00     0.000 A 
ATOM      6  C6  BNZ d   1       2.376  -0.656  -0.841  0.00  0.00     0.000 A 
ENDROOT
TORSDOF 0
ENDMDL
