MODEL 1
REMARK minimizedAffinity -4.82595825
REMARK minimizedRMSD -1
REMARK  0 active torsions:
REMARK  status: ('A' for Active; 'I' for Inactive)
ROOT
ATOM      1  C1  BNZ d   1       1.370  -1.638  -1.580  0.00  0.00     0.000 A 
ATOM      2  C2  BNZ d   1       0.348  -1.759  -0.677  0.00  0.00     0.000 A 
ATOM      3  C3  BNZ d   1      -0.077  -0.681   0.048  0.00  0.00     0.000 A 
ATOM      4  C4  BNZ d   1       0.547   0.505  -0.101  0.00  0.00     0.000 A 
ATOM      5  C5  BNZ d   1       1.585   0.641  -1.001  0.00  0.00     0.000 A 
ATOM      6  C6  BNZ d   1       1.985  -0.437  -1.757  0.00  0.00     0.000 A 
ENDROOT
TORSDOF 0
ENDMDL
