MODEL 1
REMARK minimizedAffinity -4.67262363
REMARK minimizedRMSD -1
REMARK  0 active torsions:
REMARK  status: ('A' for Active; 'I' for Inactive)
ROOT
ATOM      1  C1  BNZ d   1       1.542  -0.066   0.571  0.00  0.00     0.000 A 
ATOM      2  C2  BNZ d   1       2.751  -0.126  -0.068  0.00  0.00     0.000 A 
ATOM      3  C3  BNZ d   1       2.938  -0.961  -1.134  0.00  0.00     0.000 A 
ATOM      4  C4  BNZ d   1       1.930  -1.763  -1.534  0.00  0.00     0.000 A 
ATOM      5  C5  BNZ d   1       0.708  -1.721  -0.893  0.00  0.00     0.000 A 
ATOM      6  C6  BNZ d   1       0.511  -0.851   0.155  0.00  0.00     0.000 A 
ENDROOT
TORSDOF 0
ENDMDL
