MODEL 1
REMARK minimizedAffinity -1.29764152
REMARK minimizedRMSD -1
REMARK  0 active torsions:
REMARK  status: ('A' for Active; 'I' for Inactive)
ROOT
ATOM      1  C   UNL d   1      -1.172  -0.784  -0.443  0.00  0.00     0.020 A 
ATOM      2  C1  UNL d   1      -0.490  -2.000  -0.480  0.00  0.00     0.020 A 
ATOM      3  C2  UNL d   1       0.881  -2.039  -0.217  0.00  0.00     0.034 A 
ATOM      4  C3  UNL d   1       1.574  -0.860   0.085  0.00  0.00     0.017 A 
ATOM      5  C4  UNL d   1       0.887   0.359   0.122  0.00  0.00     0.017 A 
ATOM      6  C5  UNL d   1      -0.485   0.392  -0.142  0.00  0.00     0.034 A 
ATOM      7 Cl   UNL d   1       1.674   1.854   0.487  0.00  0.00    -0.070 Cl
ATOM      8 Cl1  UNL d   1       3.268  -0.983   0.400  0.00  0.00    -0.070 Cl
ENDROOT
TORSDOF 0
ENDMDL
