MODEL 1
REMARK minimizedAffinity -2.33407784
REMARK minimizedRMSD -1
REMARK  0 active torsions:
REMARK  status: ('A' for Active; 'I' for Inactive)
ROOT
ATOM      1  C   UNL d   1       1.832  -1.944  -0.545  0.00  0.00     0.020 A 
ATOM      2  C1  UNL d   1       0.545  -2.428  -0.313  0.00  0.00     0.020 A 
ATOM      3  C2  UNL d   1      -0.494  -1.540  -0.029  0.00  0.00     0.034 A 
ATOM      4  C3  UNL d   1      -0.249  -0.163   0.022  0.00  0.00     0.017 A 
ATOM      5  C4  UNL d   1       1.043   0.322  -0.212  0.00  0.00     0.017 A 
ATOM      6  C5  UNL d   1       2.080  -0.572  -0.495  0.00  0.00     0.034 A 
ATOM      7 Cl   UNL d   1       1.422   2.008  -0.166  0.00  0.00    -0.070 Cl
ATOM      8 Cl1  UNL d   1      -1.582   0.878   0.377  0.00  0.00    -0.070 Cl
ENDROOT
TORSDOF 0
ENDMDL
