MODEL 1
REMARK minimizedAffinity -3.2814939
REMARK minimizedRMSD -1
REMARK  0 active torsions:
REMARK  status: ('A' for Active; 'I' for Inactive)
ROOT
ATOM      1  C   UNL d   1       3.351  -0.421  -0.222  0.00  0.00     0.020 A 
ATOM      2  C1  UNL d   1       2.454  -1.489  -0.209  0.00  0.00     0.020 A 
ATOM      3  C2  UNL d   1       1.080  -1.245  -0.169  0.00  0.00     0.034 A 
ATOM      4  C3  UNL d   1       0.598   0.068  -0.142  0.00  0.00     0.017 A 
ATOM      5  C4  UNL d   1       1.499   1.139  -0.155  0.00  0.00     0.017 A 
ATOM      6  C5  UNL d   1       2.874   0.890  -0.195  0.00  0.00     0.034 A 
ATOM      7 Cl   UNL d   1       0.980   2.788  -0.124  0.00  0.00    -0.070 Cl
ATOM      8 Cl1  UNL d   1      -1.114   0.296  -0.094  0.00  0.00    -0.070 Cl
ENDROOT
TORSDOF 0
ENDMDL
