MODEL 1
REMARK minimizedAffinity -4.34629869
REMARK minimizedRMSD -1
REMARK  0 active torsions:
REMARK  status: ('A' for Active; 'I' for Inactive)
ROOT
ATOM      1  C   UNL d   1       2.845   1.486   0.124  0.00  0.00     0.020 A 
ATOM      2  C1  UNL d   1       3.427   0.220   0.127  0.00  0.00     0.020 A 
ATOM      3  C2  UNL d   1       2.657  -0.904  -0.181  0.00  0.00     0.034 A 
ATOM      4  C3  UNL d   1       1.300  -0.763  -0.493  0.00  0.00     0.017 A 
ATOM      5  C4  UNL d   1       0.716   0.509  -0.495  0.00  0.00     0.017 A 
ATOM      6  C5  UNL d   1       1.492   1.631  -0.187  0.00  0.00     0.034 A 
ATOM      7 Cl   UNL d   1      -0.952   0.763  -0.870  0.00  0.00    -0.070 Cl
ATOM      8 Cl1  UNL d   1       0.407  -2.195  -0.864  0.00  0.00    -0.070 Cl
ENDROOT
TORSDOF 0
ENDMDL
