MODEL 1
REMARK minimizedAffinity -0.542091191
REMARK minimizedRMSD -1
REMARK  0 active torsions:
REMARK  status: ('A' for Active; 'I' for Inactive)
ROOT
ATOM      1  C   UNL d   1       2.142  -2.087  -0.487  0.00  0.00     0.020 A 
ATOM      2  C1  UNL d   1       0.767  -2.316  -0.474  0.00  0.00     0.020 A 
ATOM      3  C2  UNL d   1      -0.115  -1.255  -0.255  0.00  0.00     0.034 A 
ATOM      4  C3  UNL d   1       0.376   0.038  -0.048  0.00  0.00     0.017 A 
ATOM      5  C4  UNL d   1       1.757   0.267  -0.061  0.00  0.00     0.017 A 
ATOM      6  C5  UNL d   1       2.636  -0.798  -0.280  0.00  0.00     0.034 A 
ATOM      7 Cl   UNL d   1       2.439   1.836   0.187  0.00  0.00    -0.070 Cl
ATOM      8 Cl1  UNL d   1      -0.772   1.302   0.216  0.00  0.00    -0.070 Cl
ENDROOT
TORSDOF 0
ENDMDL
