MODEL 1
REMARK minimizedAffinity 0.910210192
REMARK minimizedRMSD -1
REMARK  0 active torsions:
REMARK  status: ('A' for Active; 'I' for Inactive)
ROOT
ATOM      1  C   UNL d   1      -3.643   0.608   1.643  0.00  0.00     0.020 A 
ATOM      2  C1  UNL d   1      -3.655   1.986   1.431  0.00  0.00     0.020 A 
ATOM      3  C2  UNL d   1      -2.667   2.580   0.644  0.00  0.00     0.034 A 
ATOM      4  C3  UNL d   1      -1.662   1.796   0.065  0.00  0.00     0.017 A 
ATOM      5  C4  UNL d   1      -1.650   0.413   0.279  0.00  0.00     0.017 A 
ATOM      6  C5  UNL d   1      -2.643  -0.177   1.068  0.00  0.00     0.034 A 
ATOM      7 Cl   UNL d   1      -0.443  -0.620  -0.402  0.00  0.00    -0.070 Cl
ATOM      8 Cl1  UNL d   1      -0.472   2.598  -0.897  0.00  0.00    -0.070 Cl
ENDROOT
TORSDOF 0
ENDMDL
