MODEL 1
REMARK minimizedAffinity -1.44517398
REMARK minimizedRMSD -1
REMARK  0 active torsions:
REMARK  status: ('A' for Active; 'I' for Inactive)
ROOT
ATOM      1  C   UNL d   1      -3.747   0.964   0.842  0.00  0.00     0.020 A 
ATOM      2  C1  UNL d   1      -3.707  -0.386   1.189  0.00  0.00     0.020 A 
ATOM      3  C2  UNL d   1      -2.564  -1.142   0.923  0.00  0.00     0.034 A 
ATOM      4  C3  UNL d   1      -1.455  -0.549   0.307  0.00  0.00     0.017 A 
ATOM      5  C4  UNL d   1      -1.496   0.806  -0.040  0.00  0.00     0.017 A 
ATOM      6  C5  UNL d   1      -2.643   1.559   0.229  0.00  0.00     0.034 A 
ATOM      7 Cl   UNL d   1      -0.168   1.608  -0.802  0.00  0.00    -0.070 Cl
ATOM      8 Cl1  UNL d   1      -0.075  -1.544   0.008  0.00  0.00    -0.070 Cl
ENDROOT
TORSDOF 0
ENDMDL
