MODEL 1
REMARK minimizedAffinity -2.71209955
REMARK minimizedRMSD -1
REMARK  0 active torsions:
REMARK  status: ('A' for Active; 'I' for Inactive)
ROOT
ATOM      1  C   UNL d   1       3.226  -1.352  -0.186  0.00  0.00     0.020 A 
ATOM      2  C1  UNL d   1       2.927  -0.016   0.079  0.00  0.00     0.020 A 
ATOM      3  C2  UNL d   1       1.658   0.487  -0.217  0.00  0.00     0.034 A 
ATOM      4  C3  UNL d   1       0.684  -0.346  -0.779  0.00  0.00     0.017 A 
ATOM      5  C4  UNL d   1       0.985  -1.687  -1.044  0.00  0.00     0.017 A 
ATOM      6  C5  UNL d   1       2.257  -2.185  -0.746  0.00  0.00     0.034 A 
ATOM      7 Cl   UNL d   1      -0.165  -2.775  -1.737  0.00  0.00    -0.070 Cl
ATOM      8 Cl1  UNL d   1      -0.864   0.343  -1.118  0.00  0.00    -0.070 Cl
ENDROOT
TORSDOF 0
ENDMDL
