MODEL 1
REMARK minimizedAffinity -5.35431433
REMARK minimizedRMSD -1
REMARK  0 active torsions:
REMARK  status: ('A' for Active; 'I' for Inactive)
ROOT
ATOM      1  C   UNL d   1      -0.361   0.938   1.156  0.00  0.00     0.077 C 
ATOM      2  C1  UNL d   1      -0.500  -0.421   0.537  0.00  0.00    -0.074 A 
ATOM      3  C2  UNL d   1      -1.509  -1.299   0.948  0.00  0.00    -0.005 A 
ATOM      4  C3  UNL d   1      -1.631  -2.556   0.357  0.00  0.00     0.006 A 
ATOM      5  C4  UNL d   1      -0.748  -2.948  -0.650  0.00  0.00    -0.005 A 
ATOM      6  C5  UNL d   1       0.266  -2.084  -1.074  0.00  0.00    -0.074 A 
ATOM      7  C6  UNL d   1       1.218  -2.486  -2.162  0.00  0.00     0.077 C 
ATOM      8  C7  UNL d   1       0.379  -0.819  -0.480  0.00  0.00    -0.001 A 
ENDROOT
TORSDOF 0
ENDMDL
