MODEL 1
REMARK minimizedAffinity -4.03459644
REMARK minimizedRMSD -1
REMARK  0 active torsions:
REMARK  status: ('A' for Active; 'I' for Inactive)
ROOT
ATOM      1  C   UNL d   1      -1.904  -1.270   1.347  0.00  0.00     0.077 C 
ATOM      2  C1  UNL d   1      -0.754  -1.118   0.396  0.00  0.00    -0.074 A 
ATOM      3  C2  UNL d   1       0.181  -0.091   0.557  0.00  0.00    -0.005 A 
ATOM      4  C3  UNL d   1       1.251   0.031  -0.330  0.00  0.00     0.006 A 
ATOM      5  C4  UNL d   1       1.395  -0.871  -1.385  0.00  0.00    -0.005 A 
ATOM      6  C5  UNL d   1       0.470  -1.905  -1.562  0.00  0.00    -0.074 A 
ATOM      7  C6  UNL d   1       0.616  -2.888  -2.684  0.00  0.00     0.077 C 
ATOM      8  C7  UNL d   1      -0.598  -2.025  -0.662  0.00  0.00    -0.001 A 
ENDROOT
TORSDOF 0
ENDMDL
