MODEL 1
REMARK minimizedAffinity -2.54743862
REMARK minimizedRMSD -1
REMARK  0 active torsions:
REMARK  status: ('A' for Active; 'I' for Inactive)
ROOT
ATOM      1  C   UNL d   1      -1.620  -0.391   1.265  0.00  0.00     0.077 C 
ATOM      2  C1  UNL d   1      -0.433  -0.778   0.434  0.00  0.00    -0.074 A 
ATOM      3  C2  UNL d   1       0.744  -0.023   0.464  0.00  0.00    -0.005 A 
ATOM      4  C3  UNL d   1       1.842  -0.401  -0.308  0.00  0.00     0.006 A 
ATOM      5  C4  UNL d   1       1.775  -1.537  -1.116  0.00  0.00    -0.005 A 
ATOM      6  C5  UNL d   1       0.607  -2.304  -1.159  0.00  0.00    -0.074 A 
ATOM      7  C6  UNL d   1       0.522  -3.533  -2.015  0.00  0.00     0.077 C 
ATOM      8  C7  UNL d   1      -0.490  -1.922  -0.375  0.00  0.00    -0.001 A 
ENDROOT
TORSDOF 0
ENDMDL
