MODEL 1
REMARK minimizedAffinity -3.04628778
REMARK minimizedRMSD -1
REMARK  0 active torsions:
REMARK  status: ('A' for Active; 'I' for Inactive)
ROOT
ATOM      1  C   UNL d   1       0.030   3.263  -0.965  0.00  0.00     0.077 C 
ATOM      2  C1  UNL d   1      -0.195   1.965  -0.247  0.00  0.00    -0.074 A 
ATOM      3  C2  UNL d   1      -0.879   1.927   0.972  0.00  0.00    -0.005 A 
ATOM      4  C3  UNL d   1      -1.089   0.712   1.624  0.00  0.00     0.006 A 
ATOM      5  C4  UNL d   1      -0.618  -0.476   1.063  0.00  0.00    -0.005 A 
ATOM      6  C5  UNL d   1       0.068  -0.458  -0.156  0.00  0.00    -0.074 A 
ATOM      7  C6  UNL d   1       0.572  -1.727  -0.777  0.00  0.00     0.077 C 
ATOM      8  C7  UNL d   1       0.268   0.767  -0.808  0.00  0.00    -0.001 A 
ENDROOT
TORSDOF 0
ENDMDL
