MODEL 1
REMARK minimizedAffinity -0.695102692
REMARK minimizedRMSD -1
REMARK  0 active torsions:
REMARK  status: ('A' for Active; 'I' for Inactive)
ROOT
ATOM      1  C   UNL d   1       0.338  -1.471  -0.080  0.00  0.00     0.077 C 
ATOM      2  C1  UNL d   1      -0.257  -0.342   0.707  0.00  0.00    -0.074 A 
ATOM      3  C2  UNL d   1      -1.490   0.212   0.349  0.00  0.00    -0.005 A 
ATOM      4  C3  UNL d   1      -2.036   1.256   1.097  0.00  0.00     0.006 A 
ATOM      5  C4  UNL d   1      -1.355   1.755   2.208  0.00  0.00    -0.005 A 
ATOM      6  C5  UNL d   1      -0.121   1.213   2.582  0.00  0.00    -0.074 A 
ATOM      7  C6  UNL d   1       0.619   1.731   3.779  0.00  0.00     0.077 C 
ATOM      8  C7  UNL d   1       0.417   0.160   1.830  0.00  0.00    -0.001 A 
ENDROOT
TORSDOF 0
ENDMDL
