MODEL 1
REMARK minimizedAffinity -5.3271327
REMARK minimizedRMSD -1
REMARK  0 active torsions:
REMARK  status: ('A' for Active; 'I' for Inactive)
ROOT
ATOM      1  C   UNL d   1       1.642  -0.828  -0.527  0.00  0.00     0.077 C 
ATOM      2  C1  UNL d   1       0.816   0.414  -0.375  0.00  0.00    -0.074 A 
ATOM      3  C2  UNL d   1       1.153   1.589  -1.056  0.00  0.00    -0.005 A 
ATOM      4  C3  UNL d   1       0.369   2.734  -0.912  0.00  0.00     0.006 A 
ATOM      5  C4  UNL d   1      -0.757   2.716  -0.088  0.00  0.00    -0.005 A 
ATOM      6  C5  UNL d   1      -1.109   1.550   0.600  0.00  0.00    -0.074 A 
ATOM      7  C6  UNL d   1      -2.322   1.511   1.482  0.00  0.00     0.077 C 
ATOM      8  C7  UNL d   1      -0.321   0.401   0.444  0.00  0.00    -0.001 A 
ENDROOT
TORSDOF 0
ENDMDL
