MODEL 1
REMARK minimizedAffinity -3.39612484
REMARK minimizedRMSD -1
REMARK  0 active torsions:
REMARK  status: ('A' for Active; 'I' for Inactive)
ROOT
ATOM      1  C   UNL d   1      -1.235  -0.435   1.648  0.00  0.00     0.077 C 
ATOM      2  C1  UNL d   1      -0.315  -0.749   0.506  0.00  0.00    -0.074 A 
ATOM      3  C2  UNL d   1       0.716   0.128   0.152  0.00  0.00    -0.005 A 
ATOM      4  C3  UNL d   1       1.570  -0.182  -0.906  0.00  0.00     0.006 A 
ATOM      5  C4  UNL d   1       1.403  -1.369  -1.620  0.00  0.00    -0.005 A 
ATOM      6  C5  UNL d   1       0.378  -2.259  -1.280  0.00  0.00    -0.074 A 
ATOM      7  C6  UNL d   1       0.191  -3.544  -2.030  0.00  0.00     0.077 C 
ATOM      8  C7  UNL d   1      -0.471  -1.944  -0.211  0.00  0.00    -0.001 A 
ENDROOT
TORSDOF 0
ENDMDL
