MODEL 1
REMARK minimizedAffinity -2.63080287
REMARK minimizedRMSD -1
REMARK  0 active torsions:
REMARK  status: ('A' for Active; 'I' for Inactive)
ROOT
ATOM      1  C   UNL d   1      -0.619   2.907   0.882  0.00  0.00     0.077 C 
ATOM      2  C1  UNL d   1      -0.713   1.410   0.878  0.00  0.00    -0.074 A 
ATOM      3  C2  UNL d   1      -1.495   0.737   1.822  0.00  0.00    -0.005 A 
ATOM      4  C3  UNL d   1      -1.580  -0.655   1.800  0.00  0.00     0.006 A 
ATOM      5  C4  UNL d   1      -0.886  -1.387   0.836  0.00  0.00    -0.005 A 
ATOM      6  C5  UNL d   1      -0.100  -0.730  -0.117  0.00  0.00    -0.074 A 
ATOM      7  C6  UNL d   1       0.644  -1.501  -1.167  0.00  0.00     0.077 C 
ATOM      8  C7  UNL d   1      -0.025   0.669  -0.093  0.00  0.00    -0.001 A 
ENDROOT
TORSDOF 0
ENDMDL
