MODEL 1
REMARK minimizedAffinity -1.96509409
REMARK minimizedRMSD -1
REMARK  0 active torsions:
REMARK  status: ('A' for Active; 'I' for Inactive)
ROOT
ATOM      1  C   UNL d   1      -1.719  -0.315   0.970  0.00  0.00     0.077 C 
ATOM      2  C1  UNL d   1      -0.555  -0.854   0.193  0.00  0.00    -0.074 A 
ATOM      3  C2  UNL d   1       0.681  -0.199   0.202  0.00  0.00    -0.005 A 
ATOM      4  C3  UNL d   1       1.757  -0.717  -0.518  0.00  0.00     0.006 A 
ATOM      5  C4  UNL d   1       1.609  -1.894  -1.253  0.00  0.00    -0.005 A 
ATOM      6  C5  UNL d   1       0.381  -2.563  -1.273  0.00  0.00    -0.074 A 
ATOM      7  C6  UNL d   1       0.208  -3.835  -2.050  0.00  0.00     0.077 C 
ATOM      8  C7  UNL d   1      -0.693  -2.040  -0.542  0.00  0.00    -0.001 A 
ENDROOT
TORSDOF 0
ENDMDL
