MODEL 1
REMARK minimizedAffinity -4.60847616
REMARK minimizedRMSD -1
REMARK  0 active torsions:
REMARK  status: ('A' for Active; 'I' for Inactive)
ROOT
ATOM      1  C   UNL d   1      -0.482   3.636  -0.370  0.00  0.00     0.077 C 
ATOM      2  C1  UNL d   1      -0.418   2.243   0.183  0.00  0.00    -0.074 A 
ATOM      3  C2  UNL d   1      -0.802   1.974   1.500  0.00  0.00    -0.005 A 
ATOM      4  C3  UNL d   1      -0.746   0.672   1.997  0.00  0.00     0.006 A 
ATOM      5  C4  UNL d   1      -0.307  -0.373   1.183  0.00  0.00    -0.005 A 
ATOM      6  C5  UNL d   1       0.080  -0.123  -0.138  0.00  0.00    -0.074 A 
ATOM      7  C6  UNL d   1       0.545  -1.236  -1.029  0.00  0.00     0.077 C 
ATOM      8  C7  UNL d   1       0.015   1.187  -0.632  0.00  0.00    -0.001 A 
ENDROOT
TORSDOF 0
ENDMDL
