MODEL 1
REMARK minimizedAffinity -3.86636806
REMARK minimizedRMSD -1
REMARK  0 active torsions:
REMARK  status: ('A' for Active; 'I' for Inactive)
ROOT
ATOM      1  C   UNL d   1      -1.030  -2.297   3.500  0.00  0.00     0.077 C 
ATOM      2  C1  UNL d   1      -0.763  -1.304   2.408  0.00  0.00    -0.074 A 
ATOM      3  C2  UNL d   1      -1.222   0.013   2.506  0.00  0.00    -0.005 A 
ATOM      4  C3  UNL d   1      -0.957   0.928   1.487  0.00  0.00     0.006 A 
ATOM      5  C4  UNL d   1      -0.232   0.535   0.361  0.00  0.00    -0.005 A 
ATOM      6  C5  UNL d   1       0.236  -0.778   0.246  0.00  0.00    -0.074 A 
ATOM      7  C6  UNL d   1       1.025  -1.214  -0.952  0.00  0.00     0.077 C 
ATOM      8  C7  UNL d   1      -0.028  -1.689   1.278  0.00  0.00    -0.001 A 
ENDROOT
TORSDOF 0
ENDMDL
