MODEL 1
REMARK minimizedAffinity -2.18790269
REMARK minimizedRMSD -1
REMARK  0 active torsions:
REMARK  status: ('A' for Active; 'I' for Inactive)
ROOT
ATOM      1  C   UNL d   1       0.437   3.503  -0.696  0.00  0.00     0.077 C 
ATOM      2  C1  UNL d   1       0.198   2.209   0.023  0.00  0.00    -0.074 A 
ATOM      3  C2  UNL d   1      -0.679   2.142   1.110  0.00  0.00    -0.005 A 
ATOM      4  C3  UNL d   1      -0.899   0.929   1.763  0.00  0.00     0.006 A 
ATOM      5  C4  UNL d   1      -0.245  -0.227   1.336  0.00  0.00    -0.005 A 
ATOM      6  C5  UNL d   1       0.635  -0.180   0.250  0.00  0.00    -0.074 A 
ATOM      7  C6  UNL d   1       1.339  -1.415  -0.228  0.00  0.00     0.077 C 
ATOM      8  C7  UNL d   1       0.845   1.041  -0.405  0.00  0.00    -0.001 A 
ENDROOT
TORSDOF 0
ENDMDL
