MODEL 1
REMARK minimizedAffinity -4.46569061
REMARK minimizedRMSD -1
REMARK  0 active torsions:
REMARK  status: ('A' for Active; 'I' for Inactive)
ROOT
ATOM      1  C   UNL d   1       0.132   3.581  -0.684  0.00  0.00     0.077 C 
ATOM      2  C1  UNL d   1      -0.074   2.316   0.095  0.00  0.00    -0.074 A 
ATOM      3  C2  UNL d   1      -0.838   2.310   1.267  0.00  0.00    -0.005 A 
ATOM      4  C3  UNL d   1      -1.029   1.124   1.976  0.00  0.00     0.006 A 
ATOM      5  C4  UNL d   1      -0.458  -0.066   1.522  0.00  0.00    -0.005 A 
ATOM      6  C5  UNL d   1       0.308  -0.079   0.352  0.00  0.00    -0.074 A 
ATOM      7  C6  UNL d   1       0.920  -1.351  -0.155  0.00  0.00     0.077 C 
ATOM      8  C7  UNL d   1       0.489   1.115  -0.359  0.00  0.00    -0.001 A 
ENDROOT
TORSDOF 0
ENDMDL
