MODEL 1
REMARK minimizedAffinity -4.33449078
REMARK minimizedRMSD -1
REMARK  0 active torsions:
REMARK  status: ('A' for Active; 'I' for Inactive)
ROOT
ATOM      1  C   UNL d   1       0.009   3.898   0.053  0.00  0.00     0.077 C 
ATOM      2  C1  UNL d   1      -0.226   2.499   0.539  0.00  0.00    -0.074 A 
ATOM      3  C2  UNL d   1      -1.041   2.252   1.649  0.00  0.00    -0.005 A 
ATOM      4  C3  UNL d   1      -1.259   0.945   2.084  0.00  0.00     0.006 A 
ATOM      5  C4  UNL d   1      -0.664  -0.127   1.416  0.00  0.00    -0.005 A 
ATOM      6  C5  UNL d   1       0.153   0.101   0.304  0.00  0.00    -0.074 A 
ATOM      7  C6  UNL d   1       0.791  -1.039  -0.432  0.00  0.00     0.077 C 
ATOM      8  C7  UNL d   1       0.361   1.417  -0.132  0.00  0.00    -0.001 A 
ENDROOT
TORSDOF 0
ENDMDL
