MODEL 1
REMARK minimizedAffinity -4.51226139
REMARK minimizedRMSD -1
REMARK  0 active torsions:
REMARK  status: ('A' for Active; 'I' for Inactive)
ROOT
ATOM      1  C   UNL d   1      -0.769   0.054   1.553  0.00  0.00     0.077 C 
ATOM      2  C1  UNL d   1      -0.103  -0.484   0.321  0.00  0.00    -0.074 A 
ATOM      3  C2  UNL d   1       0.507   0.375  -0.599  0.00  0.00    -0.005 A 
ATOM      4  C3  UNL d   1       1.130  -0.141  -1.735  0.00  0.00     0.006 A 
ATOM      5  C4  UNL d   1       1.150  -1.517  -1.962  0.00  0.00    -0.005 A 
ATOM      6  C5  UNL d   1       0.546  -2.391  -1.053  0.00  0.00    -0.074 A 
ATOM      7  C6  UNL d   1       0.566  -3.874  -1.277  0.00  0.00     0.077 C 
ATOM      8  C7  UNL d   1      -0.073  -1.866   0.090  0.00  0.00    -0.001 A 
ENDROOT
TORSDOF 0
ENDMDL
