MODEL 1
REMARK minimizedAffinity -3.77794957
REMARK minimizedRMSD -1
REMARK  0 active torsions:
REMARK  status: ('A' for Active; 'I' for Inactive)
ROOT
ATOM      1  C   UNL d   1      -0.047  -0.392   0.165  0.00  0.00     0.077 C 
ATOM      2  C1  UNL d   1      -0.135   1.103   0.084  0.00  0.00    -0.074 A 
ATOM      3  C2  UNL d   1       0.699   1.827  -0.774  0.00  0.00    -0.005 A 
ATOM      4  C3  UNL d   1       0.599   3.216  -0.846  0.00  0.00     0.006 A 
ATOM      5  C4  UNL d   1      -0.336   3.895  -0.063  0.00  0.00    -0.005 A 
ATOM      6  C5  UNL d   1      -1.180   3.188   0.800  0.00  0.00    -0.074 A 
ATOM      7  C6  UNL d   1      -2.196   3.901   1.641  0.00  0.00     0.077 C 
ATOM      8  C7  UNL d   1      -1.077   1.791   0.861  0.00  0.00    -0.001 A 
ENDROOT
TORSDOF 0
ENDMDL
