MODEL 1
REMARK minimizedAffinity -4.43387556
REMARK minimizedRMSD -1
REMARK  0 active torsions:
REMARK  status: ('A' for Active; 'I' for Inactive)
ROOT
ATOM      1  C   UNL d   1      -2.188   3.427   1.224  0.00  0.00     0.077 C 
ATOM      2  C1  UNL d   1      -1.154   2.484   0.685  0.00  0.00    -0.074 A 
ATOM      3  C2  UNL d   1      -0.381   2.825  -0.429  0.00  0.00    -0.005 A 
ATOM      4  C3  UNL d   1       0.584   1.942  -0.913  0.00  0.00     0.006 A 
ATOM      5  C4  UNL d   1       0.785   0.710  -0.289  0.00  0.00    -0.005 A 
ATOM      6  C5  UNL d   1       0.022   0.352   0.827  0.00  0.00    -0.074 A 
ATOM      7  C6  UNL d   1       0.232  -0.964   1.515  0.00  0.00     0.077 C 
ATOM      8  C7  UNL d   1      -0.940   1.248   1.311  0.00  0.00    -0.001 A 
ENDROOT
TORSDOF 0
ENDMDL
