MODEL 1
REMARK minimizedAffinity 15.5320082
REMARK minimizedRMSD -1
REMARK  0 active torsions:
REMARK  status: ('A' for Active; 'I' for Inactive)
ROOT
ATOM      1  O1  BZF d   1      -3.511   2.576   2.648  0.00  0.00    -0.204 OA
ATOM      2  C2  BZF d   1      -4.252   1.521   3.143  0.00  0.00     0.174 A 
ATOM      3  C3  BZF d   1      -3.482   0.424   3.294  0.00  0.00    -0.012 A 
ATOM      4  C3A BZF d   1      -2.157   0.845   2.953  0.00  0.00    -0.107 A 
ATOM      5  C4  BZF d   1      -0.949   0.210   2.923  0.00  0.00     0.055 A 
ATOM      6  C5  BZF d   1       0.142   0.885   2.474  0.00  0.00    -0.016 A 
ATOM      7  C6  BZF d   1       0.059   2.193   2.043  0.00  0.00     0.022 A 
ATOM      8  C7  BZF d   1      -1.117   2.867   2.059  0.00  0.00     0.029 A 
ATOM      9  C7A BZF d   1      -2.215   2.197   2.543  0.00  0.00     0.058 A 
ENDROOT
TORSDOF 0
ENDMDL
