MODEL 1
REMARK minimizedAffinity 8.38731575
REMARK minimizedRMSD -1
REMARK  0 active torsions:
REMARK  status: ('A' for Active; 'I' for Inactive)
ROOT
ATOM      1  O1  BZF d   1       0.538   3.860   1.185  0.00  0.00    -0.204 OA
ATOM      2  C2  BZF d   1       1.856   3.659   0.822  0.00  0.00     0.174 A 
ATOM      3  C3  BZF d   1       2.278   2.438   1.209  0.00  0.00    -0.012 A 
ATOM      4  C3A BZF d   1       1.126   1.803   1.773  0.00  0.00    -0.107 A 
ATOM      5  C4  BZF d   1       0.906   0.570   2.318  0.00  0.00     0.055 A 
ATOM      6  C5  BZF d   1      -0.315   0.289   2.844  0.00  0.00    -0.016 A 
ATOM      7  C6  BZF d   1      -1.335   1.217   2.847  0.00  0.00     0.022 A 
ATOM      8  C7  BZF d   1      -1.166   2.451   2.312  0.00  0.00     0.029 A 
ATOM      9  C7A BZF d   1       0.056   2.727   1.751  0.00  0.00     0.058 A 
ENDROOT
TORSDOF 0
ENDMDL
