MODEL 1
REMARK minimizedAffinity 13.1222935
REMARK minimizedRMSD -1
REMARK  0 active torsions:
REMARK  status: ('A' for Active; 'I' for Inactive)
ROOT
ATOM      1  O1  BZF d   1       0.654   4.170   1.234  0.00  0.00    -0.204 OA
ATOM      2  C2  BZF d   1       1.738   4.408   0.412  0.00  0.00     0.174 A 
ATOM      3  C3  BZF d   1       2.451   3.280   0.221  0.00  0.00    -0.012 A 
ATOM      4  C3A BZF d   1       1.718   2.253   0.896  0.00  0.00    -0.107 A 
ATOM      5  C4  BZF d   1       1.912   0.910   1.054  0.00  0.00     0.055 A 
ATOM      6  C5  BZF d   1       1.049   0.206   1.832  0.00  0.00    -0.016 A 
ATOM      7  C6  BZF d   1      -0.013   0.811   2.471  0.00  0.00     0.022 A 
ATOM      8  C7  BZF d   1      -0.248   2.140   2.341  0.00  0.00     0.029 A 
ATOM      9  C7A BZF d   1       0.603   2.848   1.528  0.00  0.00     0.058 A 
ENDROOT
TORSDOF 0
ENDMDL
