MODEL 1
REMARK minimizedAffinity 1.90513873
REMARK minimizedRMSD -1
REMARK  0 active torsions:
REMARK  status: ('A' for Active; 'I' for Inactive)
ROOT
ATOM      1  O1  BZF d   1       0.510   0.147   1.827  0.00  0.00    -0.204 OA
ATOM      2  C2  BZF d   1       0.654   1.416   2.354  0.00  0.00     0.174 A 
ATOM      3  C3  BZF d   1       1.738   2.028   1.836  0.00  0.00    -0.012 A 
ATOM      4  C3A BZF d   1       2.254   1.118   0.860  0.00  0.00    -0.107 A 
ATOM      5  C4  BZF d   1       3.313   1.166  -0.002  0.00  0.00     0.055 A 
ATOM      6  C5  BZF d   1       3.587   0.081  -0.772  0.00  0.00    -0.016 A 
ATOM      7  C6  BZF d   1       2.829  -1.069  -0.703  0.00  0.00     0.022 A 
ATOM      8  C7  BZF d   1       1.766  -1.162   0.133  0.00  0.00     0.029 A 
ATOM      9  C7A BZF d   1       1.466  -0.055   0.888  0.00  0.00     0.058 A 
ENDROOT
TORSDOF 0
ENDMDL
