MODEL 1
REMARK minimizedAffinity 7.30624104
REMARK minimizedRMSD -1
REMARK  0 active torsions:
REMARK  status: ('A' for Active; 'I' for Inactive)
ROOT
ATOM      1  O1  BZF d   1       0.020  -1.154  -1.479  0.00  0.00    -0.204 OA
ATOM      2  C2  BZF d   1       0.023  -0.443  -2.663  0.00  0.00     0.174 A 
ATOM      3  C3  BZF d   1       0.550   0.785  -2.482  0.00  0.00    -0.012 A 
ATOM      4  C3A BZF d   1       0.983   0.811  -1.119  0.00  0.00    -0.107 A 
ATOM      5  C4  BZF d   1       1.601   1.754  -0.347  0.00  0.00     0.055 A 
ATOM      6  C5  BZF d   1       1.819   1.492   0.968  0.00  0.00    -0.016 A 
ATOM      7  C6  BZF d   1       1.430   0.301   1.545  0.00  0.00     0.022 A 
ATOM      8  C7  BZF d   1       0.818  -0.666   0.820  0.00  0.00     0.029 A 
ATOM      9  C7A BZF d   1       0.626  -0.418  -0.517  0.00  0.00     0.058 A 
ENDROOT
TORSDOF 0
ENDMDL
