MODEL 1
REMARK minimizedAffinity 6.29602337
REMARK minimizedRMSD -1
REMARK  0 active torsions:
REMARK  status: ('A' for Active; 'I' for Inactive)
ROOT
ATOM      1  O1  BZF d   1       2.674   0.111   0.064  0.00  0.00    -0.204 OA
ATOM      2  C2  BZF d   1       3.788   0.720  -0.481  0.00  0.00     0.174 A 
ATOM      3  C3  BZF d   1       3.787   2.043  -0.220  0.00  0.00    -0.012 A 
ATOM      4  C3A BZF d   1       2.645   2.260   0.614  0.00  0.00    -0.107 A 
ATOM      5  C4  BZF d   1       2.118   3.367   1.215  0.00  0.00     0.055 A 
ATOM      6  C5  BZF d   1       0.952   3.254   1.903  0.00  0.00    -0.016 A 
ATOM      7  C6  BZF d   1       0.283   2.051   2.006  0.00  0.00     0.022 A 
ATOM      8  C7  BZF d   1       0.769   0.924   1.431  0.00  0.00     0.029 A 
ATOM      9  C7A BZF d   1       1.965   1.029   0.763  0.00  0.00     0.058 A 
ENDROOT
TORSDOF 0
ENDMDL
