MODEL 1
REMARK minimizedAffinity 5.37025404
REMARK minimizedRMSD -1
REMARK  0 active torsions:
REMARK  status: ('A' for Active; 'I' for Inactive)
ROOT
ATOM      1  O1  BZF d   1      -1.705   0.376   2.057  0.00  0.00    -0.204 OA
ATOM      2  C2  BZF d   1      -2.715   1.287   2.300  0.00  0.00     0.174 A 
ATOM      3  C3  BZF d   1      -2.211   2.527   2.464  0.00  0.00    -0.012 A 
ATOM      4  C3A BZF d   1      -0.807   2.398   2.223  0.00  0.00    -0.107 A 
ATOM      5  C4  BZF d   1       0.231   3.286   2.221  0.00  0.00     0.055 A 
ATOM      6  C5  BZF d   1       1.494   2.825   2.019  0.00  0.00    -0.016 A 
ATOM      7  C6  BZF d   1       1.755   1.485   1.822  0.00  0.00     0.022 A 
ATOM      8  C7  BZF d   1       0.758   0.568   1.811  0.00  0.00     0.029 A 
ATOM      9  C7A BZF d   1      -0.523   1.034   1.981  0.00  0.00     0.058 A 
ENDROOT
TORSDOF 0
ENDMDL
