MODEL 1
REMARK minimizedAffinity 10.961566
REMARK minimizedRMSD -1
REMARK  0 active torsions:
REMARK  status: ('A' for Active; 'I' for Inactive)
ROOT
ATOM      1  O1  BZF d   1       2.162  -0.527  -0.398  0.00  0.00    -0.204 OA
ATOM      2  C2  BZF d   1       2.276   0.589   0.407  0.00  0.00     0.174 A 
ATOM      3  C3  BZF d   1       1.879   1.697  -0.252  0.00  0.00    -0.012 A 
ATOM      4  C3A BZF d   1       1.406   1.231  -1.520  0.00  0.00    -0.107 A 
ATOM      5  C4  BZF d   1       0.868   1.856  -2.609  0.00  0.00     0.055 A 
ATOM      6  C5  BZF d   1       0.578   1.122  -3.715  0.00  0.00    -0.016 A 
ATOM      7  C6  BZF d   1       0.817  -0.235  -3.769  0.00  0.00     0.022 A 
ATOM      8  C7  BZF d   1       1.344  -0.900  -2.712  0.00  0.00     0.029 A 
ATOM      9  C7A BZF d   1       1.608  -0.167  -1.581  0.00  0.00     0.058 A 
ENDROOT
TORSDOF 0
ENDMDL
