MODEL 1
REMARK minimizedAffinity 8.0482235
REMARK minimizedRMSD -1
REMARK  0 active torsions:
REMARK  status: ('A' for Active; 'I' for Inactive)
ROOT
ATOM      1  O1  BZF d   1       2.409   3.162   0.444  0.00  0.00    -0.204 OA
ATOM      2  C2  BZF d   1       3.358   2.165   0.317  0.00  0.00     0.174 A 
ATOM      3  C3  BZF d   1       2.997   1.070   1.016  0.00  0.00    -0.012 A 
ATOM      4  C3A BZF d   1       1.701   1.369   1.543  0.00  0.00    -0.107 A 
ATOM      5  C4  BZF d   1       0.814   0.669   2.310  0.00  0.00     0.055 A 
ATOM      6  C5  BZF d   1      -0.333   1.275   2.713  0.00  0.00    -0.016 A 
ATOM      7  C6  BZF d   1      -0.623   2.580   2.373  0.00  0.00     0.022 A 
ATOM      8  C7  BZF d   1       0.223   3.313   1.609  0.00  0.00     0.029 A 
ATOM      9  C7A BZF d   1       1.368   2.693   1.173  0.00  0.00     0.058 A 
ENDROOT
TORSDOF 0
ENDMDL
