MODEL 1
REMARK minimizedAffinity 10.1828699
REMARK minimizedRMSD -1
REMARK  0 active torsions:
REMARK  status: ('A' for Active; 'I' for Inactive)
ROOT
ATOM      1  O1  BZF d   1       1.278  -1.199  -0.101  0.00  0.00    -0.204 OA
ATOM      2  C2  BZF d   1       2.005  -0.643  -1.136  0.00  0.00     0.174 A 
ATOM      3  C3  BZF d   1       2.251   0.662  -0.901  0.00  0.00    -0.012 A 
ATOM      4  C3A BZF d   1       1.719   0.916   0.403  0.00  0.00    -0.107 A 
ATOM      5  C4  BZF d   1       1.671   2.026   1.197  0.00  0.00     0.055 A 
ATOM      6  C5  BZF d   1       1.015   1.959   2.386  0.00  0.00    -0.016 A 
ATOM      7  C6  BZF d   1       0.392   0.803   2.808  0.00  0.00     0.022 A 
ATOM      8  C7  BZF d   1       0.417  -0.325   2.057  0.00  0.00     0.029 A 
ATOM      9  C7A BZF d   1       1.108  -0.270   0.870  0.00  0.00     0.058 A 
ENDROOT
TORSDOF 0
ENDMDL
