MODEL 1
REMARK minimizedAffinity 8.4756813
REMARK minimizedRMSD -1
REMARK  0 active torsions:
REMARK  status: ('A' for Active; 'I' for Inactive)
ROOT
ATOM      1  O1  BZF d   1       0.513   2.901   2.631  0.00  0.00    -0.204 OA
ATOM      2  C2  BZF d   1      -0.562   2.033   2.619  0.00  0.00     0.174 A 
ATOM      3  C3  BZF d   1      -0.354   1.026   1.746  0.00  0.00    -0.012 A 
ATOM      4  C3A BZF d   1       0.971   1.231   1.245  0.00  0.00    -0.107 A 
ATOM      5  C4  BZF d   1       1.754   0.550   0.357  0.00  0.00     0.055 A 
ATOM      6  C5  BZF d   1       2.973   1.055   0.030  0.00  0.00    -0.016 A 
ATOM      7  C6  BZF d   1       3.437   2.237   0.567  0.00  0.00     0.022 A 
ATOM      8  C7  BZF d   1       2.698   2.945   1.456  0.00  0.00     0.029 A 
ATOM      9  C7A BZF d   1       1.480   2.421   1.814  0.00  0.00     0.058 A 
ENDROOT
TORSDOF 0
ENDMDL
