MODEL 1
REMARK minimizedAffinity 14.5963449
REMARK minimizedRMSD -1
REMARK  0 active torsions:
REMARK  status: ('A' for Active; 'I' for Inactive)
ROOT
ATOM      1  O1  BZF d   1      -0.055   1.311  -3.222  0.00  0.00    -0.204 OA
ATOM      2  C2  BZF d   1      -0.466   2.574  -2.842  0.00  0.00     0.174 A 
ATOM      3  C3  BZF d   1       0.050   2.904  -1.641  0.00  0.00    -0.012 A 
ATOM      4  C3A BZF d   1       0.905   1.814  -1.286  0.00  0.00    -0.107 A 
ATOM      5  C4  BZF d   1       1.709   1.562  -0.211  0.00  0.00     0.055 A 
ATOM      6  C5  BZF d   1       2.357   0.370  -0.135  0.00  0.00    -0.016 A 
ATOM      7  C6  BZF d   1       2.219  -0.595  -1.112  0.00  0.00     0.022 A 
ATOM      8  C7  BZF d   1       1.437  -0.389  -2.200  0.00  0.00     0.029 A 
ATOM      9  C7A BZF d   1       0.807   0.828  -2.295  0.00  0.00     0.058 A 
ENDROOT
TORSDOF 0
ENDMDL
