MODEL 1
REMARK minimizedAffinity 2.69669604
REMARK minimizedRMSD -1
REMARK  0 active torsions:
REMARK  status: ('A' for Active; 'I' for Inactive)
ROOT
ATOM      1  O1  BZF d   1      -2.879  -3.588  -1.898  0.00  0.00    -0.204 OA
ATOM      2  C2  BZF d   1      -2.178  -4.721  -1.533  0.00  0.00     0.174 A 
ATOM      3  C3  BZF d   1      -2.836  -5.835  -1.915  0.00  0.00    -0.012 A 
ATOM      4  C3A BZF d   1      -3.977  -5.367  -2.641  0.00  0.00    -0.107 A 
ATOM      5  C4  BZF d   1      -5.003  -5.998  -3.284  0.00  0.00     0.055 A 
ATOM      6  C5  BZF d   1      -5.998  -5.251  -3.832  0.00  0.00    -0.016 A 
ATOM      7  C6  BZF d   1      -6.000  -3.873  -3.751  0.00  0.00     0.022 A 
ATOM      8  C7  BZF d   1      -5.000  -3.203  -3.128  0.00  0.00     0.029 A 
ATOM      9  C7A BZF d   1      -3.977  -3.954  -2.602  0.00  0.00     0.058 A 
ENDROOT
TORSDOF 0
ENDMDL
