MODEL 1
REMARK minimizedAffinity 11.7717876
REMARK minimizedRMSD -1
REMARK  0 active torsions:
REMARK  status: ('A' for Active; 'I' for Inactive)
ROOT
ATOM      1  O1  BZF d   1       3.209   0.654   1.297  0.00  0.00    -0.204 OA
ATOM      2  C2  BZF d   1       3.789   1.340   0.248  0.00  0.00     0.174 A 
ATOM      3  C3  BZF d   1       3.022   2.386  -0.122  0.00  0.00    -0.012 A 
ATOM      4  C3A BZF d   1       1.937   2.405   0.810  0.00  0.00    -0.107 A 
ATOM      5  C4  BZF d   1       0.852   3.220   0.972  0.00  0.00     0.055 A 
ATOM      6  C5  BZF d   1      -0.059   2.923   1.935  0.00  0.00    -0.016 A 
ATOM      7  C6  BZF d   1       0.080   1.818   2.750  0.00  0.00     0.022 A 
ATOM      8  C7  BZF d   1       1.141   0.983   2.630  0.00  0.00     0.029 A 
ATOM      9  C7A BZF d   1       2.080   1.299   1.679  0.00  0.00     0.058 A 
ENDROOT
TORSDOF 0
ENDMDL
