MODEL 1
REMARK minimizedAffinity 1.24910116
REMARK minimizedRMSD -1
REMARK  0 active torsions:
REMARK  status: ('A' for Active; 'I' for Inactive)
ROOT
ATOM      1  O1  BZF d   1       0.030  -1.114   1.608  0.00  0.00    -0.204 OA
ATOM      2  C2  BZF d   1      -0.301  -2.236   0.873  0.00  0.00     0.174 A 
ATOM      3  C3  BZF d   1       0.454  -2.318  -0.242  0.00  0.00    -0.012 A 
ATOM      4  C3A BZF d   1       1.373  -1.225  -0.155  0.00  0.00    -0.107 A 
ATOM      5  C4  BZF d   1       2.387  -0.785  -0.956  0.00  0.00     0.055 A 
ATOM      6  C5  BZF d   1       3.045   0.356  -0.623  0.00  0.00    -0.016 A 
ATOM      7  C6  BZF d   1       2.712   1.085   0.500  0.00  0.00     0.022 A 
ATOM      8  C7  BZF d   1       1.716   0.686   1.328  0.00  0.00     0.029 A 
ATOM      9  C7A BZF d   1       1.072  -0.485   1.012  0.00  0.00     0.058 A 
ENDROOT
TORSDOF 0
ENDMDL
