MODEL 1
REMARK minimizedAffinity 13.5124149
REMARK minimizedRMSD -1
REMARK  0 active torsions:
REMARK  status: ('A' for Active; 'I' for Inactive)
ROOT
ATOM      1  O1  BZF d   1       5.904   1.994  -4.736  0.00  0.00    -0.204 OA
ATOM      2  C2  BZF d   1       5.903   1.595  -3.414  0.00  0.00     0.174 A 
ATOM      3  C3  BZF d   1       5.985   2.662  -2.592  0.00  0.00    -0.012 A 
ATOM      4  C3A BZF d   1       5.948   3.804  -3.454  0.00  0.00    -0.107 A 
ATOM      5  C4  BZF d   1       5.978   5.151  -3.229  0.00  0.00     0.055 A 
ATOM      6  C5  BZF d   1       6.000   5.997  -4.292  0.00  0.00    -0.016 A 
ATOM      7  C6  BZF d   1       5.997   5.532  -5.591  0.00  0.00     0.022 A 
ATOM      8  C7  BZF d   1       5.962   4.205  -5.863  0.00  0.00     0.029 A 
ATOM      9  C7A BZF d   1       5.907   3.348  -4.792  0.00  0.00     0.058 A 
ENDROOT
TORSDOF 0
ENDMDL
