MODEL 1
REMARK minimizedAffinity 9.19164658
REMARK minimizedRMSD -1
REMARK  0 active torsions:
REMARK  status: ('A' for Active; 'I' for Inactive)
ROOT
ATOM      1  O1  BZF d   1      -0.024   3.090   2.326  0.00  0.00    -0.204 OA
ATOM      2  C2  BZF d   1      -0.462   1.972   3.010  0.00  0.00     0.174 A 
ATOM      3  C3  BZF d   1       0.363   0.927   2.795  0.00  0.00    -0.012 A 
ATOM      4  C3A BZF d   1       1.430   1.447   1.997  0.00  0.00    -0.107 A 
ATOM      5  C4  BZF d   1       2.565   0.896   1.472  0.00  0.00     0.055 A 
ATOM      6  C5  BZF d   1       3.361   1.658   0.677  0.00  0.00    -0.016 A 
ATOM      7  C6  BZF d   1       3.052   2.969   0.382  0.00  0.00     0.022 A 
ATOM      8  C7  BZF d   1       1.940   3.560   0.883  0.00  0.00     0.029 A 
ATOM      9  C7A BZF d   1       1.150   2.804   1.713  0.00  0.00     0.058 A 
ENDROOT
TORSDOF 0
ENDMDL
