MODEL 1
REMARK minimizedAffinity -2.0273118
REMARK minimizedRMSD -1
REMARK  1 active torsions:
REMARK  status: ('A' for Active; 'I' for Inactive)
REMARK    1  A    between atoms: C1_2  and  C2_3 
ROOT
ATOM      1  C2  UNL d   1       0.374   1.576   0.140  0.00  0.00    -0.081 A 
ATOM      2  C3  UNL d   1      -0.284   0.878  -0.880  0.00  0.00     0.006 A 
ATOM      3  C4  UNL d   1      -0.706  -0.438  -0.680  0.00  0.00     0.002 A 
ATOM      4  C5  UNL d   1      -0.483  -1.076   0.545  0.00  0.00    -0.080 A 
ATOM      5  C6  UNL d   1      -0.958  -2.479   0.783  0.00  0.00     0.076 C 
ATOM      6  C7  UNL d   1       0.190  -0.386   1.558  0.00  0.00     0.002 A 
ATOM      7  C8  UNL d   1       0.612   0.931   1.358  0.00  0.00     0.006 A 
ENDROOT
BRANCH   1   8
ATOM      8  C1  UNL d   1       0.773   3.017  -0.051  0.00  0.00     0.054 C 
ATOM      9  C   UNL d   1       2.272   3.205   0.127  0.00  0.00     0.018 C 
ENDBRANCH   1   8
TORSDOF 1
ENDMDL
