MODEL 1
REMARK minimizedAffinity -2.37021303
REMARK minimizedRMSD -1
REMARK  1 active torsions:
REMARK  status: ('A' for Active; 'I' for Inactive)
REMARK    1  A    between atoms: C1_2  and  C2_3 
ROOT
ATOM      1  C2  UNL d   1       0.301   1.961   0.274  0.00  0.00    -0.081 A 
ATOM      2  C3  UNL d   1       0.085   1.060  -0.776  0.00  0.00     0.006 A 
ATOM      3  C4  UNL d   1      -0.321  -0.250  -0.513  0.00  0.00     0.002 A 
ATOM      4  C5  UNL d   1      -0.527  -0.678   0.803  0.00  0.00    -0.080 A 
ATOM      5  C6  UNL d   1      -0.992  -2.073   1.098  0.00  0.00     0.076 C 
ATOM      6  C7  UNL d   1      -0.294   0.217   1.853  0.00  0.00     0.002 A 
ATOM      7  C8  UNL d   1       0.113   1.526   1.590  0.00  0.00     0.006 A 
ENDROOT
BRANCH   1   8
ATOM      8  C1  UNL d   1       0.677   3.393  -0.010  0.00  0.00     0.054 C 
ATOM      9  C   UNL d   1       2.188   3.575  -0.031  0.00  0.00     0.018 C 
ENDBRANCH   1   8
TORSDOF 1
ENDMDL
