MODEL 1
REMARK minimizedAffinity -2.50359845
REMARK minimizedRMSD -1
REMARK  1 active torsions:
REMARK  status: ('A' for Active; 'I' for Inactive)
REMARK    1  A    between atoms: C1_2  and  C2_3 
ROOT
ATOM      1  C2  UNL d   1       0.773   1.777   0.306  0.00  0.00    -0.081 A 
ATOM      2  C3  UNL d   1       1.156   1.016   1.417  0.00  0.00     0.006 A 
ATOM      3  C4  UNL d   1       0.506  -0.185   1.711  0.00  0.00     0.002 A 
ATOM      4  C5  UNL d   1      -0.531  -0.649   0.895  0.00  0.00    -0.080 A 
ATOM      5  C6  UNL d   1      -1.217  -1.951   1.182  0.00  0.00     0.076 C 
ATOM      6  C7  UNL d   1      -0.925   0.120  -0.206  0.00  0.00     0.002 A 
ATOM      7  C8  UNL d   1      -0.276   1.321  -0.500  0.00  0.00     0.006 A 
ENDROOT
BRANCH   1   8
ATOM      8  C1  UNL d   1       1.516   3.040  -0.051  0.00  0.00     0.054 C 
ATOM      9  C   UNL d   1       2.201   3.642   1.168  0.00  0.00     0.018 C 
ENDBRANCH   1   8
TORSDOF 1
ENDMDL
