MODEL 1
REMARK minimizedAffinity -2.79502225
REMARK minimizedRMSD -1
REMARK  1 active torsions:
REMARK  status: ('A' for Active; 'I' for Inactive)
REMARK    1  A    between atoms: C1_2  and  C2_3 
ROOT
ATOM      1  C2  UNL d   1      -0.658  -1.398   0.022  0.00  0.00    -0.081 A 
ATOM      2  C3  UNL d   1      -0.731  -0.818   1.294  0.00  0.00     0.006 A 
ATOM      3  C4  UNL d   1      -0.292   0.492   1.501  0.00  0.00     0.002 A 
ATOM      4  C5  UNL d   1       0.219   1.246   0.439  0.00  0.00    -0.080 A 
ATOM      5  C6  UNL d   1       0.666   2.663   0.641  0.00  0.00     0.076 C 
ATOM      6  C7  UNL d   1       0.309   0.660  -0.828  0.00  0.00     0.002 A 
ATOM      7  C8  UNL d   1      -0.129  -0.650  -1.036  0.00  0.00     0.006 A 
ENDROOT
BRANCH   1   8
ATOM      8  C1  UNL d   1      -1.190  -2.788  -0.218  0.00  0.00     0.054 C 
ATOM      9  C   UNL d   1      -0.931  -3.241  -1.648  0.00  0.00     0.018 C 
ENDBRANCH   1   8
TORSDOF 1
ENDMDL
