MODEL 1
REMARK minimizedAffinity -3.12462997
REMARK minimizedRMSD -1
REMARK  1 active torsions:
REMARK  status: ('A' for Active; 'I' for Inactive)
REMARK    1  A    between atoms: C1_2  and  C2_3 
ROOT
ATOM      1  C2  UNL d   1      -0.079   0.029   0.425  0.00  0.00    -0.081 A 
ATOM      2  C3  UNL d   1       1.176   0.066   1.044  0.00  0.00     0.006 A 
ATOM      3  C4  UNL d   1       1.973   1.210   0.961  0.00  0.00     0.002 A 
ATOM      4  C5  UNL d   1       1.525   2.338   0.265  0.00  0.00    -0.080 A 
ATOM      5  C6  UNL d   1       2.358   3.583   0.195  0.00  0.00     0.076 C 
ATOM      6  C7  UNL d   1       0.278   2.295  -0.368  0.00  0.00     0.002 A 
ATOM      7  C8  UNL d   1      -0.519   1.151  -0.286  0.00  0.00     0.006 A 
ENDROOT
BRANCH   1   8
ATOM      8  C1  UNL d   1      -0.969  -1.180   0.567  0.00  0.00     0.054 C 
ATOM      9  C   UNL d   1      -0.784  -1.847   1.922  0.00  0.00     0.018 C 
ENDBRANCH   1   8
TORSDOF 1
ENDMDL
