MODEL 1
REMARK minimizedAffinity -5.31501198
REMARK minimizedRMSD -1
REMARK  1 active torsions:
REMARK  status: ('A' for Active; 'I' for Inactive)
REMARK    1  A    between atoms: C1_2  and  C2_3 
ROOT
ATOM      1  C2  UNL d   1       0.871   1.927   0.052  0.00  0.00    -0.081 A 
ATOM      2  C3  UNL d   1      -0.451   1.715  -0.358  0.00  0.00     0.006 A 
ATOM      3  C4  UNL d   1      -1.098   0.512  -0.067  0.00  0.00     0.002 A 
ATOM      4  C5  UNL d   1      -0.438  -0.495   0.646  0.00  0.00    -0.080 A 
ATOM      5  C6  UNL d   1      -1.131  -1.779   0.992  0.00  0.00     0.076 C 
ATOM      6  C7  UNL d   1       0.889  -0.290   1.040  0.00  0.00     0.002 A 
ATOM      7  C8  UNL d   1       1.537   0.913   0.748  0.00  0.00     0.006 A 
ENDROOT
BRANCH   1   8
ATOM      8  C1  UNL d   1       1.550   3.248  -0.205  0.00  0.00     0.054 C 
ATOM      9  C   UNL d   1       2.382   3.685   0.993  0.00  0.00     0.018 C 
ENDBRANCH   1   8
TORSDOF 1
ENDMDL
