MODEL 1
REMARK minimizedAffinity -4.71928978
REMARK minimizedRMSD -1
REMARK  1 active torsions:
REMARK  status: ('A' for Active; 'I' for Inactive)
REMARK    1  A    between atoms: C1_2  and  C2_3 
ROOT
ATOM      1  C2  UNL d   1       1.310   1.633   0.556  0.00  0.00    -0.081 A 
ATOM      2  C3  UNL d   1       0.067   1.626  -0.089  0.00  0.00     0.006 A 
ATOM      3  C4  UNL d   1      -0.711   0.466  -0.113  0.00  0.00     0.002 A 
ATOM      4  C5  UNL d   1      -0.264  -0.703   0.513  0.00  0.00    -0.080 A 
ATOM      5  C6  UNL d   1      -1.103  -1.945   0.520  0.00  0.00     0.076 C 
ATOM      6  C7  UNL d   1       0.986  -0.700   1.142  0.00  0.00     0.002 A 
ATOM      7  C8  UNL d   1       1.765   0.458   1.166  0.00  0.00     0.006 A 
ENDROOT
BRANCH   1   8
ATOM      8  C1  UNL d   1       2.123   2.900   0.640  0.00  0.00     0.054 C 
ATOM      9  C   UNL d   1       1.242   4.102   0.948  0.00  0.00     0.018 C 
ENDBRANCH   1   8
TORSDOF 1
ENDMDL
