MODEL 1
REMARK minimizedAffinity -2.71843624
REMARK minimizedRMSD -1
REMARK  1 active torsions:
REMARK  status: ('A' for Active; 'I' for Inactive)
REMARK    1  A    between atoms: C1_2  and  C2_3 
ROOT
ATOM      1  C2  UNL d   1      -0.508  -1.258   0.026  0.00  0.00    -0.081 A 
ATOM      2  C3  UNL d   1      -0.511  -0.692   1.307  0.00  0.00     0.006 A 
ATOM      3  C4  UNL d   1      -0.272   0.674   1.478  0.00  0.00     0.002 A 
ATOM      4  C5  UNL d   1      -0.035   1.497   0.371  0.00  0.00    -0.080 A 
ATOM      5  C6  UNL d   1       0.192   2.970   0.538  0.00  0.00     0.076 C 
ATOM      6  C7  UNL d   1      -0.015   0.928  -0.907  0.00  0.00     0.002 A 
ATOM      7  C8  UNL d   1      -0.252  -0.438  -1.078  0.00  0.00     0.006 A 
ENDROOT
BRANCH   1   8
ATOM      8  C1  UNL d   1      -0.829  -2.718  -0.166  0.00  0.00     0.054 C 
ATOM      9  C   UNL d   1      -0.602  -3.149  -1.608  0.00  0.00     0.018 C 
ENDBRANCH   1   8
TORSDOF 1
ENDMDL
