MODEL 1
REMARK minimizedAffinity -4.28986597
REMARK minimizedRMSD -1
REMARK  1 active torsions:
REMARK  status: ('A' for Active; 'I' for Inactive)
REMARK    1  A    between atoms: C1_2  and  C2_3 
ROOT
ATOM      1  C2  UNL d   1       0.670   1.990   0.553  0.00  0.00    -0.081 A 
ATOM      2  C3  UNL d   1       1.207   1.026   1.415  0.00  0.00     0.006 A 
ATOM      3  C4  UNL d   1       0.692  -0.272   1.434  0.00  0.00     0.002 A 
ATOM      4  C5  UNL d   1      -0.361  -0.631   0.587  0.00  0.00    -0.080 A 
ATOM      5  C6  UNL d   1      -0.903  -2.029   0.576  0.00  0.00     0.076 C 
ATOM      6  C7  UNL d   1      -0.909   0.337  -0.262  0.00  0.00     0.002 A 
ATOM      7  C8  UNL d   1      -0.396   1.635  -0.281  0.00  0.00     0.006 A 
ENDROOT
BRANCH   1   8
ATOM      8  C1  UNL d   1       1.265   3.373   0.484  0.00  0.00     0.054 C 
ATOM      9  C   UNL d   1       2.739   3.323   0.106  0.00  0.00     0.018 C 
ENDBRANCH   1   8
TORSDOF 1
ENDMDL
