MODEL 1
REMARK minimizedAffinity -4.74420881
REMARK minimizedRMSD -1
REMARK  1 active torsions:
REMARK  status: ('A' for Active; 'I' for Inactive)
REMARK    1  A    between atoms: C1_2  and  C2_3 
ROOT
ATOM      1  C2  UNL d   1       0.679   2.012   0.536  0.00  0.00    -0.081 A 
ATOM      2  C3  UNL d   1      -0.179   1.473  -0.430  0.00  0.00     0.006 A 
ATOM      3  C4  UNL d   1      -0.770   0.222  -0.234  0.00  0.00     0.002 A 
ATOM      4  C5  UNL d   1      -0.520  -0.505   0.935  0.00  0.00    -0.080 A 
ATOM      5  C6  UNL d   1      -1.172  -1.835   1.172  0.00  0.00     0.076 C 
ATOM      6  C7  UNL d   1       0.351   0.026   1.892  0.00  0.00     0.002 A 
ATOM      7  C8  UNL d   1       0.943   1.276   1.696  0.00  0.00     0.006 A 
ENDROOT
BRANCH   1   8
ATOM      8  C1  UNL d   1       1.267   3.388   0.356  0.00  0.00     0.054 C 
ATOM      9  C   UNL d   1       2.279   3.705   1.448  0.00  0.00     0.018 C 
ENDBRANCH   1   8
TORSDOF 1
ENDMDL
