MODEL 1
REMARK minimizedAffinity -2.16855502
REMARK minimizedRMSD -1
REMARK  1 active torsions:
REMARK  status: ('A' for Active; 'I' for Inactive)
REMARK    1  A    between atoms: C1_2  and  C2_3 
ROOT
ATOM      1  C2  UNL d   1       0.627   1.099   0.209  0.00  0.00    -0.081 A 
ATOM      2  C3  UNL d   1      -0.737   1.373   0.363  0.00  0.00     0.006 A 
ATOM      3  C4  UNL d   1      -1.645   0.338   0.599  0.00  0.00     0.002 A 
ATOM      4  C5  UNL d   1      -1.204  -0.986   0.692  0.00  0.00    -0.080 A 
ATOM      5  C6  UNL d   1      -2.164  -2.103   0.974  0.00  0.00     0.076 C 
ATOM      6  C7  UNL d   1       0.157  -1.262   0.520  0.00  0.00     0.002 A 
ATOM      7  C8  UNL d   1       1.065  -0.228   0.284  0.00  0.00     0.006 A 
ENDROOT
BRANCH   1   8
ATOM      8  C1  UNL d   1       1.618   2.219   0.019  0.00  0.00     0.054 C 
ATOM      9  C   UNL d   1       1.327   3.380   0.959  0.00  0.00     0.018 C 
ENDBRANCH   1   8
TORSDOF 1
ENDMDL
