MODEL 1
REMARK minimizedAffinity -0.539051414
REMARK minimizedRMSD -1
REMARK  1 active torsions:
REMARK  status: ('A' for Active; 'I' for Inactive)
REMARK    1  A    between atoms: C1_2  and  C2_3 
ROOT
ATOM      1  C2  UNL d   1      -0.697  -2.277  -1.277  0.00  0.00    -0.081 A 
ATOM      2  C3  UNL d   1      -1.079  -3.000  -0.140  0.00  0.00     0.006 A 
ATOM      3  C4  UNL d   1      -1.145  -2.375   1.107  0.00  0.00     0.002 A 
ATOM      4  C5  UNL d   1      -0.839  -1.016   1.237  0.00  0.00    -0.080 A 
ATOM      5  C6  UNL d   1      -0.935  -0.326   2.565  0.00  0.00     0.076 C 
ATOM      6  C7  UNL d   1      -0.440  -0.298   0.104  0.00  0.00     0.002 A 
ATOM      7  C8  UNL d   1      -0.373  -0.923  -1.143  0.00  0.00     0.006 A 
ENDROOT
BRANCH   1   8
ATOM      8  C1  UNL d   1      -0.686  -2.933  -2.635  0.00  0.00     0.054 C 
ATOM      9  C   UNL d   1       0.192  -2.166  -3.613  0.00  0.00     0.018 C 
ENDBRANCH   1   8
TORSDOF 1
ENDMDL
