MODEL 1
REMARK minimizedAffinity -5.11785269
REMARK minimizedRMSD -1
REMARK  1 active torsions:
REMARK  status: ('A' for Active; 'I' for Inactive)
REMARK    1  A    between atoms: C1_2  and  C2_3 
ROOT
ATOM      1  C2  UNL d   1       0.720   1.971   0.305  0.00  0.00    -0.081 A 
ATOM      2  C3  UNL d   1      -0.075   1.481  -0.738  0.00  0.00     0.006 A 
ATOM      3  C4  UNL d   1      -0.607   0.191  -0.677  0.00  0.00     0.002 A 
ATOM      4  C5  UNL d   1      -0.361  -0.627   0.431  0.00  0.00    -0.080 A 
ATOM      5  C6  UNL d   1      -0.951  -2.003   0.523  0.00  0.00     0.076 C 
ATOM      6  C7  UNL d   1       0.448  -0.144   1.465  0.00  0.00     0.002 A 
ATOM      7  C8  UNL d   1       0.981   1.146   1.404  0.00  0.00     0.006 A 
ENDROOT
BRANCH   1   8
ATOM      8  C1  UNL d   1       1.242   3.385   0.272  0.00  0.00     0.054 C 
ATOM      9  C   UNL d   1       2.686   3.431  -0.206  0.00  0.00     0.018 C 
ENDBRANCH   1   8
TORSDOF 1
ENDMDL
