MODEL 1
REMARK minimizedAffinity -1.56788862
REMARK minimizedRMSD -1
REMARK  0 active torsions:
REMARK  status: ('A' for Active; 'I' for Inactive)
ROOT
ATOM      1  O1  BZF d   1       1.113  -0.053   1.343  0.00  0.00    -0.204 OA
ATOM      2  C2  BZF d   1       0.939  -0.688   0.128  0.00  0.00     0.174 A 
ATOM      3  C3  BZF d   1      -0.211  -0.296  -0.457  0.00  0.00    -0.012 A 
ATOM      4  C3A BZF d   1      -0.747   0.712   0.405  0.00  0.00    -0.107 A 
ATOM      5  C4  BZF d   1      -1.867   1.492   0.355  0.00  0.00     0.055 A 
ATOM      6  C5  BZF d   1      -2.138   2.326   1.393  0.00  0.00    -0.016 A 
ATOM      7  C6  BZF d   1      -1.316   2.402   2.498  0.00  0.00     0.022 A 
ATOM      8  C7  BZF d   1      -0.191   1.651   2.591  0.00  0.00     0.029 A 
ATOM      9  C7A BZF d   1       0.103   0.832   1.529  0.00  0.00     0.058 A 
ENDROOT
TORSDOF 0
ENDMDL
