MODEL 1
REMARK minimizedAffinity -0.927042782
REMARK minimizedRMSD -1
REMARK  0 active torsions:
REMARK  status: ('A' for Active; 'I' for Inactive)
ROOT
ATOM      1  O1  BZF d   1       0.214   2.083   2.051  0.00  0.00    -0.204 OA
ATOM      2  C2  BZF d   1      -0.984   2.771   2.014  0.00  0.00     0.174 A 
ATOM      3  C3  BZF d   1      -1.755   2.335   0.998  0.00  0.00    -0.012 A 
ATOM      4  C3A BZF d   1      -1.030   1.247   0.415  0.00  0.00    -0.107 A 
ATOM      5  C4  BZF d   1      -1.286   0.397  -0.623  0.00  0.00     0.055 A 
ATOM      6  C5  BZF d   1      -0.340  -0.509  -0.983  0.00  0.00    -0.016 A 
ATOM      7  C6  BZF d   1       0.873  -0.590  -0.332  0.00  0.00     0.022 A 
ATOM      8  C7  BZF d   1       1.171   0.229   0.707  0.00  0.00     0.029 A 
ATOM      9  C7A BZF d   1       0.204   1.123   1.095  0.00  0.00     0.058 A 
ENDROOT
TORSDOF 0
ENDMDL
