MODEL 1
REMARK minimizedAffinity -0.288179666
REMARK minimizedRMSD -1
REMARK  0 active torsions:
REMARK  status: ('A' for Active; 'I' for Inactive)
ROOT
ATOM      1  O1  BZF d   1      -1.188   2.347  -1.946  0.00  0.00    -0.204 OA
ATOM      2  C2  BZF d   1      -1.873   2.825  -0.845  0.00  0.00     0.174 A 
ATOM      3  C3  BZF d   1      -1.640   2.053   0.236  0.00  0.00    -0.012 A 
ATOM      4  C3A BZF d   1      -0.682   1.082  -0.195  0.00  0.00    -0.107 A 
ATOM      5  C4  BZF d   1      -0.046   0.048   0.432  0.00  0.00     0.055 A 
ATOM      6  C5  BZF d   1       0.777  -0.756  -0.291  0.00  0.00    -0.016 A 
ATOM      7  C6  BZF d   1       0.982  -0.560  -1.641  0.00  0.00     0.022 A 
ATOM      8  C7  BZF d   1       0.377   0.455  -2.305  0.00  0.00     0.029 A 
ATOM      9  C7A BZF d   1      -0.429   1.290  -1.571  0.00  0.00     0.058 A 
ENDROOT
TORSDOF 0
ENDMDL
