MODEL 1
REMARK minimizedAffinity -5.47474718
REMARK minimizedRMSD -1
REMARK  0 active torsions:
REMARK  status: ('A' for Active; 'I' for Inactive)
ROOT
ATOM      1  O1  BZF d   1      -0.227   1.425   2.319  0.00  0.00    -0.204 OA
ATOM      2  C2  BZF d   1       0.367   0.229   1.965  0.00  0.00     0.174 A 
ATOM      3  C3  BZF d   1       0.393   0.085   0.625  0.00  0.00    -0.012 A 
ATOM      4  C3A BZF d   1      -0.140   1.307   0.105  0.00  0.00    -0.107 A 
ATOM      5  C4  BZF d   1      -0.356   1.774  -1.160  0.00  0.00     0.055 A 
ATOM      6  C5  BZF d   1      -0.960   2.980  -1.325  0.00  0.00    -0.016 A 
ATOM      7  C6  BZF d   1      -1.366   3.742  -0.248  0.00  0.00     0.022 A 
ATOM      8  C7  BZF d   1      -1.168   3.323   1.025  0.00  0.00     0.029 A 
ATOM      9  C7A BZF d   1      -0.528   2.120   1.195  0.00  0.00     0.058 A 
ENDROOT
TORSDOF 0
ENDMDL
