MODEL 1
REMARK minimizedAffinity -0.342083693
REMARK minimizedRMSD -1
REMARK  0 active torsions:
REMARK  status: ('A' for Active; 'I' for Inactive)
ROOT
ATOM      1  O1  BZF d   1       0.742   1.434  -0.728  0.00  0.00    -0.204 OA
ATOM      2  C2  BZF d   1      -0.360   0.834  -1.305  0.00  0.00     0.174 A 
ATOM      3  C3  BZF d   1      -1.500   1.285  -0.743  0.00  0.00    -0.012 A 
ATOM      4  C3A BZF d   1      -1.088   2.294   0.184  0.00  0.00    -0.107 A 
ATOM      5  C4  BZF d   1      -1.766   3.120   1.035  0.00  0.00     0.055 A 
ATOM      6  C5  BZF d   1      -1.062   3.941   1.858  0.00  0.00    -0.016 A 
ATOM      7  C6  BZF d   1       0.317   3.958   1.861  0.00  0.00     0.022 A 
ATOM      8  C7  BZF d   1       1.033   3.160   1.031  0.00  0.00     0.029 A 
ATOM      9  C7A BZF d   1       0.324   2.354   0.174  0.00  0.00     0.058 A 
ENDROOT
TORSDOF 0
ENDMDL
