MODEL 1
REMARK minimizedAffinity -0.950678885
REMARK minimizedRMSD -1
REMARK  0 active torsions:
REMARK  status: ('A' for Active; 'I' for Inactive)
ROOT
ATOM      1  O1  BZF d   1       2.215  -4.298  -0.371  0.00  0.00    -0.204 OA
ATOM      2  C2  BZF d   1       2.032  -5.616   0.001  0.00  0.00     0.174 A 
ATOM      3  C3  BZF d   1       0.756  -6.000  -0.212  0.00  0.00    -0.012 A 
ATOM      4  C3A BZF d   1       0.125  -4.877  -0.836  0.00  0.00    -0.107 A 
ATOM      5  C4  BZF d   1      -1.138  -4.651  -1.303  0.00  0.00     0.055 A 
ATOM      6  C5  BZF d   1      -1.451  -3.421  -1.790  0.00  0.00    -0.016 A 
ATOM      7  C6  BZF d   1      -0.529  -2.395  -1.820  0.00  0.00     0.022 A 
ATOM      8  C7  BZF d   1       0.738  -2.574  -1.373  0.00  0.00     0.029 A 
ATOM      9  C7A BZF d   1       1.067  -3.825  -0.910  0.00  0.00     0.058 A 
ENDROOT
TORSDOF 0
ENDMDL
