MODEL 1
REMARK minimizedAffinity 1.31626022
REMARK minimizedRMSD -1
REMARK  0 active torsions:
REMARK  status: ('A' for Active; 'I' for Inactive)
ROOT
ATOM      1  O1  BZF d   1       0.483  -0.299  -1.537  0.00  0.00    -0.204 OA
ATOM      2  C2  BZF d   1       0.362  -1.292  -0.584  0.00  0.00     0.174 A 
ATOM      3  C3  BZF d   1      -0.531  -0.939   0.363  0.00  0.00    -0.012 A 
ATOM      4  C3A BZF d   1      -1.066   0.315  -0.072  0.00  0.00    -0.107 A 
ATOM      5  C4  BZF d   1      -2.007   1.162   0.438  0.00  0.00     0.055 A 
ATOM      6  C5  BZF d   1      -2.245   2.342  -0.193  0.00  0.00    -0.016 A 
ATOM      7  C6  BZF d   1      -1.558   2.708  -1.332  0.00  0.00     0.022 A 
ATOM      8  C7  BZF d   1      -0.619   1.898  -1.878  0.00  0.00     0.029 A 
ATOM      9  C7A BZF d   1      -0.400   0.691  -1.262  0.00  0.00     0.058 A 
ENDROOT
TORSDOF 0
ENDMDL
