MODEL 1
REMARK minimizedAffinity 0.729584098
REMARK minimizedRMSD -1
REMARK  0 active torsions:
REMARK  status: ('A' for Active; 'I' for Inactive)
ROOT
ATOM      1  O1  BZF d   1       0.751  -0.808  -0.224  0.00  0.00    -0.204 OA
ATOM      2  C2  BZF d   1       1.099  -1.021   1.096  0.00  0.00     0.174 A 
ATOM      3  C3  BZF d   1       0.650  -0.017   1.877  0.00  0.00    -0.012 A 
ATOM      4  C3A BZF d   1      -0.100   0.832   1.003  0.00  0.00    -0.107 A 
ATOM      5  C4  BZF d   1      -0.805   1.986   1.193  0.00  0.00     0.055 A 
ATOM      6  C5  BZF d   1      -1.361   2.605   0.119  0.00  0.00    -0.016 A 
ATOM      7  C6  BZF d   1      -1.228   2.101  -1.159  0.00  0.00     0.022 A 
ATOM      8  C7  BZF d   1      -0.542   0.956  -1.396  0.00  0.00     0.029 A 
ATOM      9  C7A BZF d   1      -0.007   0.311  -0.308  0.00  0.00     0.058 A 
ENDROOT
TORSDOF 0
ENDMDL
