MODEL 1
REMARK minimizedAffinity -4.77940226
REMARK minimizedRMSD -1
REMARK  0 active torsions:
REMARK  status: ('A' for Active; 'I' for Inactive)
ROOT
ATOM      1  O1  BZF d   1       2.685  -0.975  -1.115  0.00  0.00    -0.204 OA
ATOM      2  C2  BZF d   1       3.698  -1.792  -0.650  0.00  0.00     0.174 A 
ATOM      3  C3  BZF d   1       3.277  -3.069  -0.553  0.00  0.00    -0.012 A 
ATOM      4  C3A BZF d   1       1.943  -3.066  -1.070  0.00  0.00    -0.107 A 
ATOM      5  C4  BZF d   1       1.003  -4.040  -1.251  0.00  0.00     0.055 A 
ATOM      6  C5  BZF d   1      -0.227  -3.694  -1.712  0.00  0.00    -0.016 A 
ATOM      7  C6  BZF d   1      -0.554  -2.384  -1.996  0.00  0.00     0.022 A 
ATOM      8  C7  BZF d   1       0.346  -1.384  -1.838  0.00  0.00     0.029 A 
ATOM      9  C7A BZF d   1       1.601  -1.735  -1.404  0.00  0.00     0.058 A 
ENDROOT
TORSDOF 0
ENDMDL
