MODEL 1
REMARK minimizedAffinity -0.0997915119
REMARK minimizedRMSD -1
REMARK  0 active torsions:
REMARK  status: ('A' for Active; 'I' for Inactive)
ROOT
ATOM      1  O1  BZF d   1      -0.418  -1.106  -0.311  0.00  0.00    -0.204 OA
ATOM      2  C2  BZF d   1      -0.594  -0.605  -1.586  0.00  0.00     0.174 A 
ATOM      3  C3  BZF d   1      -0.673   0.742  -1.564  0.00  0.00    -0.012 A 
ATOM      4  C3A BZF d   1      -0.444   1.110  -0.201  0.00  0.00    -0.107 A 
ATOM      5  C4  BZF d   1      -0.383   2.309   0.451  0.00  0.00     0.055 A 
ATOM      6  C5  BZF d   1      -0.216   2.320   1.799  0.00  0.00    -0.016 A 
ATOM      7  C6  BZF d   1      -0.113   1.153   2.528  0.00  0.00     0.022 A 
ATOM      8  C7  BZF d   1      -0.163  -0.060   1.925  0.00  0.00     0.029 A 
ATOM      9  C7A BZF d   1      -0.298  -0.074   0.559  0.00  0.00     0.058 A 
ENDROOT
TORSDOF 0
ENDMDL
