MODEL 1
REMARK minimizedAffinity -2.6669209
REMARK minimizedRMSD -1
REMARK  0 active torsions:
REMARK  status: ('A' for Active; 'I' for Inactive)
ROOT
ATOM      1  C2' OXE d   1       2.605   0.489   0.835  0.00  0.00     0.078 C 
ATOM      2  C1' OXE d   1       1.024   2.389  -0.497  0.00  0.00     0.078 C 
ATOM      3  C1  OXE d   1       0.418   1.035  -0.225  0.00  0.00    -0.078 A 
ATOM      4  C2  OXE d   1       1.214   0.096   0.385  0.00  0.00    -0.078 A 
ATOM      5  C3  OXE d   1       0.687  -1.151   0.709  0.00  0.00     0.003 A 
ATOM      6  C4  OXE d   1      -0.597  -1.510   0.281  0.00  0.00    -0.002 A 
ATOM      7  C5  OXE d   1      -1.411  -0.582  -0.378  0.00  0.00    -0.002 A 
ATOM      8  C6  OXE d   1      -0.935   0.705  -0.600  0.00  0.00     0.003 A 
ENDROOT
TORSDOF 0
ENDMDL
