MODEL 1
REMARK minimizedAffinity -4.67877197
REMARK minimizedRMSD -1
REMARK  0 active torsions:
REMARK  status: ('A' for Active; 'I' for Inactive)
ROOT
ATOM      1  C2' OXE d   1       0.364   0.873  -0.233  0.00  0.00     0.078 C 
ATOM      2  C1' OXE d   1       2.995   0.733   0.738  0.00  0.00     0.078 C 
ATOM      3  C1  OXE d   1       2.030  -0.347   1.161  0.00  0.00    -0.078 A 
ATOM      4  C2  OXE d   1       0.733  -0.244   0.719  0.00  0.00    -0.078 A 
ATOM      5  C3  OXE d   1      -0.184  -1.243   1.035  0.00  0.00     0.003 A 
ATOM      6  C4  OXE d   1       0.163  -2.268   1.924  0.00  0.00    -0.002 A 
ATOM      7  C5  OXE d   1       1.468  -2.368   2.418  0.00  0.00    -0.002 A 
ATOM      8  C6  OXE d   1       2.422  -1.442   2.013  0.00  0.00     0.003 A 
ENDROOT
TORSDOF 0
ENDMDL
