MODEL 1
REMARK minimizedAffinity -5.09780216
REMARK minimizedRMSD -1
REMARK  0 active torsions:
REMARK  status: ('A' for Active; 'I' for Inactive)
ROOT
ATOM      1  C2' OXE d   1       0.756   1.754  -0.007  0.00  0.00     0.078 C 
ATOM      2  C1' OXE d   1       2.848  -0.102   0.232  0.00  0.00     0.078 C 
ATOM      3  C1  OXE d   1       1.459  -0.556   0.606  0.00  0.00    -0.078 A 
ATOM      4  C2  OXE d   1       0.449   0.372   0.531  0.00  0.00    -0.078 A 
ATOM      5  C3  OXE d   1      -0.860  -0.009   0.811  0.00  0.00     0.003 A 
ATOM      6  C4  OXE d   1      -1.133  -1.285   1.317  0.00  0.00    -0.002 A 
ATOM      7  C5  OXE d   1      -0.113  -2.234   1.439  0.00  0.00    -0.002 A 
ATOM      8  C6  OXE d   1       1.179  -1.900   1.049  0.00  0.00     0.003 A 
ENDROOT
TORSDOF 0
ENDMDL
