MODEL 1
REMARK minimizedAffinity -3.75232959
REMARK minimizedRMSD -1
REMARK  0 active torsions:
REMARK  status: ('A' for Active; 'I' for Inactive)
ROOT
ATOM      1  C2' OXE d   1       1.619   2.168   0.387  0.00  0.00     0.078 C 
ATOM      2  C1' OXE d   1      -0.816   0.772   0.393  0.00  0.00     0.078 C 
ATOM      3  C1  OXE d   1       0.456  -0.033   0.297  0.00  0.00    -0.078 A 
ATOM      4  C2  OXE d   1       1.641   0.661   0.248  0.00  0.00    -0.078 A 
ATOM      5  C3  OXE d   1       2.847  -0.034   0.214  0.00  0.00     0.003 A 
ATOM      6  C4  OXE d   1       2.858  -1.427   0.075  0.00  0.00    -0.002 A 
ATOM      7  C5  OXE d   1       1.661  -2.151   0.083  0.00  0.00    -0.002 A 
ATOM      8  C6  OXE d   1       0.456  -1.474   0.236  0.00  0.00     0.003 A 
ENDROOT
TORSDOF 0
ENDMDL
