MODEL 1
REMARK minimizedAffinity 3.76906085
REMARK minimizedRMSD -1
REMARK  0 active torsions:
REMARK  status: ('A' for Active; 'I' for Inactive)
ROOT
ATOM      1  C2' OXE d   1      -0.582   0.012  -0.428  0.00  0.00     0.078 C 
ATOM      2  C1' OXE d   1      -0.299   2.290   1.187  0.00  0.00     0.078 C 
ATOM      3  C1  OXE d   1       0.881   1.357   1.074  0.00  0.00    -0.078 A 
ATOM      4  C2  OXE d   1       0.718   0.221   0.319  0.00  0.00    -0.078 A 
ATOM      5  C3  OXE d   1       1.791  -0.646   0.137  0.00  0.00     0.003 A 
ATOM      6  C4  OXE d   1       2.987  -0.451   0.839  0.00  0.00    -0.002 A 
ATOM      7  C5  OXE d   1       3.160   0.680   1.645  0.00  0.00    -0.002 A 
ATOM      8  C6  OXE d   1       2.134   1.613   1.739  0.00  0.00     0.003 A 
ENDROOT
TORSDOF 0
ENDMDL
