MODEL 1
REMARK minimizedAffinity -1.49510562
REMARK minimizedRMSD -1
REMARK  0 active torsions:
REMARK  status: ('A' for Active; 'I' for Inactive)
ROOT
ATOM      1  C2' OXE d   1       0.177   2.483   0.438  0.00  0.00     0.078 C 
ATOM      2  C1' OXE d   1      -1.018   0.201  -0.676  0.00  0.00     0.078 C 
ATOM      3  C1  OXE d   1       0.382   0.067  -0.131  0.00  0.00    -0.078 A 
ATOM      4  C2  OXE d   1       0.976   1.200   0.370  0.00  0.00    -0.078 A 
ATOM      5  C3  OXE d   1       2.246   1.120   0.936  0.00  0.00     0.003 A 
ATOM      6  C4  OXE d   1       2.982  -0.068   0.860  0.00  0.00    -0.002 A 
ATOM      7  C5  OXE d   1       2.410  -1.224   0.318  0.00  0.00    -0.002 A 
ATOM      8  C6  OXE d   1       1.099  -1.184  -0.142  0.00  0.00     0.003 A 
ENDROOT
TORSDOF 0
ENDMDL
