MODEL 1
REMARK minimizedAffinity -2.80449247
REMARK minimizedRMSD -1
REMARK  0 active torsions:
REMARK  status: ('A' for Active; 'I' for Inactive)
ROOT
ATOM      1  C2' OXE d   1      -0.253   0.928   0.043  0.00  0.00     0.078 C 
ATOM      2  C1' OXE d   1      -1.357  -1.369   1.219  0.00  0.00     0.078 C 
ATOM      3  C1  OXE d   1       0.138  -1.187   1.300  0.00  0.00    -0.078 A 
ATOM      4  C2  OXE d   1       0.675  -0.084   0.681  0.00  0.00    -0.078 A 
ATOM      5  C3  OXE d   1       2.042   0.161   0.772  0.00  0.00     0.003 A 
ATOM      6  C4  OXE d   1       2.894  -0.785   1.355  0.00  0.00    -0.002 A 
ATOM      7  C5  OXE d   1       2.372  -1.935   1.957  0.00  0.00    -0.002 A 
ATOM      8  C6  OXE d   1       0.996  -2.130   1.975  0.00  0.00     0.003 A 
ENDROOT
TORSDOF 0
ENDMDL
