MODEL 1
REMARK minimizedAffinity -5.34386683
REMARK minimizedRMSD -1
REMARK  0 active torsions:
REMARK  status: ('A' for Active; 'I' for Inactive)
ROOT
ATOM      1  C2' OXE d   1       0.928   2.103  -0.275  0.00  0.00     0.078 C 
ATOM      2  C1' OXE d   1      -0.966   0.104   0.266  0.00  0.00     0.078 C 
ATOM      3  C1  OXE d   1       0.462  -0.151   0.677  0.00  0.00    -0.078 A 
ATOM      4  C2  OXE d   1       1.391   0.813   0.366  0.00  0.00    -0.078 A 
ATOM      5  C3  OXE d   1       2.713   0.652   0.771  0.00  0.00     0.003 A 
ATOM      6  C4  OXE d   1       3.135  -0.548   1.354  0.00  0.00    -0.002 A 
ATOM      7  C5  OXE d   1       2.212  -1.559   1.644  0.00  0.00    -0.002 A 
ATOM      8  C6  OXE d   1       0.868  -1.360   1.351  0.00  0.00     0.003 A 
ENDROOT
TORSDOF 0
ENDMDL
