MODEL 1
REMARK minimizedAffinity -5.37202215
REMARK minimizedRMSD -1
REMARK  0 active torsions:
REMARK  status: ('A' for Active; 'I' for Inactive)
ROOT
ATOM      1  C2' OXE d   1      -0.014   1.968  -0.012  0.00  0.00     0.078 C 
ATOM      2  C1' OXE d   1      -1.231  -0.543   0.293  0.00  0.00     0.078 C 
ATOM      3  C1  OXE d   1       0.275  -0.478   0.363  0.00  0.00    -0.078 A 
ATOM      4  C2  OXE d   1       0.864   0.748   0.166  0.00  0.00    -0.078 A 
ATOM      5  C3  OXE d   1       2.246   0.874   0.275  0.00  0.00     0.003 A 
ATOM      6  C4  OXE d   1       3.051  -0.261   0.431  0.00  0.00    -0.002 A 
ATOM      7  C5  OXE d   1       2.473  -1.525   0.594  0.00  0.00    -0.002 A 
ATOM      8  C6  OXE d   1       1.088  -1.644   0.605  0.00  0.00     0.003 A 
ENDROOT
TORSDOF 0
ENDMDL
