MODEL 1
REMARK minimizedAffinity -3.00786018
REMARK minimizedRMSD -1
REMARK  0 active torsions:
REMARK  status: ('A' for Active; 'I' for Inactive)
ROOT
ATOM      1  C2' OXE d   1       2.466   0.924   1.405  0.00  0.00     0.078 C 
ATOM      2  C1' OXE d   1       2.864  -1.401  -0.118  0.00  0.00     0.078 C 
ATOM      3  C1  OXE d   1       1.490  -0.779  -0.129  0.00  0.00    -0.078 A 
ATOM      4  C2  OXE d   1       1.292   0.331   0.656  0.00  0.00    -0.078 A 
ATOM      5  C3  OXE d   1       0.058   0.976   0.640  0.00  0.00     0.003 A 
ATOM      6  C4  OXE d   1      -1.025   0.415  -0.047  0.00  0.00    -0.002 A 
ATOM      7  C5  OXE d   1      -0.856  -0.738  -0.821  0.00  0.00    -0.002 A 
ATOM      8  C6  OXE d   1       0.403  -1.322  -0.906  0.00  0.00     0.003 A 
ENDROOT
TORSDOF 0
ENDMDL
