MODEL 1
REMARK minimizedAffinity -3.72412133
REMARK minimizedRMSD -1
REMARK  0 active torsions:
REMARK  status: ('A' for Active; 'I' for Inactive)
ROOT
ATOM      1  C2' OXE d   1      -0.039   2.193   0.842  0.00  0.00     0.078 C 
ATOM      2  C1' OXE d   1      -0.809  -0.116  -0.556  0.00  0.00     0.078 C 
ATOM      3  C1  OXE d   1       0.596  -0.060  -0.010  0.00  0.00    -0.078 A 
ATOM      4  C2  OXE d   1       0.979   1.093   0.632  0.00  0.00    -0.078 A 
ATOM      5  C3  OXE d   1       2.246   1.176   1.203  0.00  0.00     0.003 A 
ATOM      6  C4  OXE d   1       3.184   0.158   0.995  0.00  0.00    -0.002 A 
ATOM      7  C5  OXE d   1       2.827  -1.008   0.310  0.00  0.00    -0.002 A 
ATOM      8  C6  OXE d   1       1.527  -1.151  -0.161  0.00  0.00     0.003 A 
ENDROOT
TORSDOF 0
ENDMDL
