MODEL 1
REMARK minimizedAffinity -3.77493191
REMARK minimizedRMSD -1
REMARK  0 active torsions:
REMARK  status: ('A' for Active; 'I' for Inactive)
ROOT
ATOM      1  C2' OXE d   1       1.117   1.977  -0.468  0.00  0.00     0.078 C 
ATOM      2  C1' OXE d   1       2.873  -0.087   0.266  0.00  0.00     0.078 C 
ATOM      3  C1  OXE d   1       1.393  -0.379   0.291  0.00  0.00    -0.078 A 
ATOM      4  C2  OXE d   1       0.540   0.650  -0.025  0.00  0.00    -0.078 A 
ATOM      5  C3  OXE d   1      -0.832   0.419  -0.070  0.00  0.00     0.003 A 
ATOM      6  C4  OXE d   1      -1.359  -0.808   0.351  0.00  0.00    -0.002 A 
ATOM      7  C5  OXE d   1      -0.509  -1.858   0.715  0.00  0.00    -0.002 A 
ATOM      8  C6  OXE d   1       0.868  -1.674   0.649  0.00  0.00     0.003 A 
ENDROOT
TORSDOF 0
ENDMDL
