MODEL 1
REMARK minimizedAffinity 7.14284754
REMARK minimizedRMSD -1
REMARK  1 active torsions:
REMARK  status: ('A' for Active; 'I' for Inactive)
REMARK    1  A    between atoms: N_2  and  C1_3 
ROOT
ATOM      1  C1  UNL d   1      -5.387   3.726   3.739  0.00  0.00     0.143 A 
ATOM      2  C2  UNL d   1      -5.978   3.549   4.994  0.00  0.00    -0.057 A 
ATOM      3  C3  UNL d   1      -5.998   4.582   5.939  0.00  0.00     0.033 A 
ATOM      4  C4  UNL d   1      -5.399   5.804   5.656  0.00  0.00    -0.042 A 
ATOM      5  C5  UNL d   1      -4.783   5.994   4.424  0.00  0.00     0.033 A 
ATOM      6  C6  UNL d   1      -4.773   4.962   3.481  0.00  0.00    -0.057 A 
ENDROOT
BRANCH   1   7
ATOM      7  N   UNL d   1      -5.248   2.707   2.793  0.00  0.00    -0.732 N 
ATOM      8  C   UNL d   1      -5.040   3.021   1.396  0.00  0.00     0.284 C 
ATOM      9  H3  UNL d   1      -4.680   1.935   3.135  0.00  0.00     0.395 HD
ENDBRANCH   1   7
TORSDOF 1
ENDMDL
