MODEL 1
REMARK minimizedAffinity -0.119025767
REMARK minimizedRMSD -1
REMARK  1 active torsions:
REMARK  status: ('A' for Active; 'I' for Inactive)
REMARK    1  A    between atoms: N_2  and  C1_3 
ROOT
ATOM      1  C1  UNL d   1      -5.567   3.547   5.283  0.00  0.00     0.143 A 
ATOM      2  C2  UNL d   1      -5.998   3.891   3.997  0.00  0.00    -0.057 A 
ATOM      3  C3  UNL d   1      -5.613   5.098   3.401  0.00  0.00     0.033 A 
ATOM      4  C4  UNL d   1      -4.811   5.998   4.094  0.00  0.00    -0.042 A 
ATOM      5  C5  UNL d   1      -4.391   5.689   5.383  0.00  0.00     0.033 A 
ATOM      6  C6  UNL d   1      -4.774   4.479   5.970  0.00  0.00    -0.057 A 
ENDROOT
BRANCH   1   7
ATOM      7  N   UNL d   1      -5.995   2.407   5.968  0.00  0.00    -0.732 N 
ATOM      8  C   UNL d   1      -5.206   1.195   5.947  0.00  0.00     0.284 C 
ATOM      9  H3  UNL d   1      -6.394   2.628   6.878  0.00  0.00     0.395 HD
ENDBRANCH   1   7
TORSDOF 1
ENDMDL
