MODEL 1
REMARK minimizedAffinity 8.302145
REMARK minimizedRMSD -1
REMARK  1 active torsions:
REMARK  status: ('A' for Active; 'I' for Inactive)
REMARK    1  A    between atoms: N_2  and  C1_3 
ROOT
ATOM      1  C1  UNL d   1       3.371  -0.086  -0.248  0.00  0.00     0.143 A 
ATOM      2  C2  UNL d   1       2.608   0.855   0.452  0.00  0.00    -0.057 A 
ATOM      3  C3  UNL d   1       3.143   2.096   0.819  0.00  0.00     0.033 A 
ATOM      4  C4  UNL d   1       4.465   2.407   0.516  0.00  0.00    -0.042 A 
ATOM      5  C5  UNL d   1       5.249   1.477  -0.157  0.00  0.00     0.033 A 
ATOM      6  C6  UNL d   1       4.707   0.242  -0.526  0.00  0.00    -0.057 A 
ENDROOT
BRANCH   1   7
ATOM      7  N   UNL d   1       2.927  -1.375  -0.554  0.00  0.00    -0.732 N 
ATOM      8  C   UNL d   1       2.630  -2.322   0.499  0.00  0.00     0.284 C 
ATOM      9  H3  UNL d   1       2.259  -1.384  -1.321  0.00  0.00     0.395 HD
ENDBRANCH   1   7
TORSDOF 1
ENDMDL
