MODEL 1
REMARK minimizedAffinity 6.37711954
REMARK minimizedRMSD -1
REMARK  1 active torsions:
REMARK  status: ('A' for Active; 'I' for Inactive)
REMARK    1  A    between atoms: N_2  and  C1_3 
ROOT
ATOM      1  C1  UNL d   1       3.780  -0.411  -0.667  0.00  0.00     0.143 A 
ATOM      2  C2  UNL d   1       2.962  -1.223   0.126  0.00  0.00    -0.057 A 
ATOM      3  C3  UNL d   1       2.615  -2.518  -0.276  0.00  0.00     0.033 A 
ATOM      4  C4  UNL d   1       3.058  -3.016  -1.497  0.00  0.00    -0.042 A 
ATOM      5  C5  UNL d   1       3.852  -2.218  -2.314  0.00  0.00     0.033 A 
ATOM      6  C6  UNL d   1       4.200  -0.927  -1.903  0.00  0.00    -0.057 A 
ENDROOT
BRANCH   1   7
ATOM      7  N   UNL d   1       4.079   0.920  -0.368  0.00  0.00    -0.732 N 
ATOM      8  C   UNL d   1       3.176   1.717   0.434  0.00  0.00     0.284 C 
ATOM      9  H3  UNL d   1       5.063   1.057  -0.146  0.00  0.00     0.395 HD
ENDBRANCH   1   7
TORSDOF 1
ENDMDL
