MODEL 1
REMARK minimizedAffinity 11.4396925
REMARK minimizedRMSD -1
REMARK  1 active torsions:
REMARK  status: ('A' for Active; 'I' for Inactive)
REMARK    1  A    between atoms: N_2  and  C1_3 
ROOT
ATOM      1  C1  UNL d   1       3.681   2.439  -1.280  0.00  0.00     0.143 A 
ATOM      2  C2  UNL d   1       5.043   2.169  -1.446  0.00  0.00    -0.057 A 
ATOM      3  C3  UNL d   1       6.000   3.189  -1.374  0.00  0.00     0.033 A 
ATOM      4  C4  UNL d   1       5.606   4.506  -1.163  0.00  0.00    -0.042 A 
ATOM      5  C5  UNL d   1       4.255   4.801  -1.020  0.00  0.00     0.033 A 
ATOM      6  C6  UNL d   1       3.305   3.777  -1.086  0.00  0.00    -0.057 A 
ENDROOT
BRANCH   1   7
ATOM      7  N   UNL d   1       2.674   1.484  -1.439  0.00  0.00    -0.732 N 
ATOM      8  C   UNL d   1       2.284   0.632  -0.336  0.00  0.00     0.284 C 
ATOM      9  H3  UNL d   1       1.893   1.831  -1.992  0.00  0.00     0.395 HD
ENDBRANCH   1   7
TORSDOF 1
ENDMDL
