MODEL 1
REMARK minimizedAffinity 7.97663546
REMARK minimizedRMSD -1
REMARK  1 active torsions:
REMARK  status: ('A' for Active; 'I' for Inactive)
REMARK    1  A    between atoms: N_2  and  C1_3 
ROOT
ATOM      1  C1  UNL d   1      -4.968   4.118   3.889  0.00  0.00     0.143 A 
ATOM      2  C2  UNL d   1      -3.954   5.076   4.005  0.00  0.00    -0.057 A 
ATOM      3  C3  UNL d   1      -3.945   5.999   5.058  0.00  0.00     0.033 A 
ATOM      4  C4  UNL d   1      -4.968   5.999   6.000  0.00  0.00    -0.042 A 
ATOM      5  C5  UNL d   1      -5.999   5.072   5.890  0.00  0.00     0.033 A 
ATOM      6  C6  UNL d   1      -5.999   4.149   4.841  0.00  0.00    -0.057 A 
ENDROOT
BRANCH   1   7
ATOM      7  N   UNL d   1      -5.086   3.238   2.811  0.00  0.00    -0.732 N 
ATOM      8  C   UNL d   1      -5.579   3.701   1.532  0.00  0.00     0.284 C 
ATOM      9  H3  UNL d   1      -4.299   2.596   2.746  0.00  0.00     0.395 HD
ENDBRANCH   1   7
TORSDOF 1
ENDMDL
