MODEL 1
REMARK minimizedAffinity 0.0519515276
REMARK minimizedRMSD -1
REMARK  1 active torsions:
REMARK  status: ('A' for Active; 'I' for Inactive)
REMARK    1  A    between atoms: C1_2  and  C2_3 
ROOT
ATOM      1  C2  UNL d   1      -1.721  -5.981  -3.556  0.00  0.00    -0.073 A 
ATOM      2  C3  UNL d   1      -2.425  -5.988  -4.765  0.00  0.00    -0.002 A 
ATOM      3  C4  UNL d   1      -1.738  -5.991  -5.980  0.00  0.00     0.004 A 
ATOM      4  C5  UNL d   1      -0.343  -5.993  -5.998  0.00  0.00    -0.004 A 
ATOM      5  C6  UNL d   1       0.378  -5.998  -4.799  0.00  0.00    -0.075 A 
ATOM      6  C7  UNL d   1       1.878  -5.998  -4.801  0.00  0.00     0.076 C 
ATOM      7  C8  UNL d   1      -0.319  -5.993  -3.584  0.00  0.00     0.001 A 
ENDROOT
BRANCH   1   8
ATOM      8  C1  UNL d   1      -2.458  -5.985  -2.241  0.00  0.00     0.053 C 
ATOM      9  C   UNL d   1      -3.967  -5.998  -2.434  0.00  0.00     0.018 C 
ENDBRANCH   1   8
TORSDOF 1
ENDMDL
