MODEL 1
REMARK minimizedAffinity 0.228806347
REMARK minimizedRMSD -1
REMARK  1 active torsions:
REMARK  status: ('A' for Active; 'I' for Inactive)
REMARK    1  A    between atoms: C1_2  and  C2_3 
ROOT
ATOM      1  C2  UNL d   1      -4.435  -5.979  -0.405  0.00  0.00    -0.073 A 
ATOM      2  C3  UNL d   1      -5.550  -5.994  -1.251  0.00  0.00    -0.002 A 
ATOM      3  C4  UNL d   1      -5.383  -5.999  -2.637  0.00  0.00     0.004 A 
ATOM      4  C5  UNL d   1      -4.103  -5.996  -3.190  0.00  0.00    -0.004 A 
ATOM      5  C6  UNL d   1      -2.976  -5.994  -2.361  0.00  0.00    -0.075 A 
ATOM      6  C7  UNL d   1      -1.592  -5.989  -2.940  0.00  0.00     0.076 C 
ATOM      7  C8  UNL d   1      -3.152  -5.986  -0.970  0.00  0.00     0.001 A 
ENDROOT
BRANCH   1   8
ATOM      8  C1  UNL d   1      -4.610  -5.980   1.092  0.00  0.00     0.053 C 
ATOM      9  C   UNL d   1      -4.468  -4.586   1.683  0.00  0.00     0.018 C 
ENDBRANCH   1   8
TORSDOF 1
ENDMDL
