MODEL 1
REMARK minimizedAffinity 1.68871605
REMARK minimizedRMSD -1
REMARK  1 active torsions:
REMARK  status: ('A' for Active; 'I' for Inactive)
REMARK    1  A    between atoms: C1_2  and  C2_3 
ROOT
ATOM      1  C2  UNL d   1      -2.056  -5.990  -3.665  0.00  0.00    -0.073 A 
ATOM      2  C3  UNL d   1      -2.393  -5.999  -5.024  0.00  0.00    -0.002 A 
ATOM      3  C4  UNL d   1      -1.393  -5.997  -5.998  0.00  0.00     0.004 A 
ATOM      4  C5  UNL d   1      -0.049  -5.992  -5.625  0.00  0.00    -0.004 A 
ATOM      5  C6  UNL d   1       0.307  -5.995  -4.272  0.00  0.00    -0.075 A 
ATOM      6  C7  UNL d   1       1.748  -5.988  -3.854  0.00  0.00     0.076 C 
ATOM      7  C8  UNL d   1      -0.702  -5.995  -3.300  0.00  0.00     0.001 A 
ENDROOT
BRANCH   1   8
ATOM      8  C1  UNL d   1      -3.132  -6.000  -2.610  0.00  0.00     0.053 C 
ATOM      9  C   UNL d   1      -4.515  -5.792  -3.205  0.00  0.00     0.018 C 
ENDBRANCH   1   8
TORSDOF 1
ENDMDL
