MODEL 1
REMARK minimizedAffinity 4.74519682
REMARK minimizedRMSD -1
REMARK  1 active torsions:
REMARK  status: ('A' for Active; 'I' for Inactive)
REMARK    1  A    between atoms: C1_2  and  C2_3 
ROOT
ATOM      1  C2  UNL d   1       1.647  -0.373   0.062  0.00  0.00    -0.073 A 
ATOM      2  C3  UNL d   1       2.518  -1.301   0.644  0.00  0.00    -0.002 A 
ATOM      3  C4  UNL d   1       2.018  -2.463   1.235  0.00  0.00     0.004 A 
ATOM      4  C5  UNL d   1       0.646  -2.711   1.243  0.00  0.00    -0.004 A 
ATOM      5  C6  UNL d   1      -0.240  -1.802   0.656  0.00  0.00    -0.075 A 
ATOM      6  C7  UNL d   1      -1.719  -2.054   0.659  0.00  0.00     0.076 C 
ATOM      7  C8  UNL d   1       0.270  -0.636   0.068  0.00  0.00     0.001 A 
ENDROOT
BRANCH   1   8
ATOM      8  C1  UNL d   1       2.182   0.879  -0.582  0.00  0.00     0.053 C 
ATOM      9  C   UNL d   1       3.465   0.619  -1.355  0.00  0.00     0.018 C 
ENDBRANCH   1   8
TORSDOF 1
ENDMDL
