MODEL 1
REMARK minimizedAffinity 0.381025463
REMARK minimizedRMSD -1
REMARK  1 active torsions:
REMARK  status: ('A' for Active; 'I' for Inactive)
REMARK    1  A    between atoms: C1_2  and  C2_3 
ROOT
ATOM      1  C2  UNL d   1       1.246  -1.367   1.097  0.00  0.00    -0.073 A 
ATOM      2  C3  UNL d   1       0.147  -0.544   1.368  0.00  0.00    -0.002 A 
ATOM      3  C4  UNL d   1       0.125   0.775   0.911  0.00  0.00     0.004 A 
ATOM      4  C5  UNL d   1       1.195   1.281   0.174  0.00  0.00    -0.004 A 
ATOM      5  C6  UNL d   1       2.297   0.470  -0.117  0.00  0.00    -0.075 A 
ATOM      6  C7  UNL d   1       3.457   1.000  -0.907  0.00  0.00     0.076 C 
ATOM      7  C8  UNL d   1       2.314  -0.852   0.347  0.00  0.00     0.001 A 
ENDROOT
BRANCH   1   8
ATOM      8  C1  UNL d   1       1.273  -2.793   1.582  0.00  0.00     0.053 C 
ATOM      9  C   UNL d   1       0.262  -3.663   0.852  0.00  0.00     0.018 C 
ENDBRANCH   1   8
TORSDOF 1
ENDMDL
