MODEL 1
REMARK minimizedAffinity -3.06822872
REMARK minimizedRMSD -1
REMARK  1 active torsions:
REMARK  status: ('A' for Active; 'I' for Inactive)
REMARK    1  A    between atoms: C1_2  and  C2_3 
ROOT
ATOM      1  C2  UNL d   1      -1.877  -5.771  -4.048  0.00  0.00    -0.073 A 
ATOM      2  C3  UNL d   1      -1.788  -5.398  -5.394  0.00  0.00    -0.002 A 
ATOM      3  C4  UNL d   1      -0.542  -5.213  -5.993  0.00  0.00     0.004 A 
ATOM      4  C5  UNL d   1       0.627  -5.406  -5.256  0.00  0.00    -0.004 A 
ATOM      5  C6  UNL d   1       0.559  -5.790  -3.913  0.00  0.00    -0.075 A 
ATOM      6  C7  UNL d   1       1.806  -5.999  -3.106  0.00  0.00     0.076 C 
ATOM      7  C8  UNL d   1      -0.697  -5.971  -3.318  0.00  0.00     0.001 A 
ENDROOT
BRANCH   1   8
ATOM      8  C1  UNL d   1      -3.221  -5.977  -3.398  0.00  0.00     0.053 C 
ATOM      9  C   UNL d   1      -3.123  -5.999  -1.881  0.00  0.00     0.018 C 
ENDBRANCH   1   8
TORSDOF 1
ENDMDL
