MODEL 1
REMARK minimizedAffinity 5.97428894
REMARK minimizedRMSD -1
REMARK  1 active torsions:
REMARK  status: ('A' for Active; 'I' for Inactive)
REMARK    1  A    between atoms: C1_2  and  C2_3 
ROOT
ATOM      1  C2  UNL d   1      -1.515  -5.968  -2.680  0.00  0.00    -0.073 A 
ATOM      2  C3  UNL d   1      -0.450  -5.973  -1.772  0.00  0.00    -0.002 A 
ATOM      3  C4  UNL d   1       0.867  -5.991  -2.231  0.00  0.00     0.004 A 
ATOM      4  C5  UNL d   1       1.134  -5.999  -3.600  0.00  0.00    -0.004 A 
ATOM      5  C6  UNL d   1       0.083  -5.982  -4.523  0.00  0.00    -0.075 A 
ATOM      6  C7  UNL d   1       0.353  -5.992  -5.999  0.00  0.00     0.076 C 
ATOM      7  C8  UNL d   1      -1.237  -5.966  -4.054  0.00  0.00     0.001 A 
ENDROOT
BRANCH   1   8
ATOM      8  C1  UNL d   1      -2.940  -5.941  -2.189  0.00  0.00     0.053 C 
ATOM      9  C   UNL d   1      -3.531  -4.541  -2.231  0.00  0.00     0.018 C 
ENDBRANCH   1   8
TORSDOF 1
ENDMDL
