MODEL 1
REMARK minimizedAffinity 0.459442049
REMARK minimizedRMSD -1
REMARK  1 active torsions:
REMARK  status: ('A' for Active; 'I' for Inactive)
REMARK    1  A    between atoms: C3_4  and  O_7 
ROOT
ATOM      1  C   UNL d   1       1.423   0.752  -0.298  0.00  0.00    -0.033 A 
ATOM      2  C1  UNL d   1       0.260   0.816   0.471  0.00  0.00     0.039 A 
ATOM      3  C2  UNL d   1      -0.297   2.055   0.796  0.00  0.00    -0.080 A 
ATOM      4  C3  UNL d   1       0.318   3.219   0.346  0.00  0.00     0.150 A 
ATOM      5  C4  UNL d   1       1.475   3.163  -0.424  0.00  0.00    -0.007 A 
ATOM      6  C5  UNL d   1       2.030   1.925  -0.747  0.00  0.00     0.039 A 
ENDROOT
BRANCH   4   7
ATOM      7  O   UNL d   1      -0.186   4.451   0.641  0.00  0.00    -0.526 OA
ATOM      8  H5  UNL d   1      -0.970   4.336   1.204  0.00  0.00     0.418 HD
ENDBRANCH   4   7
TORSDOF 1
ENDMDL
