MODEL 1
REMARK minimizedAffinity -3.89367294
REMARK minimizedRMSD -1
REMARK  1 active torsions:
REMARK  status: ('A' for Active; 'I' for Inactive)
REMARK    1  A    between atoms: C3_4  and  O_7 
ROOT
ATOM      1  C   UNL d   1      -0.566   0.119   0.102  0.00  0.00    -0.033 A 
ATOM      2  C1  UNL d   1       0.217   1.268   0.228  0.00  0.00     0.039 A 
ATOM      3  C2  UNL d   1       1.607   1.161   0.314  0.00  0.00    -0.080 A 
ATOM      4  C3  UNL d   1       2.200  -0.097   0.271  0.00  0.00     0.150 A 
ATOM      5  C4  UNL d   1       1.426  -1.246   0.141  0.00  0.00    -0.007 A 
ATOM      6  C5  UNL d   1       0.038  -1.138   0.056  0.00  0.00     0.039 A 
ENDROOT
BRANCH   4   7
ATOM      7  O   UNL d   1       3.551  -0.252   0.355  0.00  0.00    -0.526 OA
ATOM      8  H5  UNL d   1       3.955   0.625   0.471  0.00  0.00     0.418 HD
ENDBRANCH   4   7
TORSDOF 1
ENDMDL
