MODEL 1
REMARK minimizedAffinity 1.89941728
REMARK minimizedRMSD -1
REMARK  1 active torsions:
REMARK  status: ('A' for Active; 'I' for Inactive)
REMARK    1  A    between atoms: C3_4  and  O_7 
ROOT
ATOM      1  C   UNL d   1       3.417   1.271   0.446  0.00  0.00    -0.033 A 
ATOM      2  C1  UNL d   1       2.752   0.797   1.578  0.00  0.00     0.039 A 
ATOM      3  C2  UNL d   1       1.365   0.635   1.559  0.00  0.00    -0.080 A 
ATOM      4  C3  UNL d   1       0.656   0.950   0.403  0.00  0.00     0.150 A 
ATOM      5  C4  UNL d   1       1.313   1.419  -0.730  0.00  0.00    -0.007 A 
ATOM      6  C5  UNL d   1       2.697   1.581  -0.709  0.00  0.00     0.039 A 
ENDROOT
BRANCH   4   7
ATOM      7  O   UNL d   1      -0.699   0.813   0.338  0.00  0.00    -0.526 OA
ATOM      8  H5  UNL d   1      -1.019   0.507   1.203  0.00  0.00     0.418 HD
ENDBRANCH   4   7
TORSDOF 1
ENDMDL
