MODEL 1
REMARK minimizedAffinity -4.8495779
REMARK minimizedRMSD -1
REMARK  1 active torsions:
REMARK  status: ('A' for Active; 'I' for Inactive)
REMARK    1  A    between atoms: C3_4  and  O_7 
ROOT
ATOM      1  C   UNL d   1       0.754   0.549   0.864  0.00  0.00    -0.033 A 
ATOM      2  C1  UNL d   1       1.832  -0.061   1.508  0.00  0.00     0.039 A 
ATOM      3  C2  UNL d   1       3.042  -0.238   0.834  0.00  0.00    -0.080 A 
ATOM      4  C3  UNL d   1       3.161   0.200  -0.482  0.00  0.00     0.150 A 
ATOM      5  C4  UNL d   1       2.092   0.812  -1.129  0.00  0.00    -0.007 A 
ATOM      6  C5  UNL d   1       0.884   0.987  -0.455  0.00  0.00     0.039 A 
ENDROOT
BRANCH   4   7
ATOM      7  O   UNL d   1       4.320   0.045  -1.183  0.00  0.00    -0.526 OA
ATOM      8  H5  UNL d   1       4.961  -0.418  -0.618  0.00  0.00     0.418 HD
ENDBRANCH   4   7
TORSDOF 1
ENDMDL
