MODEL 1
REMARK minimizedAffinity -4.3676796
REMARK minimizedRMSD -1
REMARK  1 active torsions:
REMARK  status: ('A' for Active; 'I' for Inactive)
REMARK    1  A    between atoms: C3_4  and  O_7 
ROOT
ATOM      1  C   UNL d   1      -0.761   0.406   0.193  0.00  0.00    -0.033 A 
ATOM      2  C1  UNL d   1       0.123   1.456  -0.059  0.00  0.00     0.039 A 
ATOM      3  C2  UNL d   1       1.493   1.283   0.149  0.00  0.00    -0.080 A 
ATOM      4  C3  UNL d   1       1.965   0.055   0.607  0.00  0.00     0.150 A 
ATOM      5  C4  UNL d   1       1.089  -0.996   0.856  0.00  0.00    -0.007 A 
ATOM      6  C5  UNL d   1      -0.278  -0.821   0.649  0.00  0.00     0.039 A 
ENDROOT
BRANCH   4   7
ATOM      7  O   UNL d   1       3.292  -0.160   0.828  0.00  0.00    -0.526 OA
ATOM      8  H5  UNL d   1       3.773   0.663   0.641  0.00  0.00     0.418 HD
ENDBRANCH   4   7
TORSDOF 1
ENDMDL
