MODEL 1
REMARK minimizedAffinity -4.9202323
REMARK minimizedRMSD -1
REMARK  1 active torsions:
REMARK  status: ('A' for Active; 'I' for Inactive)
REMARK    1  A    between atoms: C3_4  and  O_7 
ROOT
ATOM      1  C   UNL d   1       2.628   0.734   0.740  0.00  0.00    -0.033 A 
ATOM      2  C1  UNL d   1       1.361   0.603   0.169  0.00  0.00     0.039 A 
ATOM      3  C2  UNL d   1       0.570  -0.509   0.466  0.00  0.00    -0.080 A 
ATOM      4  C3  UNL d   1       1.058  -1.481   1.336  0.00  0.00     0.150 A 
ATOM      5  C4  UNL d   1       2.318  -1.355   1.911  0.00  0.00    -0.007 A 
ATOM      6  C5  UNL d   1       3.106  -0.245   1.612  0.00  0.00     0.039 A 
ENDROOT
BRANCH   4   7
ATOM      7  O   UNL d   1       0.325  -2.586   1.652  0.00  0.00    -0.526 OA
ATOM      8  H5  UNL d   1      -0.512  -2.552   1.158  0.00  0.00     0.418 HD
ENDBRANCH   4   7
TORSDOF 1
ENDMDL
