MODEL 1
REMARK minimizedAffinity 5.47396326
REMARK minimizedRMSD -1
REMARK  1 active torsions:
REMARK  status: ('A' for Active; 'I' for Inactive)
REMARK    1  A    between atoms: C3_4  and  O_7 
ROOT
ATOM      1  C   UNL d   1       1.715   2.392  -0.550  0.00  0.00    -0.033 A 
ATOM      2  C1  UNL d   1       0.483   1.934  -0.079  0.00  0.00     0.039 A 
ATOM      3  C2  UNL d   1       0.434   1.015   0.971  0.00  0.00    -0.080 A 
ATOM      4  C3  UNL d   1       1.621   0.562   1.540  0.00  0.00     0.150 A 
ATOM      5  C4  UNL d   1       2.851   1.017   1.078  0.00  0.00    -0.007 A 
ATOM      6  C5  UNL d   1       2.899   1.935   0.029  0.00  0.00     0.039 A 
ENDROOT
BRANCH   4   7
ATOM      7  O   UNL d   1       1.622  -0.339   2.563  0.00  0.00    -0.526 OA
ATOM      8  H5  UNL d   1       0.703  -0.585   2.758  0.00  0.00     0.418 HD
ENDBRANCH   4   7
TORSDOF 1
ENDMDL
