MODEL 1
REMARK minimizedAffinity -4.34872293
REMARK minimizedRMSD -1
REMARK  1 active torsions:
REMARK  status: ('A' for Active; 'I' for Inactive)
REMARK    1  A    between atoms: C3_4  and  O_7 
ROOT
ATOM      1  C   UNL d   1       1.564  -1.365   0.775  0.00  0.00    -0.033 A 
ATOM      2  C1  UNL d   1       0.366  -0.762   0.388  0.00  0.00     0.039 A 
ATOM      3  C2  UNL d   1       0.335   0.600   0.080  0.00  0.00    -0.080 A 
ATOM      4  C3  UNL d   1       1.508   1.345   0.161  0.00  0.00     0.150 A 
ATOM      5  C4  UNL d   1       2.706   0.750   0.541  0.00  0.00    -0.007 A 
ATOM      6  C5  UNL d   1       2.735  -0.609   0.850  0.00  0.00     0.039 A 
ENDROOT
BRANCH   4   7
ATOM      7  O   UNL d   1       1.526   2.678  -0.126  0.00  0.00    -0.526 OA
ATOM      8  H5  UNL d   1       0.622   2.958  -0.346  0.00  0.00     0.418 HD
ENDBRANCH   4   7
TORSDOF 1
ENDMDL
