MODEL 1
REMARK minimizedAffinity -5.50307178
REMARK minimizedRMSD -1
REMARK  1 active torsions:
REMARK  status: ('A' for Active; 'I' for Inactive)
REMARK    1  A    between atoms: C3_4  and  O_7 
ROOT
ATOM      1  C   UNL d   1      -0.338   0.638  -0.199  0.00  0.00    -0.033 A 
ATOM      2  C1  UNL d   1       0.099  -0.654  -0.497  0.00  0.00     0.039 A 
ATOM      3  C2  UNL d   1       1.443  -0.995  -0.332  0.00  0.00    -0.080 A 
ATOM      4  C3  UNL d   1       2.338  -0.036   0.134  0.00  0.00     0.150 A 
ATOM      5  C4  UNL d   1       1.909   1.252   0.437  0.00  0.00    -0.007 A 
ATOM      6  C5  UNL d   1       0.567   1.591   0.270  0.00  0.00     0.039 A 
ENDROOT
BRANCH   4   7
ATOM      7  O   UNL d   1       3.660  -0.320   0.307  0.00  0.00    -0.526 OA
ATOM      8  H5  UNL d   1       3.816  -1.239   0.031  0.00  0.00     0.418 HD
ENDBRANCH   4   7
TORSDOF 1
ENDMDL
