MODEL 1
REMARK minimizedAffinity -4.44561052
REMARK minimizedRMSD -1
REMARK  1 active torsions:
REMARK  status: ('A' for Active; 'I' for Inactive)
REMARK    1  A    between atoms: N_2  and  C1_3 
ROOT
ATOM      1  C1  UNL d   1      -0.499   0.470   0.546  0.00  0.00     0.143 A 
ATOM      2  C2  UNL d   1      -1.352   0.934   1.553  0.00  0.00    -0.057 A 
ATOM      3  C3  UNL d   1      -1.759   2.273   1.600  0.00  0.00     0.033 A 
ATOM      4  C4  UNL d   1      -1.295   3.181   0.654  0.00  0.00    -0.042 A 
ATOM      5  C5  UNL d   1      -0.426   2.748  -0.341  0.00  0.00     0.033 A 
ATOM      6  C6  UNL d   1      -0.029   1.408  -0.387  0.00  0.00    -0.057 A 
ENDROOT
BRANCH   1   7
ATOM      7  N   UNL d   1       0.020  -0.826   0.502  0.00  0.00    -0.732 N 
ATOM      8  C   UNL d   1       0.636  -1.333  -0.706  0.00  0.00     0.284 C 
ATOM      9  H3  UNL d   1       0.512  -1.077   1.356  0.00  0.00     0.395 HD
ENDBRANCH   1   7
TORSDOF 1
ENDMDL
