MODEL 1
REMARK minimizedAffinity -3.4240756
REMARK minimizedRMSD -1
REMARK  1 active torsions:
REMARK  status: ('A' for Active; 'I' for Inactive)
REMARK    1  A    between atoms: N_2  and  C1_3 
ROOT
ATOM      1  C1  UNL d   1       0.180   0.825  -0.034  0.00  0.00     0.143 A 
ATOM      2  C2  UNL d   1      -0.385   0.482   1.199  0.00  0.00    -0.057 A 
ATOM      3  C3  UNL d   1      -1.307   1.323   1.834  0.00  0.00     0.033 A 
ATOM      4  C4  UNL d   1      -1.659   2.540   1.259  0.00  0.00    -0.042 A 
ATOM      5  C5  UNL d   1      -1.091   2.913   0.046  0.00  0.00     0.033 A 
ATOM      6  C6  UNL d   1      -0.176   2.066  -0.587  0.00  0.00    -0.057 A 
ENDROOT
BRANCH   1   7
ATOM      7  N   UNL d   1       1.176   0.078  -0.668  0.00  0.00    -0.732 N 
ATOM      8  C   UNL d   1       0.898  -1.255  -1.158  0.00  0.00     0.284 C 
ATOM      9  H3  UNL d   1       1.743   0.642  -1.297  0.00  0.00     0.395 HD
ENDBRANCH   1   7
TORSDOF 1
ENDMDL
