MODEL 1
REMARK minimizedAffinity -5.04957724
REMARK minimizedRMSD -1
REMARK  1 active torsions:
REMARK  status: ('A' for Active; 'I' for Inactive)
REMARK    1  A    between atoms: N_2  and  C1_3 
ROOT
ATOM      1  C1  UNL d   1      -0.095   0.691   0.329  0.00  0.00     0.143 A 
ATOM      2  C2  UNL d   1      -0.948   0.330   1.377  0.00  0.00    -0.057 A 
ATOM      3  C3  UNL d   1      -1.824   1.257   1.953  0.00  0.00     0.033 A 
ATOM      4  C4  UNL d   1      -1.843   2.575   1.507  0.00  0.00    -0.042 A 
ATOM      5  C5  UNL d   1      -0.987   2.963   0.483  0.00  0.00     0.033 A 
ATOM      6  C6  UNL d   1      -0.118   2.030  -0.092  0.00  0.00    -0.057 A 
ENDROOT
BRANCH   1   7
ATOM      7  N   UNL d   1       0.869  -0.159  -0.218  0.00  0.00    -0.732 N 
ATOM      8  C   UNL d   1       0.478  -1.291  -1.031  0.00  0.00     0.284 C 
ATOM      9  H3  UNL d   1       1.678   0.347  -0.572  0.00  0.00     0.395 HD
ENDBRANCH   1   7
TORSDOF 1
ENDMDL
