MODEL 1
REMARK minimizedAffinity -3.18009162
REMARK minimizedRMSD -1
REMARK  1 active torsions:
REMARK  status: ('A' for Active; 'I' for Inactive)
REMARK    1  A    between atoms: N_2  and  C1_3 
ROOT
ATOM      1  C1  UNL d   1       0.844  -1.338  -0.819  0.00  0.00     0.143 A 
ATOM      2  C2  UNL d   1       1.613  -0.249  -1.246  0.00  0.00    -0.057 A 
ATOM      3  C3  UNL d   1       1.316   1.055  -0.833  0.00  0.00     0.033 A 
ATOM      4  C4  UNL d   1       0.223   1.298  -0.006  0.00  0.00    -0.042 A 
ATOM      5  C5  UNL d   1      -0.570   0.234   0.409  0.00  0.00     0.033 A 
ATOM      6  C6  UNL d   1      -0.264  -1.067  -0.001  0.00  0.00    -0.057 A 
ENDROOT
BRANCH   1   7
ATOM      7  N   UNL d   1       1.029  -2.646  -1.274  0.00  0.00    -0.732 N 
ATOM      8  C   UNL d   1       0.662  -3.016  -2.624  0.00  0.00     0.284 C 
ATOM      9  H3  UNL d   1       1.909  -3.046  -0.958  0.00  0.00     0.395 HD
ENDBRANCH   1   7
TORSDOF 1
ENDMDL
