MODEL 1
REMARK minimizedAffinity -3.25556874
REMARK minimizedRMSD -1
REMARK  1 active torsions:
REMARK  status: ('A' for Active; 'I' for Inactive)
REMARK    1  A    between atoms: N_2  and  C1_3 
ROOT
ATOM      1  C1  UNL d   1      -0.768   0.854   0.944  0.00  0.00     0.143 A 
ATOM      2  C2  UNL d   1      -0.435   1.229  -0.362  0.00  0.00    -0.057 A 
ATOM      3  C3  UNL d   1       0.469   0.480  -1.125  0.00  0.00     0.033 A 
ATOM      4  C4  UNL d   1       1.081  -0.645  -0.582  0.00  0.00    -0.042 A 
ATOM      5  C5  UNL d   1       0.784  -1.022   0.723  0.00  0.00     0.033 A 
ATOM      6  C6  UNL d   1      -0.125  -0.274   1.477  0.00  0.00    -0.057 A 
ENDROOT
BRANCH   1   7
ATOM      7  N   UNL d   1      -1.584   1.613   1.787  0.00  0.00    -0.732 N 
ATOM      8  C   UNL d   1      -1.903   2.987   1.464  0.00  0.00     0.284 C 
ATOM      9  H3  UNL d   1      -2.369   1.078   2.151  0.00  0.00     0.395 HD
ENDBRANCH   1   7
TORSDOF 1
ENDMDL
