MODEL 1
REMARK minimizedAffinity -3.55627322
REMARK minimizedRMSD -1
REMARK  1 active torsions:
REMARK  status: ('A' for Active; 'I' for Inactive)
REMARK    1  A    between atoms: N_2  and  C1_3 
ROOT
ATOM      1  C1  UNL d   1      -0.179   0.241   0.508  0.00  0.00     0.143 A 
ATOM      2  C2  UNL d   1      -0.189   0.468   1.888  0.00  0.00    -0.057 A 
ATOM      3  C3  UNL d   1      -1.059   1.402   2.464  0.00  0.00     0.033 A 
ATOM      4  C4  UNL d   1      -1.917   2.148   1.664  0.00  0.00    -0.042 A 
ATOM      5  C5  UNL d   1      -1.906   1.958   0.286  0.00  0.00     0.033 A 
ATOM      6  C6  UNL d   1      -1.040   1.019  -0.282  0.00  0.00    -0.057 A 
ENDROOT
BRANCH   1   7
ATOM      7  N   UNL d   1       0.731  -0.601  -0.135  0.00  0.00    -0.732 N 
ATOM      8  C   UNL d   1       0.277  -1.572  -1.108  0.00  0.00     0.284 C 
ATOM      9  H3  UNL d   1       1.588  -0.120  -0.398  0.00  0.00     0.395 HD
ENDBRANCH   1   7
TORSDOF 1
ENDMDL
