MODEL 1
REMARK minimizedAffinity -2.23871636
REMARK minimizedRMSD -1
REMARK  1 active torsions:
REMARK  status: ('A' for Active; 'I' for Inactive)
REMARK    1  A    between atoms: N_2  and  C1_3 
ROOT
ATOM      1  C1  UNL d   1       0.446   1.093  -0.420  0.00  0.00     0.143 A 
ATOM      2  C2  UNL d   1       0.745  -0.273  -0.377  0.00  0.00    -0.057 A 
ATOM      3  C3  UNL d   1       0.275  -1.087   0.661  0.00  0.00     0.033 A 
ATOM      4  C4  UNL d   1      -0.481  -0.541   1.693  0.00  0.00    -0.042 A 
ATOM      5  C5  UNL d   1      -0.769   0.819   1.684  0.00  0.00     0.033 A 
ATOM      6  C6  UNL d   1      -0.303   1.625   0.642  0.00  0.00    -0.057 A 
ENDROOT
BRANCH   1   7
ATOM      7  N   UNL d   1       0.966   1.973  -1.372  0.00  0.00    -0.732 N 
ATOM      8  C   UNL d   1       0.195   3.112  -1.822  0.00  0.00     0.284 C 
ATOM      9  H3  UNL d   1       1.952   2.173  -1.218  0.00  0.00     0.395 HD
ENDBRANCH   1   7
TORSDOF 1
ENDMDL
