MODEL 1
REMARK minimizedAffinity -5.15566349
REMARK minimizedRMSD -1
REMARK  1 active torsions:
REMARK  status: ('A' for Active; 'I' for Inactive)
REMARK    1  A    between atoms: N_2  and  C1_3 
ROOT
ATOM      1  C1  UNL d   1      -0.182   0.361   0.310  0.00  0.00     0.143 A 
ATOM      2  C2  UNL d   1      -0.367   0.119   1.676  0.00  0.00    -0.057 A 
ATOM      3  C3  UNL d   1      -1.134   0.981   2.469  0.00  0.00     0.033 A 
ATOM      4  C4  UNL d   1      -1.707   2.120   1.914  0.00  0.00    -0.042 A 
ATOM      5  C5  UNL d   1      -1.516   2.394   0.564  0.00  0.00     0.033 A 
ATOM      6  C6  UNL d   1      -0.754   1.526  -0.224  0.00  0.00    -0.057 A 
ENDROOT
BRANCH   1   7
ATOM      7  N   UNL d   1       0.651  -0.405  -0.510  0.00  0.00    -0.732 N 
ATOM      8  C   UNL d   1       2.009  -0.703  -0.108  0.00  0.00     0.284 C 
ATOM      9  H3  UNL d   1       0.161  -1.188  -0.936  0.00  0.00     0.395 HD
ENDBRANCH   1   7
TORSDOF 1
ENDMDL
