MODEL 1
REMARK minimizedAffinity -3.85475206
REMARK minimizedRMSD -1
REMARK  1 active torsions:
REMARK  status: ('A' for Active; 'I' for Inactive)
REMARK    1  A    between atoms: N_2  and  C1_3 
ROOT
ATOM      1  C1  UNL d   1      -0.010   0.252   0.153  0.00  0.00     0.143 A 
ATOM      2  C2  UNL d   1      -0.512  -0.155   1.393  0.00  0.00    -0.057 A 
ATOM      3  C3  UNL d   1      -1.499   0.586   2.056  0.00  0.00     0.033 A 
ATOM      4  C4  UNL d   1      -1.981   1.766   1.500  0.00  0.00    -0.042 A 
ATOM      5  C5  UNL d   1      -1.479   2.203   0.279  0.00  0.00     0.033 A 
ATOM      6  C6  UNL d   1      -0.499   1.455  -0.380  0.00  0.00    -0.057 A 
ENDROOT
BRANCH   1   7
ATOM      7  N   UNL d   1       1.040  -0.388  -0.509  0.00  0.00    -0.732 N 
ATOM      8  C   UNL d   1       0.776  -1.431  -1.477  0.00  0.00     0.284 C 
ATOM      9  H3  UNL d   1       1.777   0.258  -0.785  0.00  0.00     0.395 HD
ENDBRANCH   1   7
TORSDOF 1
ENDMDL
