MODEL 1
REMARK minimizedAffinity -4.54812002
REMARK minimizedRMSD -1
REMARK  1 active torsions:
REMARK  status: ('A' for Active; 'I' for Inactive)
REMARK    1  A    between atoms: N_2  and  C1_3 
ROOT
ATOM      1  C1  UNL d   1      -0.848   1.223   0.671  0.00  0.00     0.143 A 
ATOM      2  C2  UNL d   1      -0.260  -0.027   0.889  0.00  0.00    -0.057 A 
ATOM      3  C3  UNL d   1       0.862  -0.438   0.160  0.00  0.00     0.033 A 
ATOM      4  C4  UNL d   1       1.400   0.385  -0.824  0.00  0.00    -0.042 A 
ATOM      5  C5  UNL d   1       0.816   1.622  -1.075  0.00  0.00     0.033 A 
ATOM      6  C6  UNL d   1      -0.300   2.030  -0.339  0.00  0.00    -0.057 A 
ENDROOT
BRANCH   1   7
ATOM      7  N   UNL d   1      -2.024   1.649   1.295  0.00  0.00    -0.732 N 
ATOM      8  C   UNL d   1      -2.258   3.055   1.545  0.00  0.00     0.284 C 
ATOM      9  H3  UNL d   1      -2.843   1.143   0.965  0.00  0.00     0.395 HD
ENDBRANCH   1   7
TORSDOF 1
ENDMDL
