MODEL 1
REMARK minimizedAffinity 1.17782223
REMARK minimizedRMSD -1
REMARK  0 active torsions:
REMARK  status: ('A' for Active; 'I' for Inactive)
ROOT
ATOM      1  C   UNL d   1       3.179  -0.629   1.226  0.00  0.00     0.172 C 
ATOM      2  N   UNL d   1       1.972  -0.421   0.461  0.00  0.00    -0.070 N 
ATOM      3  C1  UNL d   1       0.789  -1.088   0.640  0.00  0.00    -0.004 A 
ATOM      4  C2  UNL d   1      -0.113  -0.602  -0.282  0.00  0.00    -0.047 A 
ATOM      5  C3  UNL d   1       0.551   0.391  -1.041  0.00  0.00    -0.047 A 
ATOM      6  C4  UNL d   1       1.840   0.483  -0.560  0.00  0.00    -0.004 A 
ENDROOT
TORSDOF 0
ENDMDL
