MODEL 1
REMARK minimizedAffinity 1.34864032
REMARK minimizedRMSD -1
REMARK  0 active torsions:
REMARK  status: ('A' for Active; 'I' for Inactive)
ROOT
ATOM      1  C   UNL d   1      -2.765  -1.273   3.766  0.00  0.00     0.172 C 
ATOM      2  N   UNL d   1      -2.242  -0.144   3.034  0.00  0.00    -0.070 N 
ATOM      3  C1  UNL d   1      -1.172   0.625   3.410  0.00  0.00    -0.004 A 
ATOM      4  C2  UNL d   1      -0.993   1.596   2.449  0.00  0.00    -0.047 A 
ATOM      5  C3  UNL d   1      -1.989   1.405   1.462  0.00  0.00    -0.047 A 
ATOM      6  C4  UNL d   1      -2.749   0.322   1.850  0.00  0.00    -0.004 A 
ENDROOT
TORSDOF 0
ENDMDL
