MODEL 1
REMARK minimizedAffinity -0.22489208
REMARK minimizedRMSD -1
REMARK  0 active torsions:
REMARK  status: ('A' for Active; 'I' for Inactive)
ROOT
ATOM      1  C   UNL d   1      -1.986   0.845   4.008  0.00  0.00     0.172 C 
ATOM      2  N   UNL d   1      -2.011   0.688   2.572  0.00  0.00    -0.070 N 
ATOM      3  C1  UNL d   1      -1.277  -0.219   1.856  0.00  0.00    -0.004 A 
ATOM      4  C2  UNL d   1      -1.583  -0.051   0.523  0.00  0.00    -0.047 A 
ATOM      5  C3  UNL d   1      -2.533   0.994   0.435  0.00  0.00    -0.047 A 
ATOM      6  C4  UNL d   1      -2.780   1.434   1.718  0.00  0.00    -0.004 A 
ENDROOT
TORSDOF 0
ENDMDL
