MODEL 1
REMARK minimizedAffinity 0.0402828939
REMARK minimizedRMSD -1
REMARK  0 active torsions:
REMARK  status: ('A' for Active; 'I' for Inactive)
ROOT
ATOM      1  C   UNL d   1      -0.278  -1.561  -4.096  0.00  0.00     0.172 C 
ATOM      2  N   UNL d   1      -0.646  -2.900  -4.493  0.00  0.00    -0.070 N 
ATOM      3  C1  UNL d   1       0.143  -3.768  -5.199  0.00  0.00    -0.004 A 
ATOM      4  C2  UNL d   1      -0.567  -4.936  -5.375  0.00  0.00    -0.047 A 
ATOM      5  C3  UNL d   1      -1.827  -4.763  -4.754  0.00  0.00    -0.047 A 
ATOM      6  C4  UNL d   1      -1.849  -3.494  -4.216  0.00  0.00    -0.004 A 
ENDROOT
TORSDOF 0
ENDMDL
