MODEL 1
REMARK minimizedAffinity -0.690382063
REMARK minimizedRMSD -1
REMARK  0 active torsions:
REMARK  status: ('A' for Active; 'I' for Inactive)
ROOT
ATOM      1  C   UNL d   1      -3.956   0.807  -0.711  0.00  0.00     0.172 C 
ATOM      2  N   UNL d   1      -3.238   0.373   0.464  0.00  0.00    -0.070 N 
ATOM      3  C1  UNL d   1      -2.736   1.191   1.441  0.00  0.00    -0.004 A 
ATOM      4  C2  UNL d   1      -2.123   0.396   2.385  0.00  0.00    -0.047 A 
ATOM      5  C3  UNL d   1      -2.260  -0.947   1.960  0.00  0.00    -0.047 A 
ATOM      6  C4  UNL d   1      -2.954  -0.933   0.769  0.00  0.00    -0.004 A 
ENDROOT
TORSDOF 0
ENDMDL
