MODEL 1
REMARK minimizedAffinity 3.15864539
REMARK minimizedRMSD -1
REMARK  0 active torsions:
REMARK  status: ('A' for Active; 'I' for Inactive)
ROOT
ATOM      1  C   UNL d   1      -2.279   1.829   2.021  0.00  0.00     0.172 C 
ATOM      2  N   UNL d   1      -2.626   0.488   2.430  0.00  0.00    -0.070 N 
ATOM      3  C1  UNL d   1      -1.947  -0.651   2.089  0.00  0.00    -0.004 A 
ATOM      4  C2  UNL d   1      -2.591  -1.719   2.677  0.00  0.00    -0.047 A 
ATOM      5  C3  UNL d   1      -3.696  -1.203   3.395  0.00  0.00    -0.047 A 
ATOM      6  C4  UNL d   1      -3.694   0.165   3.226  0.00  0.00    -0.004 A 
ENDROOT
TORSDOF 0
ENDMDL
