MODEL 1
REMARK minimizedAffinity 0.495919168
REMARK minimizedRMSD -1
REMARK  0 active torsions:
REMARK  status: ('A' for Active; 'I' for Inactive)
ROOT
ATOM      1  C   UNL d   1      -1.478  -2.895  -2.337  0.00  0.00     0.172 C 
ATOM      2  N   UNL d   1      -1.282  -3.742  -3.491  0.00  0.00    -0.070 N 
ATOM      3  C1  UNL d   1      -0.078  -4.026  -4.077  0.00  0.00    -0.004 A 
ATOM      4  C2  UNL d   1      -0.316  -4.866  -5.144  0.00  0.00    -0.047 A 
ATOM      5  C3  UNL d   1      -1.712  -5.093  -5.201  0.00  0.00    -0.047 A 
ATOM      6  C4  UNL d   1      -2.286  -4.385  -4.166  0.00  0.00    -0.004 A 
ENDROOT
TORSDOF 0
ENDMDL
