MODEL 1
REMARK minimizedAffinity -5.30968523
REMARK minimizedRMSD -1
REMARK  2 active torsions:
REMARK  status: ('A' for Active; 'I' for Inactive)
REMARK    1  A    between atoms: C1_2  and  C2_3 
REMARK    2  A    between atoms: C2_3  and  C3_4 
ROOT
ATOM      1  C3  UNL d   1       0.501  -0.383   0.213  0.00  0.00    -0.075 A 
ATOM      2  C4  UNL d   1      -0.414  -0.869   1.158  0.00  0.00     0.002 A 
ATOM      3  C5  UNL d   1      -0.127  -2.017   1.896  0.00  0.00     0.002 A 
ATOM      4  C6  UNL d   1       1.071  -2.699   1.692  0.00  0.00    -0.004 A 
ATOM      5  C7  UNL d   1       1.980  -2.234   0.744  0.00  0.00     0.002 A 
ATOM      6  C8  UNL d   1       1.697  -1.083   0.007  0.00  0.00     0.002 A 
ENDROOT
BRANCH   1   7
ATOM      7  C2  UNL d   1       0.209   0.876  -0.568  0.00  0.00     0.056 C 
BRANCH   7   8
ATOM      8  C1  UNL d   1      -1.244   1.353  -0.464  0.00  0.00     0.007 C 
ATOM      9  C   UNL d   1      -1.815   1.833  -1.792  0.00  0.00     0.009 C 
ENDBRANCH   7   8
ENDBRANCH   1   7
TORSDOF 2
ENDMDL
