MODEL 1
REMARK minimizedAffinity -5.89054823
REMARK minimizedRMSD -1
REMARK  2 active torsions:
REMARK  status: ('A' for Active; 'I' for Inactive)
REMARK    1  A    between atoms: C1_2  and  C2_3 
REMARK    2  A    between atoms: C2_3  and  C3_4 
ROOT
ATOM      1  C3  UNL d   1       0.452  -0.778   0.505  0.00  0.00    -0.075 A 
ATOM      2  C4  UNL d   1      -0.579  -1.145   1.382  0.00  0.00     0.002 A 
ATOM      3  C5  UNL d   1      -0.414  -2.217   2.260  0.00  0.00     0.002 A 
ATOM      4  C6  UNL d   1       0.778  -2.939   2.266  0.00  0.00    -0.004 A 
ATOM      5  C7  UNL d   1       1.802  -2.593   1.388  0.00  0.00     0.002 A 
ATOM      6  C8  UNL d   1       1.641  -1.518   0.511  0.00  0.00     0.002 A 
ENDROOT
BRANCH   1   7
ATOM      7  C2  UNL d   1       0.290   0.399  -0.428  0.00  0.00     0.056 C 
BRANCH   7   8
ATOM      8  C1  UNL d   1      -1.006   1.188  -0.217  0.00  0.00     0.007 C 
ATOM      9  C   UNL d   1      -1.705   1.556  -1.519  0.00  0.00     0.009 C 
ENDBRANCH   7   8
ENDBRANCH   1   7
TORSDOF 2
ENDMDL
