MODEL 1
REMARK minimizedAffinity -5.06149149
REMARK minimizedRMSD -1
REMARK  2 active torsions:
REMARK  status: ('A' for Active; 'I' for Inactive)
REMARK    1  A    between atoms: C1_2  and  C2_3 
REMARK    2  A    between atoms: C2_3  and  C3_4 
ROOT
ATOM      1  C3  UNL d   1      -0.300  -0.261   0.321  0.00  0.00    -0.075 A 
ATOM      2  C4  UNL d   1      -1.204  -0.354   1.389  0.00  0.00     0.002 A 
ATOM      3  C5  UNL d   1      -1.058  -1.349   2.356  0.00  0.00     0.002 A 
ATOM      4  C6  UNL d   1      -0.015  -2.267   2.263  0.00  0.00    -0.004 A 
ATOM      5  C7  UNL d   1       0.880  -2.195   1.197  0.00  0.00     0.002 A 
ATOM      6  C8  UNL d   1       0.739  -1.198   0.231  0.00  0.00     0.002 A 
ENDROOT
BRANCH   1   7
ATOM      7  C2  UNL d   1      -0.435   0.831  -0.713  0.00  0.00     0.056 C 
BRANCH   7   8
ATOM      8  C1  UNL d   1      -1.816   0.898  -1.373  0.00  0.00     0.007 C 
ATOM      9  C   UNL d   1      -1.868   1.847  -2.563  0.00  0.00     0.009 C 
ENDBRANCH   7   8
ENDBRANCH   1   7
TORSDOF 2
ENDMDL
