MODEL 1
REMARK minimizedAffinity -6.18121767
REMARK minimizedRMSD -1
REMARK  2 active torsions:
REMARK  status: ('A' for Active; 'I' for Inactive)
REMARK    1  A    between atoms: C1_2  and  C2_3 
REMARK    2  A    between atoms: C2_3  and  C3_4 
ROOT
ATOM      1  C3  UNL d   1       0.017  -0.016   0.129  0.00  0.00    -0.075 A 
ATOM      2  C4  UNL d   1       1.410  -0.009  -0.028  0.00  0.00     0.002 A 
ATOM      3  C5  UNL d   1       2.185  -1.055   0.475  0.00  0.00     0.002 A 
ATOM      4  C6  UNL d   1       1.580  -2.113   1.148  0.00  0.00    -0.004 A 
ATOM      5  C7  UNL d   1       0.198  -2.123   1.325  0.00  0.00     0.002 A 
ATOM      6  C8  UNL d   1      -0.580  -1.080   0.819  0.00  0.00     0.002 A 
ENDROOT
BRANCH   1   7
ATOM      7  C2  UNL d   1      -0.830   1.097  -0.438  0.00  0.00     0.056 C 
BRANCH   7   8
ATOM      8  C1  UNL d   1      -1.799   0.647  -1.536  0.00  0.00     0.007 C 
ATOM      9  C   UNL d   1      -2.002   1.692  -2.624  0.00  0.00     0.009 C 
ENDBRANCH   7   8
ENDBRANCH   1   7
TORSDOF 2
ENDMDL
