MODEL 1
REMARK minimizedAffinity -3.94287634
REMARK minimizedRMSD -1
REMARK  2 active torsions:
REMARK  status: ('A' for Active; 'I' for Inactive)
REMARK    1  A    between atoms: C1_2  and  C2_3 
REMARK    2  A    between atoms: C2_3  and  C3_4 
ROOT
ATOM      1  C3  UNL d   1      -0.732  -0.608   1.003  0.00  0.00    -0.075 A 
ATOM      2  C4  UNL d   1      -1.353  -0.963   2.209  0.00  0.00     0.002 A 
ATOM      3  C5  UNL d   1      -0.873  -2.034   2.964  0.00  0.00     0.002 A 
ATOM      4  C6  UNL d   1       0.224  -2.768   2.519  0.00  0.00    -0.004 A 
ATOM      5  C7  UNL d   1       0.839  -2.434   1.314  0.00  0.00     0.002 A 
ATOM      6  C8  UNL d   1       0.364  -1.360   0.559  0.00  0.00     0.002 A 
ENDROOT
BRANCH   1   7
ATOM      7  C2  UNL d   1      -1.228   0.568   0.196  0.00  0.00     0.056 C 
BRANCH   7   8
ATOM      8  C1  UNL d   1      -0.121   1.333  -0.537  0.00  0.00     0.007 C 
ATOM      9  C   UNL d   1      -0.646   2.232  -1.649  0.00  0.00     0.009 C 
ENDBRANCH   7   8
ENDBRANCH   1   7
TORSDOF 2
ENDMDL
