MODEL 1
REMARK minimizedAffinity -5.8644681
REMARK minimizedRMSD -1
REMARK  2 active torsions:
REMARK  status: ('A' for Active; 'I' for Inactive)
REMARK    1  A    between atoms: C1_2  and  C2_3 
REMARK    2  A    between atoms: C2_3  and  C3_4 
ROOT
ATOM      1  C3  UNL d   1      -0.204  -0.492   0.217  0.00  0.00    -0.075 A 
ATOM      2  C4  UNL d   1      -0.915  -0.636   1.418  0.00  0.00     0.002 A 
ATOM      3  C5  UNL d   1      -0.611  -1.673   2.300  0.00  0.00     0.002 A 
ATOM      4  C6  UNL d   1       0.397  -2.584   1.990  0.00  0.00    -0.004 A 
ATOM      5  C7  UNL d   1       1.098  -2.460   0.792  0.00  0.00     0.002 A 
ATOM      6  C8  UNL d   1       0.799  -1.420  -0.090  0.00  0.00     0.002 A 
ENDROOT
BRANCH   1   7
ATOM      7  C2  UNL d   1      -0.508   0.646  -0.728  0.00  0.00     0.056 C 
BRANCH   7   8
ATOM      8  C1  UNL d   1      -1.833   0.493  -1.483  0.00  0.00     0.007 C 
ATOM      9  C   UNL d   1      -1.951   1.423  -2.683  0.00  0.00     0.009 C 
ENDBRANCH   7   8
ENDBRANCH   1   7
TORSDOF 2
ENDMDL
