MODEL 1
REMARK minimizedAffinity -5.69160271
REMARK minimizedRMSD -1
REMARK  2 active torsions:
REMARK  status: ('A' for Active; 'I' for Inactive)
REMARK    1  A    between atoms: C1_2  and  C2_3 
REMARK    2  A    between atoms: C2_3  and  C3_4 
ROOT
ATOM      1  C3  UNL d   1       0.077   0.087   0.065  0.00  0.00    -0.075 A 
ATOM      2  C4  UNL d   1      -0.599  -0.914   0.777  0.00  0.00     0.002 A 
ATOM      3  C5  UNL d   1       0.057  -2.091   1.138  0.00  0.00     0.002 A 
ATOM      4  C6  UNL d   1       1.390  -2.287   0.784  0.00  0.00    -0.004 A 
ATOM      5  C7  UNL d   1       2.066  -1.305   0.062  0.00  0.00     0.002 A 
ATOM      6  C8  UNL d   1       1.414  -0.125  -0.297  0.00  0.00     0.002 A 
ENDROOT
BRANCH   1   7
ATOM      7  C2  UNL d   1      -0.619   1.376  -0.303  0.00  0.00     0.056 C 
BRANCH   7   8
ATOM      8  C1  UNL d   1      -1.912   1.181  -1.101  0.00  0.00     0.007 C 
ATOM      9  C   UNL d   1      -1.946   1.982  -2.396  0.00  0.00     0.009 C 
ENDBRANCH   7   8
ENDBRANCH   1   7
TORSDOF 2
ENDMDL
