MODEL 1
REMARK minimizedAffinity -5.9689002
REMARK minimizedRMSD -1
REMARK  2 active torsions:
REMARK  status: ('A' for Active; 'I' for Inactive)
REMARK    1  A    between atoms: C1_2  and  C2_3 
REMARK    2  A    between atoms: C2_3  and  C3_4 
ROOT
ATOM      1  C3  UNL d   1       0.709  -0.814   0.438  0.00  0.00    -0.075 A 
ATOM      2  C4  UNL d   1      -0.104  -1.072   1.551  0.00  0.00     0.002 A 
ATOM      3  C5  UNL d   1       0.060  -2.243   2.293  0.00  0.00     0.002 A 
ATOM      4  C6  UNL d   1       1.029  -3.173   1.925  0.00  0.00    -0.004 A 
ATOM      5  C7  UNL d   1       1.831  -2.935   0.811  0.00  0.00     0.002 A 
ATOM      6  C8  UNL d   1       1.672  -1.763   0.071  0.00  0.00     0.002 A 
ENDROOT
BRANCH   1   7
ATOM      7  C2  UNL d   1       0.556   0.464  -0.350  0.00  0.00     0.056 C 
BRANCH   7   8
ATOM      8  C1  UNL d   1      -0.764   1.200  -0.097  0.00  0.00     0.007 C 
ATOM      9  C   UNL d   1      -1.436   1.684  -1.375  0.00  0.00     0.009 C 
ENDBRANCH   7   8
ENDBRANCH   1   7
TORSDOF 2
ENDMDL
