MODEL 1
REMARK minimizedAffinity -5.92933178
REMARK minimizedRMSD -1
REMARK  2 active torsions:
REMARK  status: ('A' for Active; 'I' for Inactive)
REMARK    1  A    between atoms: C1_2  and  C2_3 
REMARK    2  A    between atoms: C2_3  and  C3_4 
ROOT
ATOM      1  C3  UNL d   1      -0.046  -0.544   0.829  0.00  0.00    -0.075 A 
ATOM      2  C4  UNL d   1      -0.545  -1.405   1.817  0.00  0.00     0.002 A 
ATOM      3  C5  UNL d   1       0.226  -2.470   2.284  0.00  0.00     0.002 A 
ATOM      4  C6  UNL d   1       1.499  -2.693   1.764  0.00  0.00    -0.004 A 
ATOM      5  C7  UNL d   1       1.998  -1.854   0.770  0.00  0.00     0.002 A 
ATOM      6  C8  UNL d   1       1.231  -0.785   0.304  0.00  0.00     0.002 A 
ENDROOT
BRANCH   1   7
ATOM      7  C2  UNL d   1      -0.863   0.628   0.341  0.00  0.00     0.056 C 
BRANCH   7   8
ATOM      8  C1  UNL d   1      -0.419   1.174  -1.020  0.00  0.00     0.007 C 
ATOM      9  C   UNL d   1      -1.584   1.558  -1.923  0.00  0.00     0.009 C 
ENDBRANCH   7   8
ENDBRANCH   1   7
TORSDOF 2
ENDMDL
