MODEL 1
REMARK minimizedAffinity -4.63328123
REMARK minimizedRMSD -1
REMARK  2 active torsions:
REMARK  status: ('A' for Active; 'I' for Inactive)
REMARK    1  A    between atoms: C1_2  and  C2_3 
REMARK    2  A    between atoms: C2_3  and  C3_4 
ROOT
ATOM      1  C3  UNL d   1       0.739  -1.233   0.492  0.00  0.00    -0.075 A 
ATOM      2  C4  UNL d   1       1.779  -0.845  -0.365  0.00  0.00     0.002 A 
ATOM      3  C5  UNL d   1       1.683   0.332  -1.108  0.00  0.00     0.002 A 
ATOM      4  C6  UNL d   1       0.543   1.128  -1.013  0.00  0.00    -0.004 A 
ATOM      5  C7  UNL d   1      -0.503   0.743  -0.178  0.00  0.00     0.002 A 
ATOM      6  C8  UNL d   1      -0.407  -0.431   0.571  0.00  0.00     0.002 A 
ENDROOT
BRANCH   1   7
ATOM      7  C2  UNL d   1       0.850  -2.490   1.322  0.00  0.00     0.056 C 
BRANCH   7   8
ATOM      8  C1  UNL d   1       0.512  -2.291   2.803  0.00  0.00     0.007 C 
ATOM      9  C   UNL d   1      -0.985  -2.288   3.082  0.00  0.00     0.009 C 
ENDBRANCH   7   8
ENDBRANCH   1   7
TORSDOF 2
ENDMDL
