MODEL 1
REMARK minimizedAffinity -6.1831398
REMARK minimizedRMSD -1
REMARK  2 active torsions:
REMARK  status: ('A' for Active; 'I' for Inactive)
REMARK    1  A    between atoms: C1_2  and  C2_3 
REMARK    2  A    between atoms: C2_3  and  C3_4 
ROOT
ATOM      1  C3  UNL d   1       0.366  -0.289  -0.127  0.00  0.00    -0.075 A 
ATOM      2  C4  UNL d   1      -0.420  -0.953   0.826  0.00  0.00     0.002 A 
ATOM      3  C5  UNL d   1       0.073  -2.074   1.495  0.00  0.00     0.002 A 
ATOM      4  C6  UNL d   1       1.351  -2.551   1.212  0.00  0.00    -0.004 A 
ATOM      5  C7  UNL d   1       2.134  -1.909   0.255  0.00  0.00     0.002 A 
ATOM      6  C8  UNL d   1       1.645  -0.785  -0.412  0.00  0.00     0.002 A 
ENDROOT
BRANCH   1   7
ATOM      7  C2  UNL d   1      -0.150   0.942  -0.833  0.00  0.00     0.056 C 
BRANCH   7   8
ATOM      8  C1  UNL d   1      -1.674   1.093  -0.789  0.00  0.00     0.007 C 
ATOM      9  C   UNL d   1      -2.272   1.537  -2.117  0.00  0.00     0.009 C 
ENDBRANCH   7   8
ENDBRANCH   1   7
TORSDOF 2
ENDMDL
