MODEL 1
REMARK minimizedAffinity -5.71461248
REMARK minimizedRMSD -1
REMARK  2 active torsions:
REMARK  status: ('A' for Active; 'I' for Inactive)
REMARK    1  A    between atoms: C1_2  and  C2_3 
REMARK    2  A    between atoms: C2_3  and  C3_4 
ROOT
ATOM      1  C3  UNL d   1       0.215  -0.366   0.524  0.00  0.00    -0.075 A 
ATOM      2  C4  UNL d   1      -0.337  -1.217   1.492  0.00  0.00     0.002 A 
ATOM      3  C5  UNL d   1       0.380  -2.322   1.955  0.00  0.00     0.002 A 
ATOM      4  C6  UNL d   1       1.648  -2.595   1.448  0.00  0.00    -0.004 A 
ATOM      5  C7  UNL d   1       2.199  -1.765   0.474  0.00  0.00     0.002 A 
ATOM      6  C8  UNL d   1       1.486  -0.657   0.013  0.00  0.00     0.002 A 
ENDROOT
BRANCH   1   7
ATOM      7  C2  UNL d   1      -0.543   0.848   0.041  0.00  0.00     0.056 C 
BRANCH   7   8
ATOM      8  C1  UNL d   1      -0.744   0.894  -1.478  0.00  0.00     0.007 C 
ATOM      9  C   UNL d   1      -1.549   2.101  -1.940  0.00  0.00     0.009 C 
ENDBRANCH   7   8
ENDBRANCH   1   7
TORSDOF 2
ENDMDL
