MODEL 1
REMARK minimizedAffinity -4.06601715
REMARK minimizedRMSD -1
REMARK  0 active torsions:
REMARK  status: ('A' for Active; 'I' for Inactive)
ROOT
ATOM      1  C   UNL d   1      -0.878   1.838   1.957  0.00  0.00     0.078 C 
ATOM      2  C1  UNL d   1      -0.301   1.205   0.725  0.00  0.00    -0.077 A 
ATOM      3  C2  UNL d   1      -0.384   1.843  -0.519  0.00  0.00    -0.001 A 
ATOM      4  C3  UNL d   1       0.149   1.238  -1.658  0.00  0.00     0.003 A 
ATOM      5  C4  UNL d   1       0.766  -0.008  -1.566  0.00  0.00    -0.005 A 
ATOM      6  C5  UNL d   1       0.850  -0.651  -0.333  0.00  0.00     0.003 A 
ATOM      7  C6  UNL d   1       0.319  -0.048   0.808  0.00  0.00    -0.001 A 
ENDROOT
TORSDOF 0
ENDMDL
