MODEL 1
REMARK minimizedAffinity -4.10612535
REMARK minimizedRMSD -1
REMARK  0 active torsions:
REMARK  status: ('A' for Active; 'I' for Inactive)
ROOT
ATOM      1  C   UNL d   1      -1.509   1.807   1.326  0.00  0.00     0.078 C 
ATOM      2  C1  UNL d   1      -0.707   1.113   0.266  0.00  0.00    -0.077 A 
ATOM      3  C2  UNL d   1       0.080  -0.004   0.573  0.00  0.00    -0.001 A 
ATOM      4  C3  UNL d   1       0.829  -0.634  -0.422  0.00  0.00     0.003 A 
ATOM      5  C4  UNL d   1       0.801  -0.154  -1.730  0.00  0.00    -0.005 A 
ATOM      6  C5  UNL d   1       0.023   0.959  -2.044  0.00  0.00     0.003 A 
ATOM      7  C6  UNL d   1      -0.728   1.590  -1.050  0.00  0.00    -0.001 A 
ENDROOT
TORSDOF 0
ENDMDL
