MODEL 1
REMARK minimizedAffinity -5.59982395
REMARK minimizedRMSD -1
REMARK  0 active torsions:
REMARK  status: ('A' for Active; 'I' for Inactive)
ROOT
ATOM      1  C   UNL d   1      -1.543   1.956   1.694  0.00  0.00     0.078 C 
ATOM      2  C1  UNL d   1      -0.458   1.053   1.187  0.00  0.00    -0.077 A 
ATOM      3  C2  UNL d   1      -0.423   0.650  -0.153  0.00  0.00    -0.001 A 
ATOM      4  C3  UNL d   1       0.588  -0.198  -0.609  0.00  0.00     0.003 A 
ATOM      5  C4  UNL d   1       1.570  -0.651   0.269  0.00  0.00    -0.005 A 
ATOM      6  C5  UNL d   1       1.542  -0.257   1.606  0.00  0.00     0.003 A 
ATOM      7  C6  UNL d   1       0.532   0.591   2.063  0.00  0.00    -0.001 A 
ENDROOT
TORSDOF 0
ENDMDL
