MODEL 1
REMARK minimizedAffinity -2.91489697
REMARK minimizedRMSD -1
REMARK  0 active torsions:
REMARK  status: ('A' for Active; 'I' for Inactive)
ROOT
ATOM      1  C   UNL d   1      -0.619   2.707   1.787  0.00  0.00     0.078 C 
ATOM      2  C1  UNL d   1      -0.391   1.467   0.974  0.00  0.00    -0.077 A 
ATOM      3  C2  UNL d   1      -0.514   1.487  -0.420  0.00  0.00    -0.001 A 
ATOM      4  C3  UNL d   1      -0.309   0.323  -1.163  0.00  0.00     0.003 A 
ATOM      5  C4  UNL d   1       0.021  -0.869  -0.520  0.00  0.00    -0.005 A 
ATOM      6  C5  UNL d   1       0.144  -0.898   0.867  0.00  0.00     0.003 A 
ATOM      7  C6  UNL d   1      -0.062   0.265   1.612  0.00  0.00    -0.001 A 
ENDROOT
TORSDOF 0
ENDMDL
