MODEL 1
REMARK minimizedAffinity -5.98679686
REMARK minimizedRMSD -1
REMARK  0 active torsions:
REMARK  status: ('A' for Active; 'I' for Inactive)
ROOT
ATOM      1  C   UNL d   1      -1.337   2.501   1.472  0.00  0.00     0.078 C 
ATOM      2  C1  UNL d   1      -0.602   1.521   0.608  0.00  0.00    -0.077 A 
ATOM      3  C2  UNL d   1      -0.664   1.601  -0.788  0.00  0.00    -0.001 A 
ATOM      4  C3  UNL d   1       0.018   0.676  -1.580  0.00  0.00     0.003 A 
ATOM      5  C4  UNL d   1       0.767  -0.337  -0.984  0.00  0.00    -0.005 A 
ATOM      6  C5  UNL d   1       0.833  -0.427   0.405  0.00  0.00     0.003 A 
ATOM      7  C6  UNL d   1       0.152   0.498   1.198  0.00  0.00    -0.001 A 
ENDROOT
TORSDOF 0
ENDMDL
