MODEL 1
REMARK minimizedAffinity -4.35029697
REMARK minimizedRMSD -1
REMARK  0 active torsions:
REMARK  status: ('A' for Active; 'I' for Inactive)
ROOT
ATOM      1  C   UNL d   1       0.128  -1.282  -0.141  0.00  0.00     0.078 C 
ATOM      2  C1  UNL d   1      -0.203   0.092   0.361  0.00  0.00    -0.077 A 
ATOM      3  C2  UNL d   1       0.392   0.599   1.522  0.00  0.00    -0.001 A 
ATOM      4  C3  UNL d   1       0.067   1.875   1.983  0.00  0.00     0.003 A 
ATOM      5  C4  UNL d   1      -0.856   2.656   1.289  0.00  0.00    -0.005 A 
ATOM      6  C5  UNL d   1      -1.455   2.159   0.133  0.00  0.00     0.003 A 
ATOM      7  C6  UNL d   1      -1.131   0.883  -0.329  0.00  0.00    -0.001 A 
ENDROOT
TORSDOF 0
ENDMDL
