MODEL 1
REMARK minimizedAffinity 0.802719772
REMARK minimizedRMSD -1
REMARK  0 active torsions:
REMARK  status: ('A' for Active; 'I' for Inactive)
ROOT
ATOM      1  C1  DEN d   1       3.007  -2.557   0.179  0.00  0.00     0.130 A 
ATOM      2  C2  DEN d   1       2.623  -3.922  -0.171  0.00  0.00    -0.031 A 
ATOM      3  C3  DEN d   1       1.206  -4.107   0.199  0.00  0.00     0.027 A 
ATOM      4  C4  DEN d   1      -0.425  -2.420   1.271  0.00  0.00     0.027 A 
ATOM      5  C5  DEN d   1      -0.553  -1.139   1.761  0.00  0.00    -0.003 A 
ATOM      6  C6  DEN d   1       0.496  -0.259   1.789  0.00  0.00     0.001 A 
ATOM      7  C7  DEN d   1       1.710  -0.634   1.276  0.00  0.00     0.017 A 
ATOM      8  C8  DEN d   1       1.850  -1.927   0.787  0.00  0.00    -0.094 A 
ATOM      9  C9  DEN d   1       0.773  -2.797   0.757  0.00  0.00    -0.072 A 
ENDROOT
TORSDOF 0
ENDMDL
