MODEL 1
REMARK minimizedAffinity 2.89470601
REMARK minimizedRMSD -1
REMARK  0 active torsions:
REMARK  status: ('A' for Active; 'I' for Inactive)
ROOT
ATOM      1  C1  DEN d   1       1.503  -0.258   0.941  0.00  0.00     0.130 A 
ATOM      2  C2  DEN d   1       0.347   0.251   1.673  0.00  0.00    -0.031 A 
ATOM      3  C3  DEN d   1      -0.452  -0.905   2.127  0.00  0.00     0.027 A 
ATOM      4  C4  DEN d   1      -0.009  -3.422   1.774  0.00  0.00     0.027 A 
ATOM      5  C5  DEN d   1       0.842  -4.342   1.204  0.00  0.00    -0.003 A 
ATOM      6  C6  DEN d   1       1.945  -3.969   0.484  0.00  0.00     0.001 A 
ATOM      7  C7  DEN d   1       2.252  -2.640   0.352  0.00  0.00     0.017 A 
ATOM      8  C8  DEN d   1       1.395  -1.706   0.918  0.00  0.00    -0.094 A 
ATOM      9  C9  DEN d   1       0.291  -2.104   1.653  0.00  0.00    -0.072 A 
ENDROOT
TORSDOF 0
ENDMDL
