MODEL 1
REMARK minimizedAffinity 5.05993605
REMARK minimizedRMSD -1
REMARK  0 active torsions:
REMARK  status: ('A' for Active; 'I' for Inactive)
ROOT
ATOM      1  C1  DEN d   1       3.138  -5.999   1.419  0.00  0.00     0.130 A 
ATOM      2  C2  DEN d   1       4.423  -5.958   0.726  0.00  0.00    -0.031 A 
ATOM      3  C3  DEN d   1       4.553  -4.634   0.084  0.00  0.00     0.027 A 
ATOM      4  C4  DEN d   1       2.901  -2.654   0.100  0.00  0.00     0.027 A 
ATOM      5  C5  DEN d   1       1.671  -2.222   0.545  0.00  0.00    -0.003 A 
ATOM      6  C6  DEN d   1       0.837  -3.023   1.278  0.00  0.00     0.001 A 
ATOM      7  C7  DEN d   1       1.241  -4.285   1.626  0.00  0.00     0.017 A 
ATOM      8  C8  DEN d   1       2.476  -4.731   1.175  0.00  0.00    -0.094 A 
ATOM      9  C9  DEN d   1       3.310  -3.901   0.445  0.00  0.00    -0.072 A 
ENDROOT
TORSDOF 0
ENDMDL
