MODEL 1
REMARK minimizedAffinity 4.41085434
REMARK minimizedRMSD -1
REMARK  0 active torsions:
REMARK  status: ('A' for Active; 'I' for Inactive)
ROOT
ATOM      1  C1  DEN d   1      -0.130  -0.790   1.736  0.00  0.00     0.130 A 
ATOM      2  C2  DEN d   1      -1.160  -1.465   2.521  0.00  0.00    -0.031 A 
ATOM      3  C3  DEN d   1      -0.957  -2.921   2.386  0.00  0.00     0.027 A 
ATOM      4  C4  DEN d   1       0.846  -4.190   1.047  0.00  0.00     0.027 A 
ATOM      5  C5  DEN d   1       1.932  -4.048   0.213  0.00  0.00    -0.003 A 
ATOM      6  C6  DEN d   1       2.383  -2.821  -0.196  0.00  0.00     0.001 A 
ATOM      7  C7  DEN d   1       1.772  -1.685   0.265  0.00  0.00     0.017 A 
ATOM      8  C8  DEN d   1       0.671  -1.821   1.101  0.00  0.00    -0.094 A 
ATOM      9  C9  DEN d   1       0.239  -3.070   1.513  0.00  0.00    -0.072 A 
ENDROOT
TORSDOF 0
ENDMDL
