MODEL 1
REMARK minimizedAffinity 6.44674635
REMARK minimizedRMSD -1
REMARK  0 active torsions:
REMARK  status: ('A' for Active; 'I' for Inactive)
ROOT
ATOM      1  C1  DEN d   1      -2.777   4.172   4.266  0.00  0.00     0.130 A 
ATOM      2  C2  DEN d   1      -2.941   5.313   5.162  0.00  0.00    -0.031 A 
ATOM      3  C3  DEN d   1      -4.132   5.068   6.000  0.00  0.00     0.027 A 
ATOM      4  C4  DEN d   1      -5.726   3.040   6.000  0.00  0.00     0.027 A 
ATOM      5  C5  DEN d   1      -5.999   1.827   5.407  0.00  0.00    -0.003 A 
ATOM      6  C6  DEN d   1      -5.244   1.330   4.378  0.00  0.00     0.001 A 
ATOM      7  C7  DEN d   1      -4.150   2.030   3.940  0.00  0.00     0.017 A 
ATOM      8  C8  DEN d   1      -3.873   3.257   4.528  0.00  0.00    -0.094 A 
ATOM      9  C9  DEN d   1      -4.642   3.736   5.575  0.00  0.00    -0.072 A 
ENDROOT
TORSDOF 0
ENDMDL
