MODEL 1
REMARK minimizedAffinity 5.35037136
REMARK minimizedRMSD -1
REMARK  0 active torsions:
REMARK  status: ('A' for Active; 'I' for Inactive)
ROOT
ATOM      1  C1  DEN d   1      -2.450   4.085   5.015  0.00  0.00     0.130 A 
ATOM      2  C2  DEN d   1      -2.869   5.331   5.651  0.00  0.00    -0.031 A 
ATOM      3  C3  DEN d   1      -4.299   5.207   6.000  0.00  0.00     0.027 A 
ATOM      4  C4  DEN d   1      -5.894   3.216   5.624  0.00  0.00     0.027 A 
ATOM      5  C5  DEN d   1      -5.998   1.942   5.111  0.00  0.00    -0.003 A 
ATOM      6  C6  DEN d   1      -4.944   1.311   4.504  0.00  0.00     0.001 A 
ATOM      7  C7  DEN d   1      -3.727   1.936   4.435  0.00  0.00     0.017 A 
ATOM      8  C8  DEN d   1      -3.617   3.223   4.944  0.00  0.00    -0.094 A 
ATOM      9  C9  DEN d   1      -4.690   3.839   5.565  0.00  0.00    -0.072 A 
ENDROOT
TORSDOF 0
ENDMDL
