MODEL 1
REMARK minimizedAffinity -4.45091915
REMARK minimizedRMSD -1
REMARK  0 active torsions:
REMARK  status: ('A' for Active; 'I' for Inactive)
ROOT
ATOM      1  C4' PXY d   1       1.177  -2.286  -1.639  0.00  0.00     0.077 C 
ATOM      2  C1' PXY d   1      -1.064   1.759   1.828  0.00  0.00     0.077 C 
ATOM      3  C1  PXY d   1      -0.470   0.708   0.912  0.00  0.00    -0.082 A 
ATOM      4  C2  PXY d   1      -1.097  -0.446   0.748  0.00  0.00     0.003 A 
ATOM      5  C3  PXY d   1      -0.557  -1.420  -0.052  0.00  0.00     0.003 A 
ATOM      6  C4  PXY d   1       0.609  -1.191  -0.732  0.00  0.00    -0.082 A 
ATOM      7  C5  PXY d   1       1.249  -0.013  -0.577  0.00  0.00     0.003 A 
ATOM      8  C6  PXY d   1       0.706   0.948   0.271  0.00  0.00     0.003 A 
ENDROOT
TORSDOF 0
ENDMDL
