MODEL 1
REMARK minimizedAffinity -1.47841203
REMARK minimizedRMSD -1
REMARK  0 active torsions:
REMARK  status: ('A' for Active; 'I' for Inactive)
ROOT
ATOM      1  C4' PXY d   1       1.528  -1.908  -1.118  0.00  0.00     0.077 C 
ATOM      2  C1' PXY d   1      -1.524   1.383   2.525  0.00  0.00     0.077 C 
ATOM      3  C1  PXY d   1      -0.717   0.515   1.580  0.00  0.00    -0.082 A 
ATOM      4  C2  PXY d   1      -0.564   0.888   0.320  0.00  0.00     0.003 A 
ATOM      5  C3  PXY d   1       0.136   0.098  -0.557  0.00  0.00     0.003 A 
ATOM      6  C4  PXY d   1       0.729  -1.058  -0.126  0.00  0.00    -0.082 A 
ATOM      7  C5  PXY d   1       0.586  -1.439   1.161  0.00  0.00     0.003 A 
ATOM      8  C6  PXY d   1      -0.162  -0.645   2.025  0.00  0.00     0.003 A 
ENDROOT
TORSDOF 0
ENDMDL
