MODEL 1
REMARK minimizedAffinity -2.23747349
REMARK minimizedRMSD -1
REMARK  0 active torsions:
REMARK  status: ('A' for Active; 'I' for Inactive)
ROOT
ATOM      1  C4' PXY d   1       0.405  -2.615  -2.311  0.00  0.00     0.077 C 
ATOM      2  C1' PXY d   1      -0.812   0.934   2.086  0.00  0.00     0.077 C 
ATOM      3  C1  PXY d   1      -0.487   0.013   0.927  0.00  0.00    -0.082 A 
ATOM      4  C2  PXY d   1      -1.233  -1.059   0.714  0.00  0.00     0.003 A 
ATOM      5  C3  PXY d   1      -0.933  -1.919  -0.310  0.00  0.00     0.003 A 
ATOM      6  C4  PXY d   1       0.108  -1.652  -1.158  0.00  0.00    -0.082 A 
ATOM      7  C5  PXY d   1       0.867  -0.554  -0.954  0.00  0.00     0.003 A 
ATOM      8  C6  PXY d   1       0.572   0.285   0.117  0.00  0.00     0.003 A 
ENDROOT
TORSDOF 0
ENDMDL
