MODEL 1
REMARK minimizedAffinity -1.41735888
REMARK minimizedRMSD -1
REMARK  0 active torsions:
REMARK  status: ('A' for Active; 'I' for Inactive)
ROOT
ATOM      1  C4' PXY d   1      -1.054   2.252   2.256  0.00  0.00     0.077 C 
ATOM      2  C1' PXY d   1       0.916  -1.800  -1.366  0.00  0.00     0.077 C 
ATOM      3  C1  PXY d   1       0.406  -0.728  -0.423  0.00  0.00    -0.082 A 
ATOM      4  C2  PXY d   1       0.028  -1.060   0.801  0.00  0.00     0.003 A 
ATOM      5  C3  PXY d   1      -0.466  -0.109   1.656  0.00  0.00     0.003 A 
ATOM      6  C4  PXY d   1      -0.523   1.205   1.273  0.00  0.00    -0.082 A 
ATOM      7  C5  PXY d   1      -0.129   1.553   0.030  0.00  0.00     0.003 A 
ATOM      8  C6  PXY d   1       0.331   0.566  -0.837  0.00  0.00     0.003 A 
ENDROOT
TORSDOF 0
ENDMDL
