MODEL 1
REMARK minimizedAffinity -4.18083429
REMARK minimizedRMSD -1
REMARK  0 active torsions:
REMARK  status: ('A' for Active; 'I' for Inactive)
ROOT
ATOM      1  C4' PXY d   1       1.142  -2.925  -3.021  0.00  0.00     0.077 C 
ATOM      2  C1' PXY d   1      -0.315   0.103   1.683  0.00  0.00     0.077 C 
ATOM      3  C1  PXY d   1       0.080  -0.689   0.451  0.00  0.00    -0.082 A 
ATOM      4  C2  PXY d   1      -0.800  -0.867  -0.521  0.00  0.00     0.003 A 
ATOM      5  C3  PXY d   1      -0.470  -1.607  -1.627  0.00  0.00     0.003 A 
ATOM      6  C4  PXY d   1       0.790  -2.125  -1.764  0.00  0.00    -0.082 A 
ATOM      7  C5  PXY d   1       1.697  -1.938  -0.781  0.00  0.00     0.003 A 
ATOM      8  C6  PXY d   1       1.329  -1.219   0.353  0.00  0.00     0.003 A 
ENDROOT
TORSDOF 0
ENDMDL
