MODEL 1
REMARK minimizedAffinity -3.45761514
REMARK minimizedRMSD -1
REMARK  0 active torsions:
REMARK  status: ('A' for Active; 'I' for Inactive)
ROOT
ATOM      1  C4' PXY d   1       0.369  -2.510  -1.871  0.00  0.00     0.077 C 
ATOM      2  C1' PXY d   1      -1.092   1.821   1.668  0.00  0.00     0.077 C 
ATOM      3  C1  PXY d   1      -0.701   0.693   0.733  0.00  0.00    -0.082 A 
ATOM      4  C2  PXY d   1      -1.496  -0.357   0.606  0.00  0.00     0.003 A 
ATOM      5  C3  PXY d   1      -1.143  -1.400  -0.210  0.00  0.00     0.003 A 
ATOM      6  C4  PXY d   1       0.010  -1.344  -0.946  0.00  0.00    -0.082 A 
ATOM      7  C5  PXY d   1       0.821  -0.271  -0.831  0.00  0.00     0.003 A 
ATOM      8  C6  PXY d   1       0.465   0.759   0.035  0.00  0.00     0.003 A 
ENDROOT
TORSDOF 0
ENDMDL
