MODEL 1
REMARK minimizedAffinity -3.45783138
REMARK minimizedRMSD -1
REMARK  0 active torsions:
REMARK  status: ('A' for Active; 'I' for Inactive)
ROOT
ATOM      1  C4' PXY d   1      -0.398  -2.697  -1.892  0.00  0.00     0.077 C 
ATOM      2  C1' PXY d   1      -0.777   1.220   2.341  0.00  0.00     0.077 C 
ATOM      3  C1  PXY d   1      -0.669   0.200   1.225  0.00  0.00    -0.082 A 
ATOM      4  C2  PXY d   1      -1.687  -0.606   0.974  0.00  0.00     0.003 A 
ATOM      5  C3  PXY d   1      -1.594  -1.556  -0.010  0.00  0.00     0.003 A 
ATOM      6  C4  PXY d   1      -0.467  -1.646  -0.782  0.00  0.00    -0.082 A 
ATOM      7  C5  PXY d   1       0.573  -0.820  -0.539  0.00  0.00     0.003 A 
ATOM      8  C6  PXY d   1       0.474   0.110   0.492  0.00  0.00     0.003 A 
ENDROOT
TORSDOF 0
ENDMDL
