MODEL 1
REMARK minimizedAffinity -4.61519194
REMARK minimizedRMSD -1
REMARK  0 active torsions:
REMARK  status: ('A' for Active; 'I' for Inactive)
ROOT
ATOM      1  C4' PXY d   1      -1.187   1.157   1.927  0.00  0.00     0.077 C 
ATOM      2  C1' PXY d   1       0.086  -2.525  -2.343  0.00  0.00     0.077 C 
ATOM      3  C1  PXY d   1      -0.261  -1.562  -1.225  0.00  0.00    -0.082 A 
ATOM      4  C2  PXY d   1       0.576  -0.583  -0.922  0.00  0.00     0.003 A 
ATOM      5  C3  PXY d   1       0.294   0.278   0.108  0.00  0.00     0.003 A 
ATOM      6  C4  PXY d   1      -0.883   0.167   0.800  0.00  0.00    -0.082 A 
ATOM      7  C5  PXY d   1      -1.747  -0.822   0.489  0.00  0.00     0.003 A 
ATOM      8  C6  PXY d   1      -1.422  -1.711  -0.532  0.00  0.00     0.003 A 
ENDROOT
TORSDOF 0
ENDMDL
