MODEL 1
REMARK minimizedAffinity 1.58758974
REMARK minimizedRMSD -1
REMARK  0 active torsions:
REMARK  status: ('A' for Active; 'I' for Inactive)
ROOT
ATOM      1  C4' PXY d   1       1.136  -5.373  -0.996  0.00  0.00     0.077 C 
ATOM      2  C1' PXY d   1       0.902   0.312  -2.019  0.00  0.00     0.077 C 
ATOM      3  C1  PXY d   1       0.953  -1.181  -1.759  0.00  0.00    -0.082 A 
ATOM      4  C2  PXY d   1       1.504  -1.632  -0.644  0.00  0.00     0.003 A 
ATOM      5  C3  PXY d   1       1.588  -2.980  -0.407  0.00  0.00     0.003 A 
ATOM      6  C4  PXY d   1       1.054  -3.873  -1.296  0.00  0.00    -0.082 A 
ATOM      7  C5  PXY d   1       0.481  -3.421  -2.431  0.00  0.00     0.003 A 
ATOM      8  C6  PXY d   1       0.443  -2.051  -2.672  0.00  0.00     0.003 A 
ENDROOT
TORSDOF 0
ENDMDL
