MODEL 1
REMARK minimizedAffinity -3.55565596
REMARK minimizedRMSD -1
REMARK  0 active torsions:
REMARK  status: ('A' for Active; 'I' for Inactive)
ROOT
ATOM      1  C4' PXY d   1       0.725  -2.465  -1.873  0.00  0.00     0.077 C 
ATOM      2  C1' PXY d   1      -0.995   1.698   1.750  0.00  0.00     0.077 C 
ATOM      3  C1  PXY d   1      -0.542   0.615   0.790  0.00  0.00    -0.082 A 
ATOM      4  C2  PXY d   1      -0.961  -0.628   0.962  0.00  0.00     0.003 A 
ATOM      5  C3  PXY d   1      -0.535  -1.626   0.123  0.00  0.00     0.003 A 
ATOM      6  C4  PXY d   1       0.286  -1.338  -0.935  0.00  0.00    -0.082 A 
ATOM      7  C5  PXY d   1       0.709  -0.070  -1.123  0.00  0.00     0.003 A 
ATOM      8  C6  PXY d   1       0.298   0.921  -0.235  0.00  0.00     0.003 A 
ENDROOT
TORSDOF 0
ENDMDL
