MODEL 1
REMARK minimizedAffinity -4.85456944
REMARK minimizedRMSD -1
REMARK  0 active torsions:
REMARK  status: ('A' for Active; 'I' for Inactive)
ROOT
ATOM      1  C4' PXY d   1       1.123  -2.707  -1.937  0.00  0.00     0.077 C 
ATOM      2  C1' PXY d   1      -1.564   0.589   1.979  0.00  0.00     0.077 C 
ATOM      3  C1  PXY d   1      -0.851  -0.266   0.950  0.00  0.00    -0.082 A 
ATOM      4  C2  PXY d   1      -1.501  -1.253   0.356  0.00  0.00     0.003 A 
ATOM      5  C3  PXY d   1      -0.862  -2.056  -0.553  0.00  0.00     0.003 A 
ATOM      6  C4  PXY d   1       0.440  -1.812  -0.898  0.00  0.00    -0.082 A 
ATOM      7  C5  PXY d   1       1.107  -0.800  -0.305  0.00  0.00     0.003 A 
ATOM      8  C6  PXY d   1       0.453  -0.022   0.646  0.00  0.00     0.003 A 
ENDROOT
TORSDOF 0
ENDMDL
