MODEL 1
REMARK minimizedAffinity -3.30134439
REMARK minimizedRMSD -1
REMARK  0 active torsions:
REMARK  status: ('A' for Active; 'I' for Inactive)
ROOT
ATOM      1  C4' PXY d   1      -0.296   0.856   1.016  0.00  0.00     0.077 C 
ATOM      2  C1' PXY d   1       0.500  -3.188  -3.037  0.00  0.00     0.077 C 
ATOM      3  C1  PXY d   1       0.302  -2.132  -1.968  0.00  0.00    -0.082 A 
ATOM      4  C2  PXY d   1      -0.912  -1.664  -1.728  0.00  0.00     0.003 A 
ATOM      5  C3  PXY d   1      -1.104  -0.685  -0.787  0.00  0.00     0.003 A 
ATOM      6  C4  PXY d   1      -0.050  -0.218  -0.047  0.00  0.00    -0.082 A 
ATOM      7  C5  PXY d   1       1.190  -0.698  -0.279  0.00  0.00     0.003 A 
ATOM      8  C6  PXY d   1       1.370  -1.662  -1.267  0.00  0.00     0.003 A 
ENDROOT
TORSDOF 0
ENDMDL
