MODEL 1
REMARK minimizedAffinity -3.39807606
REMARK minimizedRMSD -1
REMARK  0 active torsions:
REMARK  status: ('A' for Active; 'I' for Inactive)
ROOT
ATOM      1  C4' PXY d   1      -1.239   0.983   1.765  0.00  0.00     0.077 C 
ATOM      2  C1' PXY d   1       0.579  -2.769  -2.238  0.00  0.00     0.077 C 
ATOM      3  C1  PXY d   1       0.114  -1.779  -1.188  0.00  0.00    -0.082 A 
ATOM      4  C2  PXY d   1      -0.898  -2.093  -0.396  0.00  0.00     0.003 A 
ATOM      5  C3  PXY d   1      -1.352  -1.198   0.537  0.00  0.00     0.003 A 
ATOM      6  C4  PXY d   1      -0.730   0.011   0.697  0.00  0.00    -0.082 A 
ATOM      7  C5  PXY d   1       0.310   0.335  -0.100  0.00  0.00     0.003 A 
ATOM      8  C6  PXY d   1       0.730  -0.572  -1.069  0.00  0.00     0.003 A 
ENDROOT
TORSDOF 0
ENDMDL
