MODEL 1
REMARK minimizedAffinity -3.49701142
REMARK minimizedRMSD -1
REMARK  0 active torsions:
REMARK  status: ('A' for Active; 'I' for Inactive)
ROOT
ATOM      1  C4' PXY d   1       1.639   2.124  -1.985  0.00  0.00     0.077 C 
ATOM      2  C1' PXY d   1      -1.972   1.640   2.502  0.00  0.00     0.077 C 
ATOM      3  C1  PXY d   1      -1.030   1.779   1.323  0.00  0.00    -0.082 A 
ATOM      4  C2  PXY d   1      -0.554   0.693   0.735  0.00  0.00     0.003 A 
ATOM      5  C3  PXY d   1       0.325   0.801  -0.312  0.00  0.00     0.003 A 
ATOM      6  C4  PXY d   1       0.678   2.032  -0.797  0.00  0.00    -0.082 A 
ATOM      7  C5  PXY d   1       0.187   3.144  -0.209  0.00  0.00     0.003 A 
ATOM      8  C6  PXY d   1      -0.671   3.013   0.879  0.00  0.00     0.003 A 
ENDROOT
TORSDOF 0
ENDMDL
