MODEL 1
REMARK minimizedAffinity -4.17372942
REMARK minimizedRMSD -1
REMARK  0 active torsions:
REMARK  status: ('A' for Active; 'I' for Inactive)
ROOT
ATOM      1  C4' PXY d   1       1.225  -2.679  -1.867  0.00  0.00     0.077 C 
ATOM      2  C1' PXY d   1      -0.874   0.922   2.138  0.00  0.00     0.077 C 
ATOM      3  C1  PXY d   1      -0.313  -0.014   1.086  0.00  0.00    -0.082 A 
ATOM      4  C2  PXY d   1      -1.131  -0.807   0.413  0.00  0.00     0.003 A 
ATOM      5  C3  PXY d   1      -0.637  -1.683  -0.519  0.00  0.00     0.003 A 
ATOM      6  C4  PXY d   1       0.702  -1.711  -0.803  0.00  0.00    -0.082 A 
ATOM      7  C5  PXY d   1       1.542  -0.898  -0.128  0.00  0.00     0.003 A 
ATOM      8  C6  PXY d   1       1.026  -0.045   0.844  0.00  0.00     0.003 A 
ENDROOT
TORSDOF 0
ENDMDL
