MODEL 1
REMARK minimizedAffinity -3.85517073
REMARK minimizedRMSD -1
REMARK  0 active torsions:
REMARK  status: ('A' for Active; 'I' for Inactive)
ROOT
ATOM      1  C4' PXY d   1       1.236  -2.505  -1.273  0.00  0.00     0.077 C 
ATOM      2  C1' PXY d   1      -1.228   1.807   1.685  0.00  0.00     0.077 C 
ATOM      3  C1  PXY d   1      -0.570   0.680   0.913  0.00  0.00    -0.082 A 
ATOM      4  C2  PXY d   1      -1.198   0.141  -0.119  0.00  0.00     0.003 A 
ATOM      5  C3  PXY d   1      -0.631  -0.900  -0.808  0.00  0.00     0.003 A 
ATOM      6  C4  PXY d   1       0.614  -1.359  -0.471  0.00  0.00    -0.082 A 
ATOM      7  C5  PXY d   1       1.265  -0.807   0.575  0.00  0.00     0.003 A 
ATOM      8  C6  PXY d   1       0.655   0.222   1.287  0.00  0.00     0.003 A 
ENDROOT
TORSDOF 0
ENDMDL
