MODEL 1
REMARK minimizedAffinity -4.75948143
REMARK minimizedRMSD -1
REMARK  0 active torsions:
REMARK  status: ('A' for Active; 'I' for Inactive)
ROOT
ATOM      1  C4' PXY d   1      -1.033   2.178   1.957  0.00  0.00     0.077 C 
ATOM      2  C1' PXY d   1       0.731  -2.068  -1.547  0.00  0.00     0.077 C 
ATOM      3  C1  PXY d   1       0.257  -0.961  -0.626  0.00  0.00    -0.082 A 
ATOM      4  C2  PXY d   1       0.741   0.262  -0.770  0.00  0.00     0.003 A 
ATOM      5  C3  PXY d   1       0.348   1.268   0.075  0.00  0.00     0.003 A 
ATOM      6  C4  PXY d   1      -0.591   1.031   1.043  0.00  0.00    -0.082 A 
ATOM      7  C5  PXY d   1      -1.098  -0.211   1.190  0.00  0.00     0.003 A 
ATOM      8  C6  PXY d   1      -0.655  -1.228   0.348  0.00  0.00     0.003 A 
ENDROOT
TORSDOF 0
ENDMDL
