MODEL 1
REMARK minimizedAffinity -3.73063684
REMARK minimizedRMSD -1
REMARK  0 active torsions:
REMARK  status: ('A' for Active; 'I' for Inactive)
ROOT
ATOM      1  C4' PXY d   1       0.608  -2.378  -2.272  0.00  0.00     0.077 C 
ATOM      2  C1' PXY d   1      -0.931   1.224   1.978  0.00  0.00     0.077 C 
ATOM      3  C1  PXY d   1      -0.517   0.287   0.861  0.00  0.00    -0.082 A 
ATOM      4  C2  PXY d   1      -1.433  -0.443   0.246  0.00  0.00     0.003 A 
ATOM      5  C3  PXY d   1      -1.072  -1.320  -0.744  0.00  0.00     0.003 A 
ATOM      6  C4  PXY d   1       0.234  -1.411  -1.146  0.00  0.00    -0.082 A 
ATOM      7  C5  PXY d   1       1.173  -0.662  -0.530  0.00  0.00     0.003 A 
ATOM      8  C6  PXY d   1       0.792   0.191   0.501  0.00  0.00     0.003 A 
ENDROOT
TORSDOF 0
ENDMDL
