MODEL 1
REMARK minimizedAffinity -4.57082653
REMARK minimizedRMSD -1
REMARK  0 active torsions:
REMARK  status: ('A' for Active; 'I' for Inactive)
ROOT
ATOM      1  C4' PXY d   1       0.726  -2.896  -2.901  0.00  0.00     0.077 C 
ATOM      2  C1' PXY d   1      -0.532   0.427   1.658  0.00  0.00     0.077 C 
ATOM      3  C1  PXY d   1      -0.190  -0.440   0.464  0.00  0.00    -0.082 A 
ATOM      4  C2  PXY d   1      -1.138  -0.771  -0.398  0.00  0.00     0.003 A 
ATOM      5  C3  PXY d   1      -0.853  -1.581  -1.467  0.00  0.00     0.003 A 
ATOM      6  C4  PXY d   1       0.428  -2.014  -1.685  0.00  0.00    -0.082 A 
ATOM      7  C5  PXY d   1       1.403  -1.672  -0.817  0.00  0.00     0.003 A 
ATOM      8  C6  PXY d   1       1.084  -0.883   0.285  0.00  0.00     0.003 A 
ENDROOT
TORSDOF 0
ENDMDL
