MODEL 1
REMARK minimizedAffinity -3.53545737
REMARK minimizedRMSD -1
REMARK  0 active torsions:
REMARK  status: ('A' for Active; 'I' for Inactive)
ROOT
ATOM      1  C4' PXY d   1       0.489  -2.229  -2.403  0.00  0.00     0.077 C 
ATOM      2  C1' PXY d   1      -0.755   1.244   2.047  0.00  0.00     0.077 C 
ATOM      3  C1  PXY d   1      -0.418   0.341   0.877  0.00  0.00    -0.082 A 
ATOM      4  C2  PXY d   1      -1.367  -0.400   0.328  0.00  0.00     0.003 A 
ATOM      5  C3  PXY d   1      -1.074  -1.246  -0.710  0.00  0.00     0.003 A 
ATOM      6  C4  PXY d   1       0.193  -1.296  -1.226  0.00  0.00    -0.082 A 
ATOM      7  C5  PXY d   1       1.165  -0.536  -0.678  0.00  0.00     0.003 A 
ATOM      8  C6  PXY d   1       0.856   0.286   0.401  0.00  0.00     0.003 A 
ENDROOT
TORSDOF 0
ENDMDL
