MODEL 1
REMARK minimizedAffinity 3.9410603
REMARK minimizedRMSD -1
REMARK  1 active torsions:
REMARK  status: ('A' for Active; 'I' for Inactive)
REMARK    1  A    between atoms: C1_2  and  C2_3 
ROOT
ATOM      1  C2  UNL d   1       3.844  -2.197   4.187  0.00  0.00    -0.073 A 
ATOM      2  C3  UNL d   1       2.897  -2.993   4.840  0.00  0.00    -0.002 A 
ATOM      3  C4  UNL d   1       1.549  -2.919   4.484  0.00  0.00     0.004 A 
ATOM      4  C5  UNL d   1       1.137  -2.056   3.470  0.00  0.00    -0.004 A 
ATOM      5  C6  UNL d   1       2.071  -1.260   2.798  0.00  0.00    -0.075 A 
ATOM      6  C7  UNL d   1       1.644  -0.324   1.705  0.00  0.00     0.076 C 
ATOM      7  C8  UNL d   1       3.422  -1.338   3.162  0.00  0.00     0.001 A 
ENDROOT
BRANCH   1   8
ATOM      8  C1  UNL d   1       5.301  -2.277   4.563  0.00  0.00     0.053 C 
ATOM      9  C   UNL d   1       5.495  -2.744   5.997  0.00  0.00     0.018 C 
ENDBRANCH   1   8
TORSDOF 1
ENDMDL
