MODEL 1
REMARK minimizedAffinity 8.85902119
REMARK minimizedRMSD -1
REMARK  1 active torsions:
REMARK  status: ('A' for Active; 'I' for Inactive)
REMARK    1  A    between atoms: C1_2  and  C2_3 
ROOT
ATOM      1  C2  UNL d   1      -2.174   1.368   0.212  0.00  0.00    -0.073 A 
ATOM      2  C3  UNL d   1      -2.126   2.246  -0.877  0.00  0.00    -0.002 A 
ATOM      3  C4  UNL d   1      -2.897   3.409  -0.878  0.00  0.00     0.004 A 
ATOM      4  C5  UNL d   1      -3.717   3.709   0.210  0.00  0.00    -0.004 A 
ATOM      5  C6  UNL d   1      -3.769   2.850   1.312  0.00  0.00    -0.075 A 
ATOM      6  C7  UNL d   1      -4.647   3.157   2.489  0.00  0.00     0.076 C 
ATOM      7  C8  UNL d   1      -2.994   1.683   1.305  0.00  0.00     0.001 A 
ENDROOT
BRANCH   1   8
ATOM      8  C1  UNL d   1      -1.338   0.114   0.221  0.00  0.00     0.053 C 
ATOM      9  C   UNL d   1      -1.770  -0.866  -0.858  0.00  0.00     0.018 C 
ENDBRANCH   1   8
TORSDOF 1
ENDMDL
