MODEL 1
REMARK minimizedAffinity 12.1795759
REMARK minimizedRMSD -1
REMARK  1 active torsions:
REMARK  status: ('A' for Active; 'I' for Inactive)
REMARK    1  A    between atoms: C1_2  and  C2_3 
ROOT
ATOM      1  C2  UNL d   1       3.020   1.801   2.740  0.00  0.00    -0.073 A 
ATOM      2  C3  UNL d   1       4.219   2.492   2.950  0.00  0.00    -0.002 A 
ATOM      3  C4  UNL d   1       4.933   2.322   4.137  0.00  0.00     0.004 A 
ATOM      4  C5  UNL d   1       4.460   1.454   5.122  0.00  0.00    -0.004 A 
ATOM      5  C6  UNL d   1       3.270   0.746   4.926  0.00  0.00    -0.075 A 
ATOM      6  C7  UNL d   1       2.746  -0.189   5.976  0.00  0.00     0.076 C 
ATOM      7  C8  UNL d   1       2.558   0.925   3.732  0.00  0.00     0.001 A 
ENDROOT
BRANCH   1   8
ATOM      8  C1  UNL d   1       2.250   1.978   1.457  0.00  0.00     0.053 C 
ATOM      9  C   UNL d   1       2.640   0.946   0.412  0.00  0.00     0.018 C 
ENDBRANCH   1   8
TORSDOF 1
ENDMDL
