MODEL 1
REMARK minimizedAffinity 16.5539989
REMARK minimizedRMSD -1
REMARK  1 active torsions:
REMARK  status: ('A' for Active; 'I' for Inactive)
REMARK    1  A    between atoms: C1_2  and  C2_3 
ROOT
ATOM      1  C2  UNL d   1      -0.430   0.141  -2.155  0.00  0.00    -0.073 A 
ATOM      2  C3  UNL d   1       0.276  -0.919  -1.574  0.00  0.00    -0.002 A 
ATOM      3  C4  UNL d   1       0.736  -0.823  -0.260  0.00  0.00     0.004 A 
ATOM      4  C5  UNL d   1       0.490   0.328   0.488  0.00  0.00    -0.004 A 
ATOM      5  C6  UNL d   1      -0.224   1.393  -0.071  0.00  0.00    -0.075 A 
ATOM      6  C7  UNL d   1      -0.495   2.639   0.719  0.00  0.00     0.076 C 
ATOM      7  C8  UNL d   1      -0.680   1.290  -1.392  0.00  0.00     0.001 A 
ENDROOT
BRANCH   1   8
ATOM      8  C1  UNL d   1      -0.934   0.039  -3.571  0.00  0.00     0.053 C 
ATOM      9  C   UNL d   1      -2.213  -0.778  -3.663  0.00  0.00     0.018 C 
ENDBRANCH   1   8
TORSDOF 1
ENDMDL
