MODEL 1
REMARK minimizedAffinity 9.56550789
REMARK minimizedRMSD -1
REMARK  1 active torsions:
REMARK  status: ('A' for Active; 'I' for Inactive)
REMARK    1  A    between atoms: C1_2  and  C2_3 
ROOT
ATOM      1  C2  UNL d   1       1.258  -0.627   2.365  0.00  0.00    -0.073 A 
ATOM      2  C3  UNL d   1       2.367  -1.175   1.711  0.00  0.00    -0.002 A 
ATOM      3  C4  UNL d   1       3.119  -2.180   2.319  0.00  0.00     0.004 A 
ATOM      4  C5  UNL d   1       2.767  -2.653   3.583  0.00  0.00    -0.004 A 
ATOM      5  C6  UNL d   1       1.655  -2.126   4.248  0.00  0.00    -0.075 A 
ATOM      6  C7  UNL d   1       1.264  -2.622   5.610  0.00  0.00     0.076 C 
ATOM      7  C8  UNL d   1       0.906  -1.115   3.632  0.00  0.00     0.001 A 
ENDROOT
BRANCH   1   8
ATOM      8  C1  UNL d   1       0.439   0.454   1.709  0.00  0.00     0.053 C 
ATOM      9  C   UNL d   1      -0.708  -0.117   0.890  0.00  0.00     0.018 C 
ENDBRANCH   1   8
TORSDOF 1
ENDMDL
