MODEL 1
REMARK minimizedAffinity 6.66349506
REMARK minimizedRMSD -1
REMARK  1 active torsions:
REMARK  status: ('A' for Active; 'I' for Inactive)
REMARK    1  A    between atoms: C1_2  and  C2_3 
ROOT
ATOM      1  C2  UNL d   1       3.552  -2.392   4.553  0.00  0.00    -0.073 A 
ATOM      2  C3  UNL d   1       2.706  -3.489   4.754  0.00  0.00    -0.002 A 
ATOM      3  C4  UNL d   1       1.436  -3.515   4.174  0.00  0.00     0.004 A 
ATOM      4  C5  UNL d   1       1.003  -2.450   3.384  0.00  0.00    -0.004 A 
ATOM      5  C6  UNL d   1       1.839  -1.351   3.162  0.00  0.00    -0.075 A 
ATOM      6  C7  UNL d   1       1.387  -0.197   2.317  0.00  0.00     0.076 C 
ATOM      7  C8  UNL d   1       3.111  -1.331   3.750  0.00  0.00     0.001 A 
ENDROOT
BRANCH   1   8
ATOM      8  C1  UNL d   1       4.926  -2.362   5.171  0.00  0.00     0.053 C 
ATOM      9  C   UNL d   1       5.998  -1.992   4.159  0.00  0.00     0.018 C 
ENDBRANCH   1   8
TORSDOF 1
ENDMDL
