MODEL 1
REMARK minimizedAffinity -4.40976334
REMARK minimizedRMSD -1
REMARK  1 active torsions:
REMARK  status: ('A' for Active; 'I' for Inactive)
REMARK    1  A    between atoms: C1_2  and  C2_3 
ROOT
ATOM      1  C2  UNL d   1       0.097   0.119   0.021  0.00  0.00    -0.076 A 
ATOM      2  C3  UNL d   1      -0.619   0.854  -0.941  0.00  0.00     0.004 A 
ATOM      3  C4  UNL d   1      -1.601   1.767  -0.560  0.00  0.00    -0.003 A 
ATOM      4  C5  UNL d   1      -1.883   1.961   0.787  0.00  0.00     0.000 A 
ATOM      5  C6  UNL d   1      -1.171   1.253   1.755  0.00  0.00     0.000 A 
ATOM      6  C7  UNL d   1      -0.166   0.341   1.389  0.00  0.00    -0.073 A 
ATOM      7  C8  UNL d   1       0.567  -0.399   2.475  0.00  0.00     0.078 C 
ENDROOT
BRANCH   1   8
ATOM      8  C1  UNL d   1       1.132  -0.877  -0.452  0.00  0.00     0.053 C 
ATOM      9  C   UNL d   1       0.517  -2.033  -1.226  0.00  0.00     0.018 C 
ENDBRANCH   1   8
TORSDOF 1
ENDMDL
