MODEL 1
REMARK minimizedAffinity -3.55315685
REMARK minimizedRMSD -1
REMARK  1 active torsions:
REMARK  status: ('A' for Active; 'I' for Inactive)
REMARK    1  A    between atoms: C1_2  and  C2_3 
ROOT
ATOM      1  C2  UNL d   1      -0.335  -1.337  -0.218  0.00  0.00    -0.076 A 
ATOM      2  C3  UNL d   1      -0.989  -2.574  -0.082  0.00  0.00     0.004 A 
ATOM      3  C4  UNL d   1      -0.441  -3.738  -0.617  0.00  0.00    -0.003 A 
ATOM      4  C5  UNL d   1       0.771  -3.685  -1.297  0.00  0.00     0.000 A 
ATOM      5  C6  UNL d   1       1.442  -2.469  -1.426  0.00  0.00     0.000 A 
ATOM      6  C7  UNL d   1       0.911  -1.289  -0.879  0.00  0.00    -0.073 A 
ATOM      7  C8  UNL d   1       1.675  -0.005  -1.053  0.00  0.00     0.078 C 
ENDROOT
BRANCH   1   8
ATOM      8  C1  UNL d   1      -0.991  -0.103   0.359  0.00  0.00     0.053 C 
ATOM      9  C   UNL d   1      -0.551   0.176   1.788  0.00  0.00     0.018 C 
ENDBRANCH   1   8
TORSDOF 1
ENDMDL
