MODEL 1
REMARK minimizedAffinity -5.10759974
REMARK minimizedRMSD -1
REMARK  1 active torsions:
REMARK  status: ('A' for Active; 'I' for Inactive)
REMARK    1  A    between atoms: C1_2  and  C2_3 
ROOT
ATOM      1  C2  UNL d   1      -0.225   1.205   0.048  0.00  0.00    -0.076 A 
ATOM      2  C3  UNL d   1      -0.787   0.491   1.121  0.00  0.00     0.004 A 
ATOM      3  C4  UNL d   1      -1.678   1.101   2.001  0.00  0.00    -0.003 A 
ATOM      4  C5  UNL d   1      -2.024   2.436   1.823  0.00  0.00     0.000 A 
ATOM      5  C6  UNL d   1      -1.490   3.155   0.754  0.00  0.00     0.000 A 
ATOM      6  C7  UNL d   1      -0.603   2.550  -0.152  0.00  0.00    -0.073 A 
ATOM      7  C8  UNL d   1      -0.053   3.375  -1.284  0.00  0.00     0.078 C 
ENDROOT
BRANCH   1   8
ATOM      8  C1  UNL d   1       0.757   0.498  -0.858  0.00  0.00     0.053 C 
ATOM      9  C   UNL d   1       1.068  -0.915  -0.391  0.00  0.00     0.018 C 
ENDBRANCH   1   8
TORSDOF 1
ENDMDL
