MODEL 1
REMARK minimizedAffinity -6.58409023
REMARK minimizedRMSD -1
REMARK  1 active torsions:
REMARK  status: ('A' for Active; 'I' for Inactive)
REMARK    1  A    between atoms: C1_2  and  C2_3 
ROOT
ATOM      1  C2  UNL d   1      -0.166   1.296   0.164  0.00  0.00    -0.076 A 
ATOM      2  C3  UNL d   1      -0.622   0.727   1.365  0.00  0.00     0.004 A 
ATOM      3  C4  UNL d   1      -1.464   1.435   2.221  0.00  0.00    -0.003 A 
ATOM      4  C5  UNL d   1      -1.864   2.725   1.889  0.00  0.00     0.000 A 
ATOM      5  C6  UNL d   1      -1.435   3.299   0.692  0.00  0.00     0.000 A 
ATOM      6  C7  UNL d   1      -0.599   2.592  -0.189  0.00  0.00    -0.073 A 
ATOM      7  C8  UNL d   1      -0.162   3.262  -1.463  0.00  0.00     0.078 C 
ENDROOT
BRANCH   1   8
ATOM      8  C1  UNL d   1       0.767   0.490  -0.711  0.00  0.00     0.053 C 
ATOM      9  C   UNL d   1       1.530  -0.568   0.070  0.00  0.00     0.018 C 
ENDBRANCH   1   8
TORSDOF 1
ENDMDL
