MODEL 1
REMARK minimizedAffinity -0.91808182
REMARK minimizedRMSD -1
REMARK  1 active torsions:
REMARK  status: ('A' for Active; 'I' for Inactive)
REMARK    1  A    between atoms: C1_2  and  C2_3 
ROOT
ATOM      1  C2  UNL d   1      -0.569   0.221   0.493  0.00  0.00    -0.076 A 
ATOM      2  C3  UNL d   1      -1.030   0.702  -0.745  0.00  0.00     0.004 A 
ATOM      3  C4  UNL d   1      -1.738   1.900  -0.831  0.00  0.00    -0.003 A 
ATOM      4  C5  UNL d   1      -1.995   2.637   0.320  0.00  0.00     0.000 A 
ATOM      5  C6  UNL d   1      -1.530   2.184   1.554  0.00  0.00     0.000 A 
ATOM      6  C7  UNL d   1      -0.801   0.987   1.656  0.00  0.00    -0.073 A 
ATOM      7  C8  UNL d   1      -0.328   0.543   3.013  0.00  0.00     0.078 C 
ENDROOT
BRANCH   1   8
ATOM      8  C1  UNL d   1       0.169  -1.098   0.528  0.00  0.00     0.053 C 
ATOM      9  C   UNL d   1      -0.703  -2.266   0.094  0.00  0.00     0.018 C 
ENDBRANCH   1   8
TORSDOF 1
ENDMDL
