MODEL 1
REMARK minimizedAffinity 0.510497749
REMARK minimizedRMSD -1
REMARK  1 active torsions:
REMARK  status: ('A' for Active; 'I' for Inactive)
REMARK    1  A    between atoms: C1_2  and  C2_3 
ROOT
ATOM      1  C2  UNL d   1      -1.377   1.114   0.278  0.00  0.00    -0.076 A 
ATOM      2  C3  UNL d   1      -2.532   1.845   0.607  0.00  0.00     0.004 A 
ATOM      3  C4  UNL d   1      -2.711   2.365   1.888  0.00  0.00    -0.003 A 
ATOM      4  C5  UNL d   1      -1.737   2.163   2.860  0.00  0.00     0.000 A 
ATOM      5  C6  UNL d   1      -0.577   1.456   2.546  0.00  0.00     0.000 A 
ATOM      6  C7  UNL d   1      -0.374   0.939   1.255  0.00  0.00    -0.073 A 
ATOM      7  C8  UNL d   1       0.893   0.178   0.973  0.00  0.00     0.078 C 
ENDROOT
BRANCH   1   8
ATOM      8  C1  UNL d   1      -1.250   0.551  -1.120  0.00  0.00     0.053 C 
ATOM      9  C   UNL d   1      -0.767   1.586  -2.124  0.00  0.00     0.018 C 
ENDBRANCH   1   8
TORSDOF 1
ENDMDL
