MODEL 1
REMARK minimizedAffinity 6.5962019
REMARK minimizedRMSD -1
REMARK  1 active torsions:
REMARK  status: ('A' for Active; 'I' for Inactive)
REMARK    1  A    between atoms: C1_2  and  C2_3 
ROOT
ATOM      1  C2  UNL d   1      -0.100   0.799   0.303  0.00  0.00    -0.076 A 
ATOM      2  C3  UNL d   1      -1.136   1.348   1.078  0.00  0.00     0.004 A 
ATOM      3  C4  UNL d   1      -1.218   1.098   2.447  0.00  0.00    -0.003 A 
ATOM      4  C5  UNL d   1      -0.265   0.296   3.063  0.00  0.00     0.000 A 
ATOM      5  C6  UNL d   1       0.780  -0.243   2.313  0.00  0.00     0.000 A 
ATOM      6  C7  UNL d   1       0.887   0.012   0.935  0.00  0.00    -0.073 A 
ATOM      7  C8  UNL d   1       2.031  -0.599   0.174  0.00  0.00     0.078 C 
ENDROOT
BRANCH   1   8
ATOM      8  C1  UNL d   1      -0.078   1.082  -1.182  0.00  0.00     0.053 C 
ATOM      9  C   UNL d   1       0.549   2.429  -1.509  0.00  0.00     0.018 C 
ENDBRANCH   1   8
TORSDOF 1
ENDMDL
