MODEL 1
REMARK minimizedAffinity -3.58527851
REMARK minimizedRMSD -1
REMARK  1 active torsions:
REMARK  status: ('A' for Active; 'I' for Inactive)
REMARK    1  A    between atoms: C1_2  and  C2_3 
ROOT
ATOM      1  C2  UNL d   1      -1.682   1.812   0.057  0.00  0.00    -0.076 A 
ATOM      2  C3  UNL d   1      -1.476   3.001  -0.665  0.00  0.00     0.004 A 
ATOM      3  C4  UNL d   1      -1.068   2.970  -1.997  0.00  0.00    -0.003 A 
ATOM      4  C5  UNL d   1      -0.861   1.750  -2.631  0.00  0.00     0.000 A 
ATOM      5  C6  UNL d   1      -1.078   0.560  -1.936  0.00  0.00     0.000 A 
ATOM      6  C7  UNL d   1      -1.504   0.574  -0.597  0.00  0.00    -0.073 A 
ATOM      7  C8  UNL d   1      -1.717  -0.739   0.106  0.00  0.00     0.078 C 
ENDROOT
BRANCH   1   8
ATOM      8  C1  UNL d   1      -2.097   1.908   1.507  0.00  0.00     0.053 C 
ATOM      9  C   UNL d   1      -0.927   1.728   2.462  0.00  0.00     0.018 C 
ENDBRANCH   1   8
TORSDOF 1
ENDMDL
