MODEL 1
REMARK minimizedAffinity -4.05185604
REMARK minimizedRMSD -1
REMARK  1 active torsions:
REMARK  status: ('A' for Active; 'I' for Inactive)
REMARK    1  A    between atoms: C1_2  and  C2_3 
ROOT
ATOM      1  C2  UNL d   1      -0.359   0.805   0.948  0.00  0.00    -0.076 A 
ATOM      2  C3  UNL d   1       0.770   0.071   0.543  0.00  0.00     0.004 A 
ATOM      3  C4  UNL d   1       1.129  -0.008  -0.801  0.00  0.00    -0.003 A 
ATOM      4  C5  UNL d   1       0.366   0.646  -1.762  0.00  0.00     0.000 A 
ATOM      5  C6  UNL d   1      -0.747   1.392  -1.377  0.00  0.00     0.000 A 
ATOM      6  C7  UNL d   1      -1.114   1.496  -0.024  0.00  0.00    -0.073 A 
ATOM      7  C8  UNL d   1      -2.327   2.310   0.335  0.00  0.00     0.078 C 
ENDROOT
BRANCH   1   8
ATOM      8  C1  UNL d   1      -0.716   0.832   2.417  0.00  0.00     0.053 C 
ATOM      9  C   UNL d   1      -0.520   2.207   3.039  0.00  0.00     0.018 C 
ENDBRANCH   1   8
TORSDOF 1
ENDMDL
