MODEL 1
REMARK minimizedAffinity 1.73572469
REMARK minimizedRMSD -1
REMARK  1 active torsions:
REMARK  status: ('A' for Active; 'I' for Inactive)
REMARK    1  A    between atoms: C1_2  and  C2_3 
ROOT
ATOM      1  C2  UNL d   1      -0.018   0.375  -2.144  0.00  0.00    -0.076 A 
ATOM      2  C3  UNL d   1       0.898  -0.432  -2.841  0.00  0.00     0.004 A 
ATOM      3  C4  UNL d   1       0.635  -0.853  -4.144  0.00  0.00    -0.003 A 
ATOM      4  C5  UNL d   1      -0.547  -0.474  -4.770  0.00  0.00     0.000 A 
ATOM      5  C6  UNL d   1      -1.459   0.340  -4.099  0.00  0.00     0.000 A 
ATOM      6  C7  UNL d   1      -1.202   0.787  -2.792  0.00  0.00    -0.073 A 
ATOM      7  C8  UNL d   1      -2.223   1.659  -2.114  0.00  0.00     0.078 C 
ENDROOT
BRANCH   1   8
ATOM      8  C1  UNL d   1       0.308   0.779  -0.724  0.00  0.00     0.053 C 
ATOM      9  C   UNL d   1      -0.300  -0.163   0.304  0.00  0.00     0.018 C 
ENDBRANCH   1   8
TORSDOF 1
ENDMDL
