MODEL 1
REMARK minimizedAffinity 1.07331967
REMARK minimizedRMSD -1
REMARK  1 active torsions:
REMARK  status: ('A' for Active; 'I' for Inactive)
REMARK    1  A    between atoms: C1_2  and  C2_3 
ROOT
ATOM      1  C2  UNL d   1       0.284   0.331   0.382  0.00  0.00    -0.076 A 
ATOM      2  C3  UNL d   1      -0.120  -0.133   1.646  0.00  0.00     0.004 A 
ATOM      3  C4  UNL d   1      -1.075   0.557   2.392  0.00  0.00    -0.003 A 
ATOM      4  C5  UNL d   1      -1.642   1.721   1.885  0.00  0.00     0.000 A 
ATOM      5  C6  UNL d   1      -1.265   2.186   0.625  0.00  0.00     0.000 A 
ATOM      6  C7  UNL d   1      -0.316   1.493  -0.146  0.00  0.00    -0.073 A 
ATOM      7  C8  UNL d   1       0.057   2.043  -1.496  0.00  0.00     0.078 C 
ENDROOT
BRANCH   1   8
ATOM      8  C1  UNL d   1       1.343  -0.444  -0.369  0.00  0.00     0.053 C 
ATOM      9  C   UNL d   1       0.898  -1.857  -0.713  0.00  0.00     0.018 C 
ENDBRANCH   1   8
TORSDOF 1
ENDMDL
