MODEL 1
REMARK minimizedAffinity -0.122138001
REMARK minimizedRMSD -1
REMARK  1 active torsions:
REMARK  status: ('A' for Active; 'I' for Inactive)
REMARK    1  A    between atoms: C3_4  and  O_7 
ROOT
ATOM      1  C   UNL d   1      -1.483   4.044  -5.760  0.00  0.00    -0.033 A 
ATOM      2  C1  UNL d   1      -1.621   5.414  -5.989  0.00  0.00     0.039 A 
ATOM      3  C2  UNL d   1      -2.890   5.998  -5.998  0.00  0.00    -0.080 A 
ATOM      4  C3  UNL d   1      -4.010   5.202  -5.775  0.00  0.00     0.150 A 
ATOM      5  C4  UNL d   1      -3.879   3.837  -5.542  0.00  0.00    -0.007 A 
ATOM      6  C5  UNL d   1      -2.612   3.256  -5.534  0.00  0.00     0.039 A 
ENDROOT
BRANCH   4   7
ATOM      7  O   UNL d   1      -5.269   5.725  -5.779  0.00  0.00    -0.526 OA
ATOM      8  H5  UNL d   1      -5.207   6.674  -5.981  0.00  0.00     0.418 HD
ENDBRANCH   4   7
TORSDOF 1
ENDMDL
