MODEL 1
REMARK minimizedAffinity -0.686472714
REMARK minimizedRMSD -1
REMARK  1 active torsions:
REMARK  status: ('A' for Active; 'I' for Inactive)
REMARK    1  A    between atoms: C3_4  and  O_7 
ROOT
ATOM      1  C   UNL d   1      -1.528  -1.891   0.330  0.00  0.00    -0.033 A 
ATOM      2  C1  UNL d   1      -0.343  -2.629   0.363  0.00  0.00     0.039 A 
ATOM      3  C2  UNL d   1      -0.150  -3.683  -0.531  0.00  0.00    -0.080 A 
ATOM      4  C3  UNL d   1      -1.148  -3.988  -1.453  0.00  0.00     0.150 A 
ATOM      5  C4  UNL d   1      -2.329  -3.255  -1.494  0.00  0.00    -0.007 A 
ATOM      6  C5  UNL d   1      -2.521  -2.203  -0.600  0.00  0.00     0.039 A 
ENDROOT
BRANCH   4   7
ATOM      7  O   UNL d   1      -1.007  -5.012  -2.343  0.00  0.00    -0.526 OA
ATOM      8  H5  UNL d   1      -0.153  -5.447  -2.179  0.00  0.00     0.418 HD
ENDBRANCH   4   7
TORSDOF 1
ENDMDL
