MODEL 1
REMARK minimizedAffinity -3.19663835
REMARK minimizedRMSD -1
REMARK  1 active torsions:
REMARK  status: ('A' for Active; 'I' for Inactive)
REMARK    1  A    between atoms: C3_4  and  O_7 
ROOT
ATOM      1  C   UNL d   1      -0.520  -1.953   0.714  0.00  0.00    -0.033 A 
ATOM      2  C1  UNL d   1       0.087  -2.967  -0.030  0.00  0.00     0.039 A 
ATOM      3  C2  UNL d   1      -0.681  -4.015  -0.542  0.00  0.00    -0.080 A 
ATOM      4  C3  UNL d   1      -2.053  -4.036  -0.305  0.00  0.00     0.150 A 
ATOM      5  C4  UNL d   1      -2.665  -3.026   0.431  0.00  0.00    -0.007 A 
ATOM      6  C5  UNL d   1      -1.896  -1.982   0.943  0.00  0.00     0.039 A 
ENDROOT
BRANCH   4   7
ATOM      7  O   UNL d   1      -2.843  -5.040  -0.781  0.00  0.00    -0.526 OA
ATOM      8  H5  UNL d   1      -2.279  -5.680  -1.246  0.00  0.00     0.418 HD
ENDBRANCH   4   7
TORSDOF 1
ENDMDL
