MODEL 1
REMARK minimizedAffinity -2.58395576
REMARK minimizedRMSD -1
REMARK  1 active torsions:
REMARK  status: ('A' for Active; 'I' for Inactive)
REMARK    1  A    between atoms: C3_4  and  O_7 
ROOT
ATOM      1  C   UNL d   1      -0.182  -3.864  -1.130  0.00  0.00    -0.033 A 
ATOM      2  C1  UNL d   1      -0.140  -5.260  -1.148  0.00  0.00     0.039 A 
ATOM      3  C2  UNL d   1      -1.326  -5.995  -1.180  0.00  0.00    -0.080 A 
ATOM      4  C3  UNL d   1      -2.546  -5.325  -1.194  0.00  0.00     0.150 A 
ATOM      5  C4  UNL d   1      -2.596  -3.935  -1.180  0.00  0.00    -0.007 A 
ATOM      6  C5  UNL d   1      -1.410  -3.202  -1.147  0.00  0.00     0.039 A 
ENDROOT
BRANCH   4   7
ATOM      7  O   UNL d   1      -3.730  -6.000  -1.220  0.00  0.00    -0.526 OA
ATOM      8  H5  UNL d   1      -3.542  -6.953  -1.198  0.00  0.00     0.418 HD
ENDBRANCH   4   7
TORSDOF 1
ENDMDL
