MODEL 1
REMARK minimizedAffinity -0.576988816
REMARK minimizedRMSD -1
REMARK  1 active torsions:
REMARK  status: ('A' for Active; 'I' for Inactive)
REMARK    1  A    between atoms: C3_4  and  O_7 
ROOT
ATOM      1  C   UNL d   1       2.067   4.522   3.819  0.00  0.00    -0.033 A 
ATOM      2  C1  UNL d   1       3.175   4.720   2.993  0.00  0.00     0.039 A 
ATOM      3  C2  UNL d   1       3.705   3.654   2.265  0.00  0.00    -0.080 A 
ATOM      4  C3  UNL d   1       3.118   2.396   2.370  0.00  0.00     0.150 A 
ATOM      5  C4  UNL d   1       2.012   2.192   3.188  0.00  0.00    -0.007 A 
ATOM      6  C5  UNL d   1       1.484   3.258   3.915  0.00  0.00     0.039 A 
ENDROOT
BRANCH   4   7
ATOM      7  O   UNL d   1       3.603   1.324   1.682  0.00  0.00    -0.526 OA
ATOM      8  H5  UNL d   1       4.386   1.608   1.181  0.00  0.00     0.418 HD
ENDBRANCH   4   7
TORSDOF 1
ENDMDL
