MODEL 1
REMARK minimizedAffinity 2.9182384
REMARK minimizedRMSD -1
REMARK  1 active torsions:
REMARK  status: ('A' for Active; 'I' for Inactive)
REMARK    1  A    between atoms: C3_4  and  O_7 
ROOT
ATOM      1  C   UNL d   1       3.364   4.204   2.539  0.00  0.00    -0.033 A 
ATOM      2  C1  UNL d   1       2.014   3.862   2.433  0.00  0.00     0.039 A 
ATOM      3  C2  UNL d   1       1.644   2.639   1.870  0.00  0.00    -0.080 A 
ATOM      4  C3  UNL d   1       2.632   1.768   1.418  0.00  0.00     0.150 A 
ATOM      5  C4  UNL d   1       3.979   2.101   1.525  0.00  0.00    -0.007 A 
ATOM      6  C5  UNL d   1       4.346   3.323   2.086  0.00  0.00     0.039 A 
ENDROOT
BRANCH   4   7
ATOM      7  O   UNL d   1       2.320   0.566   0.857  0.00  0.00    -0.526 OA
ATOM      8  H5  UNL d   1       1.352   0.484   0.824  0.00  0.00     0.418 HD
ENDBRANCH   4   7
TORSDOF 1
ENDMDL
