MODEL 1
REMARK minimizedAffinity 4.321064
REMARK minimizedRMSD -1
REMARK  1 active torsions:
REMARK  status: ('A' for Active; 'I' for Inactive)
REMARK    1  A    between atoms: C3_4  and  O_7 
ROOT
ATOM      1  C   UNL d   1       3.417   3.745   3.196  0.00  0.00    -0.033 A 
ATOM      2  C1  UNL d   1       2.034   3.559   3.135  0.00  0.00     0.039 A 
ATOM      3  C2  UNL d   1       1.499   2.543   2.342  0.00  0.00    -0.080 A 
ATOM      4  C3  UNL d   1       2.355   1.719   1.617  0.00  0.00     0.150 A 
ATOM      5  C4  UNL d   1       3.734   1.895   1.677  0.00  0.00    -0.007 A 
ATOM      6  C5  UNL d   1       4.267   2.911   2.468  0.00  0.00     0.039 A 
ENDROOT
BRANCH   4   7
ATOM      7  O   UNL d   1       1.879   0.716   0.825  0.00  0.00    -0.526 OA
ATOM      8  H5  UNL d   1       0.908   0.731   0.860  0.00  0.00     0.418 HD
ENDBRANCH   4   7
TORSDOF 1
ENDMDL
