MODEL 1
REMARK minimizedAffinity -2.48665214
REMARK minimizedRMSD -1
REMARK  1 active torsions:
REMARK  status: ('A' for Active; 'I' for Inactive)
REMARK    1  A    between atoms: C3_4  and  O_7 
ROOT
ATOM      1  C   UNL d   1       1.141  -4.086  -0.284  0.00  0.00    -0.033 A 
ATOM      2  C1  UNL d   1       2.452  -3.622  -0.409  0.00  0.00     0.039 A 
ATOM      3  C2  UNL d   1       2.737  -2.269  -0.210  0.00  0.00    -0.080 A 
ATOM      4  C3  UNL d   1       1.705  -1.394   0.114  0.00  0.00     0.150 A 
ATOM      5  C4  UNL d   1       0.397  -1.850   0.244  0.00  0.00    -0.007 A 
ATOM      6  C5  UNL d   1       0.114  -3.200   0.044  0.00  0.00     0.039 A 
ENDROOT
BRANCH   4   7
ATOM      7  O   UNL d   1       1.934  -0.065   0.313  0.00  0.00    -0.526 OA
ATOM      8  H5  UNL d   1       2.877   0.111   0.162  0.00  0.00     0.418 HD
ENDBRANCH   4   7
TORSDOF 1
ENDMDL
