MODEL 1
REMARK minimizedAffinity 0.923841834
REMARK minimizedRMSD -1
REMARK  1 active torsions:
REMARK  status: ('A' for Active; 'I' for Inactive)
REMARK    1  A    between atoms: C3_4  and  O_7 
ROOT
ATOM      1  C   UNL d   1       3.406   6.000   3.006  0.00  0.00    -0.033 A 
ATOM      2  C1  UNL d   1       3.909   4.921   2.275  0.00  0.00     0.039 A 
ATOM      3  C2  UNL d   1       3.243   3.694   2.292  0.00  0.00    -0.080 A 
ATOM      4  C3  UNL d   1       2.078   3.558   3.041  0.00  0.00     0.150 A 
ATOM      5  C4  UNL d   1       1.569   4.630   3.768  0.00  0.00    -0.007 A 
ATOM      6  C5  UNL d   1       2.235   5.854   3.751  0.00  0.00     0.039 A 
ENDROOT
BRANCH   4   7
ATOM      7  O   UNL d   1       1.396   2.379   3.091  0.00  0.00    -0.526 OA
ATOM      8  H5  UNL d   1       1.880   1.721   2.564  0.00  0.00     0.418 HD
ENDBRANCH   4   7
TORSDOF 1
ENDMDL
