MODEL 1
REMARK minimizedAffinity 3.19406438
REMARK minimizedRMSD -1
REMARK  1 active torsions:
REMARK  status: ('A' for Active; 'I' for Inactive)
REMARK    1  A    between atoms: C3_4  and  O_7 
ROOT
ATOM      1  C   UNL d   1       4.953  -6.000  -3.366  0.00  0.00    -0.033 A 
ATOM      2  C1  UNL d   1       4.583  -5.998  -4.712  0.00  0.00     0.039 A 
ATOM      3  C2  UNL d   1       3.233  -5.996  -5.067  0.00  0.00    -0.080 A 
ATOM      4  C3  UNL d   1       2.264  -5.996  -4.067  0.00  0.00     0.150 A 
ATOM      5  C4  UNL d   1       2.626  -5.995  -2.724  0.00  0.00    -0.007 A 
ATOM      6  C5  UNL d   1       3.975  -5.997  -2.372  0.00  0.00     0.039 A 
ENDROOT
BRANCH   4   7
ATOM      7  O   UNL d   1       0.933  -6.000  -4.364  0.00  0.00    -0.526 OA
ATOM      8  H5  UNL d   1       0.834  -6.030  -5.330  0.00  0.00     0.418 HD
ENDBRANCH   4   7
TORSDOF 1
ENDMDL
