MODEL 1
REMARK minimizedAffinity 6.96830034
REMARK minimizedRMSD -1
REMARK  1 active torsions:
REMARK  status: ('A' for Active; 'I' for Inactive)
REMARK    1  A    between atoms: C3_4  and  O_7 
ROOT
ATOM      1  C   UNL d   1       3.544   4.270   2.928  0.00  0.00    -0.033 A 
ATOM      2  C1  UNL d   1       2.187   4.438   2.645  0.00  0.00     0.039 A 
ATOM      3  C2  UNL d   1       1.457   3.394   2.073  0.00  0.00    -0.080 A 
ATOM      4  C3  UNL d   1       2.095   2.189   1.790  0.00  0.00     0.150 A 
ATOM      5  C4  UNL d   1       3.445   2.013   2.073  0.00  0.00    -0.007 A 
ATOM      6  C5  UNL d   1       4.173   3.057   2.643  0.00  0.00     0.039 A 
ENDROOT
BRANCH   4   7
ATOM      7  O   UNL d   1       1.425   1.143   1.228  0.00  0.00    -0.526 OA
ATOM      8  H5  UNL d   1       0.508   1.419   1.062  0.00  0.00     0.418 HD
ENDBRANCH   4   7
TORSDOF 1
ENDMDL
