MODEL 1
REMARK minimizedAffinity 8.05775928
REMARK minimizedRMSD -1
REMARK  1 active torsions:
REMARK  status: ('A' for Active; 'I' for Inactive)
REMARK    1  A    between atoms: C3_4  and  O_7 
ROOT
ATOM      1  C   UNL d   1       2.505   3.591   1.365  0.00  0.00    -0.033 A 
ATOM      2  C1  UNL d   1       2.214   2.904   2.545  0.00  0.00     0.039 A 
ATOM      3  C2  UNL d   1       3.121   2.919   3.606  0.00  0.00    -0.080 A 
ATOM      4  C3  UNL d   1       4.314   3.625   3.475  0.00  0.00     0.150 A 
ATOM      5  C4  UNL d   1       4.609   4.315   2.304  0.00  0.00    -0.007 A 
ATOM      6  C5  UNL d   1       3.702   4.297   1.245  0.00  0.00     0.039 A 
ENDROOT
BRANCH   4   7
ATOM      7  O   UNL d   1       5.232   3.665   4.482  0.00  0.00    -0.526 OA
ATOM      8  H5  UNL d   1       4.906   3.120   5.218  0.00  0.00     0.418 HD
ENDBRANCH   4   7
TORSDOF 1
ENDMDL
