MODEL 1
REMARK minimizedAffinity 5.21552658
REMARK minimizedRMSD -1
REMARK  1 active torsions:
REMARK  status: ('A' for Active; 'I' for Inactive)
REMARK    1  A    between atoms: C3_4  and  O_7 
ROOT
ATOM      1  C   UNL d   1       1.363   4.978   4.181  0.00  0.00    -0.033 A 
ATOM      2  C1  UNL d   1       1.063   3.730   4.730  0.00  0.00     0.039 A 
ATOM      3  C2  UNL d   1       1.533   2.565   4.120  0.00  0.00    -0.080 A 
ATOM      4  C3  UNL d   1       2.301   2.662   2.963  0.00  0.00     0.150 A 
ATOM      5  C4  UNL d   1       2.608   3.903   2.413  0.00  0.00    -0.007 A 
ATOM      6  C5  UNL d   1       2.136   5.064   3.023  0.00  0.00     0.039 A 
ENDROOT
BRANCH   4   7
ATOM      7  O   UNL d   1       2.778   1.554   2.329  0.00  0.00    -0.526 OA
ATOM      8  H5  UNL d   1       2.464   0.767   2.806  0.00  0.00     0.418 HD
ENDBRANCH   4   7
TORSDOF 1
ENDMDL
