MODEL 1
REMARK minimizedAffinity 5.18986416
REMARK minimizedRMSD -1
REMARK  1 active torsions:
REMARK  status: ('A' for Active; 'I' for Inactive)
REMARK    1  A    between atoms: C3_4  and  O_7 
ROOT
ATOM      1  C   UNL d   1       4.233   1.893   2.272  0.00  0.00    -0.033 A 
ATOM      2  C1  UNL d   1       5.384   2.663   2.094  0.00  0.00     0.039 A 
ATOM      3  C2  UNL d   1       5.285   4.048   1.956  0.00  0.00    -0.080 A 
ATOM      4  C3  UNL d   1       4.031   4.651   1.998  0.00  0.00     0.150 A 
ATOM      5  C4  UNL d   1       2.880   3.891   2.179  0.00  0.00    -0.007 A 
ATOM      6  C5  UNL d   1       2.981   2.507   2.316  0.00  0.00     0.039 A 
ENDROOT
BRANCH   4   7
ATOM      7  O   UNL d   1       3.883   6.000   1.863  0.00  0.00    -0.526 OA
ATOM      8  H5  UNL d   1       4.760   6.392   1.716  0.00  0.00     0.418 HD
ENDBRANCH   4   7
TORSDOF 1
ENDMDL
