MODEL 1
REMARK minimizedAffinity 6.64304161
REMARK minimizedRMSD -1
REMARK  1 active torsions:
REMARK  status: ('A' for Active; 'I' for Inactive)
REMARK    1  A    between atoms: C3_4  and  O_7 
ROOT
ATOM      1  C   UNL d   1       3.506   3.750   3.004  0.00  0.00    -0.033 A 
ATOM      2  C1  UNL d   1       2.116   3.709   2.879  0.00  0.00     0.039 A 
ATOM      3  C2  UNL d   1       1.501   2.625   2.250  0.00  0.00    -0.080 A 
ATOM      4  C3  UNL d   1       2.286   1.589   1.751  0.00  0.00     0.150 A 
ATOM      5  C4  UNL d   1       3.671   1.622   1.875  0.00  0.00    -0.007 A 
ATOM      6  C5  UNL d   1       4.284   2.705   2.503  0.00  0.00     0.039 A 
ENDROOT
BRANCH   4   7
ATOM      7  O   UNL d   1       1.732   0.513   1.125  0.00  0.00    -0.526 OA
ATOM      8  H5  UNL d   1       0.769   0.641   1.087  0.00  0.00     0.418 HD
ENDBRANCH   4   7
TORSDOF 1
ENDMDL
