MODEL 1
REMARK minimizedAffinity -0.274297863
REMARK minimizedRMSD -1
REMARK  1 active torsions:
REMARK  status: ('A' for Active; 'I' for Inactive)
REMARK    1  A    between atoms: C3_4  and  O_7 
ROOT
ATOM      1  C   UNL d   1       1.198  -3.711   0.582  0.00  0.00    -0.033 A 
ATOM      2  C1  UNL d   1      -0.004  -3.081   0.253  0.00  0.00     0.039 A 
ATOM      3  C2  UNL d   1      -0.889  -3.686  -0.642  0.00  0.00    -0.080 A 
ATOM      4  C3  UNL d   1      -0.560  -4.919  -1.199  0.00  0.00     0.150 A 
ATOM      5  C4  UNL d   1       0.634  -5.554  -0.872  0.00  0.00    -0.007 A 
ATOM      6  C5  UNL d   1       1.516  -4.948   0.021  0.00  0.00     0.039 A 
ENDROOT
BRANCH   4   7
ATOM      7  O   UNL d   1      -1.390  -5.547  -2.081  0.00  0.00    -0.526 OA
ATOM      8  H5  UNL d   1      -2.163  -4.978  -2.234  0.00  0.00     0.418 HD
ENDBRANCH   4   7
TORSDOF 1
ENDMDL
