MODEL 1
REMARK minimizedAffinity 0.759774923
REMARK minimizedRMSD -1
REMARK  1 active torsions:
REMARK  status: ('A' for Active; 'I' for Inactive)
REMARK    1  A    between atoms: C3_4  and  O_7 
ROOT
ATOM      1  C   UNL d   1       3.789   4.946   3.001  0.00  0.00    -0.033 A 
ATOM      2  C1  UNL d   1       3.968   5.337   1.673  0.00  0.00     0.039 A 
ATOM      3  C2  UNL d   1       3.491   4.533   0.636  0.00  0.00    -0.080 A 
ATOM      4  C3  UNL d   1       2.837   3.342   0.940  0.00  0.00     0.150 A 
ATOM      5  C4  UNL d   1       2.651   2.948   2.261  0.00  0.00    -0.007 A 
ATOM      6  C5  UNL d   1       3.129   3.752   3.295  0.00  0.00     0.039 A 
ENDROOT
BRANCH   4   7
ATOM      7  O   UNL d   1       2.358   2.522  -0.038  0.00  0.00    -0.526 OA
ATOM      8  H5  UNL d   1       2.584   2.908  -0.901  0.00  0.00     0.418 HD
ENDBRANCH   4   7
TORSDOF 1
ENDMDL
