MODEL 1
REMARK minimizedAffinity -0.428130656
REMARK minimizedRMSD -1
REMARK  1 active torsions:
REMARK  status: ('A' for Active; 'I' for Inactive)
REMARK    1  A    between atoms: C1_2  and  C2_3 
ROOT
ATOM      1  C2  UNL d   1      -1.810   5.819  -4.013  0.00  0.00    -0.081 A 
ATOM      2  C3  UNL d   1      -2.201   5.860  -2.669  0.00  0.00     0.006 A 
ATOM      3  C4  UNL d   1      -3.554   5.879  -2.325  0.00  0.00     0.002 A 
ATOM      4  C5  UNL d   1      -4.539   5.849  -3.318  0.00  0.00    -0.080 A 
ATOM      5  C6  UNL d   1      -5.996   5.838  -2.962  0.00  0.00     0.076 C 
ATOM      6  C7  UNL d   1      -4.149   5.826  -4.662  0.00  0.00     0.002 A 
ATOM      7  C8  UNL d   1      -2.796   5.808  -5.006  0.00  0.00     0.006 A 
ENDROOT
BRANCH   1   8
ATOM      8  C1  UNL d   1      -0.352   5.734  -4.385  0.00  0.00     0.054 C 
ATOM      9  C   UNL d   1       0.283   4.459  -3.847  0.00  0.00     0.018 C 
ENDBRANCH   1   8
TORSDOF 1
ENDMDL
