MODEL 1
REMARK minimizedAffinity 7.05886412
REMARK minimizedRMSD -1
REMARK  1 active torsions:
REMARK  status: ('A' for Active; 'I' for Inactive)
REMARK    1  A    between atoms: C1_2  and  C2_3 
ROOT
ATOM      1  C2  UNL d   1      -1.543  -1.137   2.231  0.00  0.00    -0.081 A 
ATOM      2  C3  UNL d   1      -1.865  -2.233   1.421  0.00  0.00     0.006 A 
ATOM      3  C4  UNL d   1      -0.856  -3.025   0.867  0.00  0.00     0.002 A 
ATOM      4  C5  UNL d   1       0.490  -2.739   1.120  0.00  0.00    -0.080 A 
ATOM      5  C6  UNL d   1       1.582  -3.599   0.557  0.00  0.00     0.076 C 
ATOM      6  C7  UNL d   1       0.812  -1.633   1.915  0.00  0.00     0.002 A 
ATOM      7  C8  UNL d   1      -0.196  -0.841   2.468  0.00  0.00     0.006 A 
ENDROOT
BRANCH   1   8
ATOM      8  C1  UNL d   1      -2.630  -0.320   2.882  0.00  0.00     0.054 C 
ATOM      9  C   UNL d   1      -2.296  -0.013   4.335  0.00  0.00     0.018 C 
ENDBRANCH   1   8
TORSDOF 1
ENDMDL
