MODEL 1
REMARK minimizedAffinity 11.5889406
REMARK minimizedRMSD -1
REMARK  1 active torsions:
REMARK  status: ('A' for Active; 'I' for Inactive)
REMARK    1  A    between atoms: C1_2  and  C2_3 
ROOT
ATOM      1  C2  UNL d   1      -0.453  -1.546   1.741  0.00  0.00    -0.081 A 
ATOM      2  C3  UNL d   1      -1.698  -2.153   1.534  0.00  0.00     0.006 A 
ATOM      3  C4  UNL d   1      -2.816  -1.383   1.207  0.00  0.00     0.002 A 
ATOM      4  C5  UNL d   1      -2.708   0.005   1.073  0.00  0.00    -0.080 A 
ATOM      5  C6  UNL d   1      -3.894   0.840   0.693  0.00  0.00     0.076 C 
ATOM      6  C7  UNL d   1      -1.468   0.614   1.297  0.00  0.00     0.002 A 
ATOM      7  C8  UNL d   1      -0.350  -0.155   1.625  0.00  0.00     0.006 A 
ENDROOT
BRANCH   1   8
ATOM      8  C1  UNL d   1       0.768  -2.380   2.030  0.00  0.00     0.054 C 
ATOM      9  C   UNL d   1       0.969  -2.567   3.527  0.00  0.00     0.018 C 
ENDBRANCH   1   8
TORSDOF 1
ENDMDL
