MODEL 1
REMARK minimizedAffinity 15.257144
REMARK minimizedRMSD -1
REMARK  1 active torsions:
REMARK  status: ('A' for Active; 'I' for Inactive)
REMARK    1  A    between atoms: C1_2  and  C2_3 
ROOT
ATOM      1  C2  UNL d   1       0.066  -4.769  -4.177  0.00  0.00    -0.081 A 
ATOM      2  C3  UNL d   1      -1.061  -4.027  -3.803  0.00  0.00     0.006 A 
ATOM      3  C4  UNL d   1      -2.300  -4.272  -4.398  0.00  0.00     0.002 A 
ATOM      4  C5  UNL d   1      -2.436  -5.267  -5.372  0.00  0.00    -0.080 A 
ATOM      5  C6  UNL d   1      -3.767  -5.560  -5.998  0.00  0.00     0.076 C 
ATOM      6  C7  UNL d   1      -1.307  -5.996  -5.760  0.00  0.00     0.002 A 
ATOM      7  C8  UNL d   1      -0.067  -5.752  -5.165  0.00  0.00     0.006 A 
ENDROOT
BRANCH   1   8
ATOM      8  C1  UNL d   1       1.390  -4.552  -3.491  0.00  0.00     0.054 C 
ATOM      9  C   UNL d   1       2.344  -5.710  -3.749  0.00  0.00     0.018 C 
ENDBRANCH   1   8
TORSDOF 1
ENDMDL
