MODEL 1
REMARK minimizedAffinity 8.69492912
REMARK minimizedRMSD -1
REMARK  1 active torsions:
REMARK  status: ('A' for Active; 'I' for Inactive)
REMARK    1  A    between atoms: C1_2  and  C2_3 
ROOT
ATOM      1  C2  UNL d   1      -3.700   0.201   1.046  0.00  0.00    -0.081 A 
ATOM      2  C3  UNL d   1      -3.047   0.797   2.132  0.00  0.00     0.006 A 
ATOM      3  C4  UNL d   1      -1.798   0.333   2.549  0.00  0.00     0.002 A 
ATOM      4  C5  UNL d   1      -1.176  -0.728   1.883  0.00  0.00    -0.080 A 
ATOM      5  C6  UNL d   1       0.179  -1.216   2.301  0.00  0.00     0.076 C 
ATOM      6  C7  UNL d   1      -1.835  -1.335   0.809  0.00  0.00     0.002 A 
ATOM      7  C8  UNL d   1      -3.085  -0.872   0.392  0.00  0.00     0.006 A 
ENDROOT
BRANCH   1   8
ATOM      8  C1  UNL d   1      -5.018   0.741   0.554  0.00  0.00     0.054 C 
ATOM      9  C   UNL d   1      -5.007   0.936  -0.956  0.00  0.00     0.018 C 
ENDBRANCH   1   8
TORSDOF 1
ENDMDL
