MODEL 1
REMARK minimizedAffinity 11.5962877
REMARK minimizedRMSD -1
REMARK  1 active torsions:
REMARK  status: ('A' for Active; 'I' for Inactive)
REMARK    1  A    between atoms: C1_2  and  C2_3 
ROOT
ATOM      1  C2  UNL d   1       4.972   5.080  -2.522  0.00  0.00    -0.081 A 
ATOM      2  C3  UNL d   1       5.959   4.832  -3.484  0.00  0.00     0.006 A 
ATOM      3  C4  UNL d   1       5.678   4.040  -4.600  0.00  0.00     0.002 A 
ATOM      4  C5  UNL d   1       4.403   3.490  -4.777  0.00  0.00    -0.080 A 
ATOM      5  C6  UNL d   1       4.079   2.663  -5.985  0.00  0.00     0.076 C 
ATOM      6  C7  UNL d   1       3.422   3.724  -3.807  0.00  0.00     0.002 A 
ATOM      7  C8  UNL d   1       3.703   4.515  -2.691  0.00  0.00     0.006 A 
ENDROOT
BRANCH   1   8
ATOM      8  C1  UNL d   1       5.253   5.987  -1.351  0.00  0.00     0.054 C 
ATOM      9  C   UNL d   1       6.000   5.251  -0.248  0.00  0.00     0.018 C 
ENDBRANCH   1   8
TORSDOF 1
ENDMDL
