MODEL 1
REMARK minimizedAffinity 12.0960455
REMARK minimizedRMSD -1
REMARK  1 active torsions:
REMARK  status: ('A' for Active; 'I' for Inactive)
REMARK    1  A    between atoms: C1_2  and  C2_3 
ROOT
ATOM      1  C2  UNL d   1       4.296   5.082  -2.667  0.00  0.00    -0.081 A 
ATOM      2  C3  UNL d   1       3.313   4.094  -2.800  0.00  0.00     0.006 A 
ATOM      3  C4  UNL d   1       3.341   3.209  -3.881  0.00  0.00     0.002 A 
ATOM      4  C5  UNL d   1       4.355   3.292  -4.841  0.00  0.00    -0.080 A 
ATOM      5  C6  UNL d   1       4.413   2.329  -5.989  0.00  0.00     0.076 C 
ATOM      6  C7  UNL d   1       5.327   4.291  -4.718  0.00  0.00     0.002 A 
ATOM      7  C8  UNL d   1       5.300   5.176  -3.638  0.00  0.00     0.006 A 
ENDROOT
BRANCH   1   8
ATOM      8  C1  UNL d   1       4.306   5.997  -1.469  0.00  0.00     0.054 C 
ATOM      9  C   UNL d   1       5.666   5.998  -0.786  0.00  0.00     0.018 C 
ENDBRANCH   1   8
TORSDOF 1
ENDMDL
