MODEL 1
REMARK minimizedAffinity 13.8310299
REMARK minimizedRMSD -1
REMARK  1 active torsions:
REMARK  status: ('A' for Active; 'I' for Inactive)
REMARK    1  A    between atoms: C1_2  and  C2_3 
ROOT
ATOM      1  C2  UNL d   1       4.447   4.400  -4.068  0.00  0.00    -0.081 A 
ATOM      2  C3  UNL d   1       3.483   3.469  -4.473  0.00  0.00     0.006 A 
ATOM      3  C4  UNL d   1       2.244   3.407  -3.830  0.00  0.00     0.002 A 
ATOM      4  C5  UNL d   1       1.946   4.280  -2.778  0.00  0.00    -0.080 A 
ATOM      5  C6  UNL d   1       0.609   4.244  -2.099  0.00  0.00     0.076 C 
ATOM      6  C7  UNL d   1       2.916   5.198  -2.362  0.00  0.00     0.002 A 
ATOM      7  C8  UNL d   1       4.155   5.260  -3.004  0.00  0.00     0.006 A 
ENDROOT
BRANCH   1   8
ATOM      8  C1  UNL d   1       5.759   4.512  -4.801  0.00  0.00     0.054 C 
ATOM      9  C   UNL d   1       5.998   5.933  -5.293  0.00  0.00     0.018 C 
ENDBRANCH   1   8
TORSDOF 1
ENDMDL
