MODEL 1
REMARK minimizedAffinity -1.93446147
REMARK minimizedRMSD -1
REMARK  0 active torsions:
REMARK  status: ('A' for Active; 'I' for Inactive)
ROOT
ATOM      1  C4' PXY d   1      -2.428  -2.401  -6.000  0.00  0.00     0.077 C 
ATOM      2  C1' PXY d   1       1.694   1.091  -3.945  0.00  0.00     0.077 C 
ATOM      3  C1  PXY d   1       0.619   0.165  -4.478  0.00  0.00    -0.082 A 
ATOM      4  C2  PXY d   1      -0.103   0.535  -5.524  0.00  0.00     0.003 A 
ATOM      5  C3  PXY d   1      -1.100  -0.277  -6.000  0.00  0.00     0.003 A 
ATOM      6  C4  PXY d   1      -1.326  -1.502  -5.433  0.00  0.00    -0.082 A 
ATOM      7  C5  PXY d   1      -0.587  -1.891  -4.372  0.00  0.00     0.003 A 
ATOM      8  C6  PXY d   1       0.393  -1.035  -3.879  0.00  0.00     0.003 A 
ENDROOT
TORSDOF 0
ENDMDL
