MODEL 1
REMARK minimizedAffinity -3.26385903
REMARK minimizedRMSD -1
REMARK  0 active torsions:
REMARK  status: ('A' for Active; 'I' for Inactive)
ROOT
ATOM      1  C4' PXY d   1      -1.271   1.308   2.783  0.00  0.00     0.077 C 
ATOM      2  C1' PXY d   1       0.902  -0.769  -2.155  0.00  0.00     0.077 C 
ATOM      3  C1  PXY d   1       0.343  -0.228  -0.854  0.00  0.00    -0.082 A 
ATOM      4  C2  PXY d   1      -0.967  -0.153  -0.686  0.00  0.00     0.003 A 
ATOM      5  C3  PXY d   1      -1.489   0.364   0.472  0.00  0.00     0.003 A 
ATOM      6  C4  PXY d   1      -0.662   0.759   1.489  0.00  0.00    -0.082 A 
ATOM      7  C5  PXY d   1       0.675   0.676   1.329  0.00  0.00     0.003 A 
ATOM      8  C6  PXY d   1       1.186   0.187   0.131  0.00  0.00     0.003 A 
ENDROOT
TORSDOF 0
ENDMDL
