MODEL 1
REMARK minimizedAffinity -1.96481991
REMARK minimizedRMSD -1
REMARK  0 active torsions:
REMARK  status: ('A' for Active; 'I' for Inactive)
ROOT
ATOM      1  C4' PXY d   1       1.544   0.462  -4.514  0.00  0.00     0.077 C 
ATOM      2  C1' PXY d   1      -0.276  -0.352   0.912  0.00  0.00     0.077 C 
ATOM      3  C1  PXY d   1       0.209  -0.149  -0.509  0.00  0.00    -0.082 A 
ATOM      4  C2  PXY d   1       0.124   1.049  -1.065  0.00  0.00     0.003 A 
ATOM      5  C3  PXY d   1       0.528   1.244  -2.361  0.00  0.00     0.003 A 
ATOM      6  C4  PXY d   1       1.075   0.213  -3.078  0.00  0.00    -0.082 A 
ATOM      7  C5  PXY d   1       1.175  -1.010  -2.514  0.00  0.00     0.003 A 
ATOM      8  C6  PXY d   1       0.721  -1.196  -1.212  0.00  0.00     0.003 A 
ENDROOT
TORSDOF 0
ENDMDL
