MODEL 1
REMARK minimizedAffinity -4.12119007
REMARK minimizedRMSD -1
REMARK  0 active torsions:
REMARK  status: ('A' for Active; 'I' for Inactive)
ROOT
ATOM      1  C4' PXY d   1       0.288  -0.688  -2.261  0.00  0.00     0.077 C 
ATOM      2  C1' PXY d   1      -1.091   1.540   2.892  0.00  0.00     0.077 C 
ATOM      3  C1  PXY d   1      -0.717   0.960   1.542  0.00  0.00    -0.082 A 
ATOM      4  C2  PXY d   1      -1.654   0.780   0.625  0.00  0.00     0.003 A 
ATOM      5  C3  PXY d   1      -1.338   0.227  -0.589  0.00  0.00     0.003 A 
ATOM      6  C4  PXY d   1      -0.042  -0.096  -0.887  0.00  0.00    -0.082 A 
ATOM      7  C5  PXY d   1       0.921   0.094   0.039  0.00  0.00     0.003 A 
ATOM      8  C6  PXY d   1       0.574   0.618   1.280  0.00  0.00     0.003 A 
ENDROOT
TORSDOF 0
ENDMDL
