MODEL 1
REMARK minimizedAffinity -4.5901227
REMARK minimizedRMSD -1
REMARK  0 active torsions:
REMARK  status: ('A' for Active; 'I' for Inactive)
ROOT
ATOM      1  C4' PXY d   1      -3.067  -0.156  -0.388  0.00  0.00     0.077 C 
ATOM      2  C1' PXY d   1       2.299   0.319   1.708  0.00  0.00     0.077 C 
ATOM      3  C1  PXY d   1       0.897   0.193   1.146  0.00  0.00    -0.082 A 
ATOM      4  C2  PXY d   1      -0.116   0.759   1.782  0.00  0.00     0.003 A 
ATOM      5  C3  PXY d   1      -1.395   0.627   1.306  0.00  0.00     0.003 A 
ATOM      6  C4  PXY d   1      -1.633  -0.046   0.138  0.00  0.00    -0.082 A 
ATOM      7  C5  PXY d   1      -0.604  -0.617  -0.523  0.00  0.00     0.003 A 
ATOM      8  C6  PXY d   1       0.682  -0.507  -0.001  0.00  0.00     0.003 A 
ENDROOT
TORSDOF 0
ENDMDL
