MODEL 1
REMARK minimizedAffinity -4.08737278
REMARK minimizedRMSD -1
REMARK  0 active torsions:
REMARK  status: ('A' for Active; 'I' for Inactive)
ROOT
ATOM      1  C4' PXY d   1       0.507  -0.235  -2.182  0.00  0.00     0.077 C 
ATOM      2  C1' PXY d   1      -0.997   0.697   3.321  0.00  0.00     0.077 C 
ATOM      3  C1  PXY d   1      -0.609   0.442   1.878  0.00  0.00    -0.082 A 
ATOM      4  C2  PXY d   1       0.463   1.032   1.375  0.00  0.00     0.003 A 
ATOM      5  C3  PXY d   1       0.810   0.837   0.063  0.00  0.00     0.003 A 
ATOM      6  C4  PXY d   1       0.083  -0.013  -0.727  0.00  0.00    -0.082 A 
ATOM      7  C5  PXY d   1      -1.006  -0.627  -0.218  0.00  0.00     0.003 A 
ATOM      8  C6  PXY d   1      -1.365  -0.384   1.105  0.00  0.00     0.003 A 
ENDROOT
TORSDOF 0
ENDMDL
