MODEL 1
REMARK minimizedAffinity -4.03979254
REMARK minimizedRMSD -1
REMARK  0 active torsions:
REMARK  status: ('A' for Active; 'I' for Inactive)
ROOT
ATOM      1  C4' PXY d   1       2.768  -0.696   2.411  0.00  0.00     0.077 C 
ATOM      2  C1' PXY d   1      -2.643   0.588   0.833  0.00  0.00     0.077 C 
ATOM      3  C1  PXY d   1      -1.226   0.258   1.258  0.00  0.00    -0.082 A 
ATOM      4  C2  PXY d   1      -0.327  -0.066   0.342  0.00  0.00     0.003 A 
ATOM      5  C3  PXY d   1       0.951  -0.398   0.712  0.00  0.00     0.003 A 
ATOM      6  C4  PXY d   1       1.327  -0.347   2.027  0.00  0.00    -0.082 A 
ATOM      7  C5  PXY d   1       0.419  -0.007   2.966  0.00  0.00     0.003 A 
ATOM      8  C6  PXY d   1      -0.884   0.287   2.574  0.00  0.00     0.003 A 
ENDROOT
TORSDOF 0
ENDMDL
