MODEL 1
REMARK minimizedAffinity -4.0108614
REMARK minimizedRMSD -1
REMARK  0 active torsions:
REMARK  status: ('A' for Active; 'I' for Inactive)
ROOT
ATOM      1  C   UNL d   1       1.413  -2.247   1.017  0.00  0.00     0.023 A 
ATOM      2  C1  UNL d   1       2.064  -1.239   0.306  0.00  0.00     0.003 A 
ATOM      3  C2  UNL d   1       1.327  -0.200  -0.267  0.00  0.00     0.048 A 
ATOM      4  C3  UNL d   1      -0.060  -0.175  -0.124  0.00  0.00     0.023 A 
ATOM      5  C4  UNL d   1      -0.715  -1.181   0.588  0.00  0.00     0.048 A 
ATOM      6  C5  UNL d   1       0.025  -2.218   1.158  0.00  0.00     0.003 A 
ATOM      7  I   UNL d   1      -1.158   1.371  -0.975  0.00  0.00    -0.146 I 
ENDROOT
TORSDOF 0
ENDMDL
