MODEL 1
REMARK minimizedAffinity -2.85767055
REMARK minimizedRMSD -1
REMARK  0 active torsions:
REMARK  status: ('A' for Active; 'I' for Inactive)
ROOT
ATOM      1  C   UNL d   1       1.609  -1.708   1.234  0.00  0.00     0.023 A 
ATOM      2  C1  UNL d   1       0.221  -1.723   1.370  0.00  0.00     0.003 A 
ATOM      3  C2  UNL d   1      -0.558  -0.774   0.704  0.00  0.00     0.048 A 
ATOM      4  C3  UNL d   1       0.058   0.186  -0.098  0.00  0.00     0.023 A 
ATOM      5  C4  UNL d   1       1.447   0.205  -0.237  0.00  0.00     0.048 A 
ATOM      6  C5  UNL d   1       2.221  -0.745   0.432  0.00  0.00     0.003 A 
ATOM      7  I   UNL d   1      -1.098   1.599  -1.091  0.00  0.00    -0.146 I 
ENDROOT
TORSDOF 0
ENDMDL
