MODEL 1
REMARK minimizedAffinity -2.85892248
REMARK minimizedRMSD -1
REMARK  0 active torsions:
REMARK  status: ('A' for Active; 'I' for Inactive)
ROOT
ATOM      1  C   UNL d   1       1.577  -2.594   0.843  0.00  0.00     0.023 A 
ATOM      2  C1  UNL d   1       2.138  -1.345   0.576  0.00  0.00     0.003 A 
ATOM      3  C2  UNL d   1       1.338  -0.308   0.093  0.00  0.00     0.048 A 
ATOM      4  C3  UNL d   1      -0.023  -0.526  -0.120  0.00  0.00     0.023 A 
ATOM      5  C4  UNL d   1      -0.589  -1.774   0.146  0.00  0.00     0.048 A 
ATOM      6  C5  UNL d   1       0.215  -2.808   0.628  0.00  0.00     0.003 A 
ATOM      7  I   UNL d   1      -1.216   1.017  -0.838  0.00  0.00    -0.146 I 
ENDROOT
TORSDOF 0
ENDMDL
