MODEL 1
REMARK minimizedAffinity -0.714428961
REMARK minimizedRMSD -1
REMARK  0 active torsions:
REMARK  status: ('A' for Active; 'I' for Inactive)
ROOT
ATOM      1  C   UNL d   1      -1.811   1.271   0.540  0.00  0.00     0.023 A 
ATOM      2  C1  UNL d   1      -0.797   1.352  -0.414  0.00  0.00     0.003 A 
ATOM      3  C2  UNL d   1       0.248   0.426  -0.404  0.00  0.00     0.048 A 
ATOM      4  C3  UNL d   1       0.273  -0.578   0.563  0.00  0.00     0.023 A 
ATOM      5  C4  UNL d   1      -0.740  -0.663   1.520  0.00  0.00     0.048 A 
ATOM      6  C5  UNL d   1      -1.782   0.265   1.506  0.00  0.00     0.003 A 
ATOM      7  I   UNL d   1       1.828  -1.957   0.580  0.00  0.00    -0.146 I 
ENDROOT
TORSDOF 0
ENDMDL
