MODEL 1
REMARK minimizedAffinity -4.70981598
REMARK minimizedRMSD -1
REMARK  0 active torsions:
REMARK  status: ('A' for Active; 'I' for Inactive)
ROOT
ATOM      1  C   UNL d   1       1.600  -2.037   0.847  0.00  0.00     0.023 A 
ATOM      2  C1  UNL d   1       0.225  -1.991   1.080  0.00  0.00     0.003 A 
ATOM      3  C2  UNL d   1      -0.549  -0.983   0.503  0.00  0.00     0.048 A 
ATOM      4  C3  UNL d   1       0.057  -0.023  -0.307  0.00  0.00     0.023 A 
ATOM      5  C4  UNL d   1       1.432  -0.065  -0.544  0.00  0.00     0.048 A 
ATOM      6  C5  UNL d   1       2.202  -1.075   0.036  0.00  0.00     0.003 A 
ATOM      7  I   UNL d   1      -1.093   1.479  -1.166  0.00  0.00    -0.146 I 
ENDROOT
TORSDOF 0
ENDMDL
