MODEL 1
REMARK minimizedAffinity -2.42332172
REMARK minimizedRMSD -1
REMARK  0 active torsions:
REMARK  status: ('A' for Active; 'I' for Inactive)
ROOT
ATOM      1  C   UNL d   1       1.807  -2.384   0.733  0.00  0.00     0.023 A 
ATOM      2  C1  UNL d   1       2.264  -1.209   0.137  0.00  0.00     0.003 A 
ATOM      3  C2  UNL d   1       1.373  -0.166  -0.126  0.00  0.00     0.048 A 
ATOM      4  C3  UNL d   1       0.027  -0.305   0.211  0.00  0.00     0.023 A 
ATOM      5  C4  UNL d   1      -0.434  -1.480   0.808  0.00  0.00     0.048 A 
ATOM      6  C5  UNL d   1       0.460  -2.520   1.068  0.00  0.00     0.003 A 
ATOM      7  I   UNL d   1      -1.301   1.245  -0.179  0.00  0.00    -0.146 I 
ENDROOT
TORSDOF 0
ENDMDL
