MODEL 1
REMARK minimizedAffinity -4.04942513
REMARK minimizedRMSD -1
REMARK  0 active torsions:
REMARK  status: ('A' for Active; 'I' for Inactive)
ROOT
ATOM      1  C   UNL d   1       1.538  -2.138   1.249  0.00  0.00     0.023 A 
ATOM      2  C1  UNL d   1       0.204  -2.018   1.639  0.00  0.00     0.003 A 
ATOM      3  C2  UNL d   1      -0.631  -1.098   1.002  0.00  0.00     0.048 A 
ATOM      4  C3  UNL d   1      -0.125  -0.301  -0.024  0.00  0.00     0.023 A 
ATOM      5  C4  UNL d   1       1.209  -0.418  -0.418  0.00  0.00     0.048 A 
ATOM      6  C5  UNL d   1       2.040  -1.339   0.222  0.00  0.00     0.003 A 
ATOM      7  I   UNL d   1      -1.366   1.070  -0.974  0.00  0.00    -0.146 I 
ENDROOT
TORSDOF 0
ENDMDL
