MODEL 1
REMARK minimizedAffinity -2.82595205
REMARK minimizedRMSD -1
REMARK  0 active torsions:
REMARK  status: ('A' for Active; 'I' for Inactive)
ROOT
ATOM      1  C   UNL d   1       1.592  -2.176   0.842  0.00  0.00     0.023 A 
ATOM      2  C1  UNL d   1       0.269  -2.144   1.282  0.00  0.00     0.003 A 
ATOM      3  C2  UNL d   1      -0.589  -1.132   0.846  0.00  0.00     0.048 A 
ATOM      4  C3  UNL d   1      -0.118  -0.157  -0.032  0.00  0.00     0.023 A 
ATOM      5  C4  UNL d   1       1.205  -0.186  -0.476  0.00  0.00     0.048 A 
ATOM      6  C5  UNL d   1       2.060  -1.198  -0.036  0.00  0.00     0.003 A 
ATOM      7  I   UNL d   1      -1.393   1.349  -0.684  0.00  0.00    -0.146 I 
ENDROOT
TORSDOF 0
ENDMDL
