MODEL 1
REMARK minimizedAffinity -2.45969725
REMARK minimizedRMSD -1
REMARK  0 active torsions:
REMARK  status: ('A' for Active; 'I' for Inactive)
ROOT
ATOM      1  C   UNL d   1       1.872  -1.865   0.855  0.00  0.00     0.023 A 
ATOM      2  C1  UNL d   1       0.488  -1.922   1.014  0.00  0.00     0.003 A 
ATOM      3  C2  UNL d   1      -0.322  -0.927   0.463  0.00  0.00     0.048 A 
ATOM      4  C3  UNL d   1       0.260   0.123  -0.247  0.00  0.00     0.023 A 
ATOM      5  C4  UNL d   1       1.645   0.184  -0.409  0.00  0.00     0.048 A 
ATOM      6  C5  UNL d   1       2.450  -0.813   0.144  0.00  0.00     0.003 A 
ATOM      7  I   UNL d   1      -0.943   1.606  -1.068  0.00  0.00    -0.146 I 
ENDROOT
TORSDOF 0
ENDMDL
