MODEL 1
REMARK minimizedAffinity -3.72117829
REMARK minimizedRMSD -1
REMARK  0 active torsions:
REMARK  status: ('A' for Active; 'I' for Inactive)
ROOT
ATOM      1  C   UNL d   1       1.791  -1.772   0.989  0.00  0.00     0.023 A 
ATOM      2  C1  UNL d   1       0.410  -1.967   0.965  0.00  0.00     0.003 A 
ATOM      3  C2  UNL d   1      -0.413  -1.061   0.293  0.00  0.00     0.048 A 
ATOM      4  C3  UNL d   1       0.151   0.037  -0.355  0.00  0.00     0.023 A 
ATOM      5  C4  UNL d   1       1.533   0.236  -0.334  0.00  0.00     0.048 A 
ATOM      6  C5  UNL d   1       2.352  -0.671   0.340  0.00  0.00     0.003 A 
ATOM      7  I   UNL d   1      -1.072   1.386  -1.357  0.00  0.00    -0.146 I 
ENDROOT
TORSDOF 0
ENDMDL
