MODEL 1
REMARK minimizedAffinity -3.03461504
REMARK minimizedRMSD -1
REMARK  0 active torsions:
REMARK  status: ('A' for Active; 'I' for Inactive)
ROOT
ATOM      1  C   UNL d   1       1.535  -2.162   0.890  0.00  0.00     0.023 A 
ATOM      2  C1  UNL d   1       0.169  -2.106   1.168  0.00  0.00     0.003 A 
ATOM      3  C2  UNL d   1      -0.600  -1.043   0.689  0.00  0.00     0.048 A 
ATOM      4  C3  UNL d   1       0.003  -0.041  -0.070  0.00  0.00     0.023 A 
ATOM      5  C4  UNL d   1       1.369  -0.094  -0.352  0.00  0.00     0.048 A 
ATOM      6  C5  UNL d   1       2.134  -1.157   0.130  0.00  0.00     0.003 A 
ATOM      7  I   UNL d   1      -1.139   1.541  -0.785  0.00  0.00    -0.146 I 
ENDROOT
TORSDOF 0
ENDMDL
