MODEL 1
REMARK minimizedAffinity -2.58653688
REMARK minimizedRMSD -1
REMARK  0 active torsions:
REMARK  status: ('A' for Active; 'I' for Inactive)
ROOT
ATOM      1  C   UNL d   1       1.718  -2.046   0.719  0.00  0.00     0.023 A 
ATOM      2  C1  UNL d   1       0.352  -2.010   1.001  0.00  0.00     0.003 A 
ATOM      3  C2  UNL d   1      -0.435  -0.962   0.520  0.00  0.00     0.048 A 
ATOM      4  C3  UNL d   1       0.151   0.048  -0.243  0.00  0.00     0.023 A 
ATOM      5  C4  UNL d   1       1.517   0.016  -0.529  0.00  0.00     0.048 A 
ATOM      6  C5  UNL d   1       2.299  -1.034  -0.045  0.00  0.00     0.003 A 
ATOM      7  I   UNL d   1      -1.018   1.610  -0.960  0.00  0.00    -0.146 I 
ENDROOT
TORSDOF 0
ENDMDL
