MODEL 1
REMARK minimizedAffinity -3.99744081
REMARK minimizedRMSD -1
REMARK  0 active torsions:
REMARK  status: ('A' for Active; 'I' for Inactive)
ROOT
ATOM      1  C   UNL d   1       1.665  -2.133   0.840  0.00  0.00     0.023 A 
ATOM      2  C1  UNL d   1       0.284  -2.249   1.003  0.00  0.00     0.003 A 
ATOM      3  C2  UNL d   1      -0.566  -1.272   0.482  0.00  0.00     0.048 A 
ATOM      4  C3  UNL d   1      -0.030  -0.181  -0.202  0.00  0.00     0.023 A 
ATOM      5  C4  UNL d   1       1.351  -0.061  -0.369  0.00  0.00     0.048 A 
ATOM      6  C5  UNL d   1       2.198  -1.040   0.155  0.00  0.00     0.003 A 
ATOM      7  I   UNL d   1      -1.294   1.274  -0.979  0.00  0.00    -0.146 I 
ENDROOT
TORSDOF 0
ENDMDL
