MODEL 1
REMARK minimizedAffinity 7.48455048
REMARK minimizedRMSD -1
REMARK  2 active torsions:
REMARK  status: ('A' for Active; 'I' for Inactive)
REMARK    1  A    between atoms: C1_2  and  C2_3 
REMARK    2  A    between atoms: C2_3  and  C3_4 
ROOT
ATOM      1  C3  UNL d   1      -1.929   2.266  -1.009  0.00  0.00    -0.075 A 
ATOM      2  C4  UNL d   1      -1.868   3.142   0.085  0.00  0.00     0.002 A 
ATOM      3  C5  UNL d   1      -0.848   4.090   0.177  0.00  0.00     0.002 A 
ATOM      4  C6  UNL d   1       0.127   4.167  -0.815  0.00  0.00    -0.004 A 
ATOM      5  C7  UNL d   1       0.086   3.291  -1.897  0.00  0.00     0.002 A 
ATOM      6  C8  UNL d   1      -0.936   2.345  -1.994  0.00  0.00     0.002 A 
ENDROOT
BRANCH   1   7
ATOM      7  C2  UNL d   1      -3.047   1.258  -1.130  0.00  0.00     0.056 C 
BRANCH   7   8
ATOM      8  C1  UNL d   1      -3.979   1.500  -2.322  0.00  0.00     0.007 C 
ATOM      9  C   UNL d   1      -5.212   0.607  -2.311  0.00  0.00     0.009 C 
ENDBRANCH   7   8
ENDBRANCH   1   7
TORSDOF 2
ENDMDL
