MODEL 1
REMARK minimizedAffinity 13.2747545
REMARK minimizedRMSD -1
REMARK  2 active torsions:
REMARK  status: ('A' for Active; 'I' for Inactive)
REMARK    1  A    between atoms: C1_2  and  C2_3 
REMARK    2  A    between atoms: C2_3  and  C3_4 
ROOT
ATOM      1  C3  UNL d   1       4.211  -5.536  -3.034  0.00  0.00    -0.075 A 
ATOM      2  C4  UNL d   1       5.434  -5.188  -3.628  0.00  0.00     0.002 A 
ATOM      3  C5  UNL d   1       5.586  -5.233  -5.014  0.00  0.00     0.002 A 
ATOM      4  C6  UNL d   1       4.525  -5.635  -5.822  0.00  0.00    -0.004 A 
ATOM      5  C7  UNL d   1       3.311  -5.998  -5.242  0.00  0.00     0.002 A 
ATOM      6  C8  UNL d   1       3.155  -5.951  -3.856  0.00  0.00     0.002 A 
ENDROOT
BRANCH   1   7
ATOM      7  C2  UNL d   1       4.031  -5.462  -1.537  0.00  0.00     0.056 C 
BRANCH   7   8
ATOM      8  C1  UNL d   1       5.274  -4.982  -0.782  0.00  0.00     0.007 C 
ATOM      9  C   UNL d   1       5.701  -5.926   0.335  0.00  0.00     0.009 C 
ENDBRANCH   7   8
ENDBRANCH   1   7
TORSDOF 2
ENDMDL
