MODEL 1
REMARK minimizedAffinity 2.75156355
REMARK minimizedRMSD -1
REMARK  2 active torsions:
REMARK  status: ('A' for Active; 'I' for Inactive)
REMARK    1  A    between atoms: C1_2  and  C2_3 
REMARK    2  A    between atoms: C2_3  and  C3_4 
ROOT
ATOM      1  C3  UNL d   1      -1.322   3.095  -1.880  0.00  0.00    -0.075 A 
ATOM      2  C4  UNL d   1      -0.049   3.548  -2.258  0.00  0.00     0.002 A 
ATOM      3  C5  UNL d   1       1.062   3.289  -1.455  0.00  0.00     0.002 A 
ATOM      4  C6  UNL d   1       0.914   2.585  -0.262  0.00  0.00    -0.004 A 
ATOM      5  C7  UNL d   1      -0.348   2.145   0.131  0.00  0.00     0.002 A 
ATOM      6  C8  UNL d   1      -1.460   2.399  -0.672  0.00  0.00     0.002 A 
ENDROOT
BRANCH   1   7
ATOM      7  C2  UNL d   1      -2.523   3.346  -2.759  0.00  0.00     0.056 C 
BRANCH   7   8
ATOM      8  C1  UNL d   1      -3.117   2.077  -3.381  0.00  0.00     0.007 C 
ATOM      9  C   UNL d   1      -4.082   1.350  -2.455  0.00  0.00     0.009 C 
ENDBRANCH   7   8
ENDBRANCH   1   7
TORSDOF 2
ENDMDL
