MODEL 1
REMARK minimizedAffinity 7.21501493
REMARK minimizedRMSD -1
REMARK  2 active torsions:
REMARK  status: ('A' for Active; 'I' for Inactive)
REMARK    1  A    between atoms: C1_2  and  C2_3 
REMARK    2  A    between atoms: C2_3  and  C3_4 
ROOT
ATOM      1  C3  UNL d   1      -1.830   1.836  -1.679  0.00  0.00    -0.075 A 
ATOM      2  C4  UNL d   1      -1.696   1.748  -0.286  0.00  0.00     0.002 A 
ATOM      3  C5  UNL d   1      -0.705   2.473   0.377  0.00  0.00     0.002 A 
ATOM      4  C6  UNL d   1       0.169   3.284  -0.344  0.00  0.00    -0.004 A 
ATOM      5  C7  UNL d   1       0.055   3.366  -1.730  0.00  0.00     0.002 A 
ATOM      6  C8  UNL d   1      -0.938   2.645  -2.395  0.00  0.00     0.002 A 
ENDROOT
BRANCH   1   7
ATOM      7  C2  UNL d   1      -2.920   1.078  -2.399  0.00  0.00     0.056 C 
BRANCH   7   8
ATOM      8  C1  UNL d   1      -3.621   1.885  -3.497  0.00  0.00     0.007 C 
ATOM      9  C   UNL d   1      -3.593   3.387  -3.248  0.00  0.00     0.009 C 
ENDBRANCH   7   8
ENDBRANCH   1   7
TORSDOF 2
ENDMDL
