MODEL 1
REMARK minimizedAffinity 18.749464
REMARK minimizedRMSD -1
REMARK  2 active torsions:
REMARK  status: ('A' for Active; 'I' for Inactive)
REMARK    1  A    between atoms: C1_2  and  C2_3 
REMARK    2  A    between atoms: C2_3  and  C3_4 
ROOT
ATOM      1  C3  UNL d   1       3.426  -5.097  -1.280  0.00  0.00    -0.075 A 
ATOM      2  C4  UNL d   1       3.389  -3.925  -0.512  0.00  0.00     0.002 A 
ATOM      3  C5  UNL d   1       2.176  -3.425  -0.038  0.00  0.00     0.002 A 
ATOM      4  C6  UNL d   1       0.985  -4.084  -0.336  0.00  0.00    -0.004 A 
ATOM      5  C7  UNL d   1       1.007  -5.240  -1.113  0.00  0.00     0.002 A 
ATOM      6  C8  UNL d   1       2.220  -5.745  -1.584  0.00  0.00     0.002 A 
ENDROOT
BRANCH   1   7
ATOM      7  C2  UNL d   1       4.739  -5.660  -1.771  0.00  0.00     0.056 C 
BRANCH   7   8
ATOM      8  C1  UNL d   1       5.945  -5.265  -0.912  0.00  0.00     0.007 C 
ATOM      9  C   UNL d   1       5.999  -5.998   0.421  0.00  0.00     0.009 C 
ENDBRANCH   7   8
ENDBRANCH   1   7
TORSDOF 2
ENDMDL
