MODEL 1
REMARK minimizedAffinity 7.39400244
REMARK minimizedRMSD -1
REMARK  2 active torsions:
REMARK  status: ('A' for Active; 'I' for Inactive)
REMARK    1  A    between atoms: C1_2  and  C2_3 
REMARK    2  A    between atoms: C2_3  and  C3_4 
ROOT
ATOM      1  C3  UNL d   1      -0.711   2.102  -0.740  0.00  0.00    -0.075 A 
ATOM      2  C4  UNL d   1      -0.690   3.035  -1.787  0.00  0.00     0.002 A 
ATOM      3  C5  UNL d   1      -0.095   4.285  -1.611  0.00  0.00     0.002 A 
ATOM      4  C6  UNL d   1       0.476   4.621  -0.385  0.00  0.00    -0.004 A 
ATOM      5  C7  UNL d   1       0.447   3.708   0.667  0.00  0.00     0.002 A 
ATOM      6  C8  UNL d   1      -0.144   2.455   0.491  0.00  0.00     0.002 A 
ENDROOT
BRANCH   1   7
ATOM      7  C2  UNL d   1      -1.327   0.737  -0.934  0.00  0.00     0.056 C 
BRANCH   7   8
ATOM      8  C1  UNL d   1      -0.382  -0.289  -1.569  0.00  0.00     0.007 C 
ATOM      9  C   UNL d   1      -1.057  -1.621  -1.870  0.00  0.00     0.009 C 
ENDBRANCH   7   8
ENDBRANCH   1   7
TORSDOF 2
ENDMDL
