MODEL 1
REMARK minimizedAffinity 4.8239913
REMARK minimizedRMSD -1
REMARK  2 active torsions:
REMARK  status: ('A' for Active; 'I' for Inactive)
REMARK    1  A    between atoms: C1_2  and  C2_3 
REMARK    2  A    between atoms: C2_3  and  C3_4 
ROOT
ATOM      1  C3  UNL d   1       0.419   1.602   0.383  0.00  0.00    -0.075 A 
ATOM      2  C4  UNL d   1      -0.116   1.450  -0.905  0.00  0.00     0.002 A 
ATOM      3  C5  UNL d   1       0.427   0.520  -1.792  0.00  0.00     0.002 A 
ATOM      4  C6  UNL d   1       1.514  -0.261  -1.408  0.00  0.00    -0.004 A 
ATOM      5  C7  UNL d   1       2.064  -0.107  -0.137  0.00  0.00     0.002 A 
ATOM      6  C8  UNL d   1       1.521   0.820   0.754  0.00  0.00     0.002 A 
ENDROOT
BRANCH   1   7
ATOM      7  C2  UNL d   1      -0.182   2.586   1.358  0.00  0.00     0.056 C 
BRANCH   7   8
ATOM      8  C1  UNL d   1      -1.701   2.742   1.230  0.00  0.00     0.007 C 
ATOM      9  C   UNL d   1      -2.464   2.203   2.433  0.00  0.00     0.009 C 
ENDBRANCH   7   8
ENDBRANCH   1   7
TORSDOF 2
ENDMDL
