MODEL 1
REMARK minimizedAffinity -1.48068821
REMARK minimizedRMSD -1
REMARK  2 active torsions:
REMARK  status: ('A' for Active; 'I' for Inactive)
REMARK    1  A    between atoms: C1_2  and  C2_3 
REMARK    2  A    between atoms: C2_3  and  C3_4 
ROOT
ATOM      1  C3  UNL d   1       1.458   4.199   0.682  0.00  0.00    -0.075 A 
ATOM      2  C4  UNL d   1       2.586   4.048   1.501  0.00  0.00     0.002 A 
ATOM      3  C5  UNL d   1       2.638   3.029   2.454  0.00  0.00     0.002 A 
ATOM      4  C6  UNL d   1       1.562   2.158   2.605  0.00  0.00    -0.004 A 
ATOM      5  C7  UNL d   1       0.430   2.309   1.808  0.00  0.00     0.002 A 
ATOM      6  C8  UNL d   1       0.377   3.325   0.851  0.00  0.00     0.002 A 
ENDROOT
BRANCH   1   7
ATOM      7  C2  UNL d   1       1.408   5.281  -0.371  0.00  0.00     0.056 C 
BRANCH   7   8
ATOM      8  C1  UNL d   1       0.648   4.881  -1.640  0.00  0.00     0.007 C 
ATOM      9  C   UNL d   1      -0.225   5.999  -2.195  0.00  0.00     0.009 C 
ENDBRANCH   7   8
ENDBRANCH   1   7
TORSDOF 2
ENDMDL
