MODEL 1
REMARK minimizedAffinity 5.31312084
REMARK minimizedRMSD -1
REMARK  2 active torsions:
REMARK  status: ('A' for Active; 'I' for Inactive)
REMARK    1  A    between atoms: C1_2  and  C2_3 
REMARK    2  A    between atoms: C2_3  and  C3_4 
ROOT
ATOM      1  C3  UNL d   1      -0.343   4.852  -1.105  0.00  0.00    -0.075 A 
ATOM      2  C4  UNL d   1      -1.095   5.006   0.068  0.00  0.00     0.002 A 
ATOM      3  C5  UNL d   1      -1.189   3.963   0.990  0.00  0.00     0.002 A 
ATOM      4  C6  UNL d   1      -0.542   2.753   0.747  0.00  0.00    -0.004 A 
ATOM      5  C7  UNL d   1       0.194   2.584  -0.424  0.00  0.00     0.002 A 
ATOM      6  C8  UNL d   1       0.293   3.627  -1.346  0.00  0.00     0.002 A 
ENDROOT
BRANCH   1   7
ATOM      7  C2  UNL d   1      -0.213   5.987  -2.093  0.00  0.00     0.056 C 
BRANCH   7   8
ATOM      8  C1  UNL d   1      -1.286   5.988  -3.187  0.00  0.00     0.007 C 
ATOM      9  C   UNL d   1      -2.581   5.310  -2.758  0.00  0.00     0.009 C 
ENDBRANCH   7   8
ENDBRANCH   1   7
TORSDOF 2
ENDMDL
