MODEL 1
REMARK minimizedAffinity -5.02943611
REMARK minimizedRMSD -1
REMARK  1 active torsions:
REMARK  status: ('A' for Active; 'I' for Inactive)
REMARK    1  A    between atoms: C3_4  and  O_7 
ROOT
ATOM      1  C   UNL d   1       0.704  -0.195   0.064  0.00  0.00    -0.033 A 
ATOM      2  C1  UNL d   1      -0.284   0.516  -0.621  0.00  0.00     0.039 A 
ATOM      3  C2  UNL d   1      -1.117   1.399   0.069  0.00  0.00    -0.080 A 
ATOM      4  C3  UNL d   1      -0.952   1.562   1.441  0.00  0.00     0.150 A 
ATOM      5  C4  UNL d   1       0.032   0.860   2.130  0.00  0.00    -0.007 A 
ATOM      6  C5  UNL d   1       0.862  -0.022   1.439  0.00  0.00     0.039 A 
ENDROOT
BRANCH   4   7
ATOM      7  O   UNL d   1      -1.744   2.409   2.158  0.00  0.00    -0.526 OA
ATOM      8  H5  UNL d   1      -2.397   2.804   1.556  0.00  0.00     0.418 HD
ENDBRANCH   4   7
TORSDOF 1
ENDMDL
