MODEL 1
REMARK minimizedAffinity -5.16748285
REMARK minimizedRMSD -1
REMARK  1 active torsions:
REMARK  status: ('A' for Active; 'I' for Inactive)
REMARK    1  A    between atoms: C3_4  and  O_7 
ROOT
ATOM      1  C   UNL d   1      -1.123   0.156   0.478  0.00  0.00    -0.033 A 
ATOM      2  C1  UNL d   1      -0.952   1.520   0.230  0.00  0.00     0.039 A 
ATOM      3  C2  UNL d   1      -0.772   1.976  -1.078  0.00  0.00    -0.080 A 
ATOM      4  C3  UNL d   1      -0.767   1.059  -2.126  0.00  0.00     0.150 A 
ATOM      5  C4  UNL d   1      -0.940  -0.300  -1.886  0.00  0.00    -0.007 A 
ATOM      6  C5  UNL d   1      -1.118  -0.753  -0.580  0.00  0.00     0.039 A 
ENDROOT
BRANCH   4   7
ATOM      7  O   UNL d   1      -0.590   1.456  -3.418  0.00  0.00    -0.526 OA
ATOM      8  H5  UNL d   1      -0.454   2.419  -3.429  0.00  0.00     0.418 HD
ENDBRANCH   4   7
TORSDOF 1
ENDMDL
