MODEL 1
REMARK minimizedAffinity 0.230543166
REMARK minimizedRMSD -1
REMARK  1 active torsions:
REMARK  status: ('A' for Active; 'I' for Inactive)
REMARK    1  A    between atoms: C3_4  and  O_7 
ROOT
ATOM      1  C   UNL d   1       0.747   1.212   3.077  0.00  0.00    -0.033 A 
ATOM      2  C1  UNL d   1       0.932   2.206   2.113  0.00  0.00     0.039 A 
ATOM      3  C2  UNL d   1       0.776   1.905   0.759  0.00  0.00    -0.080 A 
ATOM      4  C3  UNL d   1       0.434   0.609   0.381  0.00  0.00     0.150 A 
ATOM      5  C4  UNL d   1       0.245  -0.385   1.336  0.00  0.00    -0.007 A 
ATOM      6  C5  UNL d   1       0.402  -0.083   2.688  0.00  0.00     0.039 A 
ENDROOT
BRANCH   4   7
ATOM      7  O   UNL d   1       0.276   0.267  -0.929  0.00  0.00    -0.526 OA
ATOM      8  H5  UNL d   1       0.466   1.048  -1.476  0.00  0.00     0.418 HD
ENDBRANCH   4   7
TORSDOF 1
ENDMDL
