MODEL 1
REMARK minimizedAffinity -4.8312149
REMARK minimizedRMSD -1
REMARK  1 active torsions:
REMARK  status: ('A' for Active; 'I' for Inactive)
REMARK    1  A    between atoms: C3_4  and  O_7 
ROOT
ATOM      1  C   UNL d   1      -0.996   3.139   0.011  0.00  0.00    -0.033 A 
ATOM      2  C1  UNL d   1       0.143   3.553   0.704  0.00  0.00     0.039 A 
ATOM      3  C2  UNL d   1       0.572   2.848   1.830  0.00  0.00    -0.080 A 
ATOM      4  C3  UNL d   1      -0.145   1.732   2.251  0.00  0.00     0.150 A 
ATOM      5  C4  UNL d   1      -1.278   1.311   1.563  0.00  0.00    -0.007 A 
ATOM      6  C5  UNL d   1      -1.706   2.017   0.440  0.00  0.00     0.039 A 
ENDROOT
BRANCH   4   7
ATOM      7  O   UNL d   1       0.233   1.015   3.347  0.00  0.00    -0.526 OA
ATOM      8  H5  UNL d   1       1.015   1.439   3.738  0.00  0.00     0.418 HD
ENDBRANCH   4   7
TORSDOF 1
ENDMDL
