MODEL 1
REMARK minimizedAffinity -2.81077909
REMARK minimizedRMSD -1
REMARK  1 active torsions:
REMARK  status: ('A' for Active; 'I' for Inactive)
REMARK    1  A    between atoms: C3_4  and  O_7 
ROOT
ATOM      1  C   UNL d   1       0.272   1.015  -1.884  0.00  0.00    -0.033 A 
ATOM      2  C1  UNL d   1       0.515   0.000  -0.956  0.00  0.00     0.039 A 
ATOM      3  C2  UNL d   1       0.585   0.299   0.406  0.00  0.00    -0.080 A 
ATOM      4  C3  UNL d   1       0.410   1.614   0.827  0.00  0.00     0.150 A 
ATOM      5  C4  UNL d   1       0.163   2.630  -0.091  0.00  0.00    -0.007 A 
ATOM      6  C5  UNL d   1       0.095   2.330  -1.451  0.00  0.00     0.039 A 
ENDROOT
BRANCH   4   7
ATOM      7  O   UNL d   1       0.474   1.955   2.145  0.00  0.00    -0.526 OA
ATOM      8  H5  UNL d   1       0.679   1.157   2.660  0.00  0.00     0.418 HD
ENDBRANCH   4   7
TORSDOF 1
ENDMDL
