MODEL 1
REMARK minimizedAffinity -4.48464012
REMARK minimizedRMSD -1
REMARK  1 active torsions:
REMARK  status: ('A' for Active; 'I' for Inactive)
REMARK    1  A    between atoms: C3_4  and  O_7 
ROOT
ATOM      1  C   UNL d   1      -0.534  -0.733  -0.186  0.00  0.00    -0.033 A 
ATOM      2  C1  UNL d   1       0.697  -0.789   0.471  0.00  0.00     0.039 A 
ATOM      3  C2  UNL d   1       1.048   0.207   1.384  0.00  0.00    -0.080 A 
ATOM      4  C3  UNL d   1       0.161   1.251   1.633  0.00  0.00     0.150 A 
ATOM      5  C4  UNL d   1      -1.068   1.310   0.985  0.00  0.00    -0.007 A 
ATOM      6  C5  UNL d   1      -1.417   0.316   0.072  0.00  0.00     0.039 A 
ENDROOT
BRANCH   4   7
ATOM      7  O   UNL d   1       0.462   2.248   2.512  0.00  0.00    -0.526 OA
ATOM      8  H5  UNL d   1       1.355   2.091   2.862  0.00  0.00     0.418 HD
ENDBRANCH   4   7
TORSDOF 1
ENDMDL
