MODEL 1
REMARK minimizedAffinity -4.57353687
REMARK minimizedRMSD -1
REMARK  1 active torsions:
REMARK  status: ('A' for Active; 'I' for Inactive)
REMARK    1  A    between atoms: C3_4  and  O_7 
ROOT
ATOM      1  C   UNL d   1       0.468   0.017   2.217  0.00  0.00    -0.033 A 
ATOM      2  C1  UNL d   1      -0.036   1.316   2.303  0.00  0.00     0.039 A 
ATOM      3  C2  UNL d   1      -0.403   2.002   1.144  0.00  0.00    -0.080 A 
ATOM      4  C3  UNL d   1      -0.261   1.379  -0.093  0.00  0.00     0.150 A 
ATOM      5  C4  UNL d   1       0.238   0.084  -0.185  0.00  0.00    -0.007 A 
ATOM      6  C5  UNL d   1       0.604  -0.600   0.973  0.00  0.00     0.039 A 
ENDROOT
BRANCH   4   7
ATOM      7  O   UNL d   1      -0.600   2.011  -1.252  0.00  0.00    -0.526 OA
ATOM      8  H5  UNL d   1      -0.902   2.909  -1.036  0.00  0.00     0.418 HD
ENDBRANCH   4   7
TORSDOF 1
ENDMDL
