MODEL 1
REMARK minimizedAffinity -5.23221445
REMARK minimizedRMSD -1
REMARK  1 active torsions:
REMARK  status: ('A' for Active; 'I' for Inactive)
REMARK    1  A    between atoms: C3_4  and  O_7 
ROOT
ATOM      1  C   UNL d   1       0.673  -0.427   0.266  0.00  0.00    -0.033 A 
ATOM      2  C1  UNL d   1       0.933  -0.030   1.579  0.00  0.00     0.039 A 
ATOM      3  C2  UNL d   1       0.163   0.970   2.174  0.00  0.00    -0.080 A 
ATOM      4  C3  UNL d   1      -0.864   1.565   1.446  0.00  0.00     0.150 A 
ATOM      5  C4  UNL d   1      -1.131   1.173   0.139  0.00  0.00    -0.007 A 
ATOM      6  C5  UNL d   1      -0.360   0.174  -0.454  0.00  0.00     0.039 A 
ENDROOT
BRANCH   4   7
ATOM      7  O   UNL d   1      -1.640   2.550   1.983  0.00  0.00    -0.526 OA
ATOM      8  H5  UNL d   1      -1.322   2.737   2.882  0.00  0.00     0.418 HD
ENDBRANCH   4   7
TORSDOF 1
ENDMDL
