MODEL 1
REMARK minimizedAffinity 1.32843709
REMARK minimizedRMSD -1
REMARK  1 active torsions:
REMARK  status: ('A' for Active; 'I' for Inactive)
REMARK    1  A    between atoms: C3_4  and  O_7 
ROOT
ATOM      1  C   UNL d   1       0.851   0.555   4.022  0.00  0.00    -0.033 A 
ATOM      2  C1  UNL d   1       1.285  -0.747   3.764  0.00  0.00     0.039 A 
ATOM      3  C2  UNL d   1       1.427  -1.189   2.447  0.00  0.00    -0.080 A 
ATOM      4  C3  UNL d   1       1.134  -0.320   1.399  0.00  0.00     0.150 A 
ATOM      5  C4  UNL d   1       0.705   0.979   1.649  0.00  0.00    -0.007 A 
ATOM      6  C5  UNL d   1       0.563   1.418   2.965  0.00  0.00     0.039 A 
ENDROOT
BRANCH   4   7
ATOM      7  O   UNL d   1       1.253  -0.708   0.098  0.00  0.00    -0.526 OA
ATOM      8  H5  UNL d   1       1.531  -1.639   0.078  0.00  0.00     0.418 HD
ENDBRANCH   4   7
TORSDOF 1
ENDMDL
