MODEL 1
REMARK minimizedAffinity -4.66151667
REMARK minimizedRMSD -1
REMARK  1 active torsions:
REMARK  status: ('A' for Active; 'I' for Inactive)
REMARK    1  A    between atoms: C3_4  and  O_7 
ROOT
ATOM      1  C   UNL d   1      -0.747   0.689   0.536  0.00  0.00    -0.033 A 
ATOM      2  C1  UNL d   1      -0.439   1.121   1.828  0.00  0.00     0.039 A 
ATOM      3  C2  UNL d   1       0.673   1.936   2.047  0.00  0.00    -0.080 A 
ATOM      4  C3  UNL d   1       1.467   2.313   0.967  0.00  0.00     0.150 A 
ATOM      5  C4  UNL d   1       1.164   1.889  -0.323  0.00  0.00    -0.007 A 
ATOM      6  C5  UNL d   1       0.054   1.074  -0.539  0.00  0.00     0.039 A 
ENDROOT
BRANCH   4   7
ATOM      7  O   UNL d   1       2.565   3.104   1.132  0.00  0.00    -0.526 OA
ATOM      8  H5  UNL d   1       2.667   3.295   2.079  0.00  0.00     0.418 HD
ENDBRANCH   4   7
TORSDOF 1
ENDMDL
