MODEL 1
REMARK minimizedAffinity -4.40272713
REMARK minimizedRMSD -1
REMARK  1 active torsions:
REMARK  status: ('A' for Active; 'I' for Inactive)
REMARK    1  A    between atoms: C3_4  and  O_7 
ROOT
ATOM      1  C   UNL d   1      -0.481  -0.159  -0.205  0.00  0.00    -0.033 A 
ATOM      2  C1  UNL d   1       0.489   0.601  -0.861  0.00  0.00     0.039 A 
ATOM      3  C2  UNL d   1       0.879   1.837  -0.341  0.00  0.00    -0.080 A 
ATOM      4  C3  UNL d   1       0.292   2.300   0.833  0.00  0.00     0.150 A 
ATOM      5  C4  UNL d   1      -0.672   1.546   1.494  0.00  0.00    -0.007 A 
ATOM      6  C5  UNL d   1      -1.061   0.313   0.973  0.00  0.00     0.039 A 
ENDROOT
BRANCH   4   7
ATOM      7  O   UNL d   1       0.636   3.503   1.376  0.00  0.00    -0.526 OA
ATOM      8  H5  UNL d   1       1.292   3.925   0.797  0.00  0.00     0.418 HD
ENDBRANCH   4   7
TORSDOF 1
ENDMDL
