MODEL 1
REMARK minimizedAffinity -2.30029726
REMARK minimizedRMSD -1
REMARK  1 active torsions:
REMARK  status: ('A' for Active; 'I' for Inactive)
REMARK    1  A    between atoms: C3_4  and  O_7 
ROOT
ATOM      1  C   UNL d   1       0.816   0.779   0.906  0.00  0.00    -0.033 A 
ATOM      2  C1  UNL d   1       1.435  -0.047  -0.034  0.00  0.00     0.039 A 
ATOM      3  C2  UNL d   1       0.678  -0.969  -0.760  0.00  0.00    -0.080 A 
ATOM      4  C3  UNL d   1      -0.693  -1.055  -0.537  0.00  0.00     0.150 A 
ATOM      5  C4  UNL d   1      -1.316  -0.232   0.396  0.00  0.00    -0.007 A 
ATOM      6  C5  UNL d   1      -0.559   0.688   1.120  0.00  0.00     0.039 A 
ENDROOT
BRANCH   4   7
ATOM      7  O   UNL d   1      -1.472  -1.943  -1.218  0.00  0.00    -0.526 OA
ATOM      8  H5  UNL d   1      -0.901  -2.464  -1.807  0.00  0.00     0.418 HD
ENDBRANCH   4   7
TORSDOF 1
ENDMDL
