MODEL 1
REMARK minimizedAffinity -5.34461355
REMARK minimizedRMSD -1
REMARK  1 active torsions:
REMARK  status: ('A' for Active; 'I' for Inactive)
REMARK    1  A    between atoms: C3_4  and  O_7 
ROOT
ATOM      1  C   UNL d   1      -0.522  -0.281   0.321  0.00  0.00    -0.033 A 
ATOM      2  C1  UNL d   1       0.323   0.406  -0.553  0.00  0.00     0.039 A 
ATOM      3  C2  UNL d   1       0.785   1.681  -0.221  0.00  0.00    -0.080 A 
ATOM      4  C3  UNL d   1       0.396   2.257   0.985  0.00  0.00     0.150 A 
ATOM      5  C4  UNL d   1      -0.443   1.577   1.861  0.00  0.00    -0.007 A 
ATOM      6  C5  UNL d   1      -0.904   0.304   1.528  0.00  0.00     0.039 A 
ENDROOT
BRANCH   4   7
ATOM      7  O   UNL d   1       0.817   3.502   1.349  0.00  0.00    -0.526 OA
ATOM      8  H5  UNL d   1       1.367   3.862   0.633  0.00  0.00     0.418 HD
ENDBRANCH   4   7
TORSDOF 1
ENDMDL
