MODEL 1
REMARK minimizedAffinity -4.13169146
REMARK minimizedRMSD -1
REMARK  1 active torsions:
REMARK  status: ('A' for Active; 'I' for Inactive)
REMARK    1  A    between atoms: C3_4  and  O_7 
ROOT
ATOM      1  C   UNL d   1      -0.400  -0.574  -0.093  0.00  0.00    -0.033 A 
ATOM      2  C1  UNL d   1       0.669   0.026  -0.761  0.00  0.00     0.039 A 
ATOM      3  C2  UNL d   1       1.168   1.253  -0.322  0.00  0.00    -0.080 A 
ATOM      4  C3  UNL d   1       0.591   1.869   0.785  0.00  0.00     0.150 A 
ATOM      5  C4  UNL d   1      -0.471   1.275   1.458  0.00  0.00    -0.007 A 
ATOM      6  C5  UNL d   1      -0.969   0.050   1.017  0.00  0.00     0.039 A 
ENDROOT
BRANCH   4   7
ATOM      7  O   UNL d   1       1.042   3.070   1.248  0.00  0.00    -0.526 OA
ATOM      8  H5  UNL d   1       1.760   3.373   0.668  0.00  0.00     0.418 HD
ENDBRANCH   4   7
TORSDOF 1
ENDMDL
