MODEL 1
REMARK minimizedAffinity -3.79708529
REMARK minimizedRMSD -1
REMARK  1 active torsions:
REMARK  status: ('A' for Active; 'I' for Inactive)
REMARK    1  A    between atoms: C3_4  and  O_7 
ROOT
ATOM      1  C   UNL d   1      -0.163  -1.176  -0.435  0.00  0.00    -0.033 A 
ATOM      2  C1  UNL d   1      -1.090  -0.782   0.532  0.00  0.00     0.039 A 
ATOM      3  C2  UNL d   1      -0.880   0.386   1.268  0.00  0.00    -0.080 A 
ATOM      4  C3  UNL d   1       0.257   1.151   1.027  0.00  0.00     0.150 A 
ATOM      5  C4  UNL d   1       1.183   0.767   0.062  0.00  0.00    -0.007 A 
ATOM      6  C5  UNL d   1       0.972  -0.401  -0.671  0.00  0.00     0.039 A 
ENDROOT
BRANCH   4   7
ATOM      7  O   UNL d   1       0.507   2.296   1.723  0.00  0.00    -0.526 OA
ATOM      8  H5  UNL d   1      -0.202   2.421   2.375  0.00  0.00     0.418 HD
ENDBRANCH   4   7
TORSDOF 1
ENDMDL
