MODEL 1
REMARK minimizedAffinity -3.59717011
REMARK minimizedRMSD -1
REMARK  1 active torsions:
REMARK  status: ('A' for Active; 'I' for Inactive)
REMARK    1  A    between atoms: C3_4  and  O_7 
ROOT
ATOM      1  C   UNL d   1      -0.068  -1.077  -0.105  0.00  0.00    -0.033 A 
ATOM      2  C1  UNL d   1       1.121  -0.409  -0.405  0.00  0.00     0.039 A 
ATOM      3  C2  UNL d   1       1.438   0.783   0.248  0.00  0.00    -0.080 A 
ATOM      4  C3  UNL d   1       0.560   1.296   1.199  0.00  0.00     0.150 A 
ATOM      5  C4  UNL d   1      -0.624   0.634   1.506  0.00  0.00    -0.007 A 
ATOM      6  C5  UNL d   1      -0.939  -0.556   0.852  0.00  0.00     0.039 A 
ENDROOT
BRANCH   4   7
ATOM      7  O   UNL d   1       0.825   2.459   1.860  0.00  0.00    -0.526 OA
ATOM      8  H5  UNL d   1       1.662   2.820   1.524  0.00  0.00     0.418 HD
ENDBRANCH   4   7
TORSDOF 1
ENDMDL
