MODEL 1
REMARK minimizedAffinity -4.41768217
REMARK minimizedRMSD -1
REMARK  1 active torsions:
REMARK  status: ('A' for Active; 'I' for Inactive)
REMARK    1  A    between atoms: C3_4  and  O_7 
ROOT
ATOM      1  C   UNL d   1       1.031  -0.642  -0.419  0.00  0.00    -0.033 A 
ATOM      2  C1  UNL d   1       2.226   0.069  -0.556  0.00  0.00     0.039 A 
ATOM      3  C2  UNL d   1       2.353   1.338   0.011  0.00  0.00    -0.080 A 
ATOM      4  C3  UNL d   1       1.281   1.885   0.711  0.00  0.00     0.150 A 
ATOM      5  C4  UNL d   1       0.090   1.181   0.854  0.00  0.00    -0.007 A 
ATOM      6  C5  UNL d   1      -0.036  -0.086   0.287  0.00  0.00     0.039 A 
ENDROOT
BRANCH   4   7
ATOM      7  O   UNL d   1       1.357   3.123   1.277  0.00  0.00    -0.526 OA
ATOM      8  H5  UNL d   1       2.228   3.502   1.072  0.00  0.00     0.418 HD
ENDBRANCH   4   7
TORSDOF 1
ENDMDL
