MODEL 1
REMARK minimizedAffinity -1.52141011
REMARK minimizedRMSD -1
REMARK  1 active torsions:
REMARK  status: ('A' for Active; 'I' for Inactive)
REMARK    1  A    between atoms: C3_4  and  O_7 
ROOT
ATOM      1  C   UNL d   1      -0.282  -0.959  -0.366  0.00  0.00    -0.033 A 
ATOM      2  C1  UNL d   1      -1.245  -0.642   0.594  0.00  0.00     0.039 A 
ATOM      3  C2  UNL d   1      -1.053   0.448   1.445  0.00  0.00    -0.080 A 
ATOM      4  C3  UNL d   1       0.104   1.213   1.325  0.00  0.00     0.150 A 
ATOM      5  C4  UNL d   1       1.065   0.906   0.368  0.00  0.00    -0.007 A 
ATOM      6  C5  UNL d   1       0.872  -0.184  -0.480  0.00  0.00     0.039 A 
ENDROOT
BRANCH   4   7
ATOM      7  O   UNL d   1       0.337   2.284   2.136  0.00  0.00    -0.526 OA
ATOM      8  H5  UNL d   1      -0.398   2.359   2.766  0.00  0.00     0.418 HD
ENDBRANCH   4   7
TORSDOF 1
ENDMDL
