MODEL 1
REMARK minimizedAffinity -3.30009866
REMARK minimizedRMSD -1
REMARK  1 active torsions:
REMARK  status: ('A' for Active; 'I' for Inactive)
REMARK    1  A    between atoms: C3_4  and  O_7 
ROOT
ATOM      1  C   UNL d   1       2.722   2.407   1.293  0.00  0.00    -0.033 A 
ATOM      2  C1  UNL d   1       3.140   1.572   0.255  0.00  0.00     0.039 A 
ATOM      3  C2  UNL d   1       2.209   0.796  -0.438  0.00  0.00    -0.080 A 
ATOM      4  C3  UNL d   1       0.864   0.866  -0.084  0.00  0.00     0.150 A 
ATOM      5  C4  UNL d   1       0.440   1.699   0.946  0.00  0.00    -0.007 A 
ATOM      6  C5  UNL d   1       1.372   2.472   1.637  0.00  0.00     0.039 A 
ENDROOT
BRANCH   4   7
ATOM      7  O   UNL d   1      -0.081   0.124  -0.728  0.00  0.00    -0.526 OA
ATOM      8  H5  UNL d   1       0.361  -0.426  -1.396  0.00  0.00     0.418 HD
ENDBRANCH   4   7
TORSDOF 1
ENDMDL
