MODEL 1
REMARK minimizedAffinity -4.42844629
REMARK minimizedRMSD -1
REMARK  1 active torsions:
REMARK  status: ('A' for Active; 'I' for Inactive)
REMARK    1  A    between atoms: C3_4  and  O_7 
ROOT
ATOM      1  C   UNL d   1       3.638   2.020   0.101  0.00  0.00    -0.033 A 
ATOM      2  C1  UNL d   1       3.778   1.624   1.432  0.00  0.00     0.039 A 
ATOM      3  C2  UNL d   1       2.664   1.586   2.273  0.00  0.00    -0.080 A 
ATOM      4  C3  UNL d   1       1.416   1.945   1.770  0.00  0.00     0.150 A 
ATOM      5  C4  UNL d   1       1.269   2.338   0.443  0.00  0.00    -0.007 A 
ATOM      6  C5  UNL d   1       2.383   2.376  -0.394  0.00  0.00     0.039 A 
ENDROOT
BRANCH   4   7
ATOM      7  O   UNL d   1       0.301   1.928   2.553  0.00  0.00    -0.526 OA
ATOM      8  H5  UNL d   1       0.559   1.665   3.452  0.00  0.00     0.418 HD
ENDBRANCH   4   7
TORSDOF 1
ENDMDL
