MODEL 1
REMARK minimizedAffinity -1.60861337
REMARK minimizedRMSD -1
REMARK  1 active torsions:
REMARK  status: ('A' for Active; 'I' for Inactive)
REMARK    1  A    between atoms: C3_4  and  O_7 
ROOT
ATOM      1  C   UNL d   1      -0.681  -0.233   0.640  0.00  0.00    -0.033 A 
ATOM      2  C1  UNL d   1      -0.981   0.429   1.832  0.00  0.00     0.039 A 
ATOM      3  C2  UNL d   1      -0.353   1.638   2.137  0.00  0.00    -0.080 A 
ATOM      4  C3  UNL d   1       0.570   2.174   1.244  0.00  0.00     0.150 A 
ATOM      5  C4  UNL d   1       0.871   1.521   0.053  0.00  0.00    -0.007 A 
ATOM      6  C5  UNL d   1       0.244   0.314  -0.250  0.00  0.00     0.039 A 
ENDROOT
BRANCH   4   7
ATOM      7  O   UNL d   1       1.212   3.349   1.501  0.00  0.00    -0.526 OA
ATOM      8  H5  UNL d   1       0.926   3.672   2.372  0.00  0.00     0.418 HD
ENDBRANCH   4   7
TORSDOF 1
ENDMDL
