MODEL 1
REMARK minimizedAffinity -4.1715703
REMARK minimizedRMSD -1
REMARK  1 active torsions:
REMARK  status: ('A' for Active; 'I' for Inactive)
REMARK    1  A    between atoms: C3_4  and  O_7 
ROOT
ATOM      1  C   UNL d   1       2.077   2.173   1.713  0.00  0.00    -0.033 A 
ATOM      2  C1  UNL d   1       0.697   2.099   1.912  0.00  0.00     0.039 A 
ATOM      3  C2  UNL d   1      -0.058   1.148   1.224  0.00  0.00    -0.080 A 
ATOM      4  C3  UNL d   1       0.577   0.278   0.342  0.00  0.00     0.150 A 
ATOM      5  C4  UNL d   1       1.952   0.344   0.142  0.00  0.00    -0.007 A 
ATOM      6  C5  UNL d   1       2.705   1.295   0.829  0.00  0.00     0.039 A 
ENDROOT
BRANCH   4   7
ATOM      7  O   UNL d   1      -0.120  -0.664  -0.355  0.00  0.00    -0.526 OA
ATOM      8  H5  UNL d   1      -1.062  -0.574  -0.138  0.00  0.00     0.418 HD
ENDBRANCH   4   7
TORSDOF 1
ENDMDL
