MODEL 1
REMARK minimizedAffinity -0.274876535
REMARK minimizedRMSD -1
REMARK  1 active torsions:
REMARK  status: ('A' for Active; 'I' for Inactive)
REMARK    1  A    between atoms: C3_4  and  O_7 
ROOT
ATOM      1  C   UNL d   1      -0.993   0.578   1.445  0.00  0.00    -0.033 A 
ATOM      2  C1  UNL d   1      -0.032   1.463   1.939  0.00  0.00     0.039 A 
ATOM      3  C2  UNL d   1       1.270   1.434   1.436  0.00  0.00    -0.080 A 
ATOM      4  C3  UNL d   1       1.598   0.518   0.440  0.00  0.00     0.150 A 
ATOM      5  C4  UNL d   1       0.645  -0.363  -0.060  0.00  0.00    -0.007 A 
ATOM      6  C5  UNL d   1      -0.655  -0.334   0.445  0.00  0.00     0.039 A 
ENDROOT
BRANCH   4   7
ATOM      7  O   UNL d   1       2.857   0.449  -0.079  0.00  0.00    -0.526 OA
ATOM      8  H5  UNL d   1       3.415   1.098   0.381  0.00  0.00     0.418 HD
ENDBRANCH   4   7
TORSDOF 1
ENDMDL
