MODEL 1
REMARK minimizedAffinity -4.79977703
REMARK minimizedRMSD -1
REMARK  3 active torsions:
REMARK  status: ('A' for Active; 'I' for Inactive)
REMARK    1  A    between atoms: C3'_2  and  C2'_3 
REMARK    2  A    between atoms: C2'_3  and  C1'_4 
REMARK    3  A    between atoms: C1'_4  and  C1_5 
ROOT
ATOM      1  C1  N4B d   1      -0.062  -0.201  -0.061  0.00  0.00    -0.075 A 
ATOM      2  C2  N4B d   1       0.723  -1.000  -0.920  0.00  0.00     0.002 A 
ATOM      3  C3  N4B d   1       0.669  -2.369  -0.826  0.00  0.00     0.002 A 
ATOM      4  C4  N4B d   1      -0.145  -2.959   0.130  0.00  0.00    -0.004 A 
ATOM      5  C5  N4B d   1      -0.920  -2.181   0.939  0.00  0.00     0.002 A 
ATOM      6  C6  N4B d   1      -0.879  -0.804   0.852  0.00  0.00     0.002 A 
ENDROOT
BRANCH   1   7
ATOM      7  C1' N4B d   1       0.027   1.300  -0.069  0.00  0.00     0.057 C 
BRANCH   7   8
ATOM      8  C2' N4B d   1       1.423   1.721   0.381  0.00  0.00     0.009 C 
BRANCH   8   9
ATOM      9  C3' N4B d   1       1.493   3.203   0.707  0.00  0.00     0.004 C 
ATOM     10  C4' N4B d   1       2.366   3.496   1.891  0.00  0.00     0.003 C 
ENDBRANCH   8   9
ENDBRANCH   7   8
ENDBRANCH   1   7
TORSDOF 3
ENDMDL
