MODEL 1
REMARK minimizedAffinity -6.24477577
REMARK minimizedRMSD -1
REMARK  3 active torsions:
REMARK  status: ('A' for Active; 'I' for Inactive)
REMARK    1  A    between atoms: C3'_2  and  C2'_3 
REMARK    2  A    between atoms: C2'_3  and  C1'_4 
REMARK    3  A    between atoms: C1'_4  and  C1_5 
ROOT
ATOM      1  C1  N4B d   1       0.205  -0.304   0.231  0.00  0.00    -0.075 A 
ATOM      2  C2  N4B d   1      -0.464  -0.905   1.319  0.00  0.00     0.002 A 
ATOM      3  C3  N4B d   1      -0.632  -2.268   1.354  0.00  0.00     0.002 A 
ATOM      4  C4  N4B d   1      -0.158  -3.044   0.308  0.00  0.00    -0.004 A 
ATOM      5  C5  N4B d   1       0.510  -2.458  -0.728  0.00  0.00     0.002 A 
ATOM      6  C6  N4B d   1       0.690  -1.090  -0.774  0.00  0.00     0.002 A 
ENDROOT
BRANCH   1   7
ATOM      7  C1' N4B d   1       0.337   1.189   0.107  0.00  0.00     0.057 C 
BRANCH   7   8
ATOM      8  C2' N4B d   1       1.342   1.691   1.140  0.00  0.00     0.009 C 
BRANCH   8   9
ATOM      9  C3' N4B d   1       2.273   2.744   0.563  0.00  0.00     0.004 C 
ATOM     10  C4' N4B d   1       2.383   3.960   1.432  0.00  0.00     0.003 C 
ENDBRANCH   8   9
ENDBRANCH   7   8
ENDBRANCH   1   7
TORSDOF 3
ENDMDL
