MODEL 1
REMARK minimizedAffinity -6.30280495
REMARK minimizedRMSD -1
REMARK  3 active torsions:
REMARK  status: ('A' for Active; 'I' for Inactive)
REMARK    1  A    between atoms: C3'_2  and  C2'_3 
REMARK    2  A    between atoms: C2'_3  and  C1'_4 
REMARK    3  A    between atoms: C1'_4  and  C1_5 
ROOT
ATOM      1  C1  N4B d   1      -0.038  -1.089  -0.002  0.00  0.00    -0.075 A 
ATOM      2  C2  N4B d   1      -0.244  -2.304   0.687  0.00  0.00     0.002 A 
ATOM      3  C3  N4B d   1      -0.316  -3.485  -0.010  0.00  0.00     0.002 A 
ATOM      4  C4  N4B d   1      -0.204  -3.473  -1.393  0.00  0.00    -0.004 A 
ATOM      5  C5  N4B d   1       0.020  -2.298  -2.048  0.00  0.00     0.002 A 
ATOM      6  C6  N4B d   1       0.099  -1.104  -1.360  0.00  0.00     0.002 A 
ENDROOT
BRANCH   1   7
ATOM      7  C1' N4B d   1      -0.038   0.237   0.709  0.00  0.00     0.057 C 
BRANCH   7   8
ATOM      8  C2' N4B d   1       0.471   1.316  -0.243  0.00  0.00     0.009 C 
BRANCH   8   9
ATOM      9  C3' N4B d   1       1.055   2.503   0.504  0.00  0.00     0.004 C 
ATOM     10  C4' N4B d   1       2.404   2.906  -0.012  0.00  0.00     0.003 C 
ENDBRANCH   8   9
ENDBRANCH   7   8
ENDBRANCH   1   7
TORSDOF 3
ENDMDL
