MODEL 1
REMARK minimizedAffinity -3.51464391
REMARK minimizedRMSD -1
REMARK  3 active torsions:
REMARK  status: ('A' for Active; 'I' for Inactive)
REMARK    1  A    between atoms: C3'_2  and  C2'_3 
REMARK    2  A    between atoms: C2'_3  and  C1'_4 
REMARK    3  A    between atoms: C1'_4  and  C1_5 
ROOT
ATOM      1  C1  N4B d   1      -0.091  -0.452  -0.049  0.00  0.00    -0.075 A 
ATOM      2  C2  N4B d   1       0.038  -1.466  -1.023  0.00  0.00     0.002 A 
ATOM      3  C3  N4B d   1      -0.100  -2.784  -0.665  0.00  0.00     0.002 A 
ATOM      4  C4  N4B d   1      -0.348  -3.112   0.660  0.00  0.00    -0.004 A 
ATOM      5  C5  N4B d   1      -0.496  -2.125   1.590  0.00  0.00     0.002 A 
ATOM      6  C6  N4B d   1      -0.364  -0.796   1.243  0.00  0.00     0.002 A 
ENDROOT
BRANCH   1   7
ATOM      7  C1' N4B d   1       0.137   0.998  -0.378  0.00  0.00     0.057 C 
BRANCH   7   8
ATOM      8  C2' N4B d   1       0.903   1.656   0.766  0.00  0.00     0.009 C 
BRANCH   8   9
ATOM      9  C3' N4B d   1       1.565   2.954   0.335  0.00  0.00     0.004 C 
ATOM     10  C4' N4B d   1       2.599   3.431   1.310  0.00  0.00     0.003 C 
ENDBRANCH   8   9
ENDBRANCH   7   8
ENDBRANCH   1   7
TORSDOF 3
ENDMDL
