MODEL 1
REMARK minimizedAffinity -3.78345585
REMARK minimizedRMSD -1
REMARK  1 active torsions:
REMARK  status: ('A' for Active; 'I' for Inactive)
REMARK    1  A    between atoms: N_2  and  C1_3 
ROOT
ATOM      1  C1  UNL d   1       0.783   1.901  -0.129  0.00  0.00     0.143 A 
ATOM      2  C2  UNL d   1       0.221   1.430  -1.320  0.00  0.00    -0.057 A 
ATOM      3  C3  UNL d   1      -0.130   0.084  -1.476  0.00  0.00     0.033 A 
ATOM      4  C4  UNL d   1       0.103  -0.825  -0.448  0.00  0.00    -0.042 A 
ATOM      5  C5  UNL d   1       0.683  -0.384   0.736  0.00  0.00     0.033 A 
ATOM      6  C6  UNL d   1       1.025   0.963   0.887  0.00  0.00    -0.057 A 
ENDROOT
BRANCH   1   7
ATOM      7  N   UNL d   1       1.243   3.208   0.052  0.00  0.00    -0.732 N 
ATOM      8  C   UNL d   1       2.598   3.568  -0.307  0.00  0.00     0.284 C 
ATOM      9  H3  UNL d   1       0.546   3.904  -0.204  0.00  0.00     0.395 HD
ENDBRANCH   1   7
TORSDOF 1
ENDMDL
