MODEL 1
REMARK minimizedAffinity -3.72707129
REMARK minimizedRMSD -1
REMARK  1 active torsions:
REMARK  status: ('A' for Active; 'I' for Inactive)
REMARK    1  A    between atoms: N_2  and  C1_3 
ROOT
ATOM      1  C1  UNL d   1      -0.097  -0.614   0.047  0.00  0.00     0.143 A 
ATOM      2  C2  UNL d   1       1.022  -1.440  -0.102  0.00  0.00    -0.057 A 
ATOM      3  C3  UNL d   1       0.946  -2.817   0.142  0.00  0.00     0.033 A 
ATOM      4  C4  UNL d   1      -0.248  -3.389   0.570  0.00  0.00    -0.042 A 
ATOM      5  C5  UNL d   1      -1.367  -2.582   0.749  0.00  0.00     0.033 A 
ATOM      6  C6  UNL d   1      -1.286  -1.210   0.497  0.00  0.00    -0.057 A 
ENDROOT
BRANCH   1   7
ATOM      7  N   UNL d   1      -0.061   0.776  -0.085  0.00  0.00    -0.732 N 
ATOM      8  C   UNL d   1      -1.263   1.519  -0.397  0.00  0.00     0.284 C 
ATOM      9  H3  UNL d   1       0.531   1.218   0.615  0.00  0.00     0.395 HD
ENDBRANCH   1   7
TORSDOF 1
ENDMDL
