MODEL 1
REMARK minimizedAffinity -2.90872717
REMARK minimizedRMSD -1
REMARK  1 active torsions:
REMARK  status: ('A' for Active; 'I' for Inactive)
REMARK    1  A    between atoms: N_2  and  C1_3 
ROOT
ATOM      1  C1  UNL d   1       0.196  -0.819  -0.166  0.00  0.00     0.143 A 
ATOM      2  C2  UNL d   1      -0.484  -0.116   0.834  0.00  0.00    -0.057 A 
ATOM      3  C3  UNL d   1      -1.371  -0.764   1.702  0.00  0.00     0.033 A 
ATOM      4  C4  UNL d   1      -1.617  -2.126   1.565  0.00  0.00    -0.042 A 
ATOM      5  C5  UNL d   1      -0.971  -2.840   0.562  0.00  0.00     0.033 A 
ATOM      6  C6  UNL d   1      -0.081  -2.189  -0.297  0.00  0.00    -0.057 A 
ENDROOT
BRANCH   1   7
ATOM      7  N   UNL d   1       1.016  -0.214  -1.122  0.00  0.00    -0.732 N 
ATOM      8  C   UNL d   1       0.586  -0.109  -2.500  0.00  0.00     0.284 C 
ATOM      9  H3  UNL d   1       1.478   0.619  -0.766  0.00  0.00     0.395 HD
ENDBRANCH   1   7
TORSDOF 1
ENDMDL
