MODEL 1
REMARK minimizedAffinity -4.67866945
REMARK minimizedRMSD -1
REMARK  1 active torsions:
REMARK  status: ('A' for Active; 'I' for Inactive)
REMARK    1  A    between atoms: N_2  and  C1_3 
ROOT
ATOM      1  C1  UNL d   1      -0.241   0.112   0.201  0.00  0.00     0.143 A 
ATOM      2  C2  UNL d   1      -0.003  -1.234  -0.096  0.00  0.00    -0.057 A 
ATOM      3  C3  UNL d   1      -0.371  -2.250   0.794  0.00  0.00     0.033 A 
ATOM      4  C4  UNL d   1      -0.959  -1.935   2.014  0.00  0.00    -0.042 A 
ATOM      5  C5  UNL d   1      -1.182  -0.603   2.342  0.00  0.00     0.033 A 
ATOM      6  C6  UNL d   1      -0.818   0.407   1.446  0.00  0.00    -0.057 A 
ENDROOT
BRANCH   1   7
ATOM      7  N   UNL d   1       0.190   1.173  -0.598  0.00  0.00    -0.732 N 
ATOM      8  C   UNL d   1       0.894   2.296  -0.016  0.00  0.00     0.284 C 
ATOM      9  H3  UNL d   1       0.572   0.859  -1.488  0.00  0.00     0.395 HD
ENDBRANCH   1   7
TORSDOF 1
ENDMDL
