MODEL 1
REMARK minimizedAffinity -4.81458378
REMARK minimizedRMSD -1
REMARK  1 active torsions:
REMARK  status: ('A' for Active; 'I' for Inactive)
REMARK    1  A    between atoms: N_2  and  C1_3 
ROOT
ATOM      1  C1  UNL d   1       0.237   0.497   0.730  0.00  0.00     0.143 A 
ATOM      2  C2  UNL d   1      -0.165  -0.029   1.962  0.00  0.00    -0.057 A 
ATOM      3  C3  UNL d   1      -0.477  -1.387   2.105  0.00  0.00     0.033 A 
ATOM      4  C4  UNL d   1      -0.420  -2.239   1.007  0.00  0.00    -0.042 A 
ATOM      5  C5  UNL d   1      -0.047  -1.733  -0.233  0.00  0.00     0.033 A 
ATOM      6  C6  UNL d   1       0.270  -0.378  -0.368  0.00  0.00    -0.057 A 
ENDROOT
BRANCH   1   7
ATOM      7  N   UNL d   1       0.465   1.856   0.502  0.00  0.00    -0.732 N 
ATOM      8  C   UNL d   1       1.767   2.324   0.078  0.00  0.00     0.284 C 
ATOM      9  H3  UNL d   1      -0.313   2.306   0.026  0.00  0.00     0.395 HD
ENDBRANCH   1   7
TORSDOF 1
ENDMDL
