MODEL 1
REMARK minimizedAffinity -5.27705479
REMARK minimizedRMSD -1
REMARK  1 active torsions:
REMARK  status: ('A' for Active; 'I' for Inactive)
REMARK    1  A    between atoms: N_2  and  C1_3 
ROOT
ATOM      1  C1  UNL d   1      -0.345   0.155   0.316  0.00  0.00     0.143 A 
ATOM      2  C2  UNL d   1      -1.040  -0.227   1.469  0.00  0.00    -0.057 A 
ATOM      3  C3  UNL d   1      -1.106  -1.568   1.866  0.00  0.00     0.033 A 
ATOM      4  C4  UNL d   1      -0.501  -2.557   1.098  0.00  0.00    -0.042 A 
ATOM      5  C5  UNL d   1       0.174  -2.204  -0.065  0.00  0.00     0.033 A 
ATOM      6  C6  UNL d   1       0.242  -0.862  -0.452  0.00  0.00    -0.057 A 
ENDROOT
BRANCH   1   7
ATOM      7  N   UNL d   1      -0.326   1.459  -0.184  0.00  0.00    -0.732 N 
ATOM      8  C   UNL d   1       0.892   2.241  -0.158  0.00  0.00     0.284 C 
ATOM      9  H3  UNL d   1      -0.862   1.554  -1.043  0.00  0.00     0.395 HD
ENDBRANCH   1   7
TORSDOF 1
ENDMDL
