MODEL 1
REMARK minimizedAffinity -1.82908142
REMARK minimizedRMSD -1
REMARK  1 active torsions:
REMARK  status: ('A' for Active; 'I' for Inactive)
REMARK    1  A    between atoms: N_2  and  C1_3 
ROOT
ATOM      1  C1  UNL d   1      -0.451  -2.087  -0.542  0.00  0.00     0.143 A 
ATOM      2  C2  UNL d   1      -1.143  -2.381   0.638  0.00  0.00    -0.057 A 
ATOM      3  C3  UNL d   1      -1.182  -1.472   1.702  0.00  0.00     0.033 A 
ATOM      4  C4  UNL d   1      -0.503  -0.261   1.615  0.00  0.00    -0.042 A 
ATOM      5  C5  UNL d   1       0.211   0.042   0.462  0.00  0.00     0.033 A 
ATOM      6  C6  UNL d   1       0.241  -0.867  -0.600  0.00  0.00    -0.057 A 
ENDROOT
BRANCH   1   7
ATOM      7  N   UNL d   1      -0.293  -2.990  -1.597  0.00  0.00    -0.732 N 
ATOM      8  C   UNL d   1       0.049  -2.522  -2.923  0.00  0.00     0.284 C 
ATOM      9  H3  UNL d   1       0.198  -3.835  -1.314  0.00  0.00     0.395 HD
ENDBRANCH   1   7
TORSDOF 1
ENDMDL
