MODEL 1
REMARK minimizedAffinity -4.83969688
REMARK minimizedRMSD -1
REMARK  1 active torsions:
REMARK  status: ('A' for Active; 'I' for Inactive)
REMARK    1  A    between atoms: N_2  and  C1_3 
ROOT
ATOM      1  C1  UNL d   1      -0.162  -1.112  -0.239  0.00  0.00     0.143 A 
ATOM      2  C2  UNL d   1       0.107  -1.200  -1.610  0.00  0.00    -0.057 A 
ATOM      3  C3  UNL d   1       0.399  -2.428  -2.216  0.00  0.00     0.033 A 
ATOM      4  C4  UNL d   1       0.458  -3.590  -1.453  0.00  0.00    -0.042 A 
ATOM      5  C5  UNL d   1       0.219  -3.523  -0.085  0.00  0.00     0.033 A 
ATOM      6  C6  UNL d   1      -0.079  -2.295   0.513  0.00  0.00    -0.057 A 
ENDROOT
BRANCH   1   7
ATOM      7  N   UNL d   1      -0.362   0.092   0.439  0.00  0.00    -0.732 N 
ATOM      8  C   UNL d   1      -1.626   0.791   0.343  0.00  0.00     0.284 C 
ATOM      9  H3  UNL d   1       0.038   0.083   1.374  0.00  0.00     0.395 HD
ENDBRANCH   1   7
TORSDOF 1
ENDMDL
