MODEL 1
REMARK minimizedAffinity -2.92688084
REMARK minimizedRMSD -1
REMARK  1 active torsions:
REMARK  status: ('A' for Active; 'I' for Inactive)
REMARK    1  A    between atoms: N_2  and  C1_3 
ROOT
ATOM      1  C1  UNL d   1       0.496   1.619   0.035  0.00  0.00     0.143 A 
ATOM      2  C2  UNL d   1       0.081   1.322  -1.268  0.00  0.00    -0.057 A 
ATOM      3  C3  UNL d   1      -0.120  -0.000  -1.682  0.00  0.00     0.033 A 
ATOM      4  C4  UNL d   1       0.118  -1.054  -0.805  0.00  0.00    -0.042 A 
ATOM      5  C5  UNL d   1       0.555  -0.783   0.487  0.00  0.00     0.033 A 
ATOM      6  C6  UNL d   1       0.748   0.540   0.896  0.00  0.00    -0.057 A 
ENDROOT
BRANCH   1   7
ATOM      7  N   UNL d   1       0.809   2.907   0.477  0.00  0.00    -0.732 N 
ATOM      8  C   UNL d   1       2.173   3.388   0.441  0.00  0.00     0.284 C 
ATOM      9  H3  UNL d   1       0.117   3.595   0.188  0.00  0.00     0.395 HD
ENDBRANCH   1   7
TORSDOF 1
ENDMDL
