MODEL 1
REMARK minimizedAffinity -3.65753675
REMARK minimizedRMSD -1
REMARK  1 active torsions:
REMARK  status: ('A' for Active; 'I' for Inactive)
REMARK    1  A    between atoms: N_2  and  C1_3 
ROOT
ATOM      1  C1  UNL d   1       0.130   0.746  -0.121  0.00  0.00     0.143 A 
ATOM      2  C2  UNL d   1      -0.397   0.158   1.034  0.00  0.00    -0.057 A 
ATOM      3  C3  UNL d   1      -0.597  -1.225   1.119  0.00  0.00     0.033 A 
ATOM      4  C4  UNL d   1      -0.301  -2.044   0.034  0.00  0.00    -0.042 A 
ATOM      5  C5  UNL d   1       0.200  -1.479  -1.133  0.00  0.00     0.033 A 
ATOM      6  C6  UNL d   1       0.404  -0.098  -1.209  0.00  0.00    -0.057 A 
ENDROOT
BRANCH   1   7
ATOM      7  N   UNL d   1       0.260   2.125  -0.302  0.00  0.00    -0.732 N 
ATOM      8  C   UNL d   1       1.377   2.842   0.276  0.00  0.00     0.284 C 
ATOM      9  H3  UNL d   1       0.023   2.417  -1.247  0.00  0.00     0.395 HD
ENDBRANCH   1   7
TORSDOF 1
ENDMDL
