MODEL 1
REMARK minimizedAffinity -5.41303968
REMARK minimizedRMSD -1
REMARK  1 active torsions:
REMARK  status: ('A' for Active; 'I' for Inactive)
REMARK    1  A    between atoms: N_2  and  C1_3 
ROOT
ATOM      1  C1  UNL d   1       0.173   0.394  -0.483  0.00  0.00     0.143 A 
ATOM      2  C2  UNL d   1      -0.437   0.142   0.751  0.00  0.00    -0.057 A 
ATOM      3  C3  UNL d   1      -0.571  -1.162   1.242  0.00  0.00     0.033 A 
ATOM      4  C4  UNL d   1      -0.121  -2.244   0.492  0.00  0.00    -0.042 A 
ATOM      5  C5  UNL d   1       0.466  -2.019  -0.748  0.00  0.00     0.033 A 
ATOM      6  C6  UNL d   1       0.602  -0.714  -1.230  0.00  0.00    -0.057 A 
ENDROOT
BRANCH   1   7
ATOM      7  N   UNL d   1       0.247   1.659  -1.070  0.00  0.00    -0.732 N 
ATOM      8  C   UNL d   1       0.883   2.758  -0.375  0.00  0.00     0.284 C 
ATOM      9  H3  UNL d   1       0.464   1.614  -2.063  0.00  0.00     0.395 HD
ENDBRANCH   1   7
TORSDOF 1
ENDMDL
