MODEL 1
REMARK minimizedAffinity -2.9943819
REMARK minimizedRMSD -1
REMARK  1 active torsions:
REMARK  status: ('A' for Active; 'I' for Inactive)
REMARK    1  A    between atoms: N_2  and  C1_3 
ROOT
ATOM      1  C1  UNL d   1       0.053   0.157  -0.139  0.00  0.00     0.143 A 
ATOM      2  C2  UNL d   1      -0.710  -0.063   1.013  0.00  0.00    -0.057 A 
ATOM      3  C3  UNL d   1      -1.017  -1.359   1.444  0.00  0.00     0.033 A 
ATOM      4  C4  UNL d   1      -0.589  -2.462   0.712  0.00  0.00    -0.042 A 
ATOM      5  C5  UNL d   1       0.150  -2.266  -0.450  0.00  0.00     0.033 A 
ATOM      6  C6  UNL d   1       0.458  -0.969  -0.872  0.00  0.00    -0.057 A 
ENDROOT
BRANCH   1   7
ATOM      7  N   UNL d   1       0.307   1.423  -0.673  0.00  0.00    -0.732 N 
ATOM      8  C   UNL d   1       0.903   2.460   0.141  0.00  0.00     0.284 C 
ATOM      9  H3  UNL d   1       0.672   1.378  -1.622  0.00  0.00     0.395 HD
ENDBRANCH   1   7
TORSDOF 1
ENDMDL
