MODEL 1
REMARK minimizedAffinity -3.63574004
REMARK minimizedRMSD -1
REMARK  1 active torsions:
REMARK  status: ('A' for Active; 'I' for Inactive)
REMARK    1  A    between atoms: N_2  and  C1_3 
ROOT
ATOM      1  C1  UNL d   1       0.252   0.368   0.219  0.00  0.00     0.143 A 
ATOM      2  C2  UNL d   1       0.080  -0.817  -0.505  0.00  0.00    -0.057 A 
ATOM      3  C3  UNL d   1      -0.231  -2.021   0.138  0.00  0.00     0.033 A 
ATOM      4  C4  UNL d   1      -0.348  -2.068   1.523  0.00  0.00    -0.042 A 
ATOM      5  C5  UNL d   1      -0.156  -0.907   2.265  0.00  0.00     0.033 A 
ATOM      6  C6  UNL d   1       0.148   0.294   1.616  0.00  0.00    -0.057 A 
ENDROOT
BRANCH   1   7
ATOM      7  N   UNL d   1       0.660   1.576  -0.353  0.00  0.00    -0.732 N 
ATOM      8  C   UNL d   1       1.457   2.518   0.404  0.00  0.00     0.284 C 
ATOM      9  H3  UNL d   1       0.952   1.468  -1.322  0.00  0.00     0.395 HD
ENDBRANCH   1   7
TORSDOF 1
ENDMDL
