MODEL 1
REMARK minimizedAffinity -0.259575248
REMARK minimizedRMSD -1
REMARK  0 active torsions:
REMARK  status: ('A' for Active; 'I' for Inactive)
ROOT
ATOM      1  C   UNL d   1      -0.363  -0.454   0.728  0.00  0.00     0.172 C 
ATOM      2  N   UNL d   1       0.349  -1.590   1.266  0.00  0.00    -0.070 N 
ATOM      3  C1  UNL d   1       1.346  -2.281   0.631  0.00  0.00    -0.004 A 
ATOM      4  C2  UNL d   1       1.763  -3.288   1.475  0.00  0.00    -0.047 A 
ATOM      5  C3  UNL d   1       0.990  -3.199   2.656  0.00  0.00    -0.047 A 
ATOM      6  C4  UNL d   1       0.122  -2.139   2.500  0.00  0.00    -0.004 A 
ENDROOT
TORSDOF 0
ENDMDL
