MODEL 1
REMARK minimizedAffinity -2.56516337
REMARK minimizedRMSD -1
REMARK  0 active torsions:
REMARK  status: ('A' for Active; 'I' for Inactive)
ROOT
ATOM      1  C   UNL d   1       3.317   6.000   2.833  0.00  0.00     0.172 C 
ATOM      2  N   UNL d   1       2.314   5.998   3.872  0.00  0.00    -0.070 N 
ATOM      3  C1  UNL d   1       2.560   5.993   5.219  0.00  0.00    -0.004 A 
ATOM      4  C2  UNL d   1       1.345   5.993   5.870  0.00  0.00    -0.047 A 
ATOM      5  C3  UNL d   1       0.334   5.997   4.879  0.00  0.00    -0.047 A 
ATOM      6  C4  UNL d   1       0.962   6.000   3.652  0.00  0.00    -0.004 A 
ENDROOT
TORSDOF 0
ENDMDL
