MODEL 1
REMARK minimizedAffinity -1.77283478
REMARK minimizedRMSD -1
REMARK  0 active torsions:
REMARK  status: ('A' for Active; 'I' for Inactive)
ROOT
ATOM      1  C   UNL d   1       1.541   0.014  -1.781  0.00  0.00     0.172 C 
ATOM      2  N   UNL d   1       0.477  -0.283  -0.852  0.00  0.00    -0.070 N 
ATOM      3  C1  UNL d   1      -0.858  -0.322  -1.154  0.00  0.00    -0.004 A 
ATOM      4  C2  UNL d   1      -1.543  -0.639  -0.001  0.00  0.00    -0.047 A 
ATOM      5  C3  UNL d   1      -0.586  -0.796   1.030  0.00  0.00    -0.047 A 
ATOM      6  C4  UNL d   1       0.656  -0.569   0.475  0.00  0.00    -0.004 A 
ENDROOT
TORSDOF 0
ENDMDL
