MODEL 1
REMARK minimizedAffinity -0.183117673
REMARK minimizedRMSD -1
REMARK  0 active torsions:
REMARK  status: ('A' for Active; 'I' for Inactive)
ROOT
ATOM      1  C   UNL d   1       3.016   6.000   2.129  0.00  0.00     0.172 C 
ATOM      2  N   UNL d   1       2.478   5.991   3.469  0.00  0.00    -0.070 N 
ATOM      3  C1  UNL d   1       3.214   5.999   4.624  0.00  0.00    -0.004 A 
ATOM      4  C2  UNL d   1       2.334   5.987   5.685  0.00  0.00    -0.047 A 
ATOM      5  C3  UNL d   1       1.024   5.970   5.149  0.00  0.00    -0.047 A 
ATOM      6  C4  UNL d   1       1.143   5.973   3.775  0.00  0.00    -0.004 A 
ENDROOT
TORSDOF 0
ENDMDL
