MODEL 1
REMARK minimizedAffinity -1.73736477
REMARK minimizedRMSD -1
REMARK  0 active torsions:
REMARK  status: ('A' for Active; 'I' for Inactive)
ROOT
ATOM      1  C   UNL d   1       0.565  -0.829  -0.858  0.00  0.00     0.172 C 
ATOM      2  N   UNL d   1       0.080  -1.007   0.491  0.00  0.00    -0.070 N 
ATOM      3  C1  UNL d   1      -0.875  -0.240   1.103  0.00  0.00    -0.004 A 
ATOM      4  C2  UNL d   1      -1.055  -0.730   2.379  0.00  0.00    -0.047 A 
ATOM      5  C3  UNL d   1      -0.177  -1.828   2.539  0.00  0.00    -0.047 A 
ATOM      6  C4  UNL d   1       0.514  -1.977   1.355  0.00  0.00    -0.004 A 
ENDROOT
TORSDOF 0
ENDMDL
