MODEL 1
REMARK minimizedAffinity -3.21418476
REMARK minimizedRMSD -1
REMARK  0 active torsions:
REMARK  status: ('A' for Active; 'I' for Inactive)
ROOT
ATOM      1  C   UNL d   1       0.508  -1.267  -0.755  0.00  0.00     0.172 C 
ATOM      2  N   UNL d   1      -0.639  -1.129   0.112  0.00  0.00    -0.070 N 
ATOM      3  C1  UNL d   1      -0.665  -1.410   1.452  0.00  0.00    -0.004 A 
ATOM      4  C2  UNL d   1      -1.937  -1.149   1.914  0.00  0.00    -0.047 A 
ATOM      5  C3  UNL d   1      -2.702  -0.698   0.812  0.00  0.00    -0.047 A 
ATOM      6  C4  UNL d   1      -1.874  -0.695  -0.290  0.00  0.00    -0.004 A 
ENDROOT
TORSDOF 0
ENDMDL
