MODEL 1
REMARK minimizedAffinity 0.277912945
REMARK minimizedRMSD -1
REMARK  0 active torsions:
REMARK  status: ('A' for Active; 'I' for Inactive)
ROOT
ATOM      1  C   UNL d   1       1.262  -0.768  -0.384  0.00  0.00     0.172 C 
ATOM      2  N   UNL d   1       0.009  -0.492   0.279  0.00  0.00    -0.070 N 
ATOM      3  C1  UNL d   1      -1.140  -0.069  -0.332  0.00  0.00    -0.004 A 
ATOM      4  C2  UNL d   1      -2.106   0.078   0.640  0.00  0.00    -0.047 A 
ATOM      5  C3  UNL d   1      -1.516  -0.268   1.879  0.00  0.00    -0.047 A 
ATOM      6  C4  UNL d   1      -0.206  -0.618   1.626  0.00  0.00    -0.004 A 
ENDROOT
TORSDOF 0
ENDMDL
