MODEL 1
REMARK minimizedAffinity -2.75500894
REMARK minimizedRMSD -1
REMARK  0 active torsions:
REMARK  status: ('A' for Active; 'I' for Inactive)
ROOT
ATOM      1  C   UNL d   1      -0.591  -0.424   0.025  0.00  0.00     0.172 C 
ATOM      2  N   UNL d   1       0.653  -0.505  -0.704  0.00  0.00    -0.070 N 
ATOM      3  C1  UNL d   1       1.824   0.113  -0.356  0.00  0.00    -0.004 A 
ATOM      4  C2  UNL d   1       2.771  -0.212  -1.302  0.00  0.00    -0.047 A 
ATOM      5  C3  UNL d   1       2.147  -1.055  -2.253  0.00  0.00    -0.047 A 
ATOM      6  C4  UNL d   1       0.836  -1.220  -1.858  0.00  0.00    -0.004 A 
ENDROOT
TORSDOF 0
ENDMDL
