MODEL 1
REMARK minimizedAffinity 2.6436975
REMARK minimizedRMSD -1
REMARK  0 active torsions:
REMARK  status: ('A' for Active; 'I' for Inactive)
ROOT
ATOM      1  C   UNL d   1       0.471   1.713  -0.869  0.00  0.00     0.124 A 
ATOM      2  C1  UNL d   1       0.563   1.332   0.463  0.00  0.00     0.062 A 
ATOM      3  C2  UNL d   1       0.364   0.004   0.826  0.00  0.00     0.162 A 
ATOM      4  C3  UNL d   1       0.072  -0.955  -0.144  0.00  0.00    -0.034 A 
ATOM      5  C4  UNL d   1      -0.020  -0.564  -1.481  0.00  0.00     0.162 A 
ATOM      6  C5  UNL d   1       0.180   0.765  -1.839  0.00  0.00     0.062 A 
ATOM      7  F   UNL d   1       0.091   1.131  -3.126  0.00  0.00    -0.097 F 
ATOM      8  F1  UNL d   1      -0.299  -1.460  -2.440  0.00  0.00    -0.096 F 
ATOM      9  I   UNL d   1      -0.227  -2.943   0.395  0.00  0.00    -0.060 I 
ATOM     10  F2  UNL d   1       0.458  -0.336   2.120  0.00  0.00    -0.096 F 
ATOM     11  F3  UNL d   1       0.843   2.247   1.402  0.00  0.00    -0.097 F 
ATOM     12  F4  UNL d   1       0.663   2.993  -1.216  0.00  0.00    -0.092 F 
ENDROOT
TORSDOF 0
ENDMDL
