MODEL 1
REMARK minimizedAffinity 1.08534133
REMARK minimizedRMSD -1
REMARK  0 active torsions:
REMARK  status: ('A' for Active; 'I' for Inactive)
ROOT
ATOM      1  C   UNL d   1       0.593   1.863   0.259  0.00  0.00     0.124 A 
ATOM      2  C1  UNL d   1      -0.022   1.077  -0.705  0.00  0.00     0.062 A 
ATOM      3  C2  UNL d   1      -0.224  -0.281  -0.478  0.00  0.00     0.162 A 
ATOM      4  C3  UNL d   1       0.190  -0.863   0.721  0.00  0.00    -0.034 A 
ATOM      5  C4  UNL d   1       0.809  -0.067   1.686  0.00  0.00     0.162 A 
ATOM      6  C5  UNL d   1       1.009   1.290   1.453  0.00  0.00     0.062 A 
ATOM      7  F   UNL d   1       1.604   2.047   2.387  0.00  0.00    -0.097 F 
ATOM      8  F1  UNL d   1       1.220  -0.594   2.849  0.00  0.00    -0.096 F 
ATOM      9  I   UNL d   1      -0.110  -2.894   1.065  0.00  0.00    -0.060 I 
ATOM     10  F2  UNL d   1      -0.822  -1.016  -1.427  0.00  0.00    -0.096 F 
ATOM     11  F3  UNL d   1      -0.424   1.628  -1.860  0.00  0.00    -0.097 F 
ATOM     12  F4  UNL d   1       0.787   3.169   0.038  0.00  0.00    -0.092 F 
ENDROOT
TORSDOF 0
ENDMDL
