MODEL 1
REMARK minimizedAffinity 1.48937702
REMARK minimizedRMSD -1
REMARK  0 active torsions:
REMARK  status: ('A' for Active; 'I' for Inactive)
ROOT
ATOM      1  C   UNL d   1      -0.294  -0.943   1.690  0.00  0.00     0.124 A 
ATOM      2  C1  UNL d   1      -0.129  -2.294   1.416  0.00  0.00     0.062 A 
ATOM      3  C2  UNL d   1       0.000  -2.730   0.101  0.00  0.00     0.162 A 
ATOM      4  C3  UNL d   1      -0.034  -1.815  -0.951  0.00  0.00    -0.034 A 
ATOM      5  C4  UNL d   1      -0.201  -0.458  -0.668  0.00  0.00     0.162 A 
ATOM      6  C5  UNL d   1      -0.330  -0.027   0.648  0.00  0.00     0.062 A 
ATOM      7  F   UNL d   1      -0.490   1.278   0.911  0.00  0.00    -0.097 F 
ATOM      8  F1  UNL d   1      -0.238   0.449  -1.655  0.00  0.00    -0.096 F 
ATOM      9  I   UNL d   1       0.160  -2.464  -2.919  0.00  0.00    -0.060 I 
ATOM     10  F2  UNL d   1       0.159  -4.041  -0.135  0.00  0.00    -0.096 F 
ATOM     11  F3  UNL d   1      -0.095  -3.181   2.420  0.00  0.00    -0.097 F 
ATOM     12  F4  UNL d   1      -0.420  -0.526   2.956  0.00  0.00    -0.092 F 
ENDROOT
TORSDOF 0
ENDMDL
