MODEL 1
REMARK minimizedAffinity 0.18994002
REMARK minimizedRMSD -1
REMARK  0 active torsions:
REMARK  status: ('A' for Active; 'I' for Inactive)
ROOT
ATOM      1  C   UNL d   1      -0.618  -2.363  -0.704  0.00  0.00     0.124 A 
ATOM      2  C1  UNL d   1      -0.310  -1.432  -1.686  0.00  0.00     0.062 A 
ATOM      3  C2  UNL d   1      -0.121  -0.095  -1.349  0.00  0.00     0.162 A 
ATOM      4  C3  UNL d   1      -0.239   0.319  -0.022  0.00  0.00    -0.034 A 
ATOM      5  C4  UNL d   1      -0.550  -0.623   0.960  0.00  0.00     0.162 A 
ATOM      6  C5  UNL d   1      -0.738  -1.958   0.618  0.00  0.00     0.062 A 
ATOM      7  F   UNL d   1      -1.035  -2.856   1.568  0.00  0.00    -0.097 F 
ATOM      8  F1  UNL d   1      -0.670  -0.258   2.245  0.00  0.00    -0.096 F 
ATOM      9  I   UNL d   1       0.043   2.318   0.486  0.00  0.00    -0.060 I 
ATOM     10  F2  UNL d   1       0.176   0.782  -2.319  0.00  0.00    -0.096 F 
ATOM     11  F3  UNL d   1      -0.194  -1.821  -2.964  0.00  0.00    -0.097 F 
ATOM     12  F4  UNL d   1      -0.800  -3.649  -1.031  0.00  0.00    -0.092 F 
ENDROOT
TORSDOF 0
ENDMDL
