MODEL 1
REMARK minimizedAffinity -3.00764108
REMARK minimizedRMSD -1
REMARK  0 active torsions:
REMARK  status: ('A' for Active; 'I' for Inactive)
ROOT
ATOM      1  C   UNL d   1       0.509  -1.702  -0.352  0.00  0.00     0.124 A 
ATOM      2  C1  UNL d   1       0.874  -1.326   0.933  0.00  0.00     0.062 A 
ATOM      3  C2  UNL d   1       0.952   0.022   1.273  0.00  0.00     0.162 A 
ATOM      4  C3  UNL d   1       0.663   1.004   0.326  0.00  0.00    -0.034 A 
ATOM      5  C4  UNL d   1       0.296   0.618  -0.965  0.00  0.00     0.162 A 
ATOM      6  C5  UNL d   1       0.220  -0.730  -1.300  0.00  0.00     0.062 A 
ATOM      7  F   UNL d   1      -0.134  -1.091  -2.542  0.00  0.00    -0.097 F 
ATOM      8  F1  UNL d   1       0.011   1.537  -1.900  0.00  0.00    -0.096 F 
ATOM      9  I   UNL d   1       0.778   3.020   0.830  0.00  0.00    -0.060 I 
ATOM     10  F2  UNL d   1       1.308   0.356   2.522  0.00  0.00    -0.096 F 
ATOM     11  F3  UNL d   1       1.155  -2.263   1.850  0.00  0.00    -0.097 F 
ATOM     12  F4  UNL d   1       0.435  -2.999  -0.677  0.00  0.00    -0.092 F 
ENDROOT
TORSDOF 0
ENDMDL
