MODEL 1
REMARK minimizedAffinity 0.0573268719
REMARK minimizedRMSD -1
REMARK  0 active torsions:
REMARK  status: ('A' for Active; 'I' for Inactive)
ROOT
ATOM      1  C   UNL d   1       0.443   1.299  -1.037  0.00  0.00     0.124 A 
ATOM      2  C1  UNL d   1       0.212   1.017   0.302  0.00  0.00     0.062 A 
ATOM      3  C2  UNL d   1       0.024  -0.298   0.719  0.00  0.00     0.162 A 
ATOM      4  C3  UNL d   1       0.068  -1.341  -0.206  0.00  0.00    -0.034 A 
ATOM      5  C4  UNL d   1       0.300  -1.050  -1.551  0.00  0.00     0.162 A 
ATOM      6  C5  UNL d   1       0.487   0.266  -1.962  0.00  0.00     0.062 A 
ATOM      7  F   UNL d   1       0.711   0.536  -3.256  0.00  0.00    -0.097 F 
ATOM      8  F1  UNL d   1       0.349  -2.030  -2.466  0.00  0.00    -0.096 F 
ATOM      9  I   UNL d   1      -0.212  -3.309   0.413  0.00  0.00    -0.060 I 
ATOM     10  F2  UNL d   1      -0.198  -0.541   2.019  0.00  0.00    -0.096 F 
ATOM     11  F3  UNL d   1       0.168   2.014   1.198  0.00  0.00    -0.097 F 
ATOM     12  F4  UNL d   1       0.622   2.565  -1.435  0.00  0.00    -0.092 F 
ENDROOT
TORSDOF 0
ENDMDL
