MODEL 1
REMARK minimizedAffinity -3.34928417
REMARK minimizedRMSD -1
REMARK  0 active torsions:
REMARK  status: ('A' for Active; 'I' for Inactive)
ROOT
ATOM      1  C   UNL d   1      -0.395  -2.829  -0.990  0.00  0.00     0.124 A 
ATOM      2  C1  UNL d   1      -0.577  -2.373   0.308  0.00  0.00     0.062 A 
ATOM      3  C2  UNL d   1      -0.373  -1.031   0.614  0.00  0.00     0.162 A 
ATOM      4  C3  UNL d   1       0.014  -0.134  -0.381  0.00  0.00    -0.034 A 
ATOM      5  C4  UNL d   1       0.196  -0.600  -1.685  0.00  0.00     0.162 A 
ATOM      6  C5  UNL d   1      -0.009  -1.942  -1.985  0.00  0.00     0.062 A 
ATOM      7  F   UNL d   1       0.166  -2.381  -3.240  0.00  0.00    -0.097 F 
ATOM      8  F1  UNL d   1       0.568   0.236  -2.666  0.00  0.00    -0.096 F 
ATOM      9  I   UNL d   1       0.321   1.875   0.071  0.00  0.00    -0.060 I 
ATOM     10  F2  UNL d   1      -0.555  -0.618   1.877  0.00  0.00    -0.096 F 
ATOM     11  F3  UNL d   1      -0.949  -3.229   1.272  0.00  0.00    -0.097 F 
ATOM     12  F4  UNL d   1      -0.591  -4.122  -1.281  0.00  0.00    -0.092 F 
ENDROOT
TORSDOF 0
ENDMDL
