MODEL 1
REMARK minimizedAffinity 6.59223747
REMARK minimizedRMSD -1
REMARK  0 active torsions:
REMARK  status: ('A' for Active; 'I' for Inactive)
ROOT
ATOM      1  C   UNL d   1      -0.868  -1.079   2.272  0.00  0.00     0.124 A 
ATOM      2  C1  UNL d   1      -1.299  -2.025   1.352  0.00  0.00     0.062 A 
ATOM      3  C2  UNL d   1      -0.780  -2.033   0.061  0.00  0.00     0.162 A 
ATOM      4  C3  UNL d   1       0.177  -1.092  -0.319  0.00  0.00    -0.034 A 
ATOM      5  C4  UNL d   1       0.605  -0.143   0.611  0.00  0.00     0.162 A 
ATOM      6  C5  UNL d   1       0.083  -0.139   1.901  0.00  0.00     0.062 A 
ATOM      7  F   UNL d   1       0.500   0.776   2.788  0.00  0.00    -0.097 F 
ATOM      8  F1  UNL d   1       1.524   0.776   0.280  0.00  0.00    -0.096 F 
ATOM      9  I   UNL d   1       0.956  -1.101  -2.249  0.00  0.00    -0.060 I 
ATOM     10  F2  UNL d   1      -1.214  -2.959  -0.807  0.00  0.00    -0.096 F 
ATOM     11  F3  UNL d   1      -2.219  -2.933   1.708  0.00  0.00    -0.097 F 
ATOM     12  F4  UNL d   1      -1.371  -1.072   3.513  0.00  0.00    -0.092 F 
ENDROOT
TORSDOF 0
ENDMDL
