MODEL 1
REMARK minimizedAffinity 0.393676221
REMARK minimizedRMSD -1
REMARK  0 active torsions:
REMARK  status: ('A' for Active; 'I' for Inactive)
ROOT
ATOM      1  C   UNL d   1      -0.231  -2.637   0.222  0.00  0.00     0.124 A 
ATOM      2  C1  UNL d   1       0.560  -1.973  -0.704  0.00  0.00     0.062 A 
ATOM      3  C2  UNL d   1       0.708  -0.590  -0.634  0.00  0.00     0.162 A 
ATOM      4  C3  UNL d   1       0.064   0.137   0.366  0.00  0.00    -0.034 A 
ATOM      5  C4  UNL d   1      -0.732  -0.538   1.293  0.00  0.00     0.162 A 
ATOM      6  C5  UNL d   1      -0.877  -1.920   1.220  0.00  0.00     0.062 A 
ATOM      7  F   UNL d   1      -1.642  -2.560   2.115  0.00  0.00    -0.097 F 
ATOM      8  F1  UNL d   1      -1.366   0.130   2.268  0.00  0.00    -0.096 F 
ATOM      9  I   UNL d   1       0.282   2.204   0.474  0.00  0.00    -0.060 I 
ATOM     10  F2  UNL d   1       1.480   0.026  -1.543  0.00  0.00    -0.096 F 
ATOM     11  F3  UNL d   1       1.184  -2.663  -1.669  0.00  0.00    -0.097 F 
ATOM     12  F4  UNL d   1      -0.373  -3.967   0.152  0.00  0.00    -0.092 F 
ENDROOT
TORSDOF 0
ENDMDL
