MODEL 1
REMARK minimizedAffinity -4.21419287
REMARK minimizedRMSD -1
REMARK  0 active torsions:
REMARK  status: ('A' for Active; 'I' for Inactive)
ROOT
ATOM      1  C   UNL d   1       0.069  -2.637  -0.713  0.00  0.00     0.124 A 
ATOM      2  C1  UNL d   1       0.279  -2.290   0.614  0.00  0.00     0.062 A 
ATOM      3  C2  UNL d   1       0.491  -0.960   0.965  0.00  0.00     0.162 A 
ATOM      4  C3  UNL d   1       0.493   0.034  -0.014  0.00  0.00    -0.034 A 
ATOM      5  C4  UNL d   1       0.283  -0.323  -1.347  0.00  0.00     0.162 A 
ATOM      6  C5  UNL d   1       0.072  -1.654  -1.692  0.00  0.00     0.062 A 
ATOM      7  F   UNL d   1      -0.130  -1.987  -2.976  0.00  0.00    -0.097 F 
ATOM      8  F1  UNL d   1       0.279   0.607  -2.314  0.00  0.00    -0.096 F 
ATOM      9  I   UNL d   1       0.810   2.024   0.506  0.00  0.00    -0.060 I 
ATOM     10  F2  UNL d   1       0.690  -0.653   2.255  0.00  0.00    -0.096 F 
ATOM     11  F3  UNL d   1       0.278  -3.238   1.562  0.00  0.00    -0.097 F 
ATOM     12  F4  UNL d   1      -0.133  -3.918  -1.048  0.00  0.00    -0.092 F 
ENDROOT
TORSDOF 0
ENDMDL
