MODEL 1
REMARK minimizedAffinity -1.08398926
REMARK minimizedRMSD -1
REMARK  0 active torsions:
REMARK  status: ('A' for Active; 'I' for Inactive)
ROOT
ATOM      1  C   UNL d   1      -0.394  -1.809  -1.042  0.00  0.00     0.124 A 
ATOM      2  C1  UNL d   1       0.048  -0.819  -1.909  0.00  0.00     0.062 A 
ATOM      3  C2  UNL d   1       0.204   0.488  -1.457  0.00  0.00     0.162 A 
ATOM      4  C3  UNL d   1      -0.081   0.814  -0.131  0.00  0.00    -0.034 A 
ATOM      5  C4  UNL d   1      -0.526  -0.186   0.735  0.00  0.00     0.162 A 
ATOM      6  C5  UNL d   1      -0.680  -1.492   0.279  0.00  0.00     0.062 A 
ATOM      7  F   UNL d   1      -1.107  -2.446   1.118  0.00  0.00    -0.097 F 
ATOM      8  F1  UNL d   1      -0.809   0.092   2.016  0.00  0.00    -0.096 F 
ATOM      9  I   UNL d   1       0.152   2.768   0.547  0.00  0.00    -0.060 I 
ATOM     10  F2  UNL d   1       0.633   1.424  -2.317  0.00  0.00    -0.096 F 
ATOM     11  F3  UNL d   1       0.324  -1.123  -3.185  0.00  0.00    -0.097 F 
ATOM     12  F4  UNL d   1      -0.544  -3.065  -1.479  0.00  0.00    -0.092 F 
ENDROOT
TORSDOF 0
ENDMDL
