MODEL 1
REMARK minimizedAffinity 1.13380325
REMARK minimizedRMSD -1
REMARK  0 active torsions:
REMARK  status: ('A' for Active; 'I' for Inactive)
ROOT
ATOM      1  C   UNL d   1      -1.184  -1.561   0.321  0.00  0.00     0.124 A 
ATOM      2  C1  UNL d   1      -1.587  -0.244   0.152  0.00  0.00     0.062 A 
ATOM      3  C2  UNL d   1      -0.657   0.788   0.227  0.00  0.00     0.162 A 
ATOM      4  C3  UNL d   1       0.687   0.507   0.472  0.00  0.00    -0.034 A 
ATOM      5  C4  UNL d   1       1.085  -0.820   0.642  0.00  0.00     0.162 A 
ATOM      6  C5  UNL d   1       0.151  -1.848   0.566  0.00  0.00     0.062 A 
ATOM      7  F   UNL d   1       0.543  -3.120   0.730  0.00  0.00    -0.097 F 
ATOM      8  F1  UNL d   1       2.370  -1.125   0.879  0.00  0.00    -0.096 F 
ATOM      9  I   UNL d   1       2.082   2.048   0.585  0.00  0.00    -0.060 I 
ATOM     10  F2  UNL d   1      -1.075   2.052   0.060  0.00  0.00    -0.096 F 
ATOM     11  F3  UNL d   1      -2.877   0.036  -0.084  0.00  0.00    -0.097 F 
ATOM     12  F4  UNL d   1      -2.082  -2.552   0.249  0.00  0.00    -0.092 F 
ENDROOT
TORSDOF 0
ENDMDL
