MODEL 1
REMARK minimizedAffinity -2.83127809
REMARK minimizedRMSD -1
REMARK  0 active torsions:
REMARK  status: ('A' for Active; 'I' for Inactive)
ROOT
ATOM      1  C   UNL d   1       0.261  -2.478  -0.392  0.00  0.00     0.124 A 
ATOM      2  C1  UNL d   1       0.182  -1.516  -1.389  0.00  0.00     0.062 A 
ATOM      3  C2  UNL d   1       0.449  -0.182  -1.099  0.00  0.00     0.162 A 
ATOM      4  C3  UNL d   1       0.799   0.200   0.197  0.00  0.00    -0.034 A 
ATOM      5  C4  UNL d   1       0.876  -0.773   1.195  0.00  0.00     0.162 A 
ATOM      6  C5  UNL d   1       0.608  -2.105   0.899  0.00  0.00     0.062 A 
ATOM      7  F   UNL d   1       0.684  -3.033   1.865  0.00  0.00    -0.097 F 
ATOM      8  F1  UNL d   1       1.210  -0.441   2.451  0.00  0.00    -0.096 F 
ATOM      9  I   UNL d   1       1.200   2.194   0.636  0.00  0.00    -0.060 I 
ATOM     10  F2  UNL d   1       0.365   0.726  -2.083  0.00  0.00    -0.096 F 
ATOM     11  F3  UNL d   1      -0.154  -1.874  -2.637  0.00  0.00    -0.097 F 
ATOM     12  F4  UNL d   1       0.002  -3.761  -0.674  0.00  0.00    -0.092 F 
ENDROOT
TORSDOF 0
ENDMDL
