MODEL 1
REMARK minimizedAffinity -2.41573381
REMARK minimizedRMSD -1
REMARK  0 active torsions:
REMARK  status: ('A' for Active; 'I' for Inactive)
ROOT
ATOM      1  C   UNL d   1       0.630   2.164  -0.402  0.00  0.00     0.124 A 
ATOM      2  C1  UNL d   1       0.039   1.344  -1.353  0.00  0.00     0.062 A 
ATOM      3  C2  UNL d   1      -0.184  -0.002  -1.076  0.00  0.00     0.162 A 
ATOM      4  C3  UNL d   1       0.184  -0.536   0.159  0.00  0.00    -0.034 A 
ATOM      5  C4  UNL d   1       0.779   0.295   1.110  0.00  0.00     0.162 A 
ATOM      6  C5  UNL d   1       0.999   1.640   0.828  0.00  0.00     0.062 A 
ATOM      7  F   UNL d   1       1.570   2.431   1.748  0.00  0.00    -0.097 F 
ATOM      8  F1  UNL d   1       1.145  -0.185   2.308  0.00  0.00    -0.096 F 
ATOM      9  I   UNL d   1      -0.147  -2.547   0.578  0.00  0.00    -0.060 I 
ATOM     10  F2  UNL d   1      -0.756  -0.771  -2.013  0.00  0.00    -0.096 F 
ATOM     11  F3  UNL d   1      -0.318   1.848  -2.543  0.00  0.00    -0.097 F 
ATOM     12  F4  UNL d   1       0.843   3.459  -0.672  0.00  0.00    -0.092 F 
ENDROOT
TORSDOF 0
ENDMDL
