MODEL 1
REMARK minimizedAffinity 1.27429724
REMARK minimizedRMSD -1
REMARK  0 active torsions:
REMARK  status: ('A' for Active; 'I' for Inactive)
ROOT
ATOM      1  C   UNL d   1      -0.386  -2.193   0.336  0.00  0.00     0.124 A 
ATOM      2  C1  UNL d   1       0.462  -1.576  -0.574  0.00  0.00     0.062 A 
ATOM      3  C2  UNL d   1       0.667  -0.201  -0.518  0.00  0.00     0.162 A 
ATOM      4  C3  UNL d   1       0.023   0.568   0.452  0.00  0.00    -0.034 A 
ATOM      5  C4  UNL d   1      -0.829  -0.059   1.363  0.00  0.00     0.162 A 
ATOM      6  C5  UNL d   1      -1.030  -1.435   1.303  0.00  0.00     0.062 A 
ATOM      7  F   UNL d   1      -1.850  -2.029   2.183  0.00  0.00    -0.097 F 
ATOM      8  F1  UNL d   1      -1.463   0.650   2.308  0.00  0.00    -0.096 F 
ATOM      9  I   UNL d   1       0.327   2.625   0.538  0.00  0.00    -0.060 I 
ATOM     10  F2  UNL d   1       1.491   0.369  -1.410  0.00  0.00    -0.096 F 
ATOM     11  F3  UNL d   1       1.085  -2.307  -1.509  0.00  0.00    -0.097 F 
ATOM     12  F4  UNL d   1      -0.582  -3.517   0.280  0.00  0.00    -0.092 F 
ENDROOT
TORSDOF 0
ENDMDL
