MODEL 1
REMARK minimizedAffinity 3.78057861
REMARK minimizedRMSD -1
REMARK  0 active torsions:
REMARK  status: ('A' for Active; 'I' for Inactive)
ROOT
ATOM      1  C1  DEN d   1      -2.690   1.663   0.827  0.00  0.00     0.130 A 
ATOM      2  C2  DEN d   1      -1.361   1.426   0.270  0.00  0.00    -0.031 A 
ATOM      3  C3  DEN d   1      -0.516   2.594   0.592  0.00  0.00     0.027 A 
ATOM      4  C4  DEN d   1      -1.133   4.733   1.895  0.00  0.00     0.027 A 
ATOM      5  C5  DEN d   1      -2.148   5.393   2.553  0.00  0.00    -0.003 A 
ATOM      6  C6  DEN d   1      -3.412   4.876   2.651  0.00  0.00     0.001 A 
ATOM      7  C7  DEN d   1      -3.684   3.643   2.121  0.00  0.00     0.017 A 
ATOM      8  C8  DEN d   1      -2.669   2.974   1.450  0.00  0.00    -0.094 A 
ATOM      9  C9  DEN d   1      -1.394   3.508   1.372  0.00  0.00    -0.072 A 
ENDROOT
TORSDOF 0
ENDMDL
