MODEL 1
REMARK minimizedAffinity 6.93861628
REMARK minimizedRMSD -1
REMARK  0 active torsions:
REMARK  status: ('A' for Active; 'I' for Inactive)
ROOT
ATOM      1  C1  DEN d   1       2.253  -0.088  -0.684  0.00  0.00     0.130 A 
ATOM      2  C2  DEN d   1       2.603  -1.447  -0.277  0.00  0.00    -0.031 A 
ATOM      3  C3  DEN d   1       4.067  -1.506  -0.095  0.00  0.00     0.027 A 
ATOM      4  C4  DEN d   1       5.817   0.365  -0.395  0.00  0.00     0.027 A 
ATOM      5  C5  DEN d   1       6.000   1.686  -0.742  0.00  0.00    -0.003 A 
ATOM      6  C6  DEN d   1       4.960   2.492  -1.123  0.00  0.00     0.001 A 
ATOM      7  C7  DEN d   1       3.683   1.997  -1.123  0.00  0.00     0.017 A 
ATOM      8  C8  DEN d   1       3.491   0.664  -0.782  0.00  0.00    -0.094 A 
ATOM      9  C9  DEN d   1       4.554  -0.131  -0.388  0.00  0.00    -0.072 A 
ENDROOT
TORSDOF 0
ENDMDL
