MODEL 1
REMARK minimizedAffinity 19.060379
REMARK minimizedRMSD -1
REMARK  0 active torsions:
REMARK  status: ('A' for Active; 'I' for Inactive)
ROOT
ATOM      1  C1  DEN d   1       2.310  -0.538  -0.767  0.00  0.00     0.130 A 
ATOM      2  C2  DEN d   1       2.582  -1.817  -0.116  0.00  0.00    -0.031 A 
ATOM      3  C3  DEN d   1       3.982  -1.800   0.355  0.00  0.00     0.027 A 
ATOM      4  C4  DEN d   1       5.743   0.073   0.145  0.00  0.00     0.027 A 
ATOM      5  C5  DEN d   1       5.981   1.340  -0.339  0.00  0.00    -0.003 A 
ATOM      6  C6  DEN d   1       5.031   2.051  -1.024  0.00  0.00     0.001 A 
ATOM      7  C7  DEN d   1       3.783   1.517  -1.204  0.00  0.00     0.017 A 
ATOM      8  C8  DEN d   1       3.537   0.237  -0.726  0.00  0.00    -0.094 A 
ATOM      9  C9  DEN d   1       4.507  -0.461  -0.025  0.00  0.00    -0.072 A 
ENDROOT
TORSDOF 0
ENDMDL
