MODEL 1
REMARK minimizedAffinity 8.62201118
REMARK minimizedRMSD -1
REMARK  0 active torsions:
REMARK  status: ('A' for Active; 'I' for Inactive)
ROOT
ATOM      1  C1  DEN d   1       4.840   1.290   0.692  0.00  0.00     0.130 A 
ATOM      2  C2  DEN d   1       4.417   0.561  -0.500  0.00  0.00    -0.031 A 
ATOM      3  C3  DEN d   1       4.415   1.505  -1.636  0.00  0.00     0.027 A 
ATOM      4  C4  DEN d   1       5.027   4.010  -1.665  0.00  0.00     0.027 A 
ATOM      5  C5  DEN d   1       5.435   5.075  -0.892  0.00  0.00    -0.003 A 
ATOM      6  C6  DEN d   1       5.639   4.962   0.458  0.00  0.00     0.001 A 
ATOM      7  C7  DEN d   1       5.478   3.747   1.069  0.00  0.00     0.017 A 
ATOM      8  C8  DEN d   1       5.060   2.670   0.298  0.00  0.00    -0.094 A 
ATOM      9  C9  DEN d   1       4.871   2.802  -1.067  0.00  0.00    -0.072 A 
ENDROOT
TORSDOF 0
ENDMDL
