MODEL 1
REMARK minimizedAffinity 7.43676615
REMARK minimizedRMSD -1
REMARK  0 active torsions:
REMARK  status: ('A' for Active; 'I' for Inactive)
ROOT
ATOM      1  C1  DEN d   1       1.959   1.854   2.737  0.00  0.00     0.130 A 
ATOM      2  C2  DEN d   1       2.419   3.181   3.136  0.00  0.00    -0.031 A 
ATOM      3  C3  DEN d   1       1.414   4.166   2.688  0.00  0.00     0.027 A 
ATOM      4  C4  DEN d   1      -0.801   3.767   1.427  0.00  0.00     0.027 A 
ATOM      5  C5  DEN d   1      -1.613   2.809   0.861  0.00  0.00    -0.003 A 
ATOM      6  C6  DEN d   1      -1.278   1.481   0.851  0.00  0.00     0.001 A 
ATOM      7  C7  DEN d   1      -0.122   1.067   1.458  0.00  0.00     0.017 A 
ATOM      8  C8  DEN d   1       0.706   2.028   2.024  0.00  0.00    -0.094 A 
ATOM      9  C9  DEN d   1       0.344   3.364   2.035  0.00  0.00    -0.072 A 
ENDROOT
TORSDOF 0
ENDMDL
