MODEL 1
REMARK minimizedAffinity 11.0656023
REMARK minimizedRMSD -1
REMARK  0 active torsions:
REMARK  status: ('A' for Active; 'I' for Inactive)
ROOT
ATOM      1  C1  DEN d   1       3.145   0.163  -1.236  0.00  0.00     0.130 A 
ATOM      2  C2  DEN d   1       4.324   0.069  -0.380  0.00  0.00    -0.031 A 
ATOM      3  C3  DEN d   1       3.903   0.347   1.008  0.00  0.00     0.027 A 
ATOM      4  C4  DEN d   1       1.552   0.906   1.910  0.00  0.00     0.027 A 
ATOM      5  C5  DEN d   1       0.236   1.110   1.561  0.00  0.00    -0.003 A 
ATOM      6  C6  DEN d   1      -0.194   1.047   0.262  0.00  0.00     0.001 A 
ATOM      7  C7  DEN d   1       0.694   0.728  -0.732  0.00  0.00     0.017 A 
ATOM      8  C8  DEN d   1       2.025   0.528  -0.389  0.00  0.00    -0.094 A 
ATOM      9  C9  DEN d   1       2.437   0.585   0.932  0.00  0.00    -0.072 A 
ENDROOT
TORSDOF 0
ENDMDL
