MODEL 1
REMARK minimizedAffinity -1.81615114
REMARK minimizedRMSD -1
REMARK  0 active torsions:
REMARK  status: ('A' for Active; 'I' for Inactive)
ROOT
ATOM      1  C1  DEN d   1      -5.255   2.060  -2.013  0.00  0.00     0.130 A 
ATOM      2  C2  DEN d   1      -5.999   3.167  -2.607  0.00  0.00    -0.031 A 
ATOM      3  C3  DEN d   1      -5.605   3.274  -4.026  0.00  0.00     0.027 A 
ATOM      4  C4  DEN d   1      -3.926   1.836  -5.355  0.00  0.00     0.027 A 
ATOM      5  C5  DEN d   1      -3.039   0.786  -5.277  0.00  0.00    -0.003 A 
ATOM      6  C6  DEN d   1      -2.805   0.113  -4.106  0.00  0.00     0.001 A 
ATOM      7  C7  DEN d   1      -3.500   0.456  -2.977  0.00  0.00     0.017 A 
ATOM      8  C8  DEN d   1      -4.391   1.519  -3.046  0.00  0.00    -0.094 A 
ATOM      9  C9  DEN d   1      -4.622   2.178  -4.242  0.00  0.00    -0.072 A 
ENDROOT
TORSDOF 0
ENDMDL
