MODEL 1
REMARK minimizedAffinity -3.1184752
REMARK minimizedRMSD -1
REMARK  0 active torsions:
REMARK  status: ('A' for Active; 'I' for Inactive)
ROOT
ATOM      1  N1  IND d   1       0.082  -2.677  -4.688  0.00  0.00    -0.196 N 
ATOM      2  C2  IND d   1       0.382  -1.397  -5.066  0.00  0.00     0.054 A 
ATOM      3  C3  IND d   1       0.283  -0.560  -4.009  0.00  0.00    -0.031 A 
ATOM      4  C4  IND d   1      -0.256  -1.087  -1.548  0.00  0.00     0.051 A 
ATOM      5  C5  IND d   1      -0.637  -2.109  -0.724  0.00  0.00    -0.031 A 
ATOM      6  C6  IND d   1      -0.798  -3.399  -1.188  0.00  0.00     0.015 A 
ATOM      7  C7  IND d   1      -0.572  -3.718  -2.497  0.00  0.00    -0.016 A 
ATOM      8  C8  IND d   1      -0.192  -2.682  -3.338  0.00  0.00    -0.047 A 
ATOM      9  C9  IND d   1      -0.069  -1.363  -2.882  0.00  0.00    -0.096 A 
ATOM     10  HN1 IND d   1       0.067  -3.362  -5.206  0.00  0.00     0.298 HD
ENDROOT
TORSDOF 0
ENDMDL
