MODEL 1
REMARK minimizedAffinity -3.41652656
REMARK minimizedRMSD -1
REMARK  0 active torsions:
REMARK  status: ('A' for Active; 'I' for Inactive)
ROOT
ATOM      1  N1  IND d   1       0.161  -0.586  -1.161  0.00  0.00    -0.196 N 
ATOM      2  C2  IND d   1      -0.446  -1.398  -0.244  0.00  0.00     0.054 A 
ATOM      3  C3  IND d   1      -0.813  -0.685   0.845  0.00  0.00    -0.031 A 
ATOM      4  C4  IND d   1      -0.606   1.841   1.292  0.00  0.00     0.051 A 
ATOM      5  C5  IND d   1      -0.087   2.990   0.764  0.00  0.00    -0.031 A 
ATOM      6  C6  IND d   1       0.551   3.006  -0.459  0.00  0.00     0.015 A 
ATOM      7  C7  IND d   1       0.685   1.871  -1.208  0.00  0.00    -0.016 A 
ATOM      8  C8  IND d   1       0.166   0.702  -0.671  0.00  0.00    -0.047 A 
ATOM      9  C9  IND d   1      -0.445   0.671   0.589  0.00  0.00    -0.096 A 
ATOM     10  HN1 IND d   1       0.485  -0.837  -1.917  0.00  0.00     0.298 HD
ENDROOT
TORSDOF 0
ENDMDL
