MODEL 1
REMARK minimizedAffinity -5.72735739
REMARK minimizedRMSD -1
REMARK  0 active torsions:
REMARK  status: ('A' for Active; 'I' for Inactive)
ROOT
ATOM      1  N1  IND d   1       1.050  -0.407   0.328  0.00  0.00    -0.196 N 
ATOM      2  C2  IND d   1      -0.279  -0.713   0.236  0.00  0.00     0.054 A 
ATOM      3  C3  IND d   1      -1.016   0.415   0.131  0.00  0.00    -0.031 A 
ATOM      4  C4  IND d   1      -0.242   2.866  -0.012  0.00  0.00     0.051 A 
ATOM      5  C5  IND d   1       0.876   3.649   0.066  0.00  0.00    -0.031 A 
ATOM      6  C6  IND d   1       2.134   3.109   0.236  0.00  0.00     0.015 A 
ATOM      7  C7  IND d   1       2.324   1.759   0.323  0.00  0.00    -0.016 A 
ATOM      8  C8  IND d   1       1.191   0.961   0.252  0.00  0.00    -0.047 A 
ATOM      9  C9  IND d   1      -0.093   1.506   0.122  0.00  0.00    -0.096 A 
ATOM     10  HN1 IND d   1       1.690  -0.974   0.418  0.00  0.00     0.298 HD
ENDROOT
TORSDOF 0
ENDMDL
