MODEL 1
REMARK minimizedAffinity -0.639873147
REMARK minimizedRMSD -1
REMARK  0 active torsions:
REMARK  status: ('A' for Active; 'I' for Inactive)
ROOT
ATOM      1  N1  IND d   1       2.828   0.662   0.944  0.00  0.00    -0.196 N 
ATOM      2  C2  IND d   1       3.116   1.904   1.438  0.00  0.00     0.054 A 
ATOM      3  C3  IND d   1       1.989   2.645   1.535  0.00  0.00    -0.031 A 
ATOM      4  C4  IND d   1      -0.449   1.986   1.037  0.00  0.00     0.051 A 
ATOM      5  C5  IND d   1      -1.208   0.968   0.530  0.00  0.00    -0.031 A 
ATOM      6  C6  IND d   1      -0.649  -0.228   0.129  0.00  0.00     0.015 A 
ATOM      7  C7  IND d   1       0.694  -0.457   0.232  0.00  0.00    -0.016 A 
ATOM      8  C8  IND d   1       1.468   0.576   0.740  0.00  0.00    -0.047 A 
ATOM      9  C9  IND d   1       0.912   1.808   1.108  0.00  0.00    -0.096 A 
ATOM     10  HN1 IND d   1       3.400   0.040   0.787  0.00  0.00     0.298 HD
ENDROOT
TORSDOF 0
ENDMDL
