MODEL 1
REMARK minimizedAffinity -3.04156041
REMARK minimizedRMSD -1
REMARK  0 active torsions:
REMARK  status: ('A' for Active; 'I' for Inactive)
ROOT
ATOM      1  N1  IND d   1       1.957  -0.236   0.673  0.00  0.00    -0.196 N 
ATOM      2  C2  IND d   1       1.185  -1.341   0.900  0.00  0.00     0.054 A 
ATOM      3  C3  IND d   1      -0.125  -1.038   0.753  0.00  0.00    -0.031 A 
ATOM      4  C4  IND d   1      -1.220   1.182   0.045  0.00  0.00     0.051 A 
ATOM      5  C5  IND d   1      -0.927   2.487  -0.234  0.00  0.00    -0.031 A 
ATOM      6  C6  IND d   1       0.369   2.960  -0.228  0.00  0.00     0.015 A 
ATOM      7  C7  IND d   1       1.426   2.139   0.048  0.00  0.00    -0.016 A 
ATOM      8  C8  IND d   1       1.131   0.815   0.339  0.00  0.00    -0.047 A 
ATOM      9  C9  IND d   1      -0.186   0.339   0.376  0.00  0.00    -0.096 A 
ATOM     10  HN1 IND d   1       2.814  -0.203   0.730  0.00  0.00     0.298 HD
ENDROOT
TORSDOF 0
ENDMDL
