MODEL 1
REMARK minimizedAffinity -4.49432898
REMARK minimizedRMSD -1
REMARK  0 active torsions:
REMARK  status: ('A' for Active; 'I' for Inactive)
ROOT
ATOM      1  N1  IND d   1      -0.625  -0.699   0.524  0.00  0.00    -0.196 N 
ATOM      2  C2  IND d   1       0.595  -1.218   0.192  0.00  0.00     0.054 A 
ATOM      3  C3  IND d   1       1.470  -0.225  -0.085  0.00  0.00    -0.031 A 
ATOM      4  C4  IND d   1       1.142   2.325   0.043  0.00  0.00     0.051 A 
ATOM      5  C5  IND d   1       0.188   3.279   0.264  0.00  0.00    -0.031 A 
ATOM      6  C6  IND d   1      -1.111   2.949   0.592  0.00  0.00     0.015 A 
ATOM      7  C7  IND d   1      -1.504   1.647   0.723  0.00  0.00    -0.016 A 
ATOM      8  C8  IND d   1      -0.540   0.676   0.493  0.00  0.00    -0.047 A 
ATOM      9  C9  IND d   1       0.770   1.004   0.118  0.00  0.00    -0.096 A 
ATOM     10  HN1 IND d   1      -1.328  -1.154   0.719  0.00  0.00     0.298 HD
ENDROOT
TORSDOF 0
ENDMDL
