MODEL 1
REMARK minimizedAffinity -1.71077538
REMARK minimizedRMSD -1
REMARK  0 active torsions:
REMARK  status: ('A' for Active; 'I' for Inactive)
ROOT
ATOM      1  N1  IND d   1      -2.237  -3.360  -1.400  0.00  0.00    -0.196 N 
ATOM      2  C2  IND d   1      -1.393  -4.429  -1.512  0.00  0.00     0.054 A 
ATOM      3  C3  IND d   1      -0.179  -4.125  -1.001  0.00  0.00    -0.031 A 
ATOM      4  C4  IND d   1       0.614  -1.970   0.161  0.00  0.00     0.051 A 
ATOM      5  C5  IND d   1       0.211  -0.700   0.468  0.00  0.00    -0.031 A 
ATOM      6  C6  IND d   1      -1.055  -0.244   0.163  0.00  0.00     0.015 A 
ATOM      7  C7  IND d   1      -1.974  -1.048  -0.452  0.00  0.00    -0.016 A 
ATOM      8  C8  IND d   1      -1.565  -2.335  -0.770  0.00  0.00    -0.047 A 
ATOM      9  C9  IND d   1      -0.268  -2.790  -0.502  0.00  0.00    -0.096 A 
ATOM     10  HN1 IND d   1      -3.051  -3.332  -1.677  0.00  0.00     0.298 HD
ENDROOT
TORSDOF 0
ENDMDL
