MODEL 1
REMARK minimizedAffinity 2.78274107
REMARK minimizedRMSD -1
REMARK  0 active torsions:
REMARK  status: ('A' for Active; 'I' for Inactive)
ROOT
ATOM      1  N1  IND d   1      -4.401  -4.643  -1.192  0.00  0.00    -0.196 N 
ATOM      2  C2  IND d   1      -4.441  -5.404  -0.057  0.00  0.00     0.054 A 
ATOM      3  C3  IND d   1      -3.195  -5.570   0.442  0.00  0.00    -0.031 A 
ATOM      4  C4  IND d   1      -0.960  -4.595  -0.383  0.00  0.00     0.051 A 
ATOM      5  C5  IND d   1      -0.413  -3.868  -1.403  0.00  0.00    -0.031 A 
ATOM      6  C6  IND d   1      -1.183  -3.349  -2.423  0.00  0.00     0.015 A 
ATOM      7  C7  IND d   1      -2.537  -3.529  -2.456  0.00  0.00    -0.016 A 
ATOM      8  C8  IND d   1      -3.095  -4.273  -1.426  0.00  0.00    -0.047 A 
ATOM      9  C9  IND d   1      -2.313  -4.838  -0.410  0.00  0.00    -0.096 A 
ATOM     10  HN1 IND d   1      -5.078  -4.430  -1.677  0.00  0.00     0.298 HD
ENDROOT
TORSDOF 0
ENDMDL
