MODEL 1
REMARK minimizedAffinity -3.36905646
REMARK minimizedRMSD -1
REMARK  0 active torsions:
REMARK  status: ('A' for Active; 'I' for Inactive)
ROOT
ATOM      1  N1  IND d   1       0.768  -1.014  -0.760  0.00  0.00    -0.196 N 
ATOM      2  C2  IND d   1       0.218  -0.501   0.381  0.00  0.00     0.054 A 
ATOM      3  C3  IND d   1      -0.931  -1.147   0.681  0.00  0.00    -0.031 A 
ATOM      4  C4  IND d   1      -2.043  -3.143  -0.507  0.00  0.00     0.051 A 
ATOM      5  C5  IND d   1      -1.931  -3.935  -1.615  0.00  0.00    -0.031 A 
ATOM      6  C6  IND d   1      -0.892  -3.793  -2.511  0.00  0.00     0.015 A 
ATOM      7  C7  IND d   1       0.086  -2.857  -2.326  0.00  0.00    -0.016 A 
ATOM      8  C8  IND d   1      -0.028  -2.046  -1.206  0.00  0.00    -0.047 A 
ATOM      9  C9  IND d   1      -1.104  -2.157  -0.315  0.00  0.00    -0.096 A 
ATOM     10  HN1 IND d   1       1.491  -0.738  -1.137  0.00  0.00     0.298 HD
ENDROOT
TORSDOF 0
ENDMDL
