MODEL 1
REMARK minimizedAffinity -3.3391335
REMARK minimizedRMSD -1
REMARK  0 active torsions:
REMARK  status: ('A' for Active; 'I' for Inactive)
ROOT
ATOM      1  N1  IND d   1       1.046  -0.610  -0.525  0.00  0.00    -0.196 N 
ATOM      2  C2  IND d   1       0.155  -1.597  -0.208  0.00  0.00     0.054 A 
ATOM      3  C3  IND d   1      -0.985  -1.061   0.284  0.00  0.00    -0.031 A 
ATOM      4  C4  IND d   1      -1.643   1.413   0.561  0.00  0.00     0.051 A 
ATOM      5  C5  IND d   1      -1.145   2.680   0.442  0.00  0.00    -0.031 A 
ATOM      6  C6  IND d   1       0.134   2.920  -0.018  0.00  0.00     0.015 A 
ATOM      7  C7  IND d   1       0.962   1.898  -0.387  0.00  0.00    -0.016 A 
ATOM      8  C8  IND d   1       0.462   0.610  -0.261  0.00  0.00    -0.047 A 
ATOM      9  C9  IND d   1      -0.820   0.358   0.245  0.00  0.00    -0.096 A 
ATOM     10  HN1 IND d   1       1.838  -0.730  -0.837  0.00  0.00     0.298 HD
ENDROOT
TORSDOF 0
ENDMDL
