MODEL 1
REMARK minimizedAffinity -5.46881819
REMARK minimizedRMSD -1
REMARK  0 active torsions:
REMARK  status: ('A' for Active; 'I' for Inactive)
ROOT
ATOM      1  N1  IND d   1       0.977  -0.669   0.219  0.00  0.00    -0.196 N 
ATOM      2  C2  IND d   1      -0.362  -0.935   0.146  0.00  0.00     0.054 A 
ATOM      3  C3  IND d   1      -1.073   0.212   0.214  0.00  0.00    -0.031 A 
ATOM      4  C4  IND d   1      -0.244   2.646   0.343  0.00  0.00     0.051 A 
ATOM      5  C5  IND d   1       0.895   3.391   0.469  0.00  0.00    -0.031 A 
ATOM      6  C6  IND d   1       2.145   2.808   0.517  0.00  0.00     0.015 A 
ATOM      7  C7  IND d   1       2.304   1.455   0.428  0.00  0.00    -0.016 A 
ATOM      8  C8  IND d   1       1.149   0.695   0.307  0.00  0.00    -0.047 A 
ATOM      9  C9  IND d   1      -0.125   1.277   0.301  0.00  0.00    -0.096 A 
ATOM     10  HN1 IND d   1       1.607  -1.255   0.211  0.00  0.00     0.298 HD
ENDROOT
TORSDOF 0
ENDMDL
