MODEL 1
REMARK minimizedAffinity -3.4870379
REMARK minimizedRMSD -1
REMARK  0 active torsions:
REMARK  status: ('A' for Active; 'I' for Inactive)
ROOT
ATOM      1  N1  IND d   1       2.730   1.318   0.736  0.00  0.00    -0.196 N 
ATOM      2  C2  IND d   1       2.067   1.332  -0.459  0.00  0.00     0.054 A 
ATOM      3  C3  IND d   1       1.095   2.272  -0.446  0.00  0.00    -0.031 A 
ATOM      4  C4  IND d   1       0.485   3.969   1.392  0.00  0.00     0.051 A 
ATOM      5  C5  IND d   1       0.786   4.318   2.679  0.00  0.00    -0.031 A 
ATOM      6  C6  IND d   1       1.773   3.674   3.397  0.00  0.00     0.015 A 
ATOM      7  C7  IND d   1       2.506   2.659   2.849  0.00  0.00    -0.016 A 
ATOM      8  C8  IND d   1       2.198   2.297   1.546  0.00  0.00    -0.047 A 
ATOM      9  C9  IND d   1       1.169   2.919   0.826  0.00  0.00    -0.096 A 
ATOM     10  HN1 IND d   1       3.373   0.786   0.947  0.00  0.00     0.298 HD
ENDROOT
TORSDOF 0
ENDMDL
