MODEL 1
REMARK minimizedAffinity -5.27052641
REMARK minimizedRMSD -1
REMARK  0 active torsions:
REMARK  status: ('A' for Active; 'I' for Inactive)
ROOT
ATOM      1  N1  IND d   1       1.818  -0.449   0.321  0.00  0.00    -0.196 N 
ATOM      2  C2  IND d   1       0.853  -1.418   0.314  0.00  0.00     0.054 A 
ATOM      3  C3  IND d   1      -0.377  -0.856   0.304  0.00  0.00    -0.031 A 
ATOM      4  C4  IND d   1      -1.040   1.629   0.196  0.00  0.00     0.051 A 
ATOM      5  C5  IND d   1      -0.508   2.888   0.222  0.00  0.00    -0.031 A 
ATOM      6  C6  IND d   1       0.853   3.103   0.281  0.00  0.00     0.015 A 
ATOM      7  C7  IND d   1       1.739   2.063   0.304  0.00  0.00    -0.016 A 
ATOM      8  C8  IND d   1       1.202   0.783   0.285  0.00  0.00    -0.047 A 
ATOM      9  C9  IND d   1      -0.180   0.558   0.269  0.00  0.00    -0.096 A 
ATOM     10  HN1 IND d   1       2.666  -0.586   0.344  0.00  0.00     0.298 HD
ENDROOT
TORSDOF 0
ENDMDL
