MODEL 1
REMARK minimizedAffinity -3.2488935
REMARK minimizedRMSD -1
REMARK  0 active torsions:
REMARK  status: ('A' for Active; 'I' for Inactive)
ROOT
ATOM      1  N1  IND d   1      -1.252   2.264   0.583  0.00  0.00    -0.196 N 
ATOM      2  C2  IND d   1      -0.555   3.417   0.353  0.00  0.00     0.054 A 
ATOM      3  C3  IND d   1       0.710   3.134  -0.031  0.00  0.00    -0.031 A 
ATOM      4  C4  IND d   1       1.819   0.848  -0.449  0.00  0.00     0.051 A 
ATOM      5  C5  IND d   1       1.593  -0.495  -0.338  0.00  0.00    -0.031 A 
ATOM      6  C6  IND d   1       0.381  -0.998   0.092  0.00  0.00     0.015 A 
ATOM      7  C7  IND d   1      -0.657  -0.172   0.417  0.00  0.00    -0.016 A 
ATOM      8  C8  IND d   1      -0.429   1.193   0.313  0.00  0.00    -0.047 A 
ATOM      9  C9  IND d   1       0.812   1.710  -0.082  0.00  0.00    -0.096 A 
ATOM     10  HN1 IND d   1      -2.067   2.216   0.852  0.00  0.00     0.298 HD
ENDROOT
TORSDOF 0
ENDMDL
