MODEL 1
REMARK minimizedAffinity -2.84606099
REMARK minimizedRMSD -1
REMARK  0 active torsions:
REMARK  status: ('A' for Active; 'I' for Inactive)
ROOT
ATOM      1  N1  IND d   1      -0.436  -1.047   1.148  0.00  0.00    -0.196 N 
ATOM      2  C2  IND d   1      -1.677  -0.476   1.202  0.00  0.00     0.054 A 
ATOM      3  C3  IND d   1      -1.678   0.709   0.551  0.00  0.00    -0.031 A 
ATOM      4  C4  IND d   1       0.216   1.855  -0.763  0.00  0.00     0.051 A 
ATOM      5  C5  IND d   1       1.544   1.735  -1.065  0.00  0.00    -0.031 A 
ATOM      6  C6  IND d   1       2.294   0.658  -0.638  0.00  0.00     0.015 A 
ATOM      7  C7  IND d   1       1.739  -0.349   0.100  0.00  0.00    -0.016 A 
ATOM      8  C8  IND d   1       0.393  -0.226   0.415  0.00  0.00    -0.047 A 
ATOM      9  C9  IND d   1      -0.363   0.885   0.020  0.00  0.00    -0.096 A 
ATOM     10  HN1 IND d   1      -0.211  -1.793   1.512  0.00  0.00     0.298 HD
ENDROOT
TORSDOF 0
ENDMDL
