MODEL 1
REMARK minimizedAffinity 10.2424011
REMARK minimizedRMSD -1
REMARK  1 active torsions:
REMARK  status: ('A' for Active; 'I' for Inactive)
REMARK    1  A    between atoms: C1_2  and  C2_3 
ROOT
ATOM      1  C2  UNL d   1       0.104   4.502  -0.036  0.00  0.00    -0.077 A 
ATOM      2  C3  UNL d   1      -1.139   4.873   0.496  0.00  0.00     0.002 A 
ATOM      3  C4  UNL d   1      -1.720   4.123   1.521  0.00  0.00     0.002 A 
ATOM      4  C5  UNL d   1      -1.064   3.002   2.025  0.00  0.00    -0.004 A 
ATOM      5  C6  UNL d   1       0.172   2.625   1.501  0.00  0.00     0.002 A 
ATOM      6  C7  UNL d   1       0.754   3.372   0.475  0.00  0.00     0.002 A 
ENDROOT
BRANCH   1   7
ATOM      7  C1  UNL d   1       0.755   5.337  -1.108  0.00  0.00     0.055 C 
ATOM      8  C   UNL d   1      -0.284   6.000  -2.001  0.00  0.00     0.019 C 
ENDBRANCH   1   7
TORSDOF 1
ENDMDL
