MODEL 1
REMARK minimizedAffinity 10.8644409
REMARK minimizedRMSD -1
REMARK  1 active torsions:
REMARK  status: ('A' for Active; 'I' for Inactive)
REMARK    1  A    between atoms: C1_2  and  C2_3 
ROOT
ATOM      1  C2  UNL d   1       0.453   2.683   2.285  0.00  0.00    -0.077 A 
ATOM      2  C3  UNL d   1       1.578   3.505   2.439  0.00  0.00     0.002 A 
ATOM      3  C4  UNL d   1       2.011   4.314   1.387  0.00  0.00     0.002 A 
ATOM      4  C5  UNL d   1       1.322   4.314   0.176  0.00  0.00    -0.004 A 
ATOM      5  C6  UNL d   1       0.203   3.498   0.013  0.00  0.00     0.002 A 
ATOM      6  C7  UNL d   1      -0.230   2.687   1.062  0.00  0.00     0.002 A 
ENDROOT
BRANCH   1   7
ATOM      7  C1  UNL d   1      -0.044   1.846   3.435  0.00  0.00     0.055 C 
ATOM      8  C   UNL d   1      -1.565   1.796   3.466  0.00  0.00     0.019 C 
ENDBRANCH   1   7
TORSDOF 1
ENDMDL
