MODEL 1
REMARK minimizedAffinity 8.58259201
REMARK minimizedRMSD -1
REMARK  1 active torsions:
REMARK  status: ('A' for Active; 'I' for Inactive)
REMARK    1  A    between atoms: C1_2  and  C2_3 
ROOT
ATOM      1  C2  UNL d   1       0.229   3.596   0.653  0.00  0.00    -0.077 A 
ATOM      2  C3  UNL d   1      -1.127   3.914   0.501  0.00  0.00     0.002 A 
ATOM      3  C4  UNL d   1      -1.508   5.099  -0.133  0.00  0.00     0.002 A 
ATOM      4  C5  UNL d   1      -0.539   5.972  -0.622  0.00  0.00    -0.004 A 
ATOM      5  C6  UNL d   1       0.813   5.666  -0.473  0.00  0.00     0.002 A 
ATOM      6  C7  UNL d   1       1.195   4.483   0.161  0.00  0.00     0.002 A 
ENDROOT
BRANCH   1   7
ATOM      7  C1  UNL d   1       0.642   2.296   1.293  0.00  0.00     0.055 C 
ATOM      8  C   UNL d   1       0.350   2.296   2.786  0.00  0.00     0.019 C 
ENDBRANCH   1   7
TORSDOF 1
ENDMDL
