MODEL 1
REMARK minimizedAffinity 3.73484302
REMARK minimizedRMSD -1
REMARK  1 active torsions:
REMARK  status: ('A' for Active; 'I' for Inactive)
REMARK    1  A    between atoms: C1_2  and  C2_3 
ROOT
ATOM      1  C2  UNL d   1      -2.602  -5.964  -5.230  0.00  0.00    -0.077 A 
ATOM      2  C3  UNL d   1      -3.775  -5.978  -5.999  0.00  0.00     0.002 A 
ATOM      3  C4  UNL d   1      -5.026  -5.998  -5.379  0.00  0.00     0.002 A 
ATOM      4  C5  UNL d   1      -5.116  -5.998  -3.989  0.00  0.00    -0.004 A 
ATOM      5  C6  UNL d   1      -3.956  -5.986  -3.216  0.00  0.00     0.002 A 
ATOM      6  C7  UNL d   1      -2.705  -5.968  -3.833  0.00  0.00     0.002 A 
ENDROOT
BRANCH   1   7
ATOM      7  C1  UNL d   1      -1.253  -5.893  -5.897  0.00  0.00     0.055 C 
ATOM      8  C   UNL d   1      -0.164  -5.520  -4.902  0.00  0.00     0.019 C 
ENDBRANCH   1   7
TORSDOF 1
ENDMDL
