MODEL 1
REMARK minimizedAffinity 9.75668812
REMARK minimizedRMSD -1
REMARK  1 active torsions:
REMARK  status: ('A' for Active; 'I' for Inactive)
REMARK    1  A    between atoms: C1_2  and  C2_3 
ROOT
ATOM      1  C2  UNL d   1       3.291  -5.447  -0.383  0.00  0.00    -0.077 A 
ATOM      2  C3  UNL d   1       4.251  -5.964   0.499  0.00  0.00     0.002 A 
ATOM      3  C4  UNL d   1       5.599  -5.997   0.135  0.00  0.00     0.002 A 
ATOM      4  C5  UNL d   1       5.999  -5.510  -1.108  0.00  0.00    -0.004 A 
ATOM      5  C6  UNL d   1       5.051  -4.996  -1.992  0.00  0.00     0.002 A 
ATOM      6  C7  UNL d   1       3.704  -4.964  -1.631  0.00  0.00     0.002 A 
ENDROOT
BRANCH   1   7
ATOM      7  C1  UNL d   1       1.844  -5.366   0.027  0.00  0.00     0.055 C 
ATOM      8  C   UNL d   1       0.932  -5.244  -1.185  0.00  0.00     0.019 C 
ENDBRANCH   1   7
TORSDOF 1
ENDMDL
