MODEL 1
REMARK minimizedAffinity -2.13881493
REMARK minimizedRMSD -1
REMARK  1 active torsions:
REMARK  status: ('A' for Active; 'I' for Inactive)
REMARK    1  A    between atoms: C3_4  and  O_7 
ROOT
ATOM      1  C   UNL d   1      -1.309   0.555   2.360  0.00  0.00    -0.033 A 
ATOM      2  C1  UNL d   1      -0.634  -0.638   2.626  0.00  0.00     0.039 A 
ATOM      3  C2  UNL d   1       0.249  -1.169   1.683  0.00  0.00    -0.080 A 
ATOM      4  C3  UNL d   1       0.449  -0.497   0.481  0.00  0.00     0.150 A 
ATOM      5  C4  UNL d   1      -0.217   0.694   0.210  0.00  0.00    -0.007 A 
ATOM      6  C5  UNL d   1      -1.099   1.222   1.152  0.00  0.00     0.039 A 
ENDROOT
BRANCH   4   7
ATOM      7  O   UNL d   1       1.297  -0.978  -0.472  0.00  0.00    -0.526 OA
ATOM      8  H5  UNL d   1       1.664  -1.821  -0.160  0.00  0.00     0.418 HD
ENDBRANCH   4   7
TORSDOF 1
ENDMDL
