MODEL 1
REMARK minimizedAffinity -3.99729156
REMARK minimizedRMSD -1
REMARK  1 active torsions:
REMARK  status: ('A' for Active; 'I' for Inactive)
REMARK    1  A    between atoms: C3_4  and  O_7 
ROOT
ATOM      1  C   UNL d   1       1.613  -1.471   0.060  0.00  0.00    -0.033 A 
ATOM      2  C1  UNL d   1       0.464  -0.761  -0.293  0.00  0.00     0.039 A 
ATOM      3  C2  UNL d   1      -0.303  -1.169  -1.386  0.00  0.00    -0.080 A 
ATOM      4  C3  UNL d   1       0.089  -2.287  -2.116  0.00  0.00     0.150 A 
ATOM      5  C4  UNL d   1       1.231  -3.002  -1.768  0.00  0.00    -0.007 A 
ATOM      6  C5  UNL d   1       1.996  -2.592  -0.677  0.00  0.00     0.039 A 
ENDROOT
BRANCH   4   7
ATOM      7  O   UNL d   1      -0.624  -2.721  -3.194  0.00  0.00    -0.526 OA
ATOM      8  H5  UNL d   1      -1.370  -2.114  -3.333  0.00  0.00     0.418 HD
ENDBRANCH   4   7
TORSDOF 1
ENDMDL
