MODEL 1
REMARK minimizedAffinity -2.35128784
REMARK minimizedRMSD -1
REMARK  1 active torsions:
REMARK  status: ('A' for Active; 'I' for Inactive)
REMARK    1  A    between atoms: C3_4  and  O_7 
ROOT
ATOM      1  C   UNL d   1       0.797  -0.446  -0.424  0.00  0.00    -0.033 A 
ATOM      2  C1  UNL d   1       0.510   0.865  -0.811  0.00  0.00     0.039 A 
ATOM      3  C2  UNL d   1      -0.198   1.708   0.048  0.00  0.00    -0.080 A 
ATOM      4  C3  UNL d   1      -0.611   1.230   1.288  0.00  0.00     0.150 A 
ATOM      5  C4  UNL d   1      -0.325  -0.073   1.681  0.00  0.00    -0.007 A 
ATOM      6  C5  UNL d   1       0.381  -0.914   0.822  0.00  0.00     0.039 A 
ENDROOT
BRANCH   4   7
ATOM      7  O   UNL d   1      -1.309   2.015   2.158  0.00  0.00    -0.526 OA
ATOM      8  H5  UNL d   1      -1.458   2.879   1.741  0.00  0.00     0.418 HD
ENDBRANCH   4   7
TORSDOF 1
ENDMDL
