MODEL 1
REMARK minimizedAffinity -3.5655489
REMARK minimizedRMSD -1
REMARK  1 active torsions:
REMARK  status: ('A' for Active; 'I' for Inactive)
REMARK    1  A    between atoms: C3_4  and  O_7 
ROOT
ATOM      1  C   UNL d   1      -1.105   1.794   1.631  0.00  0.00    -0.033 A 
ATOM      2  C1  UNL d   1      -0.500   2.183   0.434  0.00  0.00     0.039 A 
ATOM      3  C2  UNL d   1       0.070   1.224  -0.406  0.00  0.00    -0.080 A 
ATOM      4  C3  UNL d   1       0.028  -0.118  -0.038  0.00  0.00     0.150 A 
ATOM      5  C4  UNL d   1      -0.577  -0.513   1.150  0.00  0.00    -0.007 A 
ATOM      6  C5  UNL d   1      -1.145   0.446   1.988  0.00  0.00     0.039 A 
ENDROOT
BRANCH   4   7
ATOM      7  O   UNL d   1       0.575  -1.089  -0.823  0.00  0.00    -0.526 OA
ATOM      8  H5  UNL d   1       0.983  -0.666  -1.597  0.00  0.00     0.418 HD
ENDBRANCH   4   7
TORSDOF 1
ENDMDL
