MODEL 1
REMARK minimizedAffinity -3.58126473
REMARK minimizedRMSD -1
REMARK  1 active torsions:
REMARK  status: ('A' for Active; 'I' for Inactive)
REMARK    1  A    between atoms: C3_4  and  O_7 
ROOT
ATOM      1  C   UNL d   1      -1.294   1.300   2.152  0.00  0.00    -0.033 A 
ATOM      2  C1  UNL d   1      -0.760   1.944   1.035  0.00  0.00     0.039 A 
ATOM      3  C2  UNL d   1       0.068   1.246   0.153  0.00  0.00    -0.080 A 
ATOM      4  C3  UNL d   1       0.352  -0.094   0.399  0.00  0.00     0.150 A 
ATOM      5  C4  UNL d   1      -0.180  -0.744   1.508  0.00  0.00    -0.007 A 
ATOM      6  C5  UNL d   1      -1.006  -0.045   2.388  0.00  0.00     0.039 A 
ENDROOT
BRANCH   4   7
ATOM      7  O   UNL d   1       1.158  -0.815  -0.430  0.00  0.00    -0.526 OA
ATOM      8  H5  UNL d   1       1.476  -0.229  -1.137  0.00  0.00     0.418 HD
ENDBRANCH   4   7
TORSDOF 1
ENDMDL
