MODEL 1
REMARK minimizedAffinity -3.35256982
REMARK minimizedRMSD -1
REMARK  1 active torsions:
REMARK  status: ('A' for Active; 'I' for Inactive)
REMARK    1  A    between atoms: C3_4  and  O_7 
ROOT
ATOM      1  C   UNL d   1      -1.211   1.479   1.838  0.00  0.00    -0.033 A 
ATOM      2  C1  UNL d   1      -0.833   2.025   0.610  0.00  0.00     0.039 A 
ATOM      3  C2  UNL d   1      -0.162   1.239  -0.329  0.00  0.00    -0.080 A 
ATOM      4  C3  UNL d   1       0.124  -0.090  -0.027  0.00  0.00     0.150 A 
ATOM      5  C4  UNL d   1      -0.253  -0.642   1.193  0.00  0.00    -0.007 A 
ATOM      6  C5  UNL d   1      -0.923   0.145   2.129  0.00  0.00     0.039 A 
ENDROOT
BRANCH   4   7
ATOM      7  O   UNL d   1       0.781  -0.895  -0.909  0.00  0.00    -0.526 OA
ATOM      8  H5  UNL d   1       1.005  -0.371  -1.697  0.00  0.00     0.418 HD
ENDBRANCH   4   7
TORSDOF 1
ENDMDL
