MODEL 1
REMARK minimizedAffinity -2.91749144
REMARK minimizedRMSD -1
REMARK  1 active torsions:
REMARK  status: ('A' for Active; 'I' for Inactive)
REMARK    1  A    between atoms: C3_4  and  O_7 
ROOT
ATOM      1  C   UNL d   1      -0.535   1.192   0.834  0.00  0.00    -0.033 A 
ATOM      2  C1  UNL d   1       0.170   1.444  -0.345  0.00  0.00     0.039 A 
ATOM      3  C2  UNL d   1       0.561   0.385  -1.166  0.00  0.00    -0.080 A 
ATOM      4  C3  UNL d   1       0.240  -0.919  -0.800  0.00  0.00     0.150 A 
ATOM      5  C4  UNL d   1      -0.466  -1.177   0.370  0.00  0.00    -0.007 A 
ATOM      6  C5  UNL d   1      -0.855  -0.119   1.190  0.00  0.00     0.039 A 
ENDROOT
BRANCH   4   7
ATOM      7  O   UNL d   1       0.604  -1.985  -1.568  0.00  0.00    -0.526 OA
ATOM      8  H5  UNL d   1       1.111  -1.657  -2.329  0.00  0.00     0.418 HD
ENDBRANCH   4   7
TORSDOF 1
ENDMDL
