MODEL 1
REMARK minimizedAffinity -4.160676
REMARK minimizedRMSD -1
REMARK  1 active torsions:
REMARK  status: ('A' for Active; 'I' for Inactive)
REMARK    1  A    between atoms: C3_4  and  O_7 
ROOT
ATOM      1  C   UNL d   1      -0.652  -0.305   0.845  0.00  0.00    -0.033 A 
ATOM      2  C1  UNL d   1      -1.461  -1.304   0.301  0.00  0.00     0.039 A 
ATOM      3  C2  UNL d   1      -0.948  -2.173  -0.665  0.00  0.00    -0.080 A 
ATOM      4  C3  UNL d   1       0.375  -2.032  -1.076  0.00  0.00     0.150 A 
ATOM      5  C4  UNL d   1       1.188  -1.042  -0.535  0.00  0.00    -0.007 A 
ATOM      6  C5  UNL d   1       0.673  -0.175   0.428  0.00  0.00     0.039 A 
ENDROOT
BRANCH   4   7
ATOM      7  O   UNL d   1       0.919  -2.853  -2.018  0.00  0.00    -0.526 OA
ATOM      8  H5  UNL d   1       0.233  -3.470  -2.323  0.00  0.00     0.418 HD
ENDBRANCH   4   7
TORSDOF 1
ENDMDL
