MODEL 1
REMARK minimizedAffinity -0.476503193
REMARK minimizedRMSD -1
REMARK  1 active torsions:
REMARK  status: ('A' for Active; 'I' for Inactive)
REMARK    1  A    between atoms: C3_4  and  O_7 
ROOT
ATOM      1  C   UNL d   1       1.005  -4.223  -2.263  0.00  0.00    -0.033 A 
ATOM      2  C1  UNL d   1       0.311  -3.329  -3.079  0.00  0.00     0.039 A 
ATOM      3  C2  UNL d   1       0.237  -1.978  -2.734  0.00  0.00    -0.080 A 
ATOM      4  C3  UNL d   1       0.863  -1.535  -1.572  0.00  0.00     0.150 A 
ATOM      5  C4  UNL d   1       1.560  -2.420  -0.756  0.00  0.00    -0.007 A 
ATOM      6  C5  UNL d   1       1.631  -3.769  -1.102  0.00  0.00     0.039 A 
ENDROOT
BRANCH   4   7
ATOM      7  O   UNL d   1       0.815  -0.227  -1.191  0.00  0.00    -0.526 OA
ATOM      8  H5  UNL d   1       0.276   0.262  -1.835  0.00  0.00     0.418 HD
ENDBRANCH   4   7
TORSDOF 1
ENDMDL
