MODEL 1
REMARK minimizedAffinity -4.75410748
REMARK minimizedRMSD -1
REMARK  1 active torsions:
REMARK  status: ('A' for Active; 'I' for Inactive)
REMARK    1  A    between atoms: C3_4  and  O_7 
ROOT
ATOM      1  C   UNL d   1      -1.740   1.250   2.103  0.00  0.00    -0.033 A 
ATOM      2  C1  UNL d   1      -1.137   0.227   1.369  0.00  0.00     0.039 A 
ATOM      3  C2  UNL d   1      -0.232   0.535   0.351  0.00  0.00    -0.080 A 
ATOM      4  C3  UNL d   1       0.061   1.869   0.078  0.00  0.00     0.150 A 
ATOM      5  C4  UNL d   1      -0.533   2.893   0.809  0.00  0.00    -0.007 A 
ATOM      6  C5  UNL d   1      -1.437   2.583   1.824  0.00  0.00     0.039 A 
ENDROOT
BRANCH   4   7
ATOM      7  O   UNL d   1       0.934   2.219  -0.908  0.00  0.00    -0.526 OA
ATOM      8  H5  UNL d   1       1.244   1.409  -1.347  0.00  0.00     0.418 HD
ENDBRANCH   4   7
TORSDOF 1
ENDMDL
