MODEL 1
REMARK minimizedAffinity -3.55702949
REMARK minimizedRMSD -1
REMARK  1 active torsions:
REMARK  status: ('A' for Active; 'I' for Inactive)
REMARK    1  A    between atoms: C3_4  and  O_7 
ROOT
ATOM      1  C   UNL d   1      -1.121   1.891   1.808  0.00  0.00    -0.033 A 
ATOM      2  C1  UNL d   1      -1.323   0.533   2.062  0.00  0.00     0.039 A 
ATOM      3  C2  UNL d   1      -0.737  -0.428   1.235  0.00  0.00    -0.080 A 
ATOM      4  C3  UNL d   1       0.048  -0.018   0.160  0.00  0.00     0.150 A 
ATOM      5  C4  UNL d   1       0.256   1.333  -0.096  0.00  0.00    -0.007 A 
ATOM      6  C5  UNL d   1      -0.330   2.291   0.730  0.00  0.00     0.039 A 
ENDROOT
BRANCH   4   7
ATOM      7  O   UNL d   1       0.636  -0.919  -0.677  0.00  0.00    -0.526 OA
ATOM      8  H5  UNL d   1       0.381  -1.813  -0.395  0.00  0.00     0.418 HD
ENDBRANCH   4   7
TORSDOF 1
ENDMDL
