MODEL 1
REMARK minimizedAffinity -3.22409773
REMARK minimizedRMSD -1
REMARK  1 active torsions:
REMARK  status: ('A' for Active; 'I' for Inactive)
REMARK    1  A    between atoms: C3_4  and  O_7 
ROOT
ATOM      1  C   UNL d   1       1.141  -1.131  -0.135  0.00  0.00    -0.033 A 
ATOM      2  C1  UNL d   1       1.547  -0.426   1.000  0.00  0.00     0.039 A 
ATOM      3  C2  UNL d   1       0.597   0.173   1.830  0.00  0.00    -0.080 A 
ATOM      4  C3  UNL d   1      -0.754   0.057   1.516  0.00  0.00     0.150 A 
ATOM      5  C4  UNL d   1      -1.167  -0.647   0.389  0.00  0.00    -0.007 A 
ATOM      6  C5  UNL d   1      -0.216  -1.243  -0.439  0.00  0.00     0.039 A 
ENDROOT
BRANCH   4   7
ATOM      7  O   UNL d   1      -1.718   0.628   2.293  0.00  0.00    -0.526 OA
ATOM      8  H5  UNL d   1      -1.284   1.106   3.019  0.00  0.00     0.418 HD
ENDBRANCH   4   7
TORSDOF 1
ENDMDL
