MODEL 1
REMARK minimizedAffinity -4.10210943
REMARK minimizedRMSD -1
REMARK  1 active torsions:
REMARK  status: ('A' for Active; 'I' for Inactive)
REMARK    1  A    between atoms: C3_4  and  O_7 
ROOT
ATOM      1  C   UNL d   1       0.059  -0.872   0.326  0.00  0.00    -0.033 A 
ATOM      2  C1  UNL d   1      -0.682  -0.810   1.508  0.00  0.00     0.039 A 
ATOM      3  C2  UNL d   1      -1.133   0.422   1.987  0.00  0.00    -0.080 A 
ATOM      4  C3  UNL d   1      -0.837   1.582   1.276  0.00  0.00     0.150 A 
ATOM      5  C4  UNL d   1      -0.103   1.526   0.096  0.00  0.00    -0.007 A 
ATOM      6  C5  UNL d   1       0.347   0.295  -0.380  0.00  0.00     0.039 A 
ENDROOT
BRANCH   4   7
ATOM      7  O   UNL d   1      -1.251   2.807   1.707  0.00  0.00    -0.526 OA
ATOM      8  H5  UNL d   1      -1.722   2.694   2.549  0.00  0.00     0.418 HD
ENDBRANCH   4   7
TORSDOF 1
ENDMDL
