MODEL 1
REMARK minimizedAffinity -3.75907373
REMARK minimizedRMSD -1
REMARK  1 active torsions:
REMARK  status: ('A' for Active; 'I' for Inactive)
REMARK    1  A    between atoms: C3_4  and  O_7 
ROOT
ATOM      1  C   UNL d   1      -0.383  -0.410   1.207  0.00  0.00    -0.033 A 
ATOM      2  C1  UNL d   1       0.971  -0.626   0.947  0.00  0.00     0.039 A 
ATOM      3  C2  UNL d   1       1.376  -1.114  -0.297  0.00  0.00    -0.080 A 
ATOM      4  C3  UNL d   1       0.418  -1.381  -1.271  0.00  0.00     0.150 A 
ATOM      5  C4  UNL d   1      -0.933  -1.164  -1.021  0.00  0.00    -0.007 A 
ATOM      6  C5  UNL d   1      -1.335  -0.677   0.222  0.00  0.00     0.039 A 
ENDROOT
BRANCH   4   7
ATOM      7  O   UNL d   1       0.765  -1.862  -2.498  0.00  0.00    -0.526 OA
ATOM      8  H5  UNL d   1       1.728  -1.990  -2.518  0.00  0.00     0.418 HD
ENDBRANCH   4   7
TORSDOF 1
ENDMDL
