MODEL 1
REMARK minimizedAffinity -2.52133799
REMARK minimizedRMSD -1
REMARK  1 active torsions:
REMARK  status: ('A' for Active; 'I' for Inactive)
REMARK    1  A    between atoms: C3_4  and  O_7 
ROOT
ATOM      1  C   UNL d   1       0.554  -1.279  -1.384  0.00  0.00    -0.033 A 
ATOM      2  C1  UNL d   1      -0.809  -1.189  -1.094  0.00  0.00     0.039 A 
ATOM      3  C2  UNL d   1      -1.238  -0.495   0.040  0.00  0.00    -0.080 A 
ATOM      4  C3  UNL d   1      -0.296   0.103   0.872  0.00  0.00     0.150 A 
ATOM      5  C4  UNL d   1       1.062   0.021   0.587  0.00  0.00    -0.007 A 
ATOM      6  C5  UNL d   1       1.490  -0.673  -0.545  0.00  0.00     0.039 A 
ENDROOT
BRANCH   4   7
ATOM      7  O   UNL d   1      -0.667   0.786   1.992  0.00  0.00    -0.526 OA
ATOM      8  H5  UNL d   1      -1.634   0.736   2.077  0.00  0.00     0.418 HD
ENDBRANCH   4   7
TORSDOF 1
ENDMDL
