MODEL 1
REMARK minimizedAffinity 4.19020844
REMARK minimizedRMSD -1
REMARK  0 active torsions:
REMARK  status: ('A' for Active; 'I' for Inactive)
ROOT
ATOM      1  C   UNL d   1      -1.748  -3.127  -2.402  0.00  0.00     0.124 A 
ATOM      2  C1  UNL d   1      -1.509  -1.760  -2.438  0.00  0.00     0.062 A 
ATOM      3  C2  UNL d   1      -1.583  -1.005  -1.272  0.00  0.00     0.162 A 
ATOM      4  C3  UNL d   1      -1.895  -1.615  -0.057  0.00  0.00    -0.034 A 
ATOM      5  C4  UNL d   1      -2.135  -2.990  -0.028  0.00  0.00     0.162 A 
ATOM      6  C5  UNL d   1      -2.060  -3.740  -1.197  0.00  0.00     0.062 A 
ATOM      7  F   UNL d   1      -2.291  -5.061  -1.159  0.00  0.00    -0.097 F 
ATOM      8  F1  UNL d   1      -2.438  -3.609   1.123  0.00  0.00    -0.096 F 
ATOM      9  I   UNL d   1      -2.006  -0.489   1.690  0.00  0.00    -0.060 I 
ATOM     10  F2  UNL d   1      -1.347   0.314  -1.337  0.00  0.00    -0.096 F 
ATOM     11  F3  UNL d   1      -1.208  -1.164  -3.602  0.00  0.00    -0.097 F 
ATOM     12  F4  UNL d   1      -1.678  -3.851  -3.526  0.00  0.00    -0.092 F 
ENDROOT
TORSDOF 0
ENDMDL
