MODEL 1
REMARK minimizedAffinity 2.327739
REMARK minimizedRMSD -1
REMARK  0 active torsions:
REMARK  status: ('A' for Active; 'I' for Inactive)
ROOT
ATOM      1  C   UNL d   1      -4.502   2.613   2.371  0.00  0.00     0.124 A 
ATOM      2  C1  UNL d   1      -4.294   2.252   3.695  0.00  0.00     0.062 A 
ATOM      3  C2  UNL d   1      -4.659   3.117   4.722  0.00  0.00     0.162 A 
ATOM      4  C3  UNL d   1      -5.239   4.352   4.430  0.00  0.00    -0.034 A 
ATOM      5  C4  UNL d   1      -5.445   4.708   3.096  0.00  0.00     0.162 A 
ATOM      6  C5  UNL d   1      -5.078   3.841   2.073  0.00  0.00     0.062 A 
ATOM      7  F   UNL d   1      -5.280   4.191   0.794  0.00  0.00    -0.097 F 
ATOM      8  F1  UNL d   1      -6.000   5.888   2.780  0.00  0.00    -0.096 F 
ATOM      9  I   UNL d   1      -5.787   5.647   5.964  0.00  0.00    -0.060 I 
ATOM     10  F2  UNL d   1      -4.446   2.742   5.992  0.00  0.00    -0.096 F 
ATOM     11  F3  UNL d   1      -3.737   1.067   3.985  0.00  0.00    -0.097 F 
ATOM     12  F4  UNL d   1      -4.149   1.780   1.384  0.00  0.00    -0.092 F 
ENDROOT
TORSDOF 0
ENDMDL
