MODEL 1
REMARK minimizedAffinity 7.45319128
REMARK minimizedRMSD -1
REMARK  0 active torsions:
REMARK  status: ('A' for Active; 'I' for Inactive)
ROOT
ATOM      1  C   UNL d   1      -1.263  -1.115  -0.055  0.00  0.00     0.124 A 
ATOM      2  C1  UNL d   1      -0.971  -0.339  -1.168  0.00  0.00     0.062 A 
ATOM      3  C2  UNL d   1      -1.077  -0.880  -2.446  0.00  0.00     0.162 A 
ATOM      4  C3  UNL d   1      -1.478  -2.205  -2.618  0.00  0.00    -0.034 A 
ATOM      5  C4  UNL d   1      -1.769  -2.979  -1.494  0.00  0.00     0.162 A 
ATOM      6  C5  UNL d   1      -1.662  -2.434  -0.219  0.00  0.00     0.062 A 
ATOM      7  F   UNL d   1      -1.944  -3.185   0.856  0.00  0.00    -0.097 F 
ATOM      8  F1  UNL d   1      -2.157  -4.257  -1.623  0.00  0.00    -0.096 F 
ATOM      9  I   UNL d   1      -1.637  -3.018  -4.527  0.00  0.00    -0.060 I 
ATOM     10  F2  UNL d   1      -0.788  -0.107  -3.503  0.00  0.00    -0.096 F 
ATOM     11  F3  UNL d   1      -0.585   0.936  -1.012  0.00  0.00    -0.097 F 
ATOM     12  F4  UNL d   1      -1.159  -0.592   1.174  0.00  0.00    -0.092 F 
ENDROOT
TORSDOF 0
ENDMDL
