MODEL 1
REMARK minimizedAffinity 8.5624342
REMARK minimizedRMSD -1
REMARK  0 active torsions:
REMARK  status: ('A' for Active; 'I' for Inactive)
ROOT
ATOM      1  C   UNL d   1      -2.361  -2.856  -1.174  0.00  0.00     0.124 A 
ATOM      2  C1  UNL d   1      -2.360  -2.039  -0.052  0.00  0.00     0.062 A 
ATOM      3  C2  UNL d   1      -1.733  -0.797  -0.090  0.00  0.00     0.162 A 
ATOM      4  C3  UNL d   1      -1.102  -0.363  -1.256  0.00  0.00    -0.034 A 
ATOM      5  C4  UNL d   1      -1.107  -1.191  -2.381  0.00  0.00     0.162 A 
ATOM      6  C5  UNL d   1      -1.735  -2.431  -2.337  0.00  0.00     0.062 A 
ATOM      7  F   UNL d   1      -1.734  -3.219  -3.423  0.00  0.00    -0.097 F 
ATOM      8  F1  UNL d   1      -0.509  -0.805  -3.518  0.00  0.00    -0.096 F 
ATOM      9  I   UNL d   1      -0.164   1.493  -1.318  0.00  0.00    -0.060 I 
ATOM     10  F2  UNL d   1      -1.748  -0.029   1.009  0.00  0.00    -0.096 F 
ATOM     11  F3  UNL d   1      -2.964  -2.448   1.073  0.00  0.00    -0.097 F 
ATOM     12  F4  UNL d   1      -2.965  -4.051  -1.134  0.00  0.00    -0.092 F 
ENDROOT
TORSDOF 0
ENDMDL
