MODEL 1
REMARK minimizedAffinity 8.40984631
REMARK minimizedRMSD -1
REMARK  0 active torsions:
REMARK  status: ('A' for Active; 'I' for Inactive)
ROOT
ATOM      1  C   UNL d   1      -4.469   3.883   1.187  0.00  0.00     0.124 A 
ATOM      2  C1  UNL d   1      -5.126   4.934   1.812  0.00  0.00     0.062 A 
ATOM      3  C2  UNL d   1      -5.357   4.898   3.184  0.00  0.00     0.162 A 
ATOM      4  C3  UNL d   1      -4.930   3.807   3.941  0.00  0.00    -0.034 A 
ATOM      5  C4  UNL d   1      -4.271   2.753   3.305  0.00  0.00     0.162 A 
ATOM      6  C5  UNL d   1      -4.042   2.794   1.934  0.00  0.00     0.062 A 
ATOM      7  F   UNL d   1      -3.407   1.778   1.332  0.00  0.00    -0.097 F 
ATOM      8  F1  UNL d   1      -3.847   1.689   4.003  0.00  0.00    -0.096 F 
ATOM      9  I   UNL d   1      -5.275   3.749   5.993  0.00  0.00    -0.060 I 
ATOM     10  F2  UNL d   1      -5.994   5.927   3.761  0.00  0.00    -0.096 F 
ATOM     11  F3  UNL d   1      -5.540   5.987   1.092  0.00  0.00    -0.097 F 
ATOM     12  F4  UNL d   1      -4.248   3.920  -0.134  0.00  0.00    -0.092 F 
ENDROOT
TORSDOF 0
ENDMDL
