MODEL 1
REMARK minimizedAffinity 10.5788832
REMARK minimizedRMSD -1
REMARK  0 active torsions:
REMARK  status: ('A' for Active; 'I' for Inactive)
ROOT
ATOM      1  C   UNL d   1      -0.639  -0.614  -2.056  0.00  0.00     0.124 A 
ATOM      2  C1  UNL d   1      -1.282  -1.764  -2.493  0.00  0.00     0.062 A 
ATOM      3  C2  UNL d   1      -1.989  -2.556  -1.593  0.00  0.00     0.162 A 
ATOM      4  C3  UNL d   1      -2.058  -2.201  -0.246  0.00  0.00    -0.034 A 
ATOM      5  C4  UNL d   1      -1.407  -1.044   0.187  0.00  0.00     0.162 A 
ATOM      6  C5  UNL d   1      -0.702  -0.255  -0.717  0.00  0.00     0.062 A 
ATOM      7  F   UNL d   1      -0.081   0.855  -0.292  0.00  0.00    -0.097 F 
ATOM      8  F1  UNL d   1      -1.453  -0.673   1.475  0.00  0.00    -0.096 F 
ATOM      9  I   UNL d   1      -3.114  -3.383   1.103  0.00  0.00    -0.060 I 
ATOM     10  F2  UNL d   1      -2.601  -3.661  -2.044  0.00  0.00    -0.096 F 
ATOM     11  F3  UNL d   1      -1.222  -2.113  -3.786  0.00  0.00    -0.097 F 
ATOM     12  F4  UNL d   1       0.042   0.146  -2.924  0.00  0.00    -0.092 F 
ENDROOT
TORSDOF 0
ENDMDL
