MODEL 1
REMARK minimizedAffinity 5.05657959
REMARK minimizedRMSD -1
REMARK  0 active torsions:
REMARK  status: ('A' for Active; 'I' for Inactive)
ROOT
ATOM      1  C   UNL d   1      -3.450  -1.815   0.752  0.00  0.00     0.124 A 
ATOM      2  C1  UNL d   1      -2.490  -1.184   1.530  0.00  0.00     0.062 A 
ATOM      3  C2  UNL d   1      -1.318  -0.710   0.948  0.00  0.00     0.162 A 
ATOM      4  C3  UNL d   1      -1.099  -0.865  -0.421  0.00  0.00    -0.034 A 
ATOM      5  C4  UNL d   1      -2.069  -1.501  -1.197  0.00  0.00     0.162 A 
ATOM      6  C5  UNL d   1      -3.239  -1.973  -0.611  0.00  0.00     0.062 A 
ATOM      7  F   UNL d   1      -4.165  -2.583  -1.365  0.00  0.00    -0.097 F 
ATOM      8  F1  UNL d   1      -1.891  -1.667  -2.516  0.00  0.00    -0.096 F 
ATOM      9  I   UNL d   1       0.652  -0.157  -1.295  0.00  0.00    -0.060 I 
ATOM     10  F2  UNL d   1      -0.407  -0.104   1.725  0.00  0.00    -0.096 F 
ATOM     11  F3  UNL d   1      -2.691  -1.031   2.847  0.00  0.00    -0.097 F 
ATOM     12  F4  UNL d   1      -4.577  -2.271   1.314  0.00  0.00    -0.092 F 
ENDROOT
TORSDOF 0
ENDMDL
