MODEL 1
REMARK minimizedAffinity 0.577712059
REMARK minimizedRMSD -1
REMARK  0 active torsions:
REMARK  status: ('A' for Active; 'I' for Inactive)
ROOT
ATOM      1  C   UNL d   1      -3.926   3.029   2.333  0.00  0.00     0.124 A 
ATOM      2  C1  UNL d   1      -3.758   2.793   3.690  0.00  0.00     0.062 A 
ATOM      3  C2  UNL d   1      -4.346   3.639   4.626  0.00  0.00     0.162 A 
ATOM      4  C3  UNL d   1      -5.109   4.729   4.207  0.00  0.00    -0.034 A 
ATOM      5  C4  UNL d   1      -5.272   4.961   2.840  0.00  0.00     0.162 A 
ATOM      6  C5  UNL d   1      -4.683   4.112   1.909  0.00  0.00     0.062 A 
ATOM      7  F   UNL d   1      -4.846   4.342   0.598  0.00  0.00    -0.097 F 
ATOM      8  F1  UNL d   1      -5.999   6.000   2.403  0.00  0.00    -0.096 F 
ATOM      9  I   UNL d   1      -5.989   5.997   5.603  0.00  0.00    -0.060 I 
ATOM     10  F2  UNL d   1      -4.167   3.387   5.931  0.00  0.00    -0.096 F 
ATOM     11  F3  UNL d   1      -3.027   1.747   4.102  0.00  0.00    -0.097 F 
ATOM     12  F4  UNL d   1      -3.359   2.213   1.435  0.00  0.00    -0.092 F 
ENDROOT
TORSDOF 0
ENDMDL
