MODEL 1
REMARK minimizedAffinity 3.55744028
REMARK minimizedRMSD -1
REMARK  0 active torsions:
REMARK  status: ('A' for Active; 'I' for Inactive)
ROOT
ATOM      1  C   UNL d   1      -4.106   2.889   2.403  0.00  0.00     0.124 A 
ATOM      2  C1  UNL d   1      -3.965   2.643   3.762  0.00  0.00     0.062 A 
ATOM      3  C2  UNL d   1      -4.499   3.530   4.692  0.00  0.00     0.162 A 
ATOM      4  C3  UNL d   1      -5.180   4.671   4.268  0.00  0.00    -0.034 A 
ATOM      5  C4  UNL d   1      -5.316   4.912   2.900  0.00  0.00     0.162 A 
ATOM      6  C5  UNL d   1      -4.781   4.023   1.973  0.00  0.00     0.062 A 
ATOM      7  F   UNL d   1      -4.918   4.262   0.661  0.00  0.00    -0.097 F 
ATOM      8  F1  UNL d   1      -5.965   5.999   2.457  0.00  0.00    -0.096 F 
ATOM      9  I   UNL d   1      -5.979   5.999   5.656  0.00  0.00    -0.060 I 
ATOM     10  F2  UNL d   1      -4.348   3.267   5.999  0.00  0.00    -0.096 F 
ATOM     11  F3  UNL d   1      -3.313   1.549   4.179  0.00  0.00    -0.097 F 
ATOM     12  F4  UNL d   1      -3.591   2.035   1.509  0.00  0.00    -0.092 F 
ENDROOT
TORSDOF 0
ENDMDL
