MODEL 1
REMARK minimizedAffinity 3.42861938
REMARK minimizedRMSD -1
REMARK  0 active torsions:
REMARK  status: ('A' for Active; 'I' for Inactive)
ROOT
ATOM      1  C   UNL d   1      -5.244   2.679   4.841  0.00  0.00     0.124 A 
ATOM      2  C1  UNL d   1      -4.858   2.042   3.669  0.00  0.00     0.062 A 
ATOM      3  C2  UNL d   1      -4.854   2.737   2.463  0.00  0.00     0.162 A 
ATOM      4  C3  UNL d   1      -5.236   4.078   2.422  0.00  0.00    -0.034 A 
ATOM      5  C4  UNL d   1      -5.624   4.711   3.605  0.00  0.00     0.162 A 
ATOM      6  C5  UNL d   1      -5.626   4.013   4.807  0.00  0.00     0.062 A 
ATOM      7  F   UNL d   1      -5.999   4.630   5.938  0.00  0.00    -0.097 F 
ATOM      8  F1  UNL d   1      -5.997   6.000   3.601  0.00  0.00    -0.096 F 
ATOM      9  I   UNL d   1      -5.231   5.121   0.621  0.00  0.00    -0.060 I 
ATOM     10  F2  UNL d   1      -4.476   2.096   1.347  0.00  0.00    -0.096 F 
ATOM     11  F3  UNL d   1      -4.489   0.753   3.699  0.00  0.00    -0.097 F 
ATOM     12  F4  UNL d   1      -5.248   2.008   6.000  0.00  0.00    -0.092 F 
ENDROOT
TORSDOF 0
ENDMDL
