MODEL 1
REMARK minimizedAffinity 11.965601
REMARK minimizedRMSD -1
REMARK  0 active torsions:
REMARK  status: ('A' for Active; 'I' for Inactive)
ROOT
ATOM      1  C   UNL d   1      -5.462   4.943   3.754  0.00  0.00     0.124 A 
ATOM      2  C1  UNL d   1      -4.948   3.845   4.431  0.00  0.00     0.062 A 
ATOM      3  C2  UNL d   1      -4.474   2.745   3.722  0.00  0.00     0.162 A 
ATOM      4  C3  UNL d   1      -4.512   2.736   2.328  0.00  0.00    -0.034 A 
ATOM      5  C4  UNL d   1      -5.031   3.843   1.654  0.00  0.00     0.162 A 
ATOM      6  C5  UNL d   1      -5.503   4.941   2.367  0.00  0.00     0.062 A 
ATOM      7  F   UNL d   1      -6.000   6.000   1.711  0.00  0.00    -0.097 F 
ATOM      8  F1  UNL d   1      -5.083   3.868   0.314  0.00  0.00    -0.096 F 
ATOM      9  I   UNL d   1      -3.805   1.092   1.265  0.00  0.00    -0.060 I 
ATOM     10  F2  UNL d   1      -3.983   1.698   4.402  0.00  0.00    -0.096 F 
ATOM     11  F3  UNL d   1      -4.907   3.845   5.771  0.00  0.00    -0.097 F 
ATOM     12  F4  UNL d   1      -5.917   6.000   4.438  0.00  0.00    -0.092 F 
ENDROOT
TORSDOF 0
ENDMDL
