MODEL 1
REMARK minimizedAffinity 10.8774595
REMARK minimizedRMSD -1
REMARK  0 active torsions:
REMARK  status: ('A' for Active; 'I' for Inactive)
ROOT
ATOM      1  C   UNL d   1      -5.145   3.800   0.803  0.00  0.00     0.124 A 
ATOM      2  C1  UNL d   1      -5.526   4.914   1.537  0.00  0.00     0.062 A 
ATOM      3  C2  UNL d   1      -5.420   4.909   2.925  0.00  0.00     0.162 A 
ATOM      4  C3  UNL d   1      -4.929   3.784   3.588  0.00  0.00    -0.034 A 
ATOM      5  C4  UNL d   1      -4.548   2.667   2.843  0.00  0.00     0.162 A 
ATOM      6  C5  UNL d   1      -4.656   2.677   1.456  0.00  0.00     0.062 A 
ATOM      7  F   UNL d   1      -4.287   1.599   0.749  0.00  0.00    -0.097 F 
ATOM      8  F1  UNL d   1      -4.072   1.569   3.449  0.00  0.00    -0.096 F 
ATOM      9  I   UNL d   1      -4.768   3.771   5.663  0.00  0.00    -0.060 I 
ATOM     10  F2  UNL d   1      -5.795   6.000   3.609  0.00  0.00    -0.096 F 
ATOM     11  F3  UNL d   1      -5.999   6.000   0.908  0.00  0.00    -0.097 F 
ATOM     12  F4  UNL d   1      -5.249   3.808  -0.532  0.00  0.00    -0.092 F 
ENDROOT
TORSDOF 0
ENDMDL
