MODEL 1
REMARK minimizedAffinity 5.34635448
REMARK minimizedRMSD -1
REMARK  0 active torsions:
REMARK  status: ('A' for Active; 'I' for Inactive)
ROOT
ATOM      1  C   UNL d   1      -4.270   3.917   1.257  0.00  0.00     0.124 A 
ATOM      2  C1  UNL d   1      -4.984   4.972   1.808  0.00  0.00     0.062 A 
ATOM      3  C2  UNL d   1      -5.309   4.966   3.161  0.00  0.00     0.162 A 
ATOM      4  C3  UNL d   1      -4.919   3.902   3.974  0.00  0.00    -0.034 A 
ATOM      5  C4  UNL d   1      -4.202   2.844   3.412  0.00  0.00     0.162 A 
ATOM      6  C5  UNL d   1      -3.880   2.854   2.059  0.00  0.00     0.062 A 
ATOM      7  F   UNL d   1      -3.190   1.834   1.528  0.00  0.00    -0.097 F 
ATOM      8  F1  UNL d   1      -3.811   1.805   4.165  0.00  0.00    -0.096 F 
ATOM      9  I   UNL d   1      -5.402   3.889   5.998  0.00  0.00    -0.060 I 
ATOM     10  F2  UNL d   1      -6.000   5.999   3.667  0.00  0.00    -0.096 F 
ATOM     11  F3  UNL d   1      -5.363   6.000   1.034  0.00  0.00    -0.097 F 
ATOM     12  F4  UNL d   1      -3.960   3.925  -0.046  0.00  0.00    -0.092 F 
ENDROOT
TORSDOF 0
ENDMDL
