MODEL 1
REMARK minimizedAffinity 10.0478783
REMARK minimizedRMSD -1
REMARK  0 active torsions:
REMARK  status: ('A' for Active; 'I' for Inactive)
ROOT
ATOM      1  C   UNL d   1      -2.993  -1.894   1.165  0.00  0.00     0.124 A 
ATOM      2  C1  UNL d   1      -2.708  -0.775   1.935  0.00  0.00     0.062 A 
ATOM      3  C2  UNL d   1      -2.882  -0.812   3.316  0.00  0.00     0.162 A 
ATOM      4  C3  UNL d   1      -3.342  -1.973   3.936  0.00  0.00    -0.034 A 
ATOM      5  C4  UNL d   1      -3.628  -3.095   3.155  0.00  0.00     0.162 A 
ATOM      6  C5  UNL d   1      -3.453  -3.052   1.776  0.00  0.00     0.062 A 
ATOM      7  F   UNL d   1      -3.730  -4.135   1.034  0.00  0.00    -0.097 F 
ATOM      8  F1  UNL d   1      -4.073  -4.227   3.719  0.00  0.00    -0.096 F 
ATOM      9  I   UNL d   1      -3.603  -2.033   6.000  0.00  0.00    -0.060 I 
ATOM     10  F2  UNL d   1      -2.598   0.284   4.034  0.00  0.00    -0.096 F 
ATOM     11  F3  UNL d   1      -2.264   0.346   1.347  0.00  0.00    -0.097 F 
ATOM     12  F4  UNL d   1      -2.826  -1.855  -0.163  0.00  0.00    -0.092 F 
ENDROOT
TORSDOF 0
ENDMDL
