MODEL 1
REMARK minimizedAffinity -3.60034132
REMARK minimizedRMSD -1
REMARK  0 active torsions:
REMARK  status: ('A' for Active; 'I' for Inactive)
ROOT
ATOM      1  C   UNL d   1       2.782   3.905   2.504  0.00  0.00     0.078 C 
ATOM      2  C1  UNL d   1       1.965   2.894   1.756  0.00  0.00    -0.077 A 
ATOM      3  C2  UNL d   1       2.498   1.645   1.415  0.00  0.00    -0.001 A 
ATOM      4  C3  UNL d   1       1.728   0.718   0.710  0.00  0.00     0.003 A 
ATOM      5  C4  UNL d   1       0.422   1.030   0.340  0.00  0.00    -0.005 A 
ATOM      6  C5  UNL d   1      -0.116   2.272   0.673  0.00  0.00     0.003 A 
ATOM      7  C6  UNL d   1       0.651   3.200   1.378  0.00  0.00    -0.001 A 
ENDROOT
TORSDOF 0
ENDMDL
