MODEL 1
REMARK minimizedAffinity 1.30442011
REMARK minimizedRMSD -1
REMARK  0 active torsions:
REMARK  status: ('A' for Active; 'I' for Inactive)
ROOT
ATOM      1  C   UNL d   1      -3.187   2.208  -0.794  0.00  0.00     0.078 C 
ATOM      2  C1  UNL d   1      -2.046   1.589  -0.043  0.00  0.00    -0.077 A 
ATOM      3  C2  UNL d   1      -0.745   2.093  -0.164  0.00  0.00    -0.001 A 
ATOM      4  C3  UNL d   1       0.309   1.501   0.534  0.00  0.00     0.003 A 
ATOM      5  C4  UNL d   1       0.073   0.402   1.357  0.00  0.00    -0.005 A 
ATOM      6  C5  UNL d   1      -1.217  -0.108   1.482  0.00  0.00     0.003 A 
ATOM      7  C6  UNL d   1      -2.273   0.482   0.785  0.00  0.00    -0.001 A 
ENDROOT
TORSDOF 0
ENDMDL
