MODEL 1
REMARK minimizedAffinity -0.0191026758
REMARK minimizedRMSD -1
REMARK  0 active torsions:
REMARK  status: ('A' for Active; 'I' for Inactive)
ROOT
ATOM      1  C   UNL d   1       0.092   1.889   2.209  0.00  0.00     0.078 C 
ATOM      2  C1  UNL d   1      -0.357   2.407   0.875  0.00  0.00    -0.077 A 
ATOM      3  C2  UNL d   1      -1.667   2.200   0.426  0.00  0.00    -0.001 A 
ATOM      4  C3  UNL d   1      -2.069   2.679  -0.822  0.00  0.00     0.003 A 
ATOM      5  C4  UNL d   1      -1.167   3.366  -1.632  0.00  0.00    -0.005 A 
ATOM      6  C5  UNL d   1       0.140   3.575  -1.193  0.00  0.00     0.003 A 
ATOM      7  C6  UNL d   1       0.543   3.097   0.054  0.00  0.00    -0.001 A 
ENDROOT
TORSDOF 0
ENDMDL
