MODEL 1
REMARK minimizedAffinity 6.2967186
REMARK minimizedRMSD -1
REMARK  0 active torsions:
REMARK  status: ('A' for Active; 'I' for Inactive)
ROOT
ATOM      1  C   UNL d   1       3.944   4.102   2.204  0.00  0.00     0.078 C 
ATOM      2  C1  UNL d   1       3.119   2.916   1.801  0.00  0.00    -0.077 A 
ATOM      3  C2  UNL d   1       3.540   2.060   0.776  0.00  0.00    -0.001 A 
ATOM      4  C3  UNL d   1       2.757   0.966   0.404  0.00  0.00     0.003 A 
ATOM      5  C4  UNL d   1       1.548   0.718   1.051  0.00  0.00    -0.005 A 
ATOM      6  C5  UNL d   1       1.120   1.566   2.070  0.00  0.00     0.003 A 
ATOM      7  C6  UNL d   1       1.901   2.661   2.443  0.00  0.00    -0.001 A 
ENDROOT
TORSDOF 0
ENDMDL
