MODEL 1
REMARK minimizedAffinity 2.90048242
REMARK minimizedRMSD -1
REMARK  0 active torsions:
REMARK  status: ('A' for Active; 'I' for Inactive)
ROOT
ATOM      1  C   UNL d   1       2.530   3.010   2.446  0.00  0.00     0.078 C 
ATOM      2  C1  UNL d   1       1.045   2.857   2.301  0.00  0.00    -0.077 A 
ATOM      3  C2  UNL d   1       0.433   2.925   1.043  0.00  0.00    -0.001 A 
ATOM      4  C3  UNL d   1      -0.951   2.790   0.924  0.00  0.00     0.003 A 
ATOM      5  C4  UNL d   1      -1.735   2.589   2.059  0.00  0.00    -0.005 A 
ATOM      6  C5  UNL d   1      -1.135   2.523   3.314  0.00  0.00     0.003 A 
ATOM      7  C6  UNL d   1       0.249   2.657   3.435  0.00  0.00    -0.001 A 
ENDROOT
TORSDOF 0
ENDMDL
