MODEL 1
REMARK minimizedAffinity 1.90755177
REMARK minimizedRMSD -1
REMARK  0 active torsions:
REMARK  status: ('A' for Active; 'I' for Inactive)
ROOT
ATOM      1  C   UNL d   1       1.152   1.808   1.759  0.00  0.00     0.078 C 
ATOM      2  C1  UNL d   1      -0.047   1.810   0.859  0.00  0.00    -0.077 A 
ATOM      3  C2  UNL d   1      -0.190   2.771  -0.150  0.00  0.00    -0.001 A 
ATOM      4  C3  UNL d   1      -1.316   2.767  -0.974  0.00  0.00     0.003 A 
ATOM      5  C4  UNL d   1      -2.310   1.806  -0.797  0.00  0.00    -0.005 A 
ATOM      6  C5  UNL d   1      -2.178   0.848   0.206  0.00  0.00     0.003 A 
ATOM      7  C6  UNL d   1      -1.052   0.850   1.031  0.00  0.00    -0.001 A 
ENDROOT
TORSDOF 0
ENDMDL
