MODEL 1
REMARK minimizedAffinity 1.03805828
REMARK minimizedRMSD -1
REMARK  0 active torsions:
REMARK  status: ('A' for Active; 'I' for Inactive)
ROOT
ATOM      1  C   UNL d   1       2.697   1.902   1.494  0.00  0.00     0.078 C 
ATOM      2  C1  UNL d   1       1.266   1.761   1.067  0.00  0.00    -0.077 A 
ATOM      3  C2  UNL d   1       0.938   1.363  -0.235  0.00  0.00    -0.001 A 
ATOM      4  C3  UNL d   1      -0.398   1.245  -0.622  0.00  0.00     0.003 A 
ATOM      5  C4  UNL d   1      -1.417   1.525   0.287  0.00  0.00    -0.005 A 
ATOM      6  C5  UNL d   1      -1.100   1.924   1.584  0.00  0.00     0.003 A 
ATOM      7  C6  UNL d   1       0.236   2.042   1.972  0.00  0.00    -0.001 A 
ENDROOT
TORSDOF 0
ENDMDL
