MODEL 1
REMARK minimizedAffinity -2.5895586
REMARK minimizedRMSD -1
REMARK  0 active torsions:
REMARK  status: ('A' for Active; 'I' for Inactive)
ROOT
ATOM      1  C   UNL d   1      -1.689   3.019   3.298  0.00  0.00     0.078 C 
ATOM      2  C1  UNL d   1      -0.302   2.767   2.784  0.00  0.00    -0.077 A 
ATOM      3  C2  UNL d   1      -0.093   2.147   1.546  0.00  0.00    -0.001 A 
ATOM      4  C3  UNL d   1       1.203   1.911   1.085  0.00  0.00     0.003 A 
ATOM      5  C4  UNL d   1       2.300   2.290   1.856  0.00  0.00    -0.005 A 
ATOM      6  C5  UNL d   1       2.102   2.905   3.091  0.00  0.00     0.003 A 
ATOM      7  C6  UNL d   1       0.806   3.143   3.553  0.00  0.00    -0.001 A 
ENDROOT
TORSDOF 0
ENDMDL
