MODEL 1
REMARK minimizedAffinity 2.17710233
REMARK minimizedRMSD -1
REMARK  0 active torsions:
REMARK  status: ('A' for Active; 'I' for Inactive)
ROOT
ATOM      1  C   UNL d   1      -1.562   3.142   3.708  0.00  0.00     0.078 C 
ATOM      2  C1  UNL d   1      -0.504   2.526   2.842  0.00  0.00    -0.077 A 
ATOM      3  C2  UNL d   1      -0.845   1.695   1.768  0.00  0.00    -0.001 A 
ATOM      4  C3  UNL d   1       0.150   1.120   0.976  0.00  0.00     0.003 A 
ATOM      5  C4  UNL d   1       1.493   1.370   1.251  0.00  0.00    -0.005 A 
ATOM      6  C5  UNL d   1       1.842   2.194   2.319  0.00  0.00     0.003 A 
ATOM      7  C6  UNL d   1       0.848   2.769   3.112  0.00  0.00    -0.001 A 
ENDROOT
TORSDOF 0
ENDMDL
