MODEL 1
REMARK minimizedAffinity 0.842936993
REMARK minimizedRMSD -1
REMARK  0 active torsions:
REMARK  status: ('A' for Active; 'I' for Inactive)
ROOT
ATOM      1  C   UNL d   1       4.371   6.000   4.672  0.00  0.00     0.078 C 
ATOM      2  C1  UNL d   1       4.436   5.987   3.174  0.00  0.00    -0.077 A 
ATOM      3  C2  UNL d   1       5.666   5.987   2.505  0.00  0.00    -0.001 A 
ATOM      4  C3  UNL d   1       5.711   5.984   1.110  0.00  0.00     0.003 A 
ATOM      5  C4  UNL d   1       4.530   5.984   0.372  0.00  0.00    -0.005 A 
ATOM      6  C5  UNL d   1       3.301   5.986   1.028  0.00  0.00     0.003 A 
ATOM      7  C6  UNL d   1       3.253   5.988   2.423  0.00  0.00    -0.001 A 
ENDROOT
TORSDOF 0
ENDMDL
