MODEL 1
REMARK minimizedAffinity 3.43508816
REMARK minimizedRMSD -1
REMARK  0 active torsions:
REMARK  status: ('A' for Active; 'I' for Inactive)
ROOT
ATOM      1  C   UNL d   1      -1.175   2.797   3.057  0.00  0.00     0.078 C 
ATOM      2  C1  UNL d   1      -0.142   2.148   2.184  0.00  0.00    -0.077 A 
ATOM      3  C2  UNL d   1      -0.511   1.239   1.185  0.00  0.00    -0.001 A 
ATOM      4  C3  UNL d   1       0.461   0.635   0.386  0.00  0.00     0.003 A 
ATOM      5  C4  UNL d   1       1.809   0.932   0.579  0.00  0.00    -0.005 A 
ATOM      6  C5  UNL d   1       2.186   1.833   1.573  0.00  0.00     0.003 A 
ATOM      7  C6  UNL d   1       1.215   2.439   2.372  0.00  0.00    -0.001 A 
ENDROOT
TORSDOF 0
ENDMDL
