MODEL 1
REMARK minimizedAffinity 4.93017817
REMARK minimizedRMSD -1
REMARK  0 active torsions:
REMARK  status: ('A' for Active; 'I' for Inactive)
ROOT
ATOM      1  C   UNL d   1       1.663   0.814  -0.125  0.00  0.00     0.078 C 
ATOM      2  C1  UNL d   1       0.935   1.624   0.905  0.00  0.00    -0.077 A 
ATOM      3  C2  UNL d   1      -0.464   1.638   0.955  0.00  0.00    -0.001 A 
ATOM      4  C3  UNL d   1      -1.129   2.404   1.914  0.00  0.00     0.003 A 
ATOM      5  C4  UNL d   1      -0.402   3.164   2.829  0.00  0.00    -0.005 A 
ATOM      6  C5  UNL d   1       0.990   3.158   2.786  0.00  0.00     0.003 A 
ATOM      7  C6  UNL d   1       1.657   2.392   1.828  0.00  0.00    -0.001 A 
ENDROOT
TORSDOF 0
ENDMDL
