MODEL 1
REMARK minimizedAffinity 2.44772601
REMARK minimizedRMSD -1
REMARK  0 active torsions:
REMARK  status: ('A' for Active; 'I' for Inactive)
ROOT
ATOM      1  C   UNL d   1      -0.869   2.833   2.922  0.00  0.00     0.078 C 
ATOM      2  C1  UNL d   1       0.170   2.168   2.071  0.00  0.00    -0.077 A 
ATOM      3  C2  UNL d   1       1.534   2.421   2.267  0.00  0.00    -0.001 A 
ATOM      4  C3  UNL d   1       2.490   1.802   1.461  0.00  0.00     0.003 A 
ATOM      5  C4  UNL d   1       2.094   0.926   0.452  0.00  0.00    -0.005 A 
ATOM      6  C5  UNL d   1       0.740   0.669   0.248  0.00  0.00     0.003 A 
ATOM      7  C6  UNL d   1      -0.218   1.288   1.053  0.00  0.00    -0.001 A 
ENDROOT
TORSDOF 0
ENDMDL
