MODEL 1
REMARK minimizedAffinity -0.0908050388
REMARK minimizedRMSD -1
REMARK  0 active torsions:
REMARK  status: ('A' for Active; 'I' for Inactive)
ROOT
ATOM      1  C   UNL d   1      -3.476  -0.541  -0.241  0.00  0.00     0.078 C 
ATOM      2  C1  UNL d   1      -3.997   0.491  -1.196  0.00  0.00    -0.077 A 
ATOM      3  C2  UNL d   1      -4.955   1.429  -0.792  0.00  0.00    -0.001 A 
ATOM      4  C3  UNL d   1      -5.438   2.378  -1.694  0.00  0.00     0.003 A 
ATOM      5  C4  UNL d   1      -4.971   2.397  -3.007  0.00  0.00    -0.005 A 
ATOM      6  C5  UNL d   1      -4.019   1.466  -3.419  0.00  0.00     0.003 A 
ATOM      7  C6  UNL d   1      -3.535   0.516  -2.517  0.00  0.00    -0.001 A 
ENDROOT
TORSDOF 0
ENDMDL
