MODEL 1
REMARK minimizedAffinity -2.73560429
REMARK minimizedRMSD -1
REMARK  0 active torsions:
REMARK  status: ('A' for Active; 'I' for Inactive)
ROOT
ATOM      1  C   UNL d   1      -1.147   2.863   3.438  0.00  0.00     0.078 C 
ATOM      2  C1  UNL d   1      -0.293   2.268   2.359  0.00  0.00    -0.077 A 
ATOM      3  C2  UNL d   1      -0.868   1.646   1.244  0.00  0.00    -0.001 A 
ATOM      4  C3  UNL d   1      -0.060   1.088   0.252  0.00  0.00     0.003 A 
ATOM      5  C4  UNL d   1       1.327   1.146   0.364  0.00  0.00    -0.005 A 
ATOM      6  C5  UNL d   1       1.909   1.762   1.471  0.00  0.00     0.003 A 
ATOM      7  C6  UNL d   1       1.103   2.320   2.464  0.00  0.00    -0.001 A 
ENDROOT
TORSDOF 0
ENDMDL
