MODEL 1
REMARK minimizedAffinity -0.702221215
REMARK minimizedRMSD -1
REMARK  0 active torsions:
REMARK  status: ('A' for Active; 'I' for Inactive)
ROOT
ATOM      1  C   UNL d   1       1.138   0.699   0.093  0.00  0.00     0.078 C 
ATOM      2  C1  UNL d   1       0.855   1.680   1.191  0.00  0.00    -0.077 A 
ATOM      3  C2  UNL d   1       1.896   2.339   1.856  0.00  0.00    -0.001 A 
ATOM      4  C3  UNL d   1       1.618   3.242   2.883  0.00  0.00     0.003 A 
ATOM      5  C4  UNL d   1       0.299   3.494   3.255  0.00  0.00    -0.005 A 
ATOM      6  C5  UNL d   1      -0.744   2.842   2.600  0.00  0.00     0.003 A 
ATOM      7  C6  UNL d   1      -0.468   1.939   1.573  0.00  0.00    -0.001 A 
ENDROOT
TORSDOF 0
ENDMDL
