MODEL 1
REMARK minimizedAffinity 2.62596726
REMARK minimizedRMSD -1
REMARK  0 active torsions:
REMARK  status: ('A' for Active; 'I' for Inactive)
ROOT
ATOM      1  C   UNL d   1      -1.617   2.615   3.324  0.00  0.00     0.078 C 
ATOM      2  C1  UNL d   1      -0.249   2.546   2.715  0.00  0.00    -0.077 A 
ATOM      3  C2  UNL d   1      -0.025   1.847   1.522  0.00  0.00    -0.001 A 
ATOM      4  C3  UNL d   1       1.255   1.783   0.971  0.00  0.00     0.003 A 
ATOM      5  C4  UNL d   1       2.323   2.414   1.607  0.00  0.00    -0.005 A 
ATOM      6  C5  UNL d   1       2.110   3.110   2.795  0.00  0.00     0.003 A 
ATOM      7  C6  UNL d   1       0.830   3.175   3.347  0.00  0.00    -0.001 A 
ENDROOT
TORSDOF 0
ENDMDL
