MODEL 1
REMARK minimizedAffinity 1.62792623
REMARK minimizedRMSD -1
REMARK  0 active torsions:
REMARK  status: ('A' for Active; 'I' for Inactive)
ROOT
ATOM      1  C   UNL d   1      -1.112   2.969   2.637  0.00  0.00     0.078 C 
ATOM      2  C1  UNL d   1       0.159   2.392   2.088  0.00  0.00    -0.077 A 
ATOM      3  C2  UNL d   1       1.407   2.886   2.489  0.00  0.00    -0.001 A 
ATOM      4  C3  UNL d   1       2.582   2.346   1.963  0.00  0.00     0.003 A 
ATOM      5  C4  UNL d   1       2.520   1.311   1.032  0.00  0.00    -0.005 A 
ATOM      6  C5  UNL d   1       1.284   0.814   0.626  0.00  0.00     0.003 A 
ATOM      7  C6  UNL d   1       0.108   1.353   1.151  0.00  0.00    -0.001 A 
ENDROOT
TORSDOF 0
ENDMDL
