MODEL 1
REMARK minimizedAffinity 4.06611109
REMARK minimizedRMSD -1
REMARK  0 active torsions:
REMARK  status: ('A' for Active; 'I' for Inactive)
ROOT
ATOM      1  C   UNL d   1      -1.427   0.906   0.170  0.00  0.00     0.078 C 
ATOM      2  C1  UNL d   1      -0.330   1.453   1.035  0.00  0.00    -0.077 A 
ATOM      3  C2  UNL d   1       0.997   1.039   0.865  0.00  0.00    -0.001 A 
ATOM      4  C3  UNL d   1       2.005   1.549   1.684  0.00  0.00     0.003 A 
ATOM      5  C4  UNL d   1       1.698   2.475   2.678  0.00  0.00    -0.005 A 
ATOM      6  C5  UNL d   1       0.380   2.892   2.856  0.00  0.00     0.003 A 
ATOM      7  C6  UNL d   1      -0.630   2.383   2.038  0.00  0.00    -0.001 A 
ENDROOT
TORSDOF 0
ENDMDL
