MODEL 1
REMARK minimizedAffinity 11.9302711
REMARK minimizedRMSD -1
REMARK  2 active torsions:
REMARK  status: ('A' for Active; 'I' for Inactive)
REMARK    1  A    between atoms: C2'_3  and  C1'_4 
REMARK    2  A    between atoms: C1'_4  and  C1_5 
ROOT
ATOM      1  C1  I4B d   1      -2.242   0.056   2.649  0.00  0.00    -0.075 A 
ATOM      2  C2  I4B d   1      -1.525   1.214   2.478  0.00  0.00     0.003 A 
ATOM      3  C3  I4B d   1      -0.495   1.278   1.509  0.00  0.00     0.002 A 
ATOM      4  C4  I4B d   1      -0.183   0.153   0.772  0.00  0.00    -0.004 A 
ATOM      5  C5  I4B d   1      -0.926  -1.013   0.931  0.00  0.00     0.002 A 
ATOM      6  C6  I4B d   1      -1.970  -1.059   1.866  0.00  0.00     0.003 A 
ENDROOT
BRANCH   1   7
ATOM      7  C1' I4B d   1      -3.301   0.013   3.704  0.00  0.00     0.060 C 
BRANCH   7   8
ATOM      8  C2' I4B d   1      -4.450   0.888   3.248  0.00  0.00    -0.013 C 
ATOM      9  C4' I4B d   1      -5.761   0.403   3.809  0.00  0.00     0.013 C 
ATOM     10  C3' I4B d   1      -4.162   2.294   3.684  0.00  0.00     0.013 C 
ENDBRANCH   7   8
ENDBRANCH   1   7
TORSDOF 2
ENDMDL
