MODEL 1
REMARK minimizedAffinity 4.22688532
REMARK minimizedRMSD -1
REMARK  2 active torsions:
REMARK  status: ('A' for Active; 'I' for Inactive)
REMARK    1  A    between atoms: C2'_3  and  C1'_4 
REMARK    2  A    between atoms: C1'_4  and  C1_5 
ROOT
ATOM      1  C1  I4B d   1       1.936   2.223   0.014  0.00  0.00    -0.075 A 
ATOM      2  C2  I4B d   1       0.667   1.738  -0.182  0.00  0.00     0.003 A 
ATOM      3  C3  I4B d   1       0.126   0.779   0.708  0.00  0.00     0.002 A 
ATOM      4  C4  I4B d   1       0.901   0.299   1.744  0.00  0.00    -0.004 A 
ATOM      5  C5  I4B d   1       2.179   0.810   1.955  0.00  0.00     0.002 A 
ATOM      6  C6  I4B d   1       2.695   1.787   1.092  0.00  0.00     0.003 A 
ENDROOT
BRANCH   1   7
ATOM      7  C1' I4B d   1       2.489   3.211  -0.964  0.00  0.00     0.060 C 
BRANCH   7   8
ATOM      8  C2' I4B d   1       2.920   4.441  -0.192  0.00  0.00    -0.013 C 
ATOM      9  C4' I4B d   1       4.380   4.372   0.172  0.00  0.00     0.013 C 
ATOM     10  C3' I4B d   1       2.630   5.644  -1.039  0.00  0.00     0.013 C 
ENDBRANCH   7   8
ENDBRANCH   1   7
TORSDOF 2
ENDMDL
