MODEL 1
REMARK minimizedAffinity 12.1941051
REMARK minimizedRMSD -1
REMARK  2 active torsions:
REMARK  status: ('A' for Active; 'I' for Inactive)
REMARK    1  A    between atoms: C2'_3  and  C1'_4 
REMARK    2  A    between atoms: C1'_4  and  C1_5 
ROOT
ATOM      1  C1  I4B d   1      -0.370  -2.214  -4.301  0.00  0.00    -0.075 A 
ATOM      2  C2  I4B d   1      -0.954  -3.381  -4.724  0.00  0.00     0.003 A 
ATOM      3  C3  I4B d   1      -2.319  -3.638  -4.445  0.00  0.00     0.002 A 
ATOM      4  C4  I4B d   1      -3.042  -2.729  -3.701  0.00  0.00    -0.004 A 
ATOM      5  C5  I4B d   1      -2.454  -1.535  -3.292  0.00  0.00     0.002 A 
ATOM      6  C6  I4B d   1      -1.113  -1.270  -3.604  0.00  0.00     0.003 A 
ENDROOT
BRANCH   1   7
ATOM      7  C1' I4B d   1       1.082  -1.990  -4.584  0.00  0.00     0.060 C 
BRANCH   7   8
ATOM      8  C2' I4B d   1       1.594  -0.951  -3.608  0.00  0.00    -0.013 C 
ATOM      9  C4' I4B d   1       1.512  -1.449  -2.189  0.00  0.00     0.013 C 
ATOM     10  C3' I4B d   1       3.007  -0.618  -3.984  0.00  0.00     0.013 C 
ENDBRANCH   7   8
ENDBRANCH   1   7
TORSDOF 2
ENDMDL
