MODEL 1
REMARK minimizedAffinity 15.4136887
REMARK minimizedRMSD -1
REMARK  2 active torsions:
REMARK  status: ('A' for Active; 'I' for Inactive)
REMARK    1  A    between atoms: C2'_3  and  C1'_4 
REMARK    2  A    between atoms: C1'_4  and  C1_5 
ROOT
ATOM      1  C1  I4B d   1       3.070   1.958  -5.384  0.00  0.00    -0.075 A 
ATOM      2  C2  I4B d   1       4.325   2.245  -5.860  0.00  0.00     0.003 A 
ATOM      3  C3  I4B d   1       5.462   1.618  -5.294  0.00  0.00     0.002 A 
ATOM      4  C4  I4B d   1       5.303   0.756  -4.229  0.00  0.00    -0.004 A 
ATOM      5  C5  I4B d   1       4.028   0.449  -3.763  0.00  0.00     0.002 A 
ATOM      6  C6  I4B d   1       2.903   1.044  -4.352  0.00  0.00     0.003 A 
ENDROOT
BRANCH   1   7
ATOM      7  C1' I4B d   1       1.894   2.663  -5.982  0.00  0.00     0.060 C 
BRANCH   7   8
ATOM      8  C2' I4B d   1       1.786   4.027  -5.331  0.00  0.00    -0.013 C 
ATOM      9  C4' I4B d   1       0.732   4.869  -6.000  0.00  0.00     0.013 C 
ATOM     10  C3' I4B d   1       1.474   3.822  -3.878  0.00  0.00     0.013 C 
ENDBRANCH   7   8
ENDBRANCH   1   7
TORSDOF 2
ENDMDL
