MODEL 1
REMARK minimizedAffinity 7.35718727
REMARK minimizedRMSD -1
REMARK  2 active torsions:
REMARK  status: ('A' for Active; 'I' for Inactive)
REMARK    1  A    between atoms: C2'_3  and  C1'_4 
REMARK    2  A    between atoms: C1'_4  and  C1_5 
ROOT
ATOM      1  C1  I4B d   1       2.180  -0.675  -2.078  0.00  0.00    -0.075 A 
ATOM      2  C2  I4B d   1       3.264   0.048  -2.510  0.00  0.00     0.003 A 
ATOM      3  C3  I4B d   1       3.560   0.131  -3.892  0.00  0.00     0.002 A 
ATOM      4  C4  I4B d   1       2.781  -0.561  -4.797  0.00  0.00    -0.004 A 
ATOM      5  C5  I4B d   1       1.668  -1.273  -4.359  0.00  0.00     0.002 A 
ATOM      6  C6  I4B d   1       1.358  -1.321  -2.992  0.00  0.00     0.003 A 
ENDROOT
BRANCH   1   7
ATOM      7  C1' I4B d   1       1.916  -0.768  -0.609  0.00  0.00     0.060 C 
BRANCH   7   8
ATOM      8  C2' I4B d   1       0.486  -0.332  -0.363  0.00  0.00    -0.013 C 
ATOM      9  C4' I4B d   1      -0.253  -1.337   0.481  0.00  0.00     0.013 C 
ATOM     10  C3' I4B d   1       0.519   1.012   0.301  0.00  0.00     0.013 C 
ENDBRANCH   7   8
ENDBRANCH   1   7
TORSDOF 2
ENDMDL
