MODEL 1
REMARK minimizedAffinity 2.47102141
REMARK minimizedRMSD -1
REMARK  2 active torsions:
REMARK  status: ('A' for Active; 'I' for Inactive)
REMARK    1  A    between atoms: C2'_3  and  C1'_4 
REMARK    2  A    between atoms: C1'_4  and  C1_5 
ROOT
ATOM      1  C1  I4B d   1       0.458  -5.986   2.747  0.00  0.00    -0.075 A 
ATOM      2  C2  I4B d   1       1.830  -5.989   2.722  0.00  0.00     0.003 A 
ATOM      3  C3  I4B d   1       2.565  -5.996   3.932  0.00  0.00     0.002 A 
ATOM      4  C4  I4B d   1       1.893  -5.949   5.136  0.00  0.00    -0.004 A 
ATOM      5  C5  I4B d   1       0.502  -5.969   5.160  0.00  0.00     0.002 A 
ATOM      6  C6  I4B d   1      -0.221  -6.000   3.959  0.00  0.00     0.003 A 
ENDROOT
BRANCH   1   7
ATOM      7  C1' I4B d   1      -0.287  -5.945   1.451  0.00  0.00     0.060 C 
BRANCH   7   8
ATOM      8  C2' I4B d   1      -1.591  -5.209   1.684  0.00  0.00    -0.013 C 
ATOM      9  C4' I4B d   1      -1.533  -3.809   1.132  0.00  0.00     0.013 C 
ATOM     10  C3' I4B d   1      -2.690  -6.000   1.040  0.00  0.00     0.013 C 
ENDBRANCH   7   8
ENDBRANCH   1   7
TORSDOF 2
ENDMDL
