MODEL 1
REMARK minimizedAffinity 10.583786
REMARK minimizedRMSD -1
REMARK  2 active torsions:
REMARK  status: ('A' for Active; 'I' for Inactive)
REMARK    1  A    between atoms: C2'_3  and  C1'_4 
REMARK    2  A    between atoms: C1'_4  and  C1_5 
ROOT
ATOM      1  C1  I4B d   1      -0.839  -1.709   0.960  0.00  0.00    -0.075 A 
ATOM      2  C2  I4B d   1      -0.007  -0.927   0.198  0.00  0.00     0.003 A 
ATOM      3  C3  I4B d   1       0.290   0.398   0.598  0.00  0.00     0.002 A 
ATOM      4  C4  I4B d   1      -0.302   0.915   1.733  0.00  0.00    -0.004 A 
ATOM      5  C5  I4B d   1      -1.127   0.113   2.516  0.00  0.00     0.002 A 
ATOM      6  C6  I4B d   1      -1.388  -1.211   2.134  0.00  0.00     0.003 A 
ENDROOT
BRANCH   1   7
ATOM      7  C1' I4B d   1      -1.158  -3.093   0.490  0.00  0.00     0.060 C 
BRANCH   7   8
ATOM      8  C2' I4B d   1      -0.624  -4.069   1.518  0.00  0.00    -0.013 C 
ATOM      9  C4' I4B d   1      -1.614  -5.170   1.791  0.00  0.00     0.013 C 
ATOM     10  C3' I4B d   1       0.672  -4.622   1.002  0.00  0.00     0.013 C 
ENDBRANCH   7   8
ENDBRANCH   1   7
TORSDOF 2
ENDMDL
