MODEL 1
REMARK minimizedAffinity 13.8177452
REMARK minimizedRMSD -1
REMARK  2 active torsions:
REMARK  status: ('A' for Active; 'I' for Inactive)
REMARK    1  A    between atoms: C2'_3  and  C1'_4 
REMARK    2  A    between atoms: C1'_4  and  C1_5 
ROOT
ATOM      1  C1  I4B d   1      -1.861  -1.034  -2.881  0.00  0.00    -0.075 A 
ATOM      2  C2  I4B d   1      -0.894  -1.334  -3.808  0.00  0.00     0.003 A 
ATOM      3  C3  I4B d   1      -1.039  -2.463  -4.650  0.00  0.00     0.002 A 
ATOM      4  C4  I4B d   1      -2.134  -3.288  -4.497  0.00  0.00    -0.004 A 
ATOM      5  C5  I4B d   1      -3.125  -2.970  -3.573  0.00  0.00     0.002 A 
ATOM      6  C6  I4B d   1      -2.994  -1.829  -2.768  0.00  0.00     0.003 A 
ENDROOT
BRANCH   1   7
ATOM      7  C1' I4B d   1      -1.660   0.147  -1.986  0.00  0.00     0.060 C 
BRANCH   7   8
ATOM      8  C2' I4B d   1      -0.552  -0.191  -1.008  0.00  0.00    -0.013 C 
ATOM      9  C4' I4B d   1      -0.064   1.040  -0.291  0.00  0.00     0.013 C 
ATOM     10  C3' I4B d   1      -1.083  -1.206  -0.041  0.00  0.00     0.013 C 
ENDBRANCH   7   8
ENDBRANCH   1   7
TORSDOF 2
ENDMDL
