MODEL 1
REMARK minimizedAffinity 7.35564375
REMARK minimizedRMSD -1
REMARK  2 active torsions:
REMARK  status: ('A' for Active; 'I' for Inactive)
REMARK    1  A    between atoms: C2'_3  and  C1'_4 
REMARK    2  A    between atoms: C1'_4  and  C1_5 
ROOT
ATOM      1  C1  I4B d   1       0.131  -2.138  -3.468  0.00  0.00    -0.075 A 
ATOM      2  C2  I4B d   1      -0.521  -3.258  -3.922  0.00  0.00     0.003 A 
ATOM      3  C3  I4B d   1      -1.896  -3.444  -3.642  0.00  0.00     0.002 A 
ATOM      4  C4  I4B d   1      -2.563  -2.518  -2.867  0.00  0.00    -0.004 A 
ATOM      5  C5  I4B d   1      -1.907  -1.372  -2.427  0.00  0.00     0.002 A 
ATOM      6  C6  I4B d   1      -0.554  -1.175  -2.740  0.00  0.00     0.003 A 
ENDROOT
BRANCH   1   7
ATOM      7  C1' I4B d   1       1.592  -1.989  -3.754  0.00  0.00     0.060 C 
BRANCH   7   8
ATOM      8  C2' I4B d   1       2.123  -0.858  -2.897  0.00  0.00    -0.013 C 
ATOM      9  C4' I4B d   1       2.294  -1.292  -1.466  0.00  0.00     0.013 C 
ATOM     10  C3' I4B d   1       3.425  -0.404  -3.485  0.00  0.00     0.013 C 
ENDBRANCH   7   8
ENDBRANCH   1   7
TORSDOF 2
ENDMDL
