MODEL 1
REMARK minimizedAffinity 11.5920477
REMARK minimizedRMSD -1
REMARK  2 active torsions:
REMARK  status: ('A' for Active; 'I' for Inactive)
REMARK    1  A    between atoms: C2'_3  and  C1'_4 
REMARK    2  A    between atoms: C1'_4  and  C1_5 
ROOT
ATOM      1  C1  I4B d   1      -0.852  -1.161  -3.675  0.00  0.00    -0.075 A 
ATOM      2  C2  I4B d   1      -1.263  -2.406  -4.079  0.00  0.00     0.003 A 
ATOM      3  C3  I4B d   1      -2.541  -2.891  -3.707  0.00  0.00     0.002 A 
ATOM      4  C4  I4B d   1      -3.348  -2.123  -2.894  0.00  0.00    -0.004 A 
ATOM      5  C5  I4B d   1      -2.940  -0.851  -2.504  0.00  0.00     0.002 A 
ATOM      6  C6  I4B d   1      -1.689  -0.361  -2.907  0.00  0.00     0.003 A 
ENDROOT
BRANCH   1   7
ATOM      7  C1' I4B d   1       0.516  -0.693  -4.059  0.00  0.00     0.060 C 
BRANCH   7   8
ATOM      8  C2' I4B d   1       1.517  -1.708  -3.544  0.00  0.00    -0.013 C 
ATOM      9  C4' I4B d   1       1.732  -2.816  -4.541  0.00  0.00     0.013 C 
ATOM     10  C3' I4B d   1       2.799  -0.986  -3.252  0.00  0.00     0.013 C 
ENDBRANCH   7   8
ENDBRANCH   1   7
TORSDOF 2
ENDMDL
