MODEL 1
REMARK minimizedAffinity 8.67365837
REMARK minimizedRMSD -1
REMARK  1 active torsions:
REMARK  status: ('A' for Active; 'I' for Inactive)
REMARK    1  A    between atoms: C1_2  and  C2_3 
ROOT
ATOM      1  C2  UNL d   1       2.999  -1.245   0.360  0.00  0.00    -0.081 A 
ATOM      2  C3  UNL d   1       4.339  -1.551   0.626  0.00  0.00     0.006 A 
ATOM      3  C4  UNL d   1       5.314  -0.551   0.594  0.00  0.00     0.002 A 
ATOM      4  C5  UNL d   1       4.964   0.772   0.305  0.00  0.00    -0.080 A 
ATOM      5  C6  UNL d   1       5.996   1.860   0.297  0.00  0.00     0.076 C 
ATOM      6  C7  UNL d   1       3.628   1.075   0.022  0.00  0.00     0.002 A 
ATOM      7  C8  UNL d   1       2.653   0.076   0.053  0.00  0.00     0.006 A 
ENDROOT
BRANCH   1   8
ATOM      8  C1  UNL d   1       1.936  -2.309   0.457  0.00  0.00     0.054 C 
ATOM      9  C   UNL d   1       2.489  -3.590   1.067  0.00  0.00     0.018 C 
ENDBRANCH   1   8
TORSDOF 1
ENDMDL
