MODEL 1
REMARK minimizedAffinity 3.45597434
REMARK minimizedRMSD -1
REMARK  1 active torsions:
REMARK  status: ('A' for Active; 'I' for Inactive)
REMARK    1  A    between atoms: C1_2  and  C2_3 
ROOT
ATOM      1  C2  UNL d   1      -3.473   1.124  -3.548  0.00  0.00    -0.081 A 
ATOM      2  C3  UNL d   1      -3.173  -0.111  -2.961  0.00  0.00     0.006 A 
ATOM      3  C4  UNL d   1      -2.782  -1.194  -3.752  0.00  0.00     0.002 A 
ATOM      4  C5  UNL d   1      -2.675  -1.058  -5.140  0.00  0.00    -0.080 A 
ATOM      5  C6  UNL d   1      -2.227  -2.204  -5.998  0.00  0.00     0.076 C 
ATOM      6  C7  UNL d   1      -2.992   0.172  -5.728  0.00  0.00     0.002 A 
ATOM      7  C8  UNL d   1      -3.384   1.255  -4.938  0.00  0.00     0.006 A 
ENDROOT
BRANCH   1   8
ATOM      8  C1  UNL d   1      -3.833   2.312  -2.692  0.00  0.00     0.054 C 
ATOM      9  C   UNL d   1      -3.223   3.594  -3.241  0.00  0.00     0.018 C 
ENDBRANCH   1   8
TORSDOF 1
ENDMDL
