MODEL 1
REMARK minimizedAffinity -0.10203018
REMARK minimizedRMSD -1
REMARK  1 active torsions:
REMARK  status: ('A' for Active; 'I' for Inactive)
REMARK    1  A    between atoms: C1_2  and  C2_3 
ROOT
ATOM      1  C2  UNL d   1       4.184  -3.964   1.622  0.00  0.00    -0.081 A 
ATOM      2  C3  UNL d   1       4.953  -2.934   1.068  0.00  0.00     0.006 A 
ATOM      3  C4  UNL d   1       4.344  -1.905   0.346  0.00  0.00     0.002 A 
ATOM      4  C5  UNL d   1       2.956  -1.884   0.173  0.00  0.00    -0.080 A 
ATOM      5  C6  UNL d   1       2.287  -0.769  -0.573  0.00  0.00     0.076 C 
ATOM      6  C7  UNL d   1       2.189  -2.923   0.712  0.00  0.00     0.002 A 
ATOM      7  C8  UNL d   1       2.798  -3.953   1.433  0.00  0.00     0.006 A 
ENDROOT
BRANCH   1   8
ATOM      8  C1  UNL d   1       4.831  -5.041   2.456  0.00  0.00     0.054 C 
ATOM      9  C   UNL d   1       4.750  -4.715   3.940  0.00  0.00     0.018 C 
ENDBRANCH   1   8
TORSDOF 1
ENDMDL
