MODEL 1
REMARK minimizedAffinity 2.56405735
REMARK minimizedRMSD -1
REMARK  1 active torsions:
REMARK  status: ('A' for Active; 'I' for Inactive)
REMARK    1  A    between atoms: C1_2  and  C2_3 
ROOT
ATOM      1  C2  UNL d   1       3.242  -1.247   0.240  0.00  0.00    -0.081 A 
ATOM      2  C3  UNL d   1       4.614  -1.456   0.429  0.00  0.00     0.006 A 
ATOM      3  C4  UNL d   1       5.509  -0.386   0.359  0.00  0.00     0.002 A 
ATOM      4  C5  UNL d   1       5.048   0.910   0.106  0.00  0.00    -0.080 A 
ATOM      5  C6  UNL d   1       5.996   2.072   0.059  0.00  0.00     0.076 C 
ATOM      6  C7  UNL d   1       3.680   1.117  -0.100  0.00  0.00     0.002 A 
ATOM      7  C8  UNL d   1       2.784   0.048  -0.031  0.00  0.00     0.006 A 
ENDROOT
BRANCH   1   8
ATOM      8  C1  UNL d   1       2.267  -2.387   0.379  0.00  0.00     0.054 C 
ATOM      9  C   UNL d   1       2.975  -3.676   0.770  0.00  0.00     0.018 C 
ENDBRANCH   1   8
TORSDOF 1
ENDMDL
