MODEL 1
REMARK minimizedAffinity 2.32074332
REMARK minimizedRMSD -1
REMARK  1 active torsions:
REMARK  status: ('A' for Active; 'I' for Inactive)
REMARK    1  A    between atoms: C1_2  and  C2_3 
ROOT
ATOM      1  C2  UNL d   1       5.145  -3.814   3.795  0.00  0.00    -0.081 A 
ATOM      2  C3  UNL d   1       5.299  -4.596   2.644  0.00  0.00     0.006 A 
ATOM      3  C4  UNL d   1       4.549  -4.323   1.497  0.00  0.00     0.002 A 
ATOM      4  C5  UNL d   1       3.640  -3.260   1.480  0.00  0.00    -0.080 A 
ATOM      5  C6  UNL d   1       2.851  -2.938   0.246  0.00  0.00     0.076 C 
ATOM      6  C7  UNL d   1       3.474  -2.489   2.636  0.00  0.00     0.002 A 
ATOM      7  C8  UNL d   1       4.223  -2.762   3.783  0.00  0.00     0.006 A 
ENDROOT
BRANCH   1   8
ATOM      8  C1  UNL d   1       5.999  -4.065   5.012  0.00  0.00     0.054 C 
ATOM      9  C   UNL d   1       5.983  -2.871   5.955  0.00  0.00     0.018 C 
ENDBRANCH   1   8
TORSDOF 1
ENDMDL
