MODEL 1
REMARK minimizedAffinity -3.67599082
REMARK minimizedRMSD -1
REMARK  3 active torsions:
REMARK  status: ('A' for Active; 'I' for Inactive)
REMARK    1  A    between atoms: C3'_2  and  C2'_3 
REMARK    2  A    between atoms: C2'_3  and  C1'_4 
REMARK    3  A    between atoms: C1'_4  and  C1_5 
ROOT
ATOM      1  C1  N4B d   1      -0.429   1.122   0.224  0.00  0.00    -0.075 A 
ATOM      2  C2  N4B d   1      -1.196   1.833   1.173  0.00  0.00     0.002 A 
ATOM      3  C3  N4B d   1      -1.436   3.173   0.997  0.00  0.00     0.002 A 
ATOM      4  C4  N4B d   1      -0.907   3.826  -0.106  0.00  0.00    -0.004 A 
ATOM      5  C5  N4B d   1      -0.188   3.127  -1.032  0.00  0.00     0.002 A 
ATOM      6  C6  N4B d   1       0.058   1.779  -0.870  0.00  0.00     0.002 A 
ENDROOT
BRANCH   1   7
ATOM      7  C1' N4B d   1      -0.067  -0.325   0.417  0.00  0.00     0.057 C 
BRANCH   7   8
ATOM      8  C2' N4B d   1       0.794  -0.787  -0.754  0.00  0.00     0.009 C 
BRANCH   8   9
ATOM      9  C3' N4B d   1       1.050  -2.284  -0.716  0.00  0.00     0.004 C 
ATOM     10  C4' N4B d   1       0.758  -2.957  -2.024  0.00  0.00     0.003 C 
ENDBRANCH   8   9
ENDBRANCH   7   8
ENDBRANCH   1   7
TORSDOF 3
ENDMDL
