MODEL 1
REMARK minimizedAffinity -3.6669538
REMARK minimizedRMSD -1
REMARK  3 active torsions:
REMARK  status: ('A' for Active; 'I' for Inactive)
REMARK    1  A    between atoms: C3'_2  and  C2'_3 
REMARK    2  A    between atoms: C2'_3  and  C1'_4 
REMARK    3  A    between atoms: C1'_4  and  C1_5 
ROOT
ATOM      1  C1  N4B d   1       0.393  -1.476  -0.973  0.00  0.00    -0.075 A 
ATOM      2  C2  N4B d   1       1.278  -1.525  -2.073  0.00  0.00     0.002 A 
ATOM      3  C3  N4B d   1       1.329  -2.646  -2.864  0.00  0.00     0.002 A 
ATOM      4  C4  N4B d   1       0.522  -3.734  -2.564  0.00  0.00    -0.004 A 
ATOM      5  C5  N4B d   1      -0.348  -3.669  -1.515  0.00  0.00     0.002 A 
ATOM      6  C6  N4B d   1      -0.412  -2.547  -0.714  0.00  0.00     0.002 A 
ENDROOT
BRANCH   1   7
ATOM      7  C1' N4B d   1       0.364  -0.305  -0.029  0.00  0.00     0.057 C 
BRANCH   7   8
ATOM      8  C2' N4B d   1      -0.126  -0.776   1.338  0.00  0.00     0.009 C 
BRANCH   8   9
ATOM      9  C3' N4B d   1      -1.289   0.060   1.844  0.00  0.00     0.004 C 
ATOM     10  C4' N4B d   1      -0.979   1.527   1.874  0.00  0.00     0.003 C 
ENDBRANCH   8   9
ENDBRANCH   7   8
ENDBRANCH   1   7
TORSDOF 3
ENDMDL
