MODEL 1
REMARK minimizedAffinity 0.69360894
REMARK minimizedRMSD -1
REMARK  3 active torsions:
REMARK  status: ('A' for Active; 'I' for Inactive)
REMARK    1  A    between atoms: C3'_2  and  C2'_3 
REMARK    2  A    between atoms: C2'_3  and  C1'_4 
REMARK    3  A    between atoms: C1'_4  and  C1_5 
ROOT
ATOM      1  C1  N4B d   1       0.717  -1.384  -0.886  0.00  0.00    -0.075 A 
ATOM      2  C2  N4B d   1       0.455  -2.698  -0.440  0.00  0.00     0.002 A 
ATOM      3  C3  N4B d   1       0.387  -3.729  -1.345  0.00  0.00     0.002 A 
ATOM      4  C4  N4B d   1       0.559  -3.469  -2.696  0.00  0.00    -0.004 A 
ATOM      5  C5  N4B d   1       0.838  -2.201  -3.116  0.00  0.00     0.002 A 
ATOM      6  C6  N4B d   1       0.912  -1.155  -2.218  0.00  0.00     0.002 A 
ENDROOT
BRANCH   1   7
ATOM      7  C1' N4B d   1       0.715  -0.210   0.055  0.00  0.00     0.057 C 
BRANCH   7   8
ATOM      8  C2' N4B d   1      -0.108  -0.561   1.291  0.00  0.00     0.009 C 
BRANCH   8   9
ATOM      9  C3' N4B d   1      -1.267   0.400   1.493  0.00  0.00     0.004 C 
ATOM     10  C4' N4B d   1      -0.905   1.571   2.357  0.00  0.00     0.003 C 
ENDBRANCH   8   9
ENDBRANCH   7   8
ENDBRANCH   1   7
TORSDOF 3
ENDMDL
