MODEL 1
REMARK minimizedAffinity -3.66093493
REMARK minimizedRMSD -1
REMARK  3 active torsions:
REMARK  status: ('A' for Active; 'I' for Inactive)
REMARK    1  A    between atoms: C3'_2  and  C2'_3 
REMARK    2  A    between atoms: C2'_3  and  C1'_4 
REMARK    3  A    between atoms: C1'_4  and  C1_5 
ROOT
ATOM      1  C1  N4B d   1       0.491   0.290   0.535  0.00  0.00    -0.075 A 
ATOM      2  C2  N4B d   1      -0.010   0.874   1.719  0.00  0.00     0.002 A 
ATOM      3  C3  N4B d   1      -0.118   2.240   1.819  0.00  0.00     0.002 A 
ATOM      4  C4  N4B d   1       0.287   3.039   0.760  0.00  0.00    -0.004 A 
ATOM      5  C5  N4B d   1       0.746   2.466  -0.389  0.00  0.00     0.002 A 
ATOM      6  C6  N4B d   1       0.856   1.095  -0.505  0.00  0.00     0.002 A 
ENDROOT
BRANCH   1   7
ATOM      7  C1' N4B d   1       0.707  -1.193   0.411  0.00  0.00     0.057 C 
BRANCH   7   8
ATOM      8  C2' N4B d   1       1.053  -1.530  -1.036  0.00  0.00     0.009 C 
BRANCH   8   9
ATOM      9  C3' N4B d   1       0.848  -3.004  -1.342  0.00  0.00     0.004 C 
ATOM     10  C4' N4B d   1       0.091  -3.233  -2.616  0.00  0.00     0.003 C 
ENDBRANCH   8   9
ENDBRANCH   7   8
ENDBRANCH   1   7
TORSDOF 3
ENDMDL
