MODEL 1
REMARK minimizedAffinity -6.13329744
REMARK minimizedRMSD -1
REMARK  3 active torsions:
REMARK  status: ('A' for Active; 'I' for Inactive)
REMARK    1  A    between atoms: C3'_2  and  C2'_3 
REMARK    2  A    between atoms: C2'_3  and  C1'_4 
REMARK    3  A    between atoms: C1'_4  and  C1_5 
ROOT
ATOM      1  C1  N4B d   1      -0.871   1.322   0.384  0.00  0.00    -0.075 A 
ATOM      2  C2  N4B d   1      -0.291   2.406  -0.311  0.00  0.00     0.002 A 
ATOM      3  C3  N4B d   1      -0.939   3.616  -0.359  0.00  0.00     0.002 A 
ATOM      4  C4  N4B d   1      -2.170   3.761   0.262  0.00  0.00    -0.004 A 
ATOM      5  C5  N4B d   1      -2.711   2.716   0.953  0.00  0.00     0.002 A 
ATOM      6  C6  N4B d   1      -2.070   1.495   1.013  0.00  0.00     0.002 A 
ENDROOT
BRANCH   1   7
ATOM      7  C1' N4B d   1      -0.242  -0.044   0.392  0.00  0.00     0.057 C 
BRANCH   7   8
ATOM      8  C2' N4B d   1       0.463  -0.278  -0.941  0.00  0.00     0.009 C 
BRANCH   8   9
ATOM      9  C3' N4B d   1       0.369  -1.727  -1.386  0.00  0.00     0.004 C 
ATOM     10  C4' N4B d   1      -0.409  -1.895  -2.657  0.00  0.00     0.003 C 
ENDBRANCH   8   9
ENDBRANCH   7   8
ENDBRANCH   1   7
TORSDOF 3
ENDMDL
