MODEL 1
REMARK minimizedAffinity -6.51476526
REMARK minimizedRMSD -1
REMARK  3 active torsions:
REMARK  status: ('A' for Active; 'I' for Inactive)
REMARK    1  A    between atoms: C3'_2  and  C2'_3 
REMARK    2  A    between atoms: C2'_3  and  C1'_4 
REMARK    3  A    between atoms: C1'_4  and  C1_5 
ROOT
ATOM      1  C1  N4B d   1      -0.382   1.031   0.352  0.00  0.00    -0.075 A 
ATOM      2  C2  N4B d   1       0.316   2.111  -0.232  0.00  0.00     0.002 A 
ATOM      3  C3  N4B d   1      -0.274   3.349  -0.305  0.00  0.00     0.002 A 
ATOM      4  C4  N4B d   1      -1.562   3.525   0.178  0.00  0.00    -0.004 A 
ATOM      5  C5  N4B d   1      -2.219   2.483   0.763  0.00  0.00     0.002 A 
ATOM      6  C6  N4B d   1      -1.637   1.234   0.848  0.00  0.00     0.002 A 
ENDROOT
BRANCH   1   7
ATOM      7  C1' N4B d   1       0.188  -0.361   0.378  0.00  0.00     0.057 C 
BRANCH   7   8
ATOM      8  C2' N4B d   1       1.071  -0.564  -0.850  0.00  0.00     0.009 C 
BRANCH   8   9
ATOM      9  C3' N4B d   1       0.872  -1.936  -1.473  0.00  0.00     0.004 C 
ATOM     10  C4' N4B d   1       0.131  -1.881  -2.775  0.00  0.00     0.003 C 
ENDBRANCH   8   9
ENDBRANCH   7   8
ENDBRANCH   1   7
TORSDOF 3
ENDMDL
