MODEL 1
REMARK minimizedAffinity 5.50140238
REMARK minimizedRMSD -1
REMARK  1 active torsions:
REMARK  status: ('A' for Active; 'I' for Inactive)
REMARK    1  A    between atoms: C1_2  and  C2_3 
ROOT
ATOM      1  C2  UNL d   1      -0.407  -2.550  -1.191  0.00  0.00    -0.077 A 
ATOM      2  C3  UNL d   1      -0.888  -3.726  -0.598  0.00  0.00     0.002 A 
ATOM      3  C4  UNL d   1      -1.677  -4.615  -1.330  0.00  0.00     0.002 A 
ATOM      4  C5  UNL d   1      -1.988  -4.341  -2.660  0.00  0.00    -0.004 A 
ATOM      5  C6  UNL d   1      -1.516  -3.173  -3.259  0.00  0.00     0.002 A 
ATOM      6  C7  UNL d   1      -0.729  -2.282  -2.528  0.00  0.00     0.002 A 
ENDROOT
BRANCH   1   7
ATOM      7  C1  UNL d   1       0.485  -1.614  -0.418  0.00  0.00     0.055 C 
ATOM      8  C   UNL d   1       1.922  -2.115  -0.391  0.00  0.00     0.019 C 
ENDBRANCH   1   7
TORSDOF 1
ENDMDL
