MODEL 1
REMARK minimizedAffinity 7.29177189
REMARK minimizedRMSD -1
REMARK  1 active torsions:
REMARK  status: ('A' for Active; 'I' for Inactive)
REMARK    1  A    between atoms: C1_2  and  C2_3 
ROOT
ATOM      1  C2  UNL d   1       3.339   0.047  -1.013  0.00  0.00    -0.077 A 
ATOM      2  C3  UNL d   1       2.917  -0.966  -1.885  0.00  0.00     0.002 A 
ATOM      3  C4  UNL d   1       2.708  -2.263  -1.413  0.00  0.00     0.002 A 
ATOM      4  C5  UNL d   1       2.913  -2.558  -0.067  0.00  0.00    -0.004 A 
ATOM      5  C6  UNL d   1       3.334  -1.558   0.808  0.00  0.00     0.002 A 
ATOM      6  C7  UNL d   1       3.546  -0.261   0.338  0.00  0.00     0.002 A 
ENDROOT
BRANCH   1   7
ATOM      7  C1  UNL d   1       3.518   1.458  -1.510  0.00  0.00     0.055 C 
ATOM      8  C   UNL d   1       4.366   1.496  -2.773  0.00  0.00     0.019 C 
ENDBRANCH   1   7
TORSDOF 1
ENDMDL
