MODEL 1
REMARK minimizedAffinity 3.97975826
REMARK minimizedRMSD -1
REMARK  1 active torsions:
REMARK  status: ('A' for Active; 'I' for Inactive)
REMARK    1  A    between atoms: C1_2  and  C2_3 
ROOT
ATOM      1  C2  UNL d   1       4.023   2.380  -0.640  0.00  0.00    -0.077 A 
ATOM      2  C3  UNL d   1       4.273   2.862   0.652  0.00  0.00     0.002 A 
ATOM      3  C4  UNL d   1       3.825   2.156   1.769  0.00  0.00     0.002 A 
ATOM      4  C5  UNL d   1       3.127   0.961   1.606  0.00  0.00    -0.004 A 
ATOM      5  C6  UNL d   1       2.871   0.474   0.325  0.00  0.00     0.002 A 
ATOM      6  C7  UNL d   1       3.317   1.179  -0.793  0.00  0.00     0.002 A 
ENDROOT
BRANCH   1   7
ATOM      7  C1  UNL d   1       4.548   3.115  -1.845  0.00  0.00     0.055 C 
ATOM      8  C   UNL d   1       5.440   4.279  -1.438  0.00  0.00     0.019 C 
ENDBRANCH   1   7
TORSDOF 1
ENDMDL
