MODEL 1
REMARK minimizedAffinity 9.69165897
REMARK minimizedRMSD -1
REMARK  1 active torsions:
REMARK  status: ('A' for Active; 'I' for Inactive)
REMARK    1  A    between atoms: C1_2  and  C2_3 
ROOT
ATOM      1  C2  UNL d   1       3.504   1.747   0.972  0.00  0.00    -0.077 A 
ATOM      2  C3  UNL d   1       3.002   0.438   0.984  0.00  0.00     0.002 A 
ATOM      3  C4  UNL d   1       2.717  -0.220  -0.214  0.00  0.00     0.002 A 
ATOM      4  C5  UNL d   1       2.935   0.421  -1.432  0.00  0.00    -0.004 A 
ATOM      5  C6  UNL d   1       3.432   1.723  -1.454  0.00  0.00     0.002 A 
ATOM      6  C7  UNL d   1       3.716   2.383  -0.258  0.00  0.00     0.002 A 
ENDROOT
BRANCH   1   7
ATOM      7  C1  UNL d   1       3.858   2.440   2.262  0.00  0.00     0.055 C 
ATOM      8  C   UNL d   1       2.745   2.299   3.290  0.00  0.00     0.019 C 
ENDBRANCH   1   7
TORSDOF 1
ENDMDL
