MODEL 1
REMARK minimizedAffinity 4.53511238
REMARK minimizedRMSD -1
REMARK  0 active torsions:
REMARK  status: ('A' for Active; 'I' for Inactive)
ROOT
ATOM      1  C2' OXE d   1       3.060  -2.921  -3.086  0.00  0.00     0.078 C 
ATOM      2  C1' OXE d   1       1.801  -1.983  -0.758  0.00  0.00     0.078 C 
ATOM      3  C1  OXE d   1       2.871  -1.119  -1.376  0.00  0.00    -0.078 A 
ATOM      4  C2  OXE d   1       3.515  -1.607  -2.488  0.00  0.00    -0.078 A 
ATOM      5  C3  OXE d   1       4.472  -0.826  -3.130  0.00  0.00     0.003 A 
ATOM      6  C4  OXE d   1       4.893   0.384  -2.565  0.00  0.00    -0.002 A 
ATOM      7  C5  OXE d   1       4.279   0.881  -1.411  0.00  0.00    -0.002 A 
ATOM      8  C6  OXE d   1       3.239   0.164  -0.829  0.00  0.00     0.003 A 
ENDROOT
TORSDOF 0
ENDMDL
