MODEL 1
REMARK minimizedAffinity 0.292297632
REMARK minimizedRMSD -1
REMARK  0 active torsions:
REMARK  status: ('A' for Active; 'I' for Inactive)
ROOT
ATOM      1  C2' OXE d   1      -0.120  -1.993  -0.827  0.00  0.00     0.078 C 
ATOM      2  C1' OXE d   1       2.472  -2.677  -1.660  0.00  0.00     0.078 C 
ATOM      3  C1  OXE d   1       2.238  -1.268  -1.173  0.00  0.00    -0.078 A 
ATOM      4  C2  OXE d   1       0.956  -0.929  -0.812  0.00  0.00    -0.078 A 
ATOM      5  C3  OXE d   1       0.696   0.340  -0.304  0.00  0.00     0.003 A 
ATOM      6  C4  OXE d   1       1.695   1.322  -0.303  0.00  0.00    -0.002 A 
ATOM      7  C5  OXE d   1       2.998   1.008  -0.705  0.00  0.00    -0.002 A 
ATOM      8  C6  OXE d   1       3.295  -0.291  -1.102  0.00  0.00     0.003 A 
ENDROOT
TORSDOF 0
ENDMDL
