MODEL 1
REMARK minimizedAffinity 2.63123465
REMARK minimizedRMSD -1
REMARK  0 active torsions:
REMARK  status: ('A' for Active; 'I' for Inactive)
ROOT
ATOM      1  C2' OXE d   1      -0.954   0.057  -1.303  0.00  0.00     0.078 C 
ATOM      2  C1' OXE d   1       1.431   1.008  -0.169  0.00  0.00     0.078 C 
ATOM      3  C1  OXE d   1       1.271  -0.484  -0.324  0.00  0.00    -0.078 A 
ATOM      4  C2  OXE d   1       0.082  -0.942  -0.837  0.00  0.00    -0.078 A 
ATOM      5  C3  OXE d   1      -0.096  -2.306  -1.052  0.00  0.00     0.003 A 
ATOM      6  C4  OXE d   1       0.863  -3.225  -0.609  0.00  0.00    -0.002 A 
ATOM      7  C5  OXE d   1       2.065  -2.781  -0.048  0.00  0.00    -0.002 A 
ATOM      8  C6  OXE d   1       2.302  -1.415   0.062  0.00  0.00     0.003 A 
ENDROOT
TORSDOF 0
ENDMDL
