MODEL 1
REMARK minimizedAffinity 0.308259457
REMARK minimizedRMSD -1
REMARK  0 active torsions:
REMARK  status: ('A' for Active; 'I' for Inactive)
ROOT
ATOM      1  C2' OXE d   1       0.688   1.809   1.143  0.00  0.00     0.078 C 
ATOM      2  C1' OXE d   1       1.132  -0.653  -0.131  0.00  0.00     0.078 C 
ATOM      3  C1  OXE d   1       2.201   0.404  -0.250  0.00  0.00    -0.078 A 
ATOM      4  C2  OXE d   1       1.955   1.622   0.337  0.00  0.00    -0.078 A 
ATOM      5  C3  OXE d   1       2.932   2.613   0.303  0.00  0.00     0.003 A 
ATOM      6  C4  OXE d   1       4.097   2.435  -0.453  0.00  0.00    -0.002 A 
ATOM      7  C5  OXE d   1       4.349   1.217  -1.092  0.00  0.00    -0.002 A 
ATOM      8  C6  OXE d   1       3.433   0.178  -0.965  0.00  0.00     0.003 A 
ENDROOT
TORSDOF 0
ENDMDL
