MODEL 1
REMARK minimizedAffinity 2.53262591
REMARK minimizedRMSD -1
REMARK  0 active torsions:
REMARK  status: ('A' for Active; 'I' for Inactive)
ROOT
ATOM      1  C2' OXE d   1       0.047   1.524  -0.895  0.00  0.00     0.078 C 
ATOM      2  C1' OXE d   1       2.807   1.258  -0.458  0.00  0.00     0.078 C 
ATOM      3  C1  OXE d   1       1.986  -0.003  -0.562  0.00  0.00    -0.078 A 
ATOM      4  C2  OXE d   1       0.629   0.137  -0.729  0.00  0.00    -0.078 A 
ATOM      5  C3  OXE d   1      -0.167  -0.993  -0.886  0.00  0.00     0.003 A 
ATOM      6  C4  OXE d   1       0.378  -2.273  -0.722  0.00  0.00    -0.002 A 
ATOM      7  C5  OXE d   1       1.751  -2.437  -0.511  0.00  0.00    -0.002 A 
ATOM      8  C6  OXE d   1       2.574  -1.317  -0.472  0.00  0.00     0.003 A 
ENDROOT
TORSDOF 0
ENDMDL
