MODEL 1
REMARK minimizedAffinity 1.62912786
REMARK minimizedRMSD -1
REMARK  0 active torsions:
REMARK  status: ('A' for Active; 'I' for Inactive)
ROOT
ATOM      1  C2' OXE d   1      -1.267   0.062  -1.103  0.00  0.00     0.078 C 
ATOM      2  C1' OXE d   1       1.011   1.196   0.082  0.00  0.00     0.078 C 
ATOM      3  C1  OXE d   1       1.036  -0.282  -0.217  0.00  0.00    -0.078 A 
ATOM      4  C2  OXE d   1      -0.100  -0.837  -0.754  0.00  0.00    -0.078 A 
ATOM      5  C3  OXE d   1      -0.111  -2.186  -1.100  0.00  0.00     0.003 A 
ATOM      6  C4  OXE d   1       0.968  -3.012  -0.765  0.00  0.00    -0.002 A 
ATOM      7  C5  OXE d   1       2.120  -2.474  -0.181  0.00  0.00    -0.002 A 
ATOM      8  C6  OXE d   1       2.186  -1.106   0.060  0.00  0.00     0.003 A 
ENDROOT
TORSDOF 0
ENDMDL
