MODEL 1
REMARK minimizedAffinity 5.54122305
REMARK minimizedRMSD -1
REMARK  0 active torsions:
REMARK  status: ('A' for Active; 'I' for Inactive)
ROOT
ATOM      1  C2' OXE d   1       3.222  -1.051  -0.892  0.00  0.00     0.078 C 
ATOM      2  C1' OXE d   1       1.308   0.915  -0.298  0.00  0.00     0.078 C 
ATOM      3  C1  OXE d   1       0.812  -0.461  -0.666  0.00  0.00    -0.078 A 
ATOM      4  C2  OXE d   1       1.755  -1.404  -1.001  0.00  0.00    -0.078 A 
ATOM      5  C3  OXE d   1       1.354  -2.704  -1.296  0.00  0.00     0.003 A 
ATOM      6  C4  OXE d   1      -0.005  -3.020  -1.404  0.00  0.00    -0.002 A 
ATOM      7  C5  OXE d   1      -0.982  -2.064  -1.106  0.00  0.00    -0.002 A 
ATOM      8  C6  OXE d   1      -0.590  -0.795  -0.695  0.00  0.00     0.003 A 
ENDROOT
TORSDOF 0
ENDMDL
