MODEL 1
REMARK minimizedAffinity -2.60593224
REMARK minimizedRMSD -1
REMARK  0 active torsions:
REMARK  status: ('A' for Active; 'I' for Inactive)
ROOT
ATOM      1  C2' OXE d   1       0.802   1.984  -0.183  0.00  0.00     0.078 C 
ATOM      2  C1' OXE d   1       3.552   1.468  -0.411  0.00  0.00     0.078 C 
ATOM      3  C1  OXE d   1       2.613   0.287  -0.400  0.00  0.00    -0.078 A 
ATOM      4  C2  OXE d   1       1.273   0.547  -0.241  0.00  0.00    -0.078 A 
ATOM      5  C3  OXE d   1       0.359  -0.502  -0.279  0.00  0.00     0.003 A 
ATOM      6  C4  OXE d   1       0.803  -1.829  -0.324  0.00  0.00    -0.002 A 
ATOM      7  C5  OXE d   1       2.167  -2.117  -0.446  0.00  0.00    -0.002 A 
ATOM      8  C6  OXE d   1       3.079  -1.071  -0.529  0.00  0.00     0.003 A 
ENDROOT
TORSDOF 0
ENDMDL
