MODEL 1
REMARK minimizedAffinity 3.86244226
REMARK minimizedRMSD -1
REMARK  0 active torsions:
REMARK  status: ('A' for Active; 'I' for Inactive)
ROOT
ATOM      1  C2' OXE d   1       3.305  -2.677  -2.680  0.00  0.00     0.078 C 
ATOM      2  C1' OXE d   1       3.684  -0.019  -1.862  0.00  0.00     0.078 C 
ATOM      3  C1  OXE d   1       2.427  -0.720  -1.413  0.00  0.00    -0.078 A 
ATOM      4  C2  OXE d   1       2.227  -2.005  -1.857  0.00  0.00    -0.078 A 
ATOM      5  C3  OXE d   1       1.110  -2.717  -1.429  0.00  0.00     0.003 A 
ATOM      6  C4  OXE d   1       0.113  -2.085  -0.676  0.00  0.00    -0.002 A 
ATOM      7  C5  OXE d   1       0.278  -0.764  -0.246  0.00  0.00    -0.002 A 
ATOM      8  C6  OXE d   1       1.446  -0.083  -0.570  0.00  0.00     0.003 A 
ENDROOT
TORSDOF 0
ENDMDL
