MODEL 1
REMARK minimizedAffinity 3.45187902
REMARK minimizedRMSD -1
REMARK  0 active torsions:
REMARK  status: ('A' for Active; 'I' for Inactive)
ROOT
ATOM      1  C2' OXE d   1      -0.821  -1.488  -2.467  0.00  0.00     0.078 C 
ATOM      2  C1' OXE d   1       0.699  -2.544  -0.356  0.00  0.00     0.078 C 
ATOM      3  C1  OXE d   1       0.460  -1.055  -0.375  0.00  0.00    -0.078 A 
ATOM      4  C2  OXE d   1      -0.245  -0.541  -1.436  0.00  0.00    -0.078 A 
ATOM      5  C3  OXE d   1      -0.541   0.819  -1.474  0.00  0.00     0.003 A 
ATOM      6  C4  OXE d   1       0.004   1.689  -0.522  0.00  0.00    -0.002 A 
ATOM      7  C5  OXE d   1       0.759   1.192   0.545  0.00  0.00    -0.002 A 
ATOM      8  C6  OXE d   1       0.959  -0.180   0.657  0.00  0.00     0.003 A 
ENDROOT
TORSDOF 0
ENDMDL
