MODEL 1
REMARK minimizedAffinity -5.21145248
REMARK minimizedRMSD -1
REMARK  0 active torsions:
REMARK  status: ('A' for Active; 'I' for Inactive)
ROOT
ATOM      1  C2' OXE d   1       5.397   0.539   0.013  0.00  0.00     0.078 C 
ATOM      2  C1' OXE d   1       3.524   2.556   0.563  0.00  0.00     0.078 C 
ATOM      3  C1  OXE d   1       3.003   1.167   0.292  0.00  0.00    -0.078 A 
ATOM      4  C2  OXE d   1       3.923   0.197  -0.022  0.00  0.00    -0.078 A 
ATOM      5  C3  OXE d   1       3.501  -1.113  -0.228  0.00  0.00     0.003 A 
ATOM      6  C4  OXE d   1       2.135  -1.420  -0.269  0.00  0.00    -0.002 A 
ATOM      7  C5  OXE d   1       1.179  -0.437   0.010  0.00  0.00    -0.002 A 
ATOM      8  C6  OXE d   1       1.597   0.849   0.333  0.00  0.00     0.003 A 
ENDROOT
TORSDOF 0
ENDMDL
