MODEL 1
REMARK minimizedAffinity 1.6779331
REMARK minimizedRMSD -1
REMARK  0 active torsions:
REMARK  status: ('A' for Active; 'I' for Inactive)
ROOT
ATOM      1  C2' OXE d   1      -2.096  -0.682  -1.366  0.00  0.00     0.078 C 
ATOM      2  C1' OXE d   1      -1.234  -3.341  -1.110  0.00  0.00     0.078 C 
ATOM      3  C1  OXE d   1      -0.210  -2.249  -0.930  0.00  0.00    -0.078 A 
ATOM      4  C2  OXE d   1      -0.631  -0.953  -1.104  0.00  0.00    -0.078 A 
ATOM      5  C3  OXE d   1       0.261   0.096  -0.896  0.00  0.00     0.003 A 
ATOM      6  C4  OXE d   1       1.618  -0.163  -0.663  0.00  0.00    -0.002 A 
ATOM      7  C5  OXE d   1       2.075  -1.478  -0.523  0.00  0.00    -0.002 A 
ATOM      8  C6  OXE d   1       1.169  -2.528  -0.611  0.00  0.00     0.003 A 
ENDROOT
TORSDOF 0
ENDMDL
