MODEL 1
REMARK minimizedAffinity 8.64468575
REMARK minimizedRMSD -1
REMARK  0 active torsions:
REMARK  status: ('A' for Active; 'I' for Inactive)
ROOT
ATOM      1  C2' OXE d   1       1.820   0.829  -0.326  0.00  0.00     0.078 C 
ATOM      2  C1' OXE d   1       2.787  -1.774  -0.739  0.00  0.00     0.078 C 
ATOM      3  C1  OXE d   1       1.318  -1.524  -0.971  0.00  0.00    -0.078 A 
ATOM      4  C2  OXE d   1       0.844  -0.258  -0.721  0.00  0.00    -0.078 A 
ATOM      5  C3  OXE d   1      -0.492   0.040  -0.972  0.00  0.00     0.003 A 
ATOM      6  C4  OXE d   1      -1.390  -0.974  -1.327  0.00  0.00    -0.002 A 
ATOM      7  C5  OXE d   1      -0.936  -2.279  -1.548  0.00  0.00    -0.002 A 
ATOM      8  C6  OXE d   1       0.419  -2.560  -1.416  0.00  0.00     0.003 A 
ENDROOT
TORSDOF 0
ENDMDL
