MODEL 1
REMARK minimizedAffinity -1.98956621
REMARK minimizedRMSD -1
REMARK  1 active torsions:
REMARK  status: ('A' for Active; 'I' for Inactive)
REMARK    1  A    between atoms: C1_2  and  C2_3 
ROOT
ATOM      1  C2  UNL d   1      -1.410   0.332   2.125  0.00  0.00    -0.081 A 
ATOM      2  C3  UNL d   1      -0.244   0.601   2.851  0.00  0.00     0.006 A 
ATOM      3  C4  UNL d   1       1.001   0.600   2.217  0.00  0.00     0.002 A 
ATOM      4  C5  UNL d   1       1.099   0.338   0.846  0.00  0.00    -0.080 A 
ATOM      5  C6  UNL d   1       2.426   0.364   0.147  0.00  0.00     0.076 C 
ATOM      6  C7  UNL d   1      -0.065   0.053   0.124  0.00  0.00     0.002 A 
ATOM      7  C8  UNL d   1      -1.309   0.053   0.758  0.00  0.00     0.006 A 
ENDROOT
BRANCH   1   8
ATOM      8  C1  UNL d   1      -2.760   0.396   2.793  0.00  0.00     0.054 C 
ATOM      9  C   UNL d   1      -3.844   0.819   1.811  0.00  0.00     0.018 C 
ENDBRANCH   1   8
TORSDOF 1
ENDMDL
