MODEL 1
REMARK minimizedAffinity -3.09803057
REMARK minimizedRMSD -1
REMARK  1 active torsions:
REMARK  status: ('A' for Active; 'I' for Inactive)
REMARK    1  A    between atoms: C1_2  and  C2_3 
ROOT
ATOM      1  C2  UNL d   1       0.295   0.282  -0.757  0.00  0.00    -0.081 A 
ATOM      2  C3  UNL d   1       1.024   0.258   0.439  0.00  0.00     0.006 A 
ATOM      3  C4  UNL d   1       0.366   0.287   1.670  0.00  0.00     0.002 A 
ATOM      4  C5  UNL d   1      -1.031   0.332   1.728  0.00  0.00    -0.080 A 
ATOM      5  C6  UNL d   1      -1.751   0.333   3.044  0.00  0.00     0.076 C 
ATOM      6  C7  UNL d   1      -1.759   0.373   0.534  0.00  0.00     0.002 A 
ATOM      7  C8  UNL d   1      -1.102   0.345  -0.698  0.00  0.00     0.006 A 
ENDROOT
BRANCH   1   8
ATOM      8  C1  UNL d   1       0.999   0.185  -2.086  0.00  0.00     0.054 C 
ATOM      9  C   UNL d   1       0.471  -0.982  -2.908  0.00  0.00     0.018 C 
ENDBRANCH   1   8
TORSDOF 1
ENDMDL
