MODEL 1
REMARK minimizedAffinity -2.51660681
REMARK minimizedRMSD -1
REMARK  1 active torsions:
REMARK  status: ('A' for Active; 'I' for Inactive)
REMARK    1  A    between atoms: C1_2  and  C2_3 
ROOT
ATOM      1  C2  UNL d   1       0.984   0.133  -1.324  0.00  0.00    -0.081 A 
ATOM      2  C3  UNL d   1      -0.394   0.185  -1.078  0.00  0.00     0.006 A 
ATOM      3  C4  UNL d   1      -0.876   0.279   0.230  0.00  0.00     0.002 A 
ATOM      4  C5  UNL d   1       0.009   0.331   1.311  0.00  0.00    -0.080 A 
ATOM      5  C6  UNL d   1      -0.495   0.462   2.718  0.00  0.00     0.076 C 
ATOM      6  C7  UNL d   1       1.385   0.262   1.067  0.00  0.00     0.002 A 
ATOM      7  C8  UNL d   1       1.868   0.167  -0.240  0.00  0.00     0.006 A 
ENDROOT
BRANCH   1   8
ATOM      8  C1  UNL d   1       1.509   0.097  -2.737  0.00  0.00     0.054 C 
ATOM      9  C   UNL d   1       1.339  -1.283  -3.355  0.00  0.00     0.018 C 
ENDBRANCH   1   8
TORSDOF 1
ENDMDL
