MODEL 1
REMARK minimizedAffinity -4.02984667
REMARK minimizedRMSD -1
REMARK  1 active torsions:
REMARK  status: ('A' for Active; 'I' for Inactive)
REMARK    1  A    between atoms: C1_2  and  C2_3 
ROOT
ATOM      1  C2  UNL d   1      -0.320   0.157  -0.961  0.00  0.00    -0.081 A 
ATOM      2  C3  UNL d   1       0.975   0.331  -0.457  0.00  0.00     0.006 A 
ATOM      3  C4  UNL d   1       1.208   0.310   0.920  0.00  0.00     0.002 A 
ATOM      4  C5  UNL d   1       0.153   0.107   1.816  0.00  0.00    -0.080 A 
ATOM      5  C6  UNL d   1       0.394   0.052   3.295  0.00  0.00     0.076 C 
ATOM      6  C7  UNL d   1      -1.143  -0.049   1.314  0.00  0.00     0.002 A 
ATOM      7  C8  UNL d   1      -1.377  -0.028  -0.063  0.00  0.00     0.006 A 
ENDROOT
BRANCH   1   8
ATOM      8  C1  UNL d   1      -0.565   0.115  -2.447  0.00  0.00     0.054 C 
ATOM      9  C   UNL d   1       0.082  -1.110  -3.080  0.00  0.00     0.018 C 
ENDBRANCH   1   8
TORSDOF 1
ENDMDL
