MODEL 1
REMARK minimizedAffinity -2.54896522
REMARK minimizedRMSD -1
REMARK  1 active torsions:
REMARK  status: ('A' for Active; 'I' for Inactive)
REMARK    1  A    between atoms: C1_2  and  C2_3 
ROOT
ATOM      1  C2  UNL d   1      -0.261   0.737  -0.829  0.00  0.00    -0.081 A 
ATOM      2  C3  UNL d   1       0.861   0.731   0.009  0.00  0.00     0.006 A 
ATOM      3  C4  UNL d   1       0.715   0.552   1.387  0.00  0.00     0.002 A 
ATOM      4  C5  UNL d   1      -0.553   0.368   1.948  0.00  0.00    -0.080 A 
ATOM      5  C6  UNL d   1      -0.721   0.145   3.422  0.00  0.00     0.076 C 
ATOM      6  C7  UNL d   1      -1.676   0.392   1.114  0.00  0.00     0.002 A 
ATOM      7  C8  UNL d   1      -1.531   0.572  -0.264  0.00  0.00     0.006 A 
ENDROOT
BRANCH   1   8
ATOM      8  C1  UNL d   1      -0.102   0.866  -2.322  0.00  0.00     0.054 C 
ATOM      9  C   UNL d   1       1.071   0.038  -2.827  0.00  0.00     0.018 C 
ENDBRANCH   1   8
TORSDOF 1
ENDMDL
