MODEL 1
REMARK minimizedAffinity -2.12320065
REMARK minimizedRMSD -1
REMARK  1 active torsions:
REMARK  status: ('A' for Active; 'I' for Inactive)
REMARK    1  A    between atoms: C1_2  and  C2_3 
ROOT
ATOM      1  C2  UNL d   1       0.658  -0.092  -1.429  0.00  0.00    -0.081 A 
ATOM      2  C3  UNL d   1       1.799  -0.360  -0.662  0.00  0.00     0.006 A 
ATOM      3  C4  UNL d   1       1.790  -0.146   0.718  0.00  0.00     0.002 A 
ATOM      4  C5  UNL d   1       0.640   0.330   1.356  0.00  0.00    -0.080 A 
ATOM      5  C6  UNL d   1       0.608   0.535   2.842  0.00  0.00     0.076 C 
ATOM      6  C7  UNL d   1      -0.494   0.614   0.588  0.00  0.00     0.002 A 
ATOM      7  C8  UNL d   1      -0.487   0.401  -0.792  0.00  0.00     0.006 A 
ENDROOT
BRANCH   1   8
ATOM      8  C1  UNL d   1       0.642  -0.383  -2.908  0.00  0.00     0.054 C 
ATOM      9  C   UNL d   1       1.799   0.305  -3.618  0.00  0.00     0.018 C 
ENDBRANCH   1   8
TORSDOF 1
ENDMDL
