MODEL 1
REMARK minimizedAffinity -4.53030729
REMARK minimizedRMSD -1
REMARK  1 active torsions:
REMARK  status: ('A' for Active; 'I' for Inactive)
REMARK    1  A    between atoms: C1_2  and  C2_3 
ROOT
ATOM      1  C2  UNL d   1       0.108   0.715  -0.592  0.00  0.00    -0.081 A 
ATOM      2  C3  UNL d   1      -1.260   0.927  -0.806  0.00  0.00     0.006 A 
ATOM      3  C4  UNL d   1      -2.142   1.001   0.274  0.00  0.00     0.002 A 
ATOM      4  C5  UNL d   1      -1.672   0.872   1.585  0.00  0.00    -0.080 A 
ATOM      5  C6  UNL d   1      -2.604   0.980   2.755  0.00  0.00     0.076 C 
ATOM      6  C7  UNL d   1      -0.308   0.643   1.798  0.00  0.00     0.002 A 
ATOM      7  C8  UNL d   1       0.575   0.569   0.719  0.00  0.00     0.006 A 
ENDROOT
BRANCH   1   8
ATOM      8  C1  UNL d   1       1.072   0.700  -1.751  0.00  0.00     0.054 C 
ATOM      9  C   UNL d   1       0.940  -0.580  -2.564  0.00  0.00     0.018 C 
ENDBRANCH   1   8
TORSDOF 1
ENDMDL
