MODEL 1
REMARK minimizedAffinity -0.36962235
REMARK minimizedRMSD -1
REMARK  1 active torsions:
REMARK  status: ('A' for Active; 'I' for Inactive)
REMARK    1  A    between atoms: C1_2  and  C2_3 
ROOT
ATOM      1  C2  UNL d   1      -0.308   0.073  -0.268  0.00  0.00    -0.081 A 
ATOM      2  C3  UNL d   1      -0.073   0.952  -1.333  0.00  0.00     0.006 A 
ATOM      3  C4  UNL d   1       0.593   0.513  -2.479  0.00  0.00     0.002 A 
ATOM      4  C5  UNL d   1       1.029  -0.812  -2.584  0.00  0.00    -0.080 A 
ATOM      5  C6  UNL d   1       1.719  -1.303  -3.822  0.00  0.00     0.076 C 
ATOM      6  C7  UNL d   1       0.810  -1.686  -1.514  0.00  0.00     0.002 A 
ATOM      7  C8  UNL d   1       0.144  -1.248  -0.367  0.00  0.00     0.006 A 
ENDROOT
BRANCH   1   8
ATOM      8  C1  UNL d   1      -1.084   0.525   0.942  0.00  0.00     0.054 C 
ATOM      9  C   UNL d   1      -2.584   0.466   0.692  0.00  0.00     0.018 C 
ENDBRANCH   1   8
TORSDOF 1
ENDMDL
