MODEL 1
REMARK minimizedAffinity 0.123071663
REMARK minimizedRMSD -1
REMARK  1 active torsions:
REMARK  status: ('A' for Active; 'I' for Inactive)
REMARK    1  A    between atoms: C1_2  and  C2_3 
ROOT
ATOM      1  C2  UNL d   1       0.595  -0.131  -1.059  0.00  0.00    -0.081 A 
ATOM      2  C3  UNL d   1      -0.729  -0.533  -0.843  0.00  0.00     0.006 A 
ATOM      3  C4  UNL d   1      -1.331  -0.348   0.404  0.00  0.00     0.002 A 
ATOM      4  C5  UNL d   1      -0.622   0.248   1.453  0.00  0.00    -0.080 A 
ATOM      5  C6  UNL d   1      -1.266   0.480   2.787  0.00  0.00     0.076 C 
ATOM      6  C7  UNL d   1       0.706   0.634   1.243  0.00  0.00     0.002 A 
ATOM      7  C8  UNL d   1       1.308   0.448  -0.004  0.00  0.00     0.006 A 
ENDROOT
BRANCH   1   8
ATOM      8  C1  UNL d   1       1.226  -0.270  -2.421  0.00  0.00     0.054 C 
ATOM      9  C   UNL d   1       0.470  -1.274  -3.280  0.00  0.00     0.018 C 
ENDBRANCH   1   8
TORSDOF 1
ENDMDL
