MODEL 1
REMARK minimizedAffinity -4.29439497
REMARK minimizedRMSD -1
REMARK  1 active torsions:
REMARK  status: ('A' for Active; 'I' for Inactive)
REMARK    1  A    between atoms: C1_2  and  C2_3 
ROOT
ATOM      1  C2  UNL d   1       0.417  -0.027  -1.360  0.00  0.00    -0.081 A 
ATOM      2  C3  UNL d   1       1.472  -0.128  -0.445  0.00  0.00     0.006 A 
ATOM      3  C4  UNL d   1       1.230  -0.044   0.928  0.00  0.00     0.002 A 
ATOM      4  C5  UNL d   1      -0.072   0.134   1.410  0.00  0.00    -0.080 A 
ATOM      5  C6  UNL d   1      -0.349   0.195   2.882  0.00  0.00     0.076 C 
ATOM      6  C7  UNL d   1      -1.124   0.253   0.495  0.00  0.00     0.002 A 
ATOM      7  C8  UNL d   1      -0.882   0.170  -0.878  0.00  0.00     0.006 A 
ENDROOT
BRANCH   1   8
ATOM      8  C1  UNL d   1       0.666  -0.181  -2.838  0.00  0.00     0.054 C 
ATOM      9  C   UNL d   1       0.731  -1.648  -3.238  0.00  0.00     0.018 C 
ENDBRANCH   1   8
TORSDOF 1
ENDMDL
