MODEL 1
REMARK minimizedAffinity -2.89604306
REMARK minimizedRMSD -1
REMARK  0 active torsions:
REMARK  status: ('A' for Active; 'I' for Inactive)
ROOT
ATOM      1  O1  BZF d   1      -0.060  -2.669  -4.662  0.00  0.00    -0.204 OA
ATOM      2  C2  BZF d   1       0.298  -1.387  -5.032  0.00  0.00     0.174 A 
ATOM      3  C3  BZF d   1       0.264  -0.556  -3.970  0.00  0.00    -0.012 A 
ATOM      4  C3A BZF d   1      -0.050  -1.388  -2.850  0.00  0.00    -0.107 A 
ATOM      5  C4  BZF d   1      -0.208  -1.146  -1.515  0.00  0.00     0.055 A 
ATOM      6  C5  BZF d   1      -0.585  -2.165  -0.699  0.00  0.00    -0.016 A 
ATOM      7  C6  BZF d   1      -0.818  -3.436  -1.184  0.00  0.00     0.022 A 
ATOM      8  C7  BZF d   1      -0.670  -3.725  -2.500  0.00  0.00     0.029 A 
ATOM      9  C7A BZF d   1      -0.256  -2.705  -3.322  0.00  0.00     0.058 A 
ENDROOT
TORSDOF 0
ENDMDL
