MODEL 1
REMARK minimizedAffinity -3.58202147
REMARK minimizedRMSD -1
REMARK  0 active torsions:
REMARK  status: ('A' for Active; 'I' for Inactive)
ROOT
ATOM      1  O1  BZF d   1       0.217  -0.526  -1.255  0.00  0.00    -0.204 OA
ATOM      2  C2  BZF d   1      -0.377  -1.411  -0.377  0.00  0.00     0.174 A 
ATOM      3  C3  BZF d   1      -0.742  -0.784   0.760  0.00  0.00    -0.012 A 
ATOM      4  C3A BZF d   1      -0.436   0.597   0.543  0.00  0.00    -0.107 A 
ATOM      5  C4  BZF d   1      -0.584   1.722   1.303  0.00  0.00     0.055 A 
ATOM      6  C5  BZF d   1      -0.116   2.906   0.828  0.00  0.00    -0.016 A 
ATOM      7  C6  BZF d   1       0.509   3.000  -0.398  0.00  0.00     0.022 A 
ATOM      8  C7  BZF d   1       0.675   1.912  -1.189  0.00  0.00     0.029 A 
ATOM      9  C7A BZF d   1       0.174   0.720  -0.727  0.00  0.00     0.058 A 
ENDROOT
TORSDOF 0
ENDMDL
