MODEL 1
REMARK minimizedAffinity -2.83739829
REMARK minimizedRMSD -1
REMARK  0 active torsions:
REMARK  status: ('A' for Active; 'I' for Inactive)
ROOT
ATOM      1  O1  BZF d   1       0.432  -0.857  -0.355  0.00  0.00    -0.204 OA
ATOM      2  C2  BZF d   1      -0.684  -1.441   0.211  0.00  0.00     0.174 A 
ATOM      3  C3  BZF d   1      -1.463  -0.511   0.800  0.00  0.00    -0.012 A 
ATOM      4  C3A BZF d   1      -0.839   0.743   0.509  0.00  0.00    -0.107 A 
ATOM      5  C4  BZF d   1      -1.150   2.038   0.809  0.00  0.00     0.055 A 
ATOM      6  C5  BZF d   1      -0.293   3.026   0.438  0.00  0.00    -0.016 A 
ATOM      7  C6  BZF d   1       0.883   2.754  -0.229  0.00  0.00     0.022 A 
ATOM      8  C7  BZF d   1       1.232   1.485  -0.553  0.00  0.00     0.029 A 
ATOM      9  C7A BZF d   1       0.352   0.488  -0.209  0.00  0.00     0.058 A 
ENDROOT
TORSDOF 0
ENDMDL
