MODEL 1
REMARK minimizedAffinity -5.93708706
REMARK minimizedRMSD -1
REMARK  0 active torsions:
REMARK  status: ('A' for Active; 'I' for Inactive)
ROOT
ATOM      1  O1  BZF d   1       1.225  -0.340   0.379  0.00  0.00    -0.204 OA
ATOM      2  C2  BZF d   1      -0.085  -0.766   0.273  0.00  0.00     0.174 A 
ATOM      3  C3  BZF d   1      -0.922   0.285   0.159  0.00  0.00    -0.012 A 
ATOM      4  C3A BZF d   1      -0.075   1.437   0.103  0.00  0.00    -0.107 A 
ATOM      5  C4  BZF d   1      -0.317   2.775  -0.025  0.00  0.00     0.055 A 
ATOM      6  C5  BZF d   1       0.728   3.642   0.028  0.00  0.00    -0.016 A 
ATOM      7  C6  BZF d   1       2.024   3.208   0.214  0.00  0.00     0.022 A 
ATOM      8  C7  BZF d   1       2.313   1.890   0.341  0.00  0.00     0.029 A 
ATOM      9  C7A BZF d   1       1.264   1.008   0.254  0.00  0.00     0.058 A 
ENDROOT
TORSDOF 0
ENDMDL
