MODEL 1
REMARK minimizedAffinity -0.505599916
REMARK minimizedRMSD -1
REMARK  0 active torsions:
REMARK  status: ('A' for Active; 'I' for Inactive)
ROOT
ATOM      1  O1  BZF d   1       2.743   0.663   0.911  0.00  0.00    -0.204 OA
ATOM      2  C2  BZF d   1       3.045   1.908   1.430  0.00  0.00     0.174 A 
ATOM      3  C3  BZF d   1       1.936   2.669   1.524  0.00  0.00    -0.012 A 
ATOM      4  C3A BZF d   1       0.859   1.816   1.121  0.00  0.00    -0.107 A 
ATOM      5  C4  BZF d   1      -0.491   1.994   1.018  0.00  0.00     0.055 A 
ATOM      6  C5  BZF d   1      -1.254   0.984   0.522  0.00  0.00    -0.016 A 
ATOM      7  C6  BZF d   1      -0.700  -0.212   0.115  0.00  0.00     0.022 A 
ATOM      8  C7  BZF d   1       0.634  -0.436   0.202  0.00  0.00     0.029 A 
ATOM      9  C7A BZF d   1       1.403   0.570   0.734  0.00  0.00     0.058 A 
ENDROOT
TORSDOF 0
ENDMDL
