MODEL 1
REMARK minimizedAffinity -3.29200506
REMARK minimizedRMSD -1
REMARK  0 active torsions:
REMARK  status: ('A' for Active; 'I' for Inactive)
ROOT
ATOM      1  O1  BZF d   1       1.971  -0.175   0.720  0.00  0.00    -0.204 OA
ATOM      2  C2  BZF d   1       1.226  -1.323   0.913  0.00  0.00     0.174 A 
ATOM      3  C3  BZF d   1      -0.089  -1.073   0.753  0.00  0.00    -0.012 A 
ATOM      4  C3A BZF d   1      -0.165   0.298   0.350  0.00  0.00    -0.107 A 
ATOM      5  C4  BZF d   1      -1.202   1.126   0.026  0.00  0.00     0.055 A 
ATOM      6  C5  BZF d   1      -0.944   2.430  -0.252  0.00  0.00    -0.016 A 
ATOM      7  C6  BZF d   1       0.337   2.942  -0.211  0.00  0.00     0.022 A 
ATOM      8  C7  BZF d   1       1.398   2.159   0.100  0.00  0.00     0.029 A 
ATOM      9  C7A BZF d   1       1.144   0.832   0.350  0.00  0.00     0.058 A 
ENDROOT
TORSDOF 0
ENDMDL
