MODEL 1
REMARK minimizedAffinity -2.11197662
REMARK minimizedRMSD -1
REMARK  0 active torsions:
REMARK  status: ('A' for Active; 'I' for Inactive)
ROOT
ATOM      1  O1  BZF d   1       2.035  -0.941   0.212  0.00  0.00    -0.204 OA
ATOM      2  C2  BZF d   1       1.467  -2.185   0.405  0.00  0.00     0.174 A 
ATOM      3  C3  BZF d   1       0.133  -2.081   0.575  0.00  0.00    -0.012 A 
ATOM      4  C3A BZF d   1      -0.162  -0.693   0.391  0.00  0.00    -0.107 A 
ATOM      5  C4  BZF d   1      -1.319   0.032   0.420  0.00  0.00     0.055 A 
ATOM      6  C5  BZF d   1      -1.256   1.382   0.274  0.00  0.00    -0.016 A 
ATOM      7  C6  BZF d   1      -0.055   2.038   0.102  0.00  0.00     0.022 A 
ATOM      8  C7  BZF d   1       1.118   1.361   0.061  0.00  0.00     0.029 A 
ATOM      9  C7A BZF d   1       1.055  -0.007   0.176  0.00  0.00     0.058 A 
ENDROOT
TORSDOF 0
ENDMDL
