MODEL 1
REMARK minimizedAffinity -4.64900255
REMARK minimizedRMSD -1
REMARK  0 active torsions:
REMARK  status: ('A' for Active; 'I' for Inactive)
ROOT
ATOM      1  O1  BZF d   1      -0.777  -0.635   0.575  0.00  0.00    -0.204 OA
ATOM      2  C2  BZF d   1       0.421  -1.227   0.224  0.00  0.00     0.174 A 
ATOM      3  C3  BZF d   1       1.334  -0.294  -0.115  0.00  0.00    -0.012 A 
ATOM      4  C3A BZF d   1       0.693   0.963   0.122  0.00  0.00    -0.107 A 
ATOM      5  C4  BZF d   1       1.094   2.262  -0.012  0.00  0.00     0.055 A 
ATOM      6  C5  BZF d   1       0.202   3.257   0.233  0.00  0.00    -0.016 A 
ATOM      7  C6  BZF d   1      -1.098   2.991   0.608  0.00  0.00     0.022 A 
ATOM      8  C7  BZF d   1      -1.541   1.719   0.759  0.00  0.00     0.029 A 
ATOM      9  C7A BZF d   1      -0.633   0.711   0.544  0.00  0.00     0.058 A 
ENDROOT
TORSDOF 0
ENDMDL
