MODEL 1
REMARK minimizedAffinity -5.06158733
REMARK minimizedRMSD -1
REMARK  0 active torsions:
REMARK  status: ('A' for Active; 'I' for Inactive)
ROOT
ATOM      1  O1  BZF d   1      -1.272   2.987   0.290  0.00  0.00    -0.204 OA
ATOM      2  C2  BZF d   1      -0.161   3.416  -0.410  0.00  0.00     0.174 A 
ATOM      3  C3  BZF d   1       0.738   2.419  -0.538  0.00  0.00    -0.012 A 
ATOM      4  C3A BZF d   1       0.113   1.271   0.044  0.00  0.00    -0.107 A 
ATOM      5  C4  BZF d   1       0.501  -0.028   0.206  0.00  0.00     0.055 A 
ATOM      6  C5  BZF d   1      -0.313  -0.881   0.881  0.00  0.00    -0.016 A 
ATOM      7  C6  BZF d   1      -1.518  -0.468   1.412  0.00  0.00     0.022 A 
ATOM      8  C7  BZF d   1      -1.947   0.810   1.272  0.00  0.00     0.029 A 
ATOM      9  C7A BZF d   1      -1.142   1.666   0.562  0.00  0.00     0.058 A 
ENDROOT
TORSDOF 0
ENDMDL
