MODEL 1
REMARK minimizedAffinity 2.70269036
REMARK minimizedRMSD -1
REMARK  0 active torsions:
REMARK  status: ('A' for Active; 'I' for Inactive)
ROOT
ATOM      1  O1  BZF d   1      -4.410  -4.573  -1.137  0.00  0.00    -0.204 OA
ATOM      2  C2  BZF d   1      -4.460  -5.365  -0.006  0.00  0.00     0.174 A 
ATOM      3  C3  BZF d   1      -3.219  -5.606   0.464  0.00  0.00    -0.012 A 
ATOM      4  C3A BZF d   1      -2.344  -4.845  -0.375  0.00  0.00    -0.107 A 
ATOM      5  C4  BZF d   1      -0.991  -4.662  -0.400  0.00  0.00     0.055 A 
ATOM      6  C5  BZF d   1      -0.444  -3.915  -1.395  0.00  0.00    -0.016 A 
ATOM      7  C6  BZF d   1      -1.219  -3.342  -2.383  0.00  0.00     0.022 A 
ATOM      8  C7  BZF d   1      -2.566  -3.492  -2.397  0.00  0.00     0.029 A 
ATOM      9  C7A BZF d   1      -3.125  -4.219  -1.374  0.00  0.00     0.058 A 
ENDROOT
TORSDOF 0
ENDMDL
