MODEL 1
REMARK minimizedAffinity -3.61857319
REMARK minimizedRMSD -1
REMARK  0 active torsions:
REMARK  status: ('A' for Active; 'I' for Inactive)
ROOT
ATOM      1  O1  BZF d   1       0.777  -1.045  -0.844  0.00  0.00    -0.204 OA
ATOM      2  C2  BZF d   1       0.261  -0.509   0.320  0.00  0.00     0.174 A 
ATOM      3  C3  BZF d   1      -0.894  -1.117   0.656  0.00  0.00    -0.012 A 
ATOM      4  C3A BZF d   1      -1.067  -2.157  -0.311  0.00  0.00    -0.107 A 
ATOM      5  C4  BZF d   1      -2.022  -3.116  -0.498  0.00  0.00     0.055 A 
ATOM      6  C5  BZF d   1      -1.935  -3.932  -1.582  0.00  0.00    -0.016 A 
ATOM      7  C6  BZF d   1      -0.912  -3.813  -2.500  0.00  0.00     0.022 A 
ATOM      8  C7  BZF d   1       0.060  -2.880  -2.354  0.00  0.00     0.029 A 
ATOM      9  C7A BZF d   1      -0.006  -2.076  -1.242  0.00  0.00     0.058 A 
ENDROOT
TORSDOF 0
ENDMDL
