MODEL 1
REMARK minimizedAffinity -3.54049754
REMARK minimizedRMSD -1
REMARK  0 active torsions:
REMARK  status: ('A' for Active; 'I' for Inactive)
ROOT
ATOM      1  O1  BZF d   1       1.102  -0.487  -0.544  0.00  0.00    -0.204 OA
ATOM      2  C2  BZF d   1       0.267  -1.545  -0.239  0.00  0.00     0.174 A 
ATOM      3  C3  BZF d   1      -0.892  -1.103   0.291  0.00  0.00    -0.012 A 
ATOM      4  C3A BZF d   1      -0.811   0.325   0.233  0.00  0.00    -0.107 A 
ATOM      5  C4  BZF d   1      -1.663   1.329   0.596  0.00  0.00     0.055 A 
ATOM      6  C5  BZF d   1      -1.253   2.619   0.475  0.00  0.00    -0.016 A 
ATOM      7  C6  BZF d   1       0.002   2.940   0.001  0.00  0.00     0.022 A 
ATOM      8  C7  BZF d   1       0.880   1.979  -0.376  0.00  0.00     0.029 A 
ATOM      9  C7A BZF d   1       0.457   0.676  -0.287  0.00  0.00     0.058 A 
ENDROOT
TORSDOF 0
ENDMDL
