MODEL 1
REMARK minimizedAffinity -4.00940943
REMARK minimizedRMSD -1
REMARK  0 active torsions:
REMARK  status: ('A' for Active; 'I' for Inactive)
ROOT
ATOM      1  O1  BZF d   1       2.389   2.679   3.221  0.00  0.00    -0.204 OA
ATOM      2  C2  BZF d   1       1.670   3.729   3.758  0.00  0.00     0.174 A 
ATOM      3  C3  BZF d   1       0.932   4.340   2.808  0.00  0.00    -0.012 A 
ATOM      4  C3A BZF d   1       1.137   3.569   1.620  0.00  0.00    -0.107 A 
ATOM      5  C4  BZF d   1       0.659   3.665   0.345  0.00  0.00     0.055 A 
ATOM      6  C5  BZF d   1       1.111   2.797  -0.598  0.00  0.00    -0.016 A 
ATOM      7  C6  BZF d   1       2.044   1.825  -0.301  0.00  0.00     0.022 A 
ATOM      8  C7  BZF d   1       2.543   1.687   0.951  0.00  0.00     0.029 A 
ATOM      9  C7A BZF d   1       2.063   2.542   1.913  0.00  0.00     0.058 A 
ENDROOT
TORSDOF 0
ENDMDL
