MODEL 1
REMARK minimizedAffinity -5.47799873
REMARK minimizedRMSD -1
REMARK  0 active torsions:
REMARK  status: ('A' for Active; 'I' for Inactive)
ROOT
ATOM      1  O1  BZF d   1       1.930  -0.306   0.412  0.00  0.00    -0.204 OA
ATOM      2  C2  BZF d   1       1.010  -1.336   0.376  0.00  0.00     0.174 A 
ATOM      3  C3  BZF d   1      -0.248  -0.853   0.333  0.00  0.00    -0.012 A 
ATOM      4  C3A BZF d   1      -0.103   0.568   0.249  0.00  0.00    -0.107 A 
ATOM      5  C4  BZF d   1      -0.993   1.600   0.163  0.00  0.00     0.055 A 
ATOM      6  C5  BZF d   1      -0.528   2.877   0.170  0.00  0.00    -0.016 A 
ATOM      7  C6  BZF d   1       0.818   3.158   0.269  0.00  0.00     0.022 A 
ATOM      8  C7  BZF d   1       1.741   2.168   0.352  0.00  0.00     0.029 A 
ATOM      9  C7A BZF d   1       1.276   0.876   0.311  0.00  0.00     0.058 A 
ENDROOT
TORSDOF 0
ENDMDL
