MODEL 1
REMARK minimizedAffinity -2.22794104
REMARK minimizedRMSD -1
REMARK  0 active torsions:
REMARK  status: ('A' for Active; 'I' for Inactive)
ROOT
ATOM      1  O1  BZF d   1       0.977  -0.680  -1.216  0.00  0.00    -0.204 OA
ATOM      2  C2  BZF d   1       0.349  -1.766  -0.639  0.00  0.00     0.174 A 
ATOM      3  C3  BZF d   1      -0.481  -1.370   0.347  0.00  0.00    -0.012 A 
ATOM      4  C3A BZF d   1      -0.435   0.060   0.327  0.00  0.00    -0.107 A 
ATOM      5  C4  BZF d   1      -1.058   1.030   1.059  0.00  0.00     0.055 A 
ATOM      6  C5  BZF d   1      -0.738   2.332   0.837  0.00  0.00    -0.016 A 
ATOM      7  C6  BZF d   1       0.202   2.699  -0.104  0.00  0.00     0.022 A 
ATOM      8  C7  BZF d   1       0.842   1.773  -0.858  0.00  0.00     0.029 A 
ATOM      9  C7A BZF d   1       0.497   0.458  -0.659  0.00  0.00     0.058 A 
ENDROOT
TORSDOF 0
ENDMDL
