MODEL 1
REMARK minimizedAffinity -4.6354804
REMARK minimizedRMSD -1
REMARK  0 active torsions:
REMARK  status: ('A' for Active; 'I' for Inactive)
ROOT
ATOM      1  O1  BZF d   1       1.115  -1.215   0.299  0.00  0.00    -0.204 OA
ATOM      2  C2  BZF d   1       0.054  -2.056   0.025  0.00  0.00     0.174 A 
ATOM      3  C3  BZF d   1      -1.091  -1.355  -0.104  0.00  0.00    -0.012 A 
ATOM      4  C3A BZF d   1      -0.706   0.018   0.010  0.00  0.00    -0.107 A 
ATOM      5  C4  BZF d   1      -1.397   1.195  -0.049  0.00  0.00     0.055 A 
ATOM      6  C5  BZF d   1      -0.736   2.361   0.175  0.00  0.00    -0.016 A 
ATOM      7  C6  BZF d   1       0.613   2.387   0.467  0.00  0.00     0.022 A 
ATOM      8  C7  BZF d   1       1.341   1.245   0.532  0.00  0.00     0.029 A 
ATOM      9  C7A BZF d   1       0.683   0.068   0.273  0.00  0.00     0.058 A 
ENDROOT
TORSDOF 0
ENDMDL
