MODEL 1
REMARK minimizedAffinity -3.10917115
REMARK minimizedRMSD -1
REMARK  0 active torsions:
REMARK  status: ('A' for Active; 'I' for Inactive)
ROOT
ATOM      1  O1  BZF d   1      -0.513  -1.020   1.203  0.00  0.00    -0.204 OA
ATOM      2  C2  BZF d   1      -1.754  -0.414   1.245  0.00  0.00     0.174 A 
ATOM      3  C3  BZF d   1      -1.730   0.771   0.601  0.00  0.00    -0.012 A 
ATOM      4  C3A BZF d   1      -0.414   0.871   0.046  0.00  0.00    -0.107 A 
ATOM      5  C4  BZF d   1       0.214   1.813  -0.717  0.00  0.00     0.055 A 
ATOM      6  C5  BZF d   1       1.525   1.643  -1.029  0.00  0.00    -0.016 A 
ATOM      7  C6  BZF d   1       2.239   0.546  -0.593  0.00  0.00     0.022 A 
ATOM      8  C7  BZF d   1       1.658  -0.418   0.162  0.00  0.00     0.029 A 
ATOM      9  C7A BZF d   1       0.324  -0.265   0.452  0.00  0.00     0.058 A 
ENDROOT
TORSDOF 0
ENDMDL
