MODEL 1
REMARK minimizedAffinity -4.72801971
REMARK minimizedRMSD -1
REMARK  1 active torsions:
REMARK  status: ('A' for Active; 'I' for Inactive)
REMARK    1  A    between atoms: C1_2  and  C2_3 
ROOT
ATOM      1  C2  UNL d   1      -0.338  -0.020  -0.236  0.00  0.00    -0.076 A 
ATOM      2  C3  UNL d   1      -1.287   0.494   0.664  0.00  0.00     0.004 A 
ATOM      3  C4  UNL d   1      -1.122   0.349   2.041  0.00  0.00    -0.003 A 
ATOM      4  C5  UNL d   1      -0.004  -0.311   2.539  0.00  0.00     0.000 A 
ATOM      5  C6  UNL d   1       0.956  -0.812   1.661  0.00  0.00     0.000 A 
ATOM      6  C7  UNL d   1       0.813  -0.661   0.271  0.00  0.00    -0.073 A 
ATOM      7  C8  UNL d   1       1.876  -1.226  -0.630  0.00  0.00     0.078 C 
ENDROOT
BRANCH   1   8
ATOM      8  C1  UNL d   1      -0.584   0.143  -1.719  0.00  0.00     0.053 C 
ATOM      9  C   UNL d   1      -0.716   1.601  -2.131  0.00  0.00     0.018 C 
ENDBRANCH   1   8
TORSDOF 1
ENDMDL
