MODEL 1
REMARK minimizedAffinity -3.25669122
REMARK minimizedRMSD -1
REMARK  1 active torsions:
REMARK  status: ('A' for Active; 'I' for Inactive)
REMARK    1  A    between atoms: C1_2  and  C2_3 
ROOT
ATOM      1  C2  UNL d   1      -0.123   0.193  -0.037  0.00  0.00    -0.076 A 
ATOM      2  C3  UNL d   1       1.254   0.447   0.094  0.00  0.00     0.004 A 
ATOM      3  C4  UNL d   1       1.920   0.191   1.291  0.00  0.00    -0.003 A 
ATOM      4  C5  UNL d   1       1.220  -0.324   2.377  0.00  0.00     0.000 A 
ATOM      5  C6  UNL d   1      -0.143  -0.598   2.259  0.00  0.00     0.000 A 
ATOM      6  C7  UNL d   1      -0.825  -0.361   1.054  0.00  0.00    -0.073 A 
ATOM      7  C8  UNL d   1      -2.296  -0.669   0.985  0.00  0.00     0.078 C 
ENDROOT
BRANCH   1   8
ATOM      8  C1  UNL d   1      -0.796   0.516  -1.352  0.00  0.00     0.053 C 
ATOM      9  C   UNL d   1      -0.535   1.944  -1.805  0.00  0.00     0.018 C 
ENDBRANCH   1   8
TORSDOF 1
ENDMDL
