MODEL 1
REMARK minimizedAffinity -2.04640913
REMARK minimizedRMSD -1
REMARK  1 active torsions:
REMARK  status: ('A' for Active; 'I' for Inactive)
REMARK    1  A    between atoms: C1_2  and  C2_3 
ROOT
ATOM      1  C2  UNL d   1       1.000  -0.343   0.391  0.00  0.00    -0.076 A 
ATOM      2  C3  UNL d   1       0.008  -0.356  -0.605  0.00  0.00     0.004 A 
ATOM      3  C4  UNL d   1      -1.339  -0.210  -0.278  0.00  0.00    -0.003 A 
ATOM      4  C5  UNL d   1      -1.716  -0.047   1.050  0.00  0.00     0.000 A 
ATOM      5  C6  UNL d   1      -0.744  -0.014   2.050  0.00  0.00     0.000 A 
ATOM      6  C7  UNL d   1       0.620  -0.144   1.735  0.00  0.00    -0.073 A 
ATOM      7  C8  UNL d   1       1.625  -0.107   2.854  0.00  0.00     0.078 C 
ENDROOT
BRANCH   1   8
ATOM      8  C1  UNL d   1       2.443  -0.534  -0.021  0.00  0.00     0.053 C 
ATOM      9  C   UNL d   1       2.594  -1.507  -1.180  0.00  0.00     0.018 C 
ENDBRANCH   1   8
TORSDOF 1
ENDMDL
