MODEL 1
REMARK minimizedAffinity -2.70515132
REMARK minimizedRMSD -1
REMARK  1 active torsions:
REMARK  status: ('A' for Active; 'I' for Inactive)
REMARK    1  A    between atoms: C1_2  and  C2_3 
ROOT
ATOM      1  C2  UNL d   1       0.007   0.048  -0.161  0.00  0.00    -0.076 A 
ATOM      2  C3  UNL d   1       1.395  -0.177  -0.155  0.00  0.00     0.004 A 
ATOM      3  C4  UNL d   1       2.081  -0.396   1.038  0.00  0.00    -0.003 A 
ATOM      4  C5  UNL d   1       1.391  -0.393   2.245  0.00  0.00     0.000 A 
ATOM      5  C6  UNL d   1       0.011  -0.189   2.256  0.00  0.00     0.000 A 
ATOM      6  C7  UNL d   1      -0.698   0.016   1.061  0.00  0.00    -0.073 A 
ATOM      7  C8  UNL d   1      -2.184   0.238   1.132  0.00  0.00     0.078 C 
ENDROOT
BRANCH   1   8
ATOM      8  C1  UNL d   1      -0.679   0.306  -1.484  0.00  0.00     0.053 C 
ATOM      9  C   UNL d   1      -0.259   1.627  -2.110  0.00  0.00     0.018 C 
ENDBRANCH   1   8
TORSDOF 1
ENDMDL
