MODEL 1
REMARK minimizedAffinity 3.64246511
REMARK minimizedRMSD -1
REMARK  1 active torsions:
REMARK  status: ('A' for Active; 'I' for Inactive)
REMARK    1  A    between atoms: C1_2  and  C2_3 
ROOT
ATOM      1  C2  UNL d   1       4.546   0.577   0.507  0.00  0.00    -0.073 A 
ATOM      2  C3  UNL d   1       4.722   1.272  -0.695  0.00  0.00    -0.002 A 
ATOM      3  C4  UNL d   1       4.290   0.716  -1.900  0.00  0.00     0.004 A 
ATOM      4  C5  UNL d   1       3.672  -0.534  -1.916  0.00  0.00    -0.004 A 
ATOM      5  C6  UNL d   1       3.476  -1.238  -0.723  0.00  0.00    -0.075 A 
ATOM      6  C7  UNL d   1       2.815  -2.585  -0.723  0.00  0.00     0.076 C 
ATOM      7  C8  UNL d   1       3.915  -0.675   0.483  0.00  0.00     0.001 A 
ENDROOT
BRANCH   1   8
ATOM      8  C1  UNL d   1       5.005   1.176   1.811  0.00  0.00     0.053 C 
ATOM      9  C   UNL d   1       4.573   2.626   1.956  0.00  0.00     0.018 C 
ENDBRANCH   1   8
TORSDOF 1
ENDMDL
