MODEL 1
REMARK minimizedAffinity 5.4063673
REMARK minimizedRMSD -1
REMARK  1 active torsions:
REMARK  status: ('A' for Active; 'I' for Inactive)
REMARK    1  A    between atoms: C1_2  and  C2_3 
ROOT
ATOM      1  C2  UNL d   1       1.354  -3.705   5.069  0.00  0.00    -0.073 A 
ATOM      2  C3  UNL d   1       1.656  -3.916   3.719  0.00  0.00    -0.002 A 
ATOM      3  C4  UNL d   1       1.870  -2.832   2.867  0.00  0.00     0.004 A 
ATOM      4  C5  UNL d   1       1.792  -1.528   3.357  0.00  0.00    -0.004 A 
ATOM      5  C6  UNL d   1       1.503  -1.297   4.705  0.00  0.00    -0.075 A 
ATOM      6  C7  UNL d   1       1.414   0.099   5.247  0.00  0.00     0.076 C 
ATOM      7  C8  UNL d   1       1.286  -2.391   5.554  0.00  0.00     0.001 A 
ENDROOT
BRANCH   1   8
ATOM      8  C1  UNL d   1       1.127  -4.873   5.994  0.00  0.00     0.053 C 
ATOM      9  C   UNL d   1      -0.325  -5.322   6.000  0.00  0.00     0.018 C 
ENDBRANCH   1   8
TORSDOF 1
ENDMDL
