MODEL 1
REMARK minimizedAffinity 0.510650277
REMARK minimizedRMSD -1
REMARK  1 active torsions:
REMARK  status: ('A' for Active; 'I' for Inactive)
REMARK    1  A    between atoms: C1_2  and  C2_3 
ROOT
ATOM      1  C2  UNL d   1       2.355   4.430   5.977  0.00  0.00    -0.073 A 
ATOM      2  C3  UNL d   1       2.591   3.051   5.990  0.00  0.00    -0.002 A 
ATOM      3  C4  UNL d   1       3.897   2.559   5.997  0.00  0.00     0.004 A 
ATOM      4  C5  UNL d   1       4.978   3.439   6.000  0.00  0.00    -0.004 A 
ATOM      5  C6  UNL d   1       4.763   4.821   6.000  0.00  0.00    -0.075 A 
ATOM      6  C7  UNL d   1       5.916   5.781   6.000  0.00  0.00     0.076 C 
ATOM      7  C8  UNL d   1       3.449   5.307   5.989  0.00  0.00     0.001 A 
ENDROOT
BRANCH   1   8
ATOM      8  C1  UNL d   1       0.947   4.966   5.976  0.00  0.00     0.053 C 
ATOM      9  C   UNL d   1       0.718   5.963   4.851  0.00  0.00     0.018 C 
ENDBRANCH   1   8
TORSDOF 1
ENDMDL
