MODEL 1
REMARK minimizedAffinity 2.54392028
REMARK minimizedRMSD -1
REMARK  1 active torsions:
REMARK  status: ('A' for Active; 'I' for Inactive)
REMARK    1  A    between atoms: C1_2  and  C2_3 
ROOT
ATOM      1  C2  UNL d   1       3.213   4.735   4.867  0.00  0.00    -0.073 A 
ATOM      2  C3  UNL d   1       3.593   4.006   6.000  0.00  0.00    -0.002 A 
ATOM      3  C4  UNL d   1       4.498   2.950   5.888  0.00  0.00     0.004 A 
ATOM      4  C5  UNL d   1       5.037   2.616   4.646  0.00  0.00    -0.004 A 
ATOM      5  C6  UNL d   1       4.679   3.340   3.504  0.00  0.00    -0.075 A 
ATOM      6  C7  UNL d   1       5.249   2.992   2.160  0.00  0.00     0.076 C 
ATOM      7  C8  UNL d   1       3.768   4.398   3.624  0.00  0.00     0.001 A 
ENDROOT
BRANCH   1   8
ATOM      8  C1  UNL d   1       2.241   5.880   4.984  0.00  0.00     0.053 C 
ATOM      9  C   UNL d   1       1.146   5.597   6.000  0.00  0.00     0.018 C 
ENDBRANCH   1   8
TORSDOF 1
ENDMDL
