MODEL 1
REMARK minimizedAffinity 3.80930185
REMARK minimizedRMSD -1
REMARK  0 active torsions:
REMARK  status: ('A' for Active; 'I' for Inactive)
ROOT
ATOM      1  C2' OXE d   1       0.237   2.935  -1.956  0.00  0.00     0.078 C 
ATOM      2  C1' OXE d   1       0.656   3.265   0.800  0.00  0.00     0.078 C 
ATOM      3  C1  OXE d   1       1.064   1.952   0.178  0.00  0.00    -0.078 A 
ATOM      4  C2  OXE d   1       0.812   1.782  -1.162  0.00  0.00    -0.078 A 
ATOM      5  C3  OXE d   1       1.218   0.612  -1.796  0.00  0.00     0.003 A 
ATOM      6  C4  OXE d   1       1.740  -0.454  -1.053  0.00  0.00    -0.002 A 
ATOM      7  C5  OXE d   1       1.967  -0.316   0.321  0.00  0.00    -0.002 A 
ATOM      8  C6  OXE d   1       1.675   0.893   0.942  0.00  0.00     0.003 A 
ENDROOT
TORSDOF 0
ENDMDL
