MODEL 1
REMARK minimizedAffinity -0.587023377
REMARK minimizedRMSD -1
REMARK  0 active torsions:
REMARK  status: ('A' for Active; 'I' for Inactive)
ROOT
ATOM      1  C2' OXE d   1       0.405   1.743  -1.643  0.00  0.00     0.078 C 
ATOM      2  C1' OXE d   1       1.469   1.404   0.932  0.00  0.00     0.078 C 
ATOM      3  C1  OXE d   1       1.269   0.172   0.086  0.00  0.00    -0.078 A 
ATOM      4  C2  OXE d   1       0.705   0.342  -1.155  0.00  0.00    -0.078 A 
ATOM      5  C3  OXE d   1       0.549  -0.755  -1.998  0.00  0.00     0.003 A 
ATOM      6  C4  OXE d   1       0.820  -2.048  -1.535  0.00  0.00    -0.002 A 
ATOM      7  C5  OXE d   1       1.358  -2.248  -0.260  0.00  0.00    -0.002 A 
ATOM      8  C6  OXE d   1       1.628  -1.147   0.546  0.00  0.00     0.003 A 
ENDROOT
TORSDOF 0
ENDMDL
