MODEL 1
REMARK minimizedAffinity -4.31919003
REMARK minimizedRMSD -1
REMARK  0 active torsions:
REMARK  status: ('A' for Active; 'I' for Inactive)
ROOT
ATOM      1  C2' OXE d   1       0.591   4.404  -1.519  0.00  0.00     0.078 C 
ATOM      2  C1' OXE d   1       0.804   4.011   1.252  0.00  0.00     0.078 C 
ATOM      3  C1  OXE d   1       1.065   2.829   0.352  0.00  0.00    -0.078 A 
ATOM      4  C2  OXE d   1       0.912   3.019  -1.001  0.00  0.00    -0.078 A 
ATOM      5  C3  OXE d   1       1.193   1.977  -1.879  0.00  0.00     0.003 A 
ATOM      6  C4  OXE d   1       1.480   0.696  -1.391  0.00  0.00    -0.002 A 
ATOM      7  C5  OXE d   1       1.601   0.471  -0.016  0.00  0.00    -0.002 A 
ATOM      8  C6  OXE d   1       1.439   1.535   0.866  0.00  0.00     0.003 A 
ENDROOT
TORSDOF 0
ENDMDL
