MODEL 1
REMARK minimizedAffinity -1.6548835
REMARK minimizedRMSD -1
REMARK  0 active torsions:
REMARK  status: ('A' for Active; 'I' for Inactive)
ROOT
ATOM      1  C2' OXE d   1       1.738  -1.233  -1.486  0.00  0.00     0.078 C 
ATOM      2  C1' OXE d   1       3.749  -0.719   0.404  0.00  0.00     0.078 C 
ATOM      3  C1  OXE d   1       2.527   0.166   0.418  0.00  0.00    -0.078 A 
ATOM      4  C2  OXE d   1       1.570  -0.063  -0.540  0.00  0.00    -0.078 A 
ATOM      5  C3  OXE d   1       0.398   0.688  -0.538  0.00  0.00     0.003 A 
ATOM      6  C4  OXE d   1       0.255   1.774   0.334  0.00  0.00    -0.002 A 
ATOM      7  C5  OXE d   1       1.236   2.050   1.293  0.00  0.00    -0.002 A 
ATOM      8  C6  OXE d   1       2.356   1.230   1.376  0.00  0.00     0.003 A 
ENDROOT
TORSDOF 0
ENDMDL
