MODEL 1
REMARK minimizedAffinity -3.54365849
REMARK minimizedRMSD -1
REMARK  0 active torsions:
REMARK  status: ('A' for Active; 'I' for Inactive)
ROOT
ATOM      1  C2' OXE d   1       1.199   3.000  -1.658  0.00  0.00     0.078 C 
ATOM      2  C1' OXE d   1       1.366   2.252   1.042  0.00  0.00     0.078 C 
ATOM      3  C1  OXE d   1       1.252   1.154   0.013  0.00  0.00    -0.078 A 
ATOM      4  C2  OXE d   1       1.124   1.531  -1.302  0.00  0.00    -0.078 A 
ATOM      5  C3  OXE d   1       1.070   0.558  -2.296  0.00  0.00     0.003 A 
ATOM      6  C4  OXE d   1       0.991  -0.798  -1.957  0.00  0.00    -0.002 A 
ATOM      7  C5  OXE d   1       1.081  -1.202  -0.620  0.00  0.00    -0.002 A 
ATOM      8  C6  OXE d   1       1.254  -0.243   0.371  0.00  0.00     0.003 A 
ENDROOT
TORSDOF 0
ENDMDL
