MODEL 1
REMARK minimizedAffinity 7.73165083
REMARK minimizedRMSD -1
REMARK  0 active torsions:
REMARK  status: ('A' for Active; 'I' for Inactive)
ROOT
ATOM      1  C2' OXE d   1       2.430  -0.894   0.139  0.00  0.00     0.078 C 
ATOM      2  C1' OXE d   1       2.243   1.570   1.470  0.00  0.00     0.078 C 
ATOM      3  C1  OXE d   1       1.798   1.513   0.031  0.00  0.00    -0.078 A 
ATOM      4  C2  OXE d   1       1.936   0.314  -0.627  0.00  0.00    -0.078 A 
ATOM      5  C3  OXE d   1       1.490   0.193  -1.940  0.00  0.00     0.003 A 
ATOM      6  C4  OXE d   1       1.044   1.317  -2.644  0.00  0.00    -0.002 A 
ATOM      7  C5  OXE d   1       0.932   2.557  -2.005  0.00  0.00    -0.002 A 
ATOM      8  C6  OXE d   1       1.264   2.662  -0.659  0.00  0.00     0.003 A 
ENDROOT
TORSDOF 0
ENDMDL
