MODEL 1
REMARK minimizedAffinity 3.41658711
REMARK minimizedRMSD -1
REMARK  0 active torsions:
REMARK  status: ('A' for Active; 'I' for Inactive)
ROOT
ATOM      1  C2' OXE d   1       0.854   2.499  -1.588  0.00  0.00     0.078 C 
ATOM      2  C1' OXE d   1       1.320   2.180   1.161  0.00  0.00     0.078 C 
ATOM      3  C1  OXE d   1       1.149   0.935   0.327  0.00  0.00    -0.078 A 
ATOM      4  C2  OXE d   1       0.875   1.101  -1.009  0.00  0.00    -0.078 A 
ATOM      5  C3  OXE d   1       0.762  -0.014  -1.834  0.00  0.00     0.003 A 
ATOM      6  C4  OXE d   1       0.773  -1.303  -1.288  0.00  0.00    -0.002 A 
ATOM      7  C5  OXE d   1       1.011  -1.494   0.077  0.00  0.00    -0.002 A 
ATOM      8  C6  OXE d   1       1.243  -0.390   0.889  0.00  0.00     0.003 A 
ENDROOT
TORSDOF 0
ENDMDL
