MODEL 1
REMARK minimizedAffinity 4.91045952
REMARK minimizedRMSD -1
REMARK  0 active torsions:
REMARK  status: ('A' for Active; 'I' for Inactive)
ROOT
ATOM      1  C2' OXE d   1       1.106  -0.545   0.372  0.00  0.00     0.078 C 
ATOM      2  C1' OXE d   1      -0.067   1.865   1.207  0.00  0.00     0.078 C 
ATOM      3  C1  OXE d   1       0.481   1.799  -0.197  0.00  0.00    -0.078 A 
ATOM      4  C2  OXE d   1       1.095   0.631  -0.581  0.00  0.00    -0.078 A 
ATOM      5  C3  OXE d   1       1.568   0.498  -1.883  0.00  0.00     0.003 A 
ATOM      6  C4  OXE d   1       1.564   1.593  -2.755  0.00  0.00    -0.002 A 
ATOM      7  C5  OXE d   1       0.979   2.805  -2.370  0.00  0.00    -0.002 A 
ATOM      8  C6  OXE d   1       0.396   2.910  -1.112  0.00  0.00     0.003 A 
ENDROOT
TORSDOF 0
ENDMDL
