MODEL 1
REMARK minimizedAffinity -1.15679753
REMARK minimizedRMSD -1
REMARK  0 active torsions:
REMARK  status: ('A' for Active; 'I' for Inactive)
ROOT
ATOM      1  C2' OXE d   1       1.366   3.967  -1.561  0.00  0.00     0.078 C 
ATOM      2  C1' OXE d   1       0.979   3.524   1.184  0.00  0.00     0.078 C 
ATOM      3  C1  OXE d   1       1.035   2.319   0.277  0.00  0.00    -0.078 A 
ATOM      4  C2  OXE d   1       1.177   2.548  -1.070  0.00  0.00    -0.078 A 
ATOM      5  C3  OXE d   1       1.289   1.470  -1.944  0.00  0.00     0.003 A 
ATOM      6  C4  OXE d   1       1.103   0.162  -1.483  0.00  0.00    -0.002 A 
ATOM      7  C5  OXE d   1       0.917  -0.091  -0.120  0.00  0.00    -0.002 A 
ATOM      8  C6  OXE d   1       0.923   0.971   0.777  0.00  0.00     0.003 A 
ENDROOT
TORSDOF 0
ENDMDL
