MODEL 1
REMARK minimizedAffinity -1.93303835
REMARK minimizedRMSD -1
REMARK  0 active torsions:
REMARK  status: ('A' for Active; 'I' for Inactive)
ROOT
ATOM      1  C2' OXE d   1       0.706  -0.031  -1.533  0.00  0.00     0.078 C 
ATOM      2  C1' OXE d   1       0.882   2.761  -1.755  0.00  0.00     0.078 C 
ATOM      3  C1  OXE d   1       0.984   2.158  -0.377  0.00  0.00    -0.078 A 
ATOM      4  C2  OXE d   1       0.850   0.794  -0.272  0.00  0.00    -0.078 A 
ATOM      5  C3  OXE d   1       0.991   0.181   0.969  0.00  0.00     0.003 A 
ATOM      6  C4  OXE d   1       1.114   0.952   2.131  0.00  0.00    -0.002 A 
ATOM      7  C5  OXE d   1       1.212   2.345   2.051  0.00  0.00    -0.002 A 
ATOM      8  C6  OXE d   1       1.192   2.959   0.804  0.00  0.00     0.003 A 
ENDROOT
TORSDOF 0
ENDMDL
