MODEL 1
REMARK minimizedAffinity 2.90970016
REMARK minimizedRMSD -1
REMARK  0 active torsions:
REMARK  status: ('A' for Active; 'I' for Inactive)
ROOT
ATOM      1  C2' OXE d   1       1.136   3.056  -1.489  0.00  0.00     0.078 C 
ATOM      2  C1' OXE d   1       1.370   2.696   1.285  0.00  0.00     0.078 C 
ATOM      3  C1  OXE d   1       1.201   1.466   0.428  0.00  0.00    -0.078 A 
ATOM      4  C2  OXE d   1       1.041   1.655  -0.923  0.00  0.00    -0.078 A 
ATOM      5  C3  OXE d   1       0.936   0.552  -1.766  0.00  0.00     0.003 A 
ATOM      6  C4  OXE d   1       0.839  -0.740  -1.234  0.00  0.00    -0.002 A 
ATOM      7  C5  OXE d   1       0.960  -0.951   0.144  0.00  0.00    -0.002 A 
ATOM      8  C6  OXE d   1       1.184   0.135   0.983  0.00  0.00     0.003 A 
ENDROOT
TORSDOF 0
ENDMDL
