MODEL 1
REMARK minimizedAffinity 4.87892103
REMARK minimizedRMSD -1
REMARK  0 active torsions:
REMARK  status: ('A' for Active; 'I' for Inactive)
ROOT
ATOM      1  C2' OXE d   1      -5.755   0.945   3.524  0.00  0.00     0.078 C 
ATOM      2  C1' OXE d   1      -3.576   1.264   5.265  0.00  0.00     0.078 C 
ATOM      3  C1  OXE d   1      -3.417   1.742   3.843  0.00  0.00    -0.078 A 
ATOM      4  C2  OXE d   1      -4.472   1.540   2.986  0.00  0.00    -0.078 A 
ATOM      5  C3  OXE d   1      -4.398   2.011   1.678  0.00  0.00     0.003 A 
ATOM      6  C4  OXE d   1      -3.203   2.550   1.186  0.00  0.00    -0.002 A 
ATOM      7  C5  OXE d   1      -2.103   2.729   2.031  0.00  0.00    -0.002 A 
ATOM      8  C6  OXE d   1      -2.208   2.370   3.371  0.00  0.00     0.003 A 
ENDROOT
TORSDOF 0
ENDMDL
