MODEL 1
REMARK minimizedAffinity 3.02913976
REMARK minimizedRMSD -1
REMARK  0 active torsions:
REMARK  status: ('A' for Active; 'I' for Inactive)
ROOT
ATOM      1  C2' OXE d   1       1.729  -3.351   0.144  0.00  0.00     0.078 C 
ATOM      2  C1' OXE d   1      -0.051  -3.087  -2.011  0.00  0.00     0.078 C 
ATOM      3  C1  OXE d   1       0.763  -1.879  -1.620  0.00  0.00    -0.078 A 
ATOM      4  C2  OXE d   1       1.597  -2.004  -0.535  0.00  0.00    -0.078 A 
ATOM      5  C3  OXE d   1       2.411  -0.937  -0.165  0.00  0.00     0.003 A 
ATOM      6  C4  OXE d   1       2.276   0.308  -0.791  0.00  0.00    -0.002 A 
ATOM      7  C5  OXE d   1       1.404   0.467  -1.873  0.00  0.00    -0.002 A 
ATOM      8  C6  OXE d   1       0.673  -0.625  -2.326  0.00  0.00     0.003 A 
ENDROOT
TORSDOF 0
ENDMDL
