MODEL 1
REMARK minimizedAffinity -3.58982635
REMARK minimizedRMSD -1
REMARK  0 active torsions:
REMARK  status: ('A' for Active; 'I' for Inactive)
ROOT
ATOM      1  C2' OXE d   1       1.396   3.445   1.331  0.00  0.00     0.078 C 
ATOM      2  C1' OXE d   1       1.458   3.652  -1.468  0.00  0.00     0.078 C 
ATOM      3  C1  OXE d   1       1.111   2.312  -0.869  0.00  0.00    -0.078 A 
ATOM      4  C2  OXE d   1       1.128   2.208   0.501  0.00  0.00    -0.078 A 
ATOM      5  C3  OXE d   1       0.762   1.009   1.106  0.00  0.00     0.003 A 
ATOM      6  C4  OXE d   1       0.526  -0.133   0.330  0.00  0.00    -0.002 A 
ATOM      7  C5  OXE d   1       0.542  -0.058  -1.066  0.00  0.00    -0.002 A 
ATOM      8  C6  OXE d   1       0.790   1.164  -1.681  0.00  0.00     0.003 A 
ENDROOT
TORSDOF 0
ENDMDL
