MODEL 1
REMARK minimizedAffinity 2.70696473
REMARK minimizedRMSD -1
REMARK  0 active torsions:
REMARK  status: ('A' for Active; 'I' for Inactive)
ROOT
ATOM      1  C2' OXE d   1       1.403   3.252   1.640  0.00  0.00     0.078 C 
ATOM      2  C1' OXE d   1       2.436   0.856   2.676  0.00  0.00     0.078 C 
ATOM      3  C1  OXE d   1       1.824   0.821   1.298  0.00  0.00    -0.078 A 
ATOM      4  C2  OXE d   1       1.279   1.987   0.818  0.00  0.00    -0.078 A 
ATOM      5  C3  OXE d   1       0.750   2.023  -0.469  0.00  0.00     0.003 A 
ATOM      6  C4  OXE d   1       0.630   0.847  -1.219  0.00  0.00    -0.002 A 
ATOM      7  C5  OXE d   1       1.143  -0.360  -0.733  0.00  0.00    -0.002 A 
ATOM      8  C6  OXE d   1       1.780  -0.382   0.503  0.00  0.00     0.003 A 
ENDROOT
TORSDOF 0
ENDMDL
