MODEL 1
REMARK minimizedAffinity 8.18230343
REMARK minimizedRMSD -1
REMARK  0 active torsions:
REMARK  status: ('A' for Active; 'I' for Inactive)
ROOT
ATOM      1  C2' OXE d   1       1.027   3.577   1.193  0.00  0.00     0.078 C 
ATOM      2  C1' OXE d   1       1.541   5.632  -0.649  0.00  0.00     0.078 C 
ATOM      3  C1  OXE d   1       1.278   4.249  -1.192  0.00  0.00    -0.078 A 
ATOM      4  C2  OXE d   1       1.074   3.241  -0.282  0.00  0.00    -0.078 A 
ATOM      5  C3  OXE d   1       0.772   1.958  -0.730  0.00  0.00     0.003 A 
ATOM      6  C4  OXE d   1       0.827   1.653  -2.095  0.00  0.00    -0.002 A 
ATOM      7  C5  OXE d   1       1.072   2.657  -3.038  0.00  0.00    -0.002 A 
ATOM      8  C6  OXE d   1       1.257   3.966  -2.606  0.00  0.00     0.003 A 
ENDROOT
TORSDOF 0
ENDMDL
