MODEL 1
REMARK minimizedAffinity 1.5453856
REMARK minimizedRMSD -1
REMARK  0 active torsions:
REMARK  status: ('A' for Active; 'I' for Inactive)
ROOT
ATOM      1  C   UNL d   1      -4.714  -4.811  -1.416  0.00  0.00    -0.002 A 
ATOM      2  C1  UNL d   1      -4.932  -3.456  -1.621  0.00  0.00     0.010 A 
ATOM      3  C2  UNL d   1      -5.332  -2.981  -2.872  0.00  0.00     0.041 A 
ATOM      4  C3  UNL d   1      -5.511  -3.901  -3.924  0.00  0.00    -0.075 A 
ATOM      5  S   UNL d   1      -5.997  -3.550  -5.540  0.00  0.00     0.015 SA
ATOM      6  C4  UNL d   1      -5.928  -5.190  -5.997  0.00  0.00     0.022 A 
ATOM      7  C5  UNL d   1      -5.544  -6.000  -4.955  0.00  0.00     0.026 A 
ATOM      8  C6  UNL d   1      -5.299  -5.271  -3.742  0.00  0.00    -0.082 A 
ATOM      9  C7  UNL d   1      -4.893  -5.720  -2.462  0.00  0.00     0.045 A 
ENDROOT
TORSDOF 0
ENDMDL
