MODEL 1
REMARK minimizedAffinity 6.78080177
REMARK minimizedRMSD -1
REMARK  0 active torsions:
REMARK  status: ('A' for Active; 'I' for Inactive)
ROOT
ATOM      1  C   UNL d   1       3.408  -2.458  -2.626  0.00  0.00    -0.002 A 
ATOM      2  C1  UNL d   1       2.348  -1.602  -2.888  0.00  0.00     0.010 A 
ATOM      3  C2  UNL d   1       2.504  -0.525  -3.762  0.00  0.00     0.041 A 
ATOM      4  C3  UNL d   1       3.755  -0.321  -4.376  0.00  0.00    -0.075 A 
ATOM      5  S   UNL d   1       4.179   0.931  -5.483  0.00  0.00     0.015 SA
ATOM      6  C4  UNL d   1       5.777   0.359  -5.634  0.00  0.00     0.022 A 
ATOM      7  C5  UNL d   1       6.000  -0.759  -4.866  0.00  0.00     0.026 A 
ATOM      8  C6  UNL d   1       4.838  -1.170  -4.128  0.00  0.00    -0.082 A 
ATOM      9  C7  UNL d   1       4.648  -2.253  -3.236  0.00  0.00     0.045 A 
ENDROOT
TORSDOF 0
ENDMDL
