MODEL 1
REMARK minimizedAffinity 3.33168769
REMARK minimizedRMSD -1
REMARK  0 active torsions:
REMARK  status: ('A' for Active; 'I' for Inactive)
ROOT
ATOM      1  C   UNL d   1      -3.003  -5.843  -5.125  0.00  0.00    -0.002 A 
ATOM      2  C1  UNL d   1      -4.052  -5.125  -5.683  0.00  0.00     0.010 A 
ATOM      3  C2  UNL d   1      -5.023  -4.540  -4.869  0.00  0.00     0.041 A 
ATOM      4  C3  UNL d   1      -4.922  -4.687  -3.472  0.00  0.00    -0.075 A 
ATOM      5  S   UNL d   1      -5.995  -4.056  -2.279  0.00  0.00     0.015 SA
ATOM      6  C4  UNL d   1      -5.086  -4.723  -1.001  0.00  0.00     0.022 A 
ATOM      7  C5  UNL d   1      -3.987  -5.414  -1.455  0.00  0.00     0.026 A 
ATOM      8  C6  UNL d   1      -3.874  -5.404  -2.887  0.00  0.00    -0.082 A 
ATOM      9  C7  UNL d   1      -2.905  -5.987  -3.739  0.00  0.00     0.045 A 
ENDROOT
TORSDOF 0
ENDMDL
