MODEL 1
REMARK minimizedAffinity 7.02420759
REMARK minimizedRMSD -1
REMARK  0 active torsions:
REMARK  status: ('A' for Active; 'I' for Inactive)
ROOT
ATOM      1  C   UNL d   1      -5.906  -4.724  -5.923  0.00  0.00    -0.002 A 
ATOM      2  C1  UNL d   1      -5.971  -3.366  -5.644  0.00  0.00     0.010 A 
ATOM      3  C2  UNL d   1      -6.000  -2.913  -4.324  0.00  0.00     0.041 A 
ATOM      4  C3  UNL d   1      -5.960  -3.856  -3.279  0.00  0.00    -0.075 A 
ATOM      5  S   UNL d   1      -5.984  -3.533  -1.585  0.00  0.00     0.015 SA
ATOM      6  C4  UNL d   1      -5.907  -5.189  -1.192  0.00  0.00     0.022 A 
ATOM      7  C5  UNL d   1      -5.865  -5.984  -2.313  0.00  0.00     0.026 A 
ATOM      8  C6  UNL d   1      -5.894  -5.229  -3.534  0.00  0.00    -0.082 A 
ATOM      9  C7  UNL d   1      -5.867  -5.657  -4.883  0.00  0.00     0.045 A 
ENDROOT
TORSDOF 0
ENDMDL
