MODEL 1
REMARK minimizedAffinity -0.281140447
REMARK minimizedRMSD -1
REMARK  0 active torsions:
REMARK  status: ('A' for Active; 'I' for Inactive)
ROOT
ATOM      1  C   UNL d   1      -5.455  -5.270  -1.296  0.00  0.00    -0.002 A 
ATOM      2  C1  UNL d   1      -5.994  -4.008  -1.502  0.00  0.00     0.010 A 
ATOM      3  C2  UNL d   1      -6.000  -3.438  -2.777  0.00  0.00     0.041 A 
ATOM      4  C3  UNL d   1      -5.451  -4.166  -3.852  0.00  0.00    -0.075 A 
ATOM      5  S   UNL d   1      -5.350  -3.669  -5.499  0.00  0.00     0.015 SA
ATOM      6  C4  UNL d   1      -4.590  -5.121  -5.968  0.00  0.00     0.022 A 
ATOM      7  C5  UNL d   1      -4.410  -5.975  -4.906  0.00  0.00     0.026 A 
ATOM      8  C6  UNL d   1      -4.904  -5.439  -3.669  0.00  0.00    -0.082 A 
ATOM      9  C7  UNL d   1      -4.912  -5.989  -2.364  0.00  0.00     0.045 A 
ENDROOT
TORSDOF 0
ENDMDL
