MODEL 1
REMARK minimizedAffinity 10.5326462
REMARK minimizedRMSD -1
REMARK  0 active torsions:
REMARK  status: ('A' for Active; 'I' for Inactive)
ROOT
ATOM      1  C   UNL d   1       5.737   0.423  -1.535  0.00  0.00    -0.002 A 
ATOM      2  C1  UNL d   1       5.885   1.579  -2.288  0.00  0.00     0.010 A 
ATOM      3  C2  UNL d   1       5.975   1.513  -3.680  0.00  0.00     0.041 A 
ATOM      4  C3  UNL d   1       5.912   0.254  -4.308  0.00  0.00    -0.075 A 
ATOM      5  S   UNL d   1       6.000  -0.069  -6.000  0.00  0.00     0.015 SA
ATOM      6  C4  UNL d   1       5.843  -1.750  -5.762  0.00  0.00     0.022 A 
ATOM      7  C5  UNL d   1       5.726  -2.074  -4.432  0.00  0.00     0.026 A 
ATOM      8  C6  UNL d   1       5.763  -0.924  -3.572  0.00  0.00    -0.082 A 
ATOM      9  C7  UNL d   1       5.675  -0.825  -2.162  0.00  0.00     0.045 A 
ENDROOT
TORSDOF 0
ENDMDL
