MODEL 1
REMARK minimizedAffinity 12.4340401
REMARK minimizedRMSD -1
REMARK  0 active torsions:
REMARK  status: ('A' for Active; 'I' for Inactive)
ROOT
ATOM      1  C   UNL d   1       5.769   0.758  -1.505  0.00  0.00    -0.002 A 
ATOM      2  C1  UNL d   1       5.897   1.982  -2.146  0.00  0.00     0.010 A 
ATOM      3  C2  UNL d   1       5.969   2.050  -3.539  0.00  0.00     0.041 A 
ATOM      4  C3  UNL d   1       5.908   0.856  -4.284  0.00  0.00    -0.075 A 
ATOM      5  S   UNL d   1       5.976   0.696  -5.999  0.00  0.00     0.015 SA
ATOM      6  C4  UNL d   1       5.835  -1.000  -5.922  0.00  0.00     0.022 A 
ATOM      7  C5  UNL d   1       5.738  -1.451  -4.626  0.00  0.00     0.026 A 
ATOM      8  C6  UNL d   1       5.778  -0.388  -3.661  0.00  0.00    -0.082 A 
ATOM      9  C7  UNL d   1       5.708  -0.424  -2.248  0.00  0.00     0.045 A 
ENDROOT
TORSDOF 0
ENDMDL
