MODEL 1
REMARK minimizedAffinity 10.3429317
REMARK minimizedRMSD -1
REMARK  0 active torsions:
REMARK  status: ('A' for Active; 'I' for Inactive)
ROOT
ATOM      1  C   UNL d   1       1.298  -1.560  -0.306  0.00  0.00    -0.002 A 
ATOM      2  C1  UNL d   1      -0.070  -1.543  -0.534  0.00  0.00     0.010 A 
ATOM      3  C2  UNL d   1      -0.880  -2.583  -0.076  0.00  0.00     0.041 A 
ATOM      4  C3  UNL d   1      -0.286  -3.652   0.624  0.00  0.00    -0.075 A 
ATOM      5  S   UNL d   1      -1.080  -5.035   1.279  0.00  0.00     0.015 SA
ATOM      6  C4  UNL d   1       0.379  -5.682   1.878  0.00  0.00     0.022 A 
ATOM      7  C5  UNL d   1       1.455  -4.875   1.593  0.00  0.00     0.026 A 
ATOM      8  C6  UNL d   1       1.090  -3.692   0.866  0.00  0.00    -0.082 A 
ATOM      9  C7  UNL d   1       1.884  -2.622   0.388  0.00  0.00     0.045 A 
ENDROOT
TORSDOF 0
ENDMDL
