MODEL 1
REMARK minimizedAffinity 10.5167036
REMARK minimizedRMSD -1
REMARK  0 active torsions:
REMARK  status: ('A' for Active; 'I' for Inactive)
ROOT
ATOM      1  C   UNL d   1       0.554   0.647  -0.721  0.00  0.00    -0.002 A 
ATOM      2  C1  UNL d   1       0.647   1.455  -1.846  0.00  0.00     0.010 A 
ATOM      3  C2  UNL d   1       0.955   0.905  -3.092  0.00  0.00     0.041 A 
ATOM      4  C3  UNL d   1       1.169  -0.484  -3.190  0.00  0.00    -0.075 A 
ATOM      5  S   UNL d   1       1.557  -1.378  -4.612  0.00  0.00     0.015 SA
ATOM      6  C4  UNL d   1       1.607  -2.854  -3.761  0.00  0.00     0.022 A 
ATOM      7  C5  UNL d   1       1.338  -2.687  -2.423  0.00  0.00     0.026 A 
ATOM      8  C6  UNL d   1       1.080  -1.318  -2.072  0.00  0.00    -0.082 A 
ATOM      9  C7  UNL d   1       0.767  -0.731  -0.823  0.00  0.00     0.045 A 
ENDROOT
TORSDOF 0
ENDMDL
