MODEL 1
REMARK minimizedAffinity 3.85019088
REMARK minimizedRMSD -1
REMARK  0 active torsions:
REMARK  status: ('A' for Active; 'I' for Inactive)
ROOT
ATOM      1  C   UNL d   1       0.939   0.722  -0.781  0.00  0.00    -0.002 A 
ATOM      2  C1  UNL d   1       0.773   1.554  -1.879  0.00  0.00     0.010 A 
ATOM      3  C2  UNL d   1       0.681   1.021  -3.167  0.00  0.00     0.041 A 
ATOM      4  C3  UNL d   1       0.758  -0.376  -3.333  0.00  0.00    -0.075 A 
ATOM      5  S   UNL d   1       0.669  -1.253  -4.815  0.00  0.00     0.015 SA
ATOM      6  C4  UNL d   1       0.849  -2.752  -4.025  0.00  0.00     0.022 A 
ATOM      7  C5  UNL d   1       0.975  -2.606  -2.664  0.00  0.00     0.026 A 
ATOM      8  C6  UNL d   1       0.924  -1.234  -2.242  0.00  0.00    -0.082 A 
ATOM      9  C7  UNL d   1       1.015  -0.663  -0.950  0.00  0.00     0.045 A 
ENDROOT
TORSDOF 0
ENDMDL
