MODEL 1
REMARK minimizedAffinity 4.7377224
REMARK minimizedRMSD -1
REMARK  0 active torsions:
REMARK  status: ('A' for Active; 'I' for Inactive)
ROOT
ATOM      1  C   UNL d   1       0.833   2.279  -3.030  0.00  0.00    -0.002 A 
ATOM      2  C1  UNL d   1       1.285   1.459  -4.054  0.00  0.00     0.010 A 
ATOM      3  C2  UNL d   1       1.499   0.097  -3.832  0.00  0.00     0.041 A 
ATOM      4  C3  UNL d   1       1.247  -0.432  -2.550  0.00  0.00    -0.075 A 
ATOM      5  S   UNL d   1       1.437  -2.070  -2.046  0.00  0.00     0.015 SA
ATOM      6  C4  UNL d   1       0.922  -1.719  -0.460  0.00  0.00     0.022 A 
ATOM      7  C5  UNL d   1       0.609  -0.390  -0.301  0.00  0.00     0.026 A 
ATOM      8  C6  UNL d   1       0.790   0.374  -1.503  0.00  0.00    -0.082 A 
ATOM      9  C7  UNL d   1       0.584   1.750  -1.761  0.00  0.00     0.045 A 
ENDROOT
TORSDOF 0
ENDMDL
