MODEL 1
REMARK minimizedAffinity 3.67739701
REMARK minimizedRMSD -1
REMARK  0 active torsions:
REMARK  status: ('A' for Active; 'I' for Inactive)
ROOT
ATOM      1  C   UNL d   1      -5.247   4.114   1.111  0.00  0.00    -0.002 A 
ATOM      2  C1  UNL d   1      -3.876   4.332   1.090  0.00  0.00     0.010 A 
ATOM      3  C2  UNL d   1      -3.231   4.904   2.188  0.00  0.00     0.041 A 
ATOM      4  C3  UNL d   1      -3.993   5.255   3.320  0.00  0.00    -0.075 A 
ATOM      5  S   UNL d   1      -3.418   5.967   4.781  0.00  0.00     0.015 SA
ATOM      6  C4  UNL d   1      -4.978   5.999   5.467  0.00  0.00     0.022 A 
ATOM      7  C5  UNL d   1      -5.926   5.483   4.617  0.00  0.00     0.026 A 
ATOM      8  C6  UNL d   1      -5.375   5.045   3.365  0.00  0.00    -0.082 A 
ATOM      9  C7  UNL d   1      -6.000   4.464   2.235  0.00  0.00     0.045 A 
ENDROOT
TORSDOF 0
ENDMDL
