MODEL 1
REMARK minimizedAffinity 2.01167727
REMARK minimizedRMSD -1
REMARK  0 active torsions:
REMARK  status: ('A' for Active; 'I' for Inactive)
ROOT
ATOM      1  C   UNL d   1       1.586   0.481  -3.323  0.00  0.00    -0.002 A 
ATOM      2  C1  UNL d   1       2.268  -0.005  -2.216  0.00  0.00     0.010 A 
ATOM      3  C2  UNL d   1       3.640  -0.258  -2.282  0.00  0.00     0.041 A 
ATOM      4  C3  UNL d   1       4.321  -0.011  -3.490  0.00  0.00    -0.075 A 
ATOM      5  S   UNL d   1       6.000  -0.247  -3.804  0.00  0.00     0.015 SA
ATOM      6  C4  UNL d   1       5.851   0.292  -5.414  0.00  0.00     0.022 A 
ATOM      7  C5  UNL d   1       4.559   0.647  -5.722  0.00  0.00     0.026 A 
ATOM      8  C6  UNL d   1       3.656   0.479  -4.618  0.00  0.00    -0.082 A 
ATOM      9  C7  UNL d   1       2.265   0.725  -4.519  0.00  0.00     0.045 A 
ENDROOT
TORSDOF 0
ENDMDL
