MODEL 1
REMARK minimizedAffinity 4.27127457
REMARK minimizedRMSD -1
REMARK  0 active torsions:
REMARK  status: ('A' for Active; 'I' for Inactive)
ROOT
ATOM      1  C   UNL d   1       0.575   1.433  -1.822  0.00  0.00    -0.002 A 
ATOM      2  C1  UNL d   1       0.425   0.536  -0.774  0.00  0.00     0.010 A 
ATOM      3  C2  UNL d   1       0.635  -0.830  -0.973  0.00  0.00     0.041 A 
ATOM      4  C3  UNL d   1       1.005  -1.283  -2.254  0.00  0.00    -0.075 A 
ATOM      5  S   UNL d   1       1.316  -2.911  -2.732  0.00  0.00     0.015 SA
ATOM      6  C4  UNL d   1       1.656  -2.453  -4.338  0.00  0.00     0.022 A 
ATOM      7  C5  UNL d   1       1.539  -1.096  -4.523  0.00  0.00     0.026 A 
ATOM      8  C6  UNL d   1       1.163  -0.399  -3.325  0.00  0.00    -0.082 A 
ATOM      9  C7  UNL d   1       0.941   0.979  -3.092  0.00  0.00     0.045 A 
ENDROOT
TORSDOF 0
ENDMDL
