MODEL 1
REMARK minimizedAffinity 9.83161068
REMARK minimizedRMSD -1
REMARK  0 active torsions:
REMARK  status: ('A' for Active; 'I' for Inactive)
ROOT
ATOM      1  C   UNL d   1       5.995   0.398  -4.294  0.00  0.00    -0.002 A 
ATOM      2  C1  UNL d   1       5.227   0.135  -5.420  0.00  0.00     0.010 A 
ATOM      3  C2  UNL d   1       4.448   1.139  -5.999  0.00  0.00     0.041 A 
ATOM      4  C3  UNL d   1       4.456   2.425  -5.424  0.00  0.00    -0.075 A 
ATOM      5  S   UNL d   1       3.581   3.809  -5.963  0.00  0.00     0.015 SA
ATOM      6  C4  UNL d   1       4.208   4.784  -4.712  0.00  0.00     0.022 A 
ATOM      7  C5  UNL d   1       5.064   4.086  -3.894  0.00  0.00     0.026 A 
ATOM      8  C6  UNL d   1       5.222   2.715  -4.291  0.00  0.00    -0.082 A 
ATOM      9  C7  UNL d   1       6.000   1.675  -3.727  0.00  0.00     0.045 A 
ENDROOT
TORSDOF 0
ENDMDL
