MODEL 1
REMARK minimizedAffinity 0.92739296
REMARK minimizedRMSD -1
REMARK  0 active torsions:
REMARK  status: ('A' for Active; 'I' for Inactive)
ROOT
ATOM      1  C   UNL d   1       6.000   0.930  -5.363  0.00  0.00    -0.002 A 
ATOM      2  C1  UNL d   1       4.857   0.400  -5.946  0.00  0.00     0.010 A 
ATOM      3  C2  UNL d   1       3.677   1.144  -6.000  0.00  0.00     0.041 A 
ATOM      4  C3  UNL d   1       3.664   2.443  -5.455  0.00  0.00    -0.075 A 
ATOM      5  S   UNL d   1       2.334   3.538  -5.409  0.00  0.00     0.015 SA
ATOM      6  C4  UNL d   1       3.251   4.736  -4.616  0.00  0.00     0.022 A 
ATOM      7  C5  UNL d   1       4.542   4.327  -4.384  0.00  0.00     0.026 A 
ATOM      8  C6  UNL d   1       4.803   2.999  -4.864  0.00  0.00    -0.082 A 
ATOM      9  C7  UNL d   1       5.983   2.220  -4.824  0.00  0.00     0.045 A 
ENDROOT
TORSDOF 0
ENDMDL
