MODEL 1
REMARK minimizedAffinity 6.77319384
REMARK minimizedRMSD -1
REMARK  0 active torsions:
REMARK  status: ('A' for Active; 'I' for Inactive)
ROOT
ATOM      1  C   UNL d   1       0.441   0.779  -0.737  0.00  0.00    -0.002 A 
ATOM      2  C1  UNL d   1       0.768   1.495  -1.879  0.00  0.00     0.010 A 
ATOM      3  C2  UNL d   1       1.122   0.833  -3.056  0.00  0.00     0.041 A 
ATOM      4  C3  UNL d   1       1.140  -0.576  -3.066  0.00  0.00    -0.075 A 
ATOM      5  S   UNL d   1       1.541  -1.600  -4.394  0.00  0.00     0.015 SA
ATOM      6  C4  UNL d   1       1.287  -3.014  -3.476  0.00  0.00     0.022 A 
ATOM      7  C5  UNL d   1       0.905  -2.729  -2.186  0.00  0.00     0.026 A 
ATOM      8  C6  UNL d   1       0.813  -1.320  -1.929  0.00  0.00    -0.082 A 
ATOM      9  C7  UNL d   1       0.460  -0.619  -0.751  0.00  0.00     0.045 A 
ENDROOT
TORSDOF 0
ENDMDL
