MODEL 1
REMARK minimizedAffinity 7.19997263
REMARK minimizedRMSD -1
REMARK  0 active torsions:
REMARK  status: ('A' for Active; 'I' for Inactive)
ROOT
ATOM      1  C   UNL d   1      -3.000   5.945   4.136  0.00  0.00    -0.002 A 
ATOM      2  C1  UNL d   1      -3.661   5.990   5.355  0.00  0.00     0.010 A 
ATOM      3  C2  UNL d   1      -4.042   4.812   6.000  0.00  0.00     0.041 A 
ATOM      4  C3  UNL d   1      -3.744   3.576   5.394  0.00  0.00    -0.075 A 
ATOM      5  S   UNL d   1      -4.114   2.005   6.000  0.00  0.00     0.015 SA
ATOM      6  C4  UNL d   1      -3.403   1.237   4.655  0.00  0.00     0.022 A 
ATOM      7  C5  UNL d   1      -2.891   2.142   3.755  0.00  0.00     0.026 A 
ATOM      8  C6  UNL d   1      -3.079   3.505   4.166  0.00  0.00    -0.082 A 
ATOM      9  C7  UNL d   1      -2.706   4.717   3.537  0.00  0.00     0.045 A 
ENDROOT
TORSDOF 0
ENDMDL
