MODEL 1
REMARK minimizedAffinity 3.05076909
REMARK minimizedRMSD -1
REMARK  0 active torsions:
REMARK  status: ('A' for Active; 'I' for Inactive)
ROOT
ATOM      1  C   UNL d   1       0.849  -2.267  -2.042  0.00  0.00    -0.002 A 
ATOM      2  C1  UNL d   1       1.075  -1.943  -3.372  0.00  0.00     0.010 A 
ATOM      3  C2  UNL d   1       1.191  -0.609  -3.769  0.00  0.00     0.041 A 
ATOM      4  C3  UNL d   1       1.078   0.403  -2.796  0.00  0.00    -0.075 A 
ATOM      5  S   UNL d   1       1.188   2.105  -3.049  0.00  0.00     0.015 SA
ATOM      6  C4  UNL d   1       0.939   2.442  -1.397  0.00  0.00     0.022 A 
ATOM      7  C5  UNL d   1       0.774   1.296  -0.656  0.00  0.00     0.026 A 
ATOM      8  C6  UNL d   1       0.852   0.102  -1.450  0.00  0.00    -0.082 A 
ATOM      9  C7  UNL d   1       0.737  -1.260  -1.080  0.00  0.00     0.045 A 
ENDROOT
TORSDOF 0
ENDMDL
