MODEL 1
REMARK minimizedAffinity 0.505043209
REMARK minimizedRMSD -1
REMARK  0 active torsions:
REMARK  status: ('A' for Active; 'I' for Inactive)
ROOT
ATOM      1  C   UNL d   1      -5.217   0.011   4.389  0.00  0.00     0.023 A 
ATOM      2  C1  UNL d   1      -4.893   0.869   3.338  0.00  0.00     0.003 A 
ATOM      3  C2  UNL d   1      -4.535   2.193   3.600  0.00  0.00     0.048 A 
ATOM      4  C3  UNL d   1      -4.502   2.652   4.917  0.00  0.00     0.023 A 
ATOM      5  C4  UNL d   1      -4.824   1.797   5.972  0.00  0.00     0.048 A 
ATOM      6  C5  UNL d   1      -5.182   0.474   5.704  0.00  0.00     0.003 A 
ATOM      7  I   UNL d   1      -3.968   4.622   5.310  0.00  0.00    -0.146 I 
ENDROOT
TORSDOF 0
ENDMDL
