MODEL 1
REMARK minimizedAffinity 4.11001444
REMARK minimizedRMSD -1
REMARK  0 active torsions:
REMARK  status: ('A' for Active; 'I' for Inactive)
ROOT
ATOM      1  C   UNL d   1       2.914   3.797   0.972  0.00  0.00     0.023 A 
ATOM      2  C1  UNL d   1       2.911   2.406   1.086  0.00  0.00     0.003 A 
ATOM      3  C2  UNL d   1       2.340   1.623   0.082  0.00  0.00     0.048 A 
ATOM      4  C3  UNL d   1       1.773   2.235  -1.035  0.00  0.00     0.023 A 
ATOM      5  C4  UNL d   1       1.774   3.626  -1.155  0.00  0.00     0.048 A 
ATOM      6  C5  UNL d   1       2.346   4.406  -0.148  0.00  0.00     0.003 A 
ATOM      7  I   UNL d   1       0.922   1.071  -2.532  0.00  0.00    -0.146 I 
ENDROOT
TORSDOF 0
ENDMDL
