MODEL 1
REMARK minimizedAffinity 1.09372091
REMARK minimizedRMSD -1
REMARK  0 active torsions:
REMARK  status: ('A' for Active; 'I' for Inactive)
ROOT
ATOM      1  C   UNL d   1      -2.159   5.995   5.434  0.00  0.00     0.023 A 
ATOM      2  C1  UNL d   1      -1.968   5.992   4.052  0.00  0.00     0.003 A 
ATOM      3  C2  UNL d   1      -3.069   5.991   3.193  0.00  0.00     0.048 A 
ATOM      4  C3  UNL d   1      -4.359   5.995   3.723  0.00  0.00     0.023 A 
ATOM      5  C4  UNL d   1      -4.555   6.000   5.105  0.00  0.00     0.048 A 
ATOM      6  C5  UNL d   1      -3.451   5.999   5.960  0.00  0.00     0.003 A 
ATOM      7  I   UNL d   1      -5.999   5.995   2.447  0.00  0.00    -0.146 I 
ENDROOT
TORSDOF 0
ENDMDL
