MODEL 1
REMARK minimizedAffinity 5.85176277
REMARK minimizedRMSD -1
REMARK  0 active torsions:
REMARK  status: ('A' for Active; 'I' for Inactive)
ROOT
ATOM      1  C   UNL d   1      -5.454   5.736   2.161  0.00  0.00     0.023 A 
ATOM      2  C1  UNL d   1      -4.080   5.598   1.965  0.00  0.00     0.003 A 
ATOM      3  C2  UNL d   1      -3.209   5.649   3.055  0.00  0.00     0.048 A 
ATOM      4  C3  UNL d   1      -3.719   5.836   4.339  0.00  0.00     0.023 A 
ATOM      5  C4  UNL d   1      -5.093   5.973   4.541  0.00  0.00     0.048 A 
ATOM      6  C5  UNL d   1      -5.960   5.923   3.447  0.00  0.00     0.003 A 
ATOM      7  I   UNL d   1      -2.425   5.911   5.964  0.00  0.00    -0.146 I 
ENDROOT
TORSDOF 0
ENDMDL
