MODEL 1
REMARK minimizedAffinity 6.09081745
REMARK minimizedRMSD -1
REMARK  0 active torsions:
REMARK  status: ('A' for Active; 'I' for Inactive)
ROOT
ATOM      1  C   UNL d   1      -4.758   4.052   1.875  0.00  0.00     0.023 A 
ATOM      2  C1  UNL d   1      -4.351   3.222   2.921  0.00  0.00     0.003 A 
ATOM      3  C2  UNL d   1      -3.862   3.777   4.105  0.00  0.00     0.048 A 
ATOM      4  C3  UNL d   1      -3.783   5.163   4.238  0.00  0.00     0.023 A 
ATOM      5  C4  UNL d   1      -4.189   5.997   3.195  0.00  0.00     0.048 A 
ATOM      6  C5  UNL d   1      -4.677   5.438   2.012  0.00  0.00     0.003 A 
ATOM      7  I   UNL d   1      -3.055   5.992   5.999  0.00  0.00    -0.146 I 
ENDROOT
TORSDOF 0
ENDMDL
