MODEL 1
REMARK minimizedAffinity 4.72349977
REMARK minimizedRMSD -1
REMARK  0 active torsions:
REMARK  status: ('A' for Active; 'I' for Inactive)
ROOT
ATOM      1  C   UNL d   1       6.000   0.733  -5.120  0.00  0.00     0.023 A 
ATOM      2  C1  UNL d   1       5.838   0.789  -3.736  0.00  0.00     0.003 A 
ATOM      3  C2  UNL d   1       4.590   1.096  -3.189  0.00  0.00     0.048 A 
ATOM      4  C3  UNL d   1       3.508   1.344  -4.033  0.00  0.00     0.023 A 
ATOM      5  C4  UNL d   1       3.665   1.288  -5.419  0.00  0.00     0.048 A 
ATOM      6  C5  UNL d   1       4.915   0.983  -5.961  0.00  0.00     0.003 A 
ATOM      7  I   UNL d   1       1.650   1.800  -3.222  0.00  0.00    -0.146 I 
ENDROOT
TORSDOF 0
ENDMDL
