MODEL 1
REMARK minimizedAffinity 13.295661
REMARK minimizedRMSD -1
REMARK  0 active torsions:
REMARK  status: ('A' for Active; 'I' for Inactive)
ROOT
ATOM      1  C   UNL d   1       1.998   1.488  -2.081  0.00  0.00     0.023 A 
ATOM      2  C1  UNL d   1       1.073   1.198  -3.084  0.00  0.00     0.003 A 
ATOM      3  C2  UNL d   1       0.645   2.203  -3.953  0.00  0.00     0.048 A 
ATOM      4  C3  UNL d   1       1.147   3.497  -3.814  0.00  0.00     0.023 A 
ATOM      5  C4  UNL d   1       2.072   3.792  -2.812  0.00  0.00     0.048 A 
ATOM      6  C5  UNL d   1       2.497   2.784  -1.945  0.00  0.00     0.003 A 
ATOM      7  I   UNL d   1       0.511   4.995  -5.107  0.00  0.00    -0.146 I 
ENDROOT
TORSDOF 0
ENDMDL
