MODEL 1
REMARK minimizedAffinity -1.07908213
REMARK minimizedRMSD -1
REMARK  0 active torsions:
REMARK  status: ('A' for Active; 'I' for Inactive)
ROOT
ATOM      1  C   UNL d   1      -4.412   5.947   1.323  0.00  0.00     0.023 A 
ATOM      2  C1  UNL d   1      -5.382   5.982   2.326  0.00  0.00     0.003 A 
ATOM      3  C2  UNL d   1      -4.999   5.996   3.668  0.00  0.00     0.048 A 
ATOM      4  C3  UNL d   1      -3.645   5.977   4.002  0.00  0.00     0.023 A 
ATOM      5  C4  UNL d   1      -2.671   5.943   3.002  0.00  0.00     0.048 A 
ATOM      6  C5  UNL d   1      -3.059   5.928   1.661  0.00  0.00     0.003 A 
ATOM      7  I   UNL d   1      -3.073   5.999   6.000  0.00  0.00    -0.146 I 
ENDROOT
TORSDOF 0
ENDMDL
