MODEL 1
REMARK minimizedAffinity 7.00194693
REMARK minimizedRMSD -1
REMARK  0 active torsions:
REMARK  status: ('A' for Active; 'I' for Inactive)
ROOT
ATOM      1  C   UNL d   1       1.270   0.139  -2.013  0.00  0.00     0.023 A 
ATOM      2  C1  UNL d   1       0.473   0.045  -3.153  0.00  0.00     0.003 A 
ATOM      3  C2  UNL d   1       0.378   1.126  -4.032  0.00  0.00     0.048 A 
ATOM      4  C3  UNL d   1       1.085   2.298  -3.765  0.00  0.00     0.023 A 
ATOM      5  C4  UNL d   1       1.885   2.396  -2.626  0.00  0.00     0.048 A 
ATOM      6  C5  UNL d   1       1.976   1.313  -1.750  0.00  0.00     0.003 A 
ATOM      7  I   UNL d   1       0.946   3.908  -5.072  0.00  0.00    -0.146 I 
ENDROOT
TORSDOF 0
ENDMDL
