MODEL 1
REMARK minimizedAffinity -1.69056463
REMARK minimizedRMSD -1
REMARK  0 active torsions:
REMARK  status: ('A' for Active; 'I' for Inactive)
ROOT
ATOM      1  C   UNL d   1      -4.337   5.785   1.338  0.00  0.00     0.023 A 
ATOM      2  C1  UNL d   1      -5.291   5.690   2.351  0.00  0.00     0.003 A 
ATOM      3  C2  UNL d   1      -4.899   5.748   3.689  0.00  0.00     0.048 A 
ATOM      4  C3  UNL d   1      -3.550   5.902   4.008  0.00  0.00     0.023 A 
ATOM      5  C4  UNL d   1      -2.592   5.999   2.998  0.00  0.00     0.048 A 
ATOM      6  C5  UNL d   1      -2.989   5.939   1.661  0.00  0.00     0.003 A 
ATOM      7  I   UNL d   1      -2.963   5.989   6.000  0.00  0.00    -0.146 I 
ENDROOT
TORSDOF 0
ENDMDL
