MODEL 1
REMARK minimizedAffinity 6.19693422
REMARK minimizedRMSD -1
REMARK  0 active torsions:
REMARK  status: ('A' for Active; 'I' for Inactive)
ROOT
ATOM      1  C   UNL d   1      -1.804   5.997   5.011  0.00  0.00     0.023 A 
ATOM      2  C1  UNL d   1      -1.616   5.999   3.629  0.00  0.00     0.003 A 
ATOM      3  C2  UNL d   1      -2.719   5.999   2.773  0.00  0.00     0.048 A 
ATOM      4  C3  UNL d   1      -4.008   5.999   3.305  0.00  0.00     0.023 A 
ATOM      5  C4  UNL d   1      -4.201   5.997   4.688  0.00  0.00     0.048 A 
ATOM      6  C5  UNL d   1      -3.095   5.996   5.540  0.00  0.00     0.003 A 
ATOM      7  I   UNL d   1      -5.651   5.999   2.033  0.00  0.00    -0.146 I 
ENDROOT
TORSDOF 0
ENDMDL
