MODEL 1
REMARK minimizedAffinity -1.17000353
REMARK minimizedRMSD -1
REMARK  0 active torsions:
REMARK  status: ('A' for Active; 'I' for Inactive)
ROOT
ATOM      1  C   UNL d   1      -2.425   5.981   5.996  0.00  0.00     0.023 A 
ATOM      2  C1  UNL d   1      -3.820   5.986   5.991  0.00  0.00     0.003 A 
ATOM      3  C2  UNL d   1      -4.515   5.991   4.780  0.00  0.00     0.048 A 
ATOM      4  C3  UNL d   1      -3.809   5.991   3.577  0.00  0.00     0.023 A 
ATOM      5  C4  UNL d   1      -2.413   5.985   3.577  0.00  0.00     0.048 A 
ATOM      6  C5  UNL d   1      -1.722   5.981   4.791  0.00  0.00     0.003 A 
ATOM      7  I   UNL d   1      -4.841   5.999   1.773  0.00  0.00    -0.146 I 
ENDROOT
TORSDOF 0
ENDMDL
