MODEL 1
REMARK minimizedAffinity 4.88872623
REMARK minimizedRMSD -1
REMARK  0 active torsions:
REMARK  status: ('A' for Active; 'I' for Inactive)
ROOT
ATOM      1  C   UNL d   1      -4.806   5.781   1.652  0.00  0.00     0.023 A 
ATOM      2  C1  UNL d   1      -3.423   5.942   1.728  0.00  0.00     0.003 A 
ATOM      3  C2  UNL d   1      -2.793   6.000   2.972  0.00  0.00     0.048 A 
ATOM      4  C3  UNL d   1      -3.552   5.894   4.137  0.00  0.00     0.023 A 
ATOM      5  C4  UNL d   1      -4.936   5.732   4.066  0.00  0.00     0.048 A 
ATOM      6  C5  UNL d   1      -5.562   5.676   2.819  0.00  0.00     0.003 A 
ATOM      7  I   UNL d   1      -2.616   5.979   5.991  0.00  0.00    -0.146 I 
ENDROOT
TORSDOF 0
ENDMDL
