MODEL 1
REMARK minimizedAffinity -4.88792181
REMARK minimizedRMSD -1
REMARK  0 active torsions:
REMARK  status: ('A' for Active; 'I' for Inactive)
ROOT
ATOM      1  C   UNL d   1      -1.131   0.466   0.393  0.00  0.00     0.077 C 
ATOM      2  C1  UNL d   1       0.026   0.607  -0.551  0.00  0.00    -0.074 A 
ATOM      3  C2  UNL d   1      -0.063   1.428  -1.680  0.00  0.00    -0.005 A 
ATOM      4  C3  UNL d   1       1.025   1.556  -2.543  0.00  0.00     0.006 A 
ATOM      5  C4  UNL d   1       2.211   0.866  -2.288  0.00  0.00    -0.005 A 
ATOM      6  C5  UNL d   1       2.318   0.040  -1.164  0.00  0.00    -0.074 A 
ATOM      7  C6  UNL d   1       3.588  -0.701  -0.869  0.00  0.00     0.077 C 
ATOM      8  C7  UNL d   1       1.223  -0.078  -0.297  0.00  0.00    -0.001 A 
ENDROOT
TORSDOF 0
ENDMDL
