MODEL 1
REMARK minimizedAffinity -5.77395535
REMARK minimizedRMSD -1
REMARK  0 active torsions:
REMARK  status: ('A' for Active; 'I' for Inactive)
ROOT
ATOM      1  C   UNL d   1      -1.929  -0.253   1.127  0.00  0.00     0.077 C 
ATOM      2  C1  UNL d   1      -0.943   0.330   0.158  0.00  0.00    -0.074 A 
ATOM      3  C2  UNL d   1      -1.303   1.385  -0.686  0.00  0.00    -0.005 A 
ATOM      4  C3  UNL d   1      -0.373   1.923  -1.575  0.00  0.00     0.006 A 
ATOM      5  C4  UNL d   1       0.924   1.411  -1.630  0.00  0.00    -0.005 A 
ATOM      6  C5  UNL d   1       1.302   0.356  -0.793  0.00  0.00    -0.074 A 
ATOM      7  C6  UNL d   1       2.695  -0.199  -0.832  0.00  0.00     0.077 C 
ATOM      8  C7  UNL d   1       0.364  -0.174   0.103  0.00  0.00    -0.001 A 
ENDROOT
TORSDOF 0
ENDMDL
