MODEL 1
REMARK minimizedAffinity -1.27365994
REMARK minimizedRMSD -1
REMARK  0 active torsions:
REMARK  status: ('A' for Active; 'I' for Inactive)
ROOT
ATOM      1  C   UNL d   1       2.918  -1.071  -0.754  0.00  0.00     0.077 C 
ATOM      2  C1  UNL d   1       1.470  -0.984  -0.375  0.00  0.00    -0.074 A 
ATOM      3  C2  UNL d   1       0.573  -1.999  -0.725  0.00  0.00    -0.005 A 
ATOM      4  C3  UNL d   1      -0.769  -1.909  -0.357  0.00  0.00     0.006 A 
ATOM      5  C4  UNL d   1      -1.228  -0.805   0.362  0.00  0.00    -0.005 A 
ATOM      6  C5  UNL d   1      -0.347   0.219   0.722  0.00  0.00    -0.074 A 
ATOM      7  C6  UNL d   1      -0.821   1.408   1.503  0.00  0.00     0.077 C 
ATOM      8  C7  UNL d   1       1.002   0.118   0.355  0.00  0.00    -0.001 A 
ENDROOT
TORSDOF 0
ENDMDL
