MODEL 1
REMARK minimizedAffinity -5.75524807
REMARK minimizedRMSD -1
REMARK  0 active torsions:
REMARK  status: ('A' for Active; 'I' for Inactive)
ROOT
ATOM      1  C   UNL d   1      -1.040   1.227   1.153  0.00  0.00     0.077 C 
ATOM      2  C1  UNL d   1      -0.269   0.191   0.391  0.00  0.00    -0.074 A 
ATOM      3  C2  UNL d   1      -0.843  -1.044   0.073  0.00  0.00    -0.005 A 
ATOM      4  C3  UNL d   1      -0.117  -1.993  -0.645  0.00  0.00     0.006 A 
ATOM      5  C4  UNL d   1       1.189  -1.718  -1.053  0.00  0.00    -0.005 A 
ATOM      6  C5  UNL d   1       1.780  -0.488  -0.745  0.00  0.00    -0.074 A 
ATOM      7  C6  UNL d   1       3.178  -0.172  -1.184  0.00  0.00     0.077 C 
ATOM      8  C7  UNL d   1       1.041   0.463  -0.029  0.00  0.00    -0.001 A 
ENDROOT
TORSDOF 0
ENDMDL
