MODEL 1
REMARK minimizedAffinity -4.4783287
REMARK minimizedRMSD -1
REMARK  0 active torsions:
REMARK  status: ('A' for Active; 'I' for Inactive)
ROOT
ATOM      1  C   UNL d   1       1.375  -2.235  -2.682  0.00  0.00     0.077 C 
ATOM      2  C1  UNL d   1       1.466  -1.293  -1.518  0.00  0.00    -0.074 A 
ATOM      3  C2  UNL d   1       2.666  -0.646  -1.209  0.00  0.00    -0.005 A 
ATOM      4  C3  UNL d   1       2.733   0.234  -0.129  0.00  0.00     0.006 A 
ATOM      5  C4  UNL d   1       1.602   0.476   0.651  0.00  0.00    -0.005 A 
ATOM      6  C5  UNL d   1       0.392  -0.162   0.357  0.00  0.00    -0.074 A 
ATOM      7  C6  UNL d   1      -0.835   0.094   1.180  0.00  0.00     0.077 C 
ATOM      8  C7  UNL d   1       0.332  -1.040  -0.734  0.00  0.00    -0.001 A 
ENDROOT
TORSDOF 0
ENDMDL
