MODEL 1
REMARK minimizedAffinity -4.27225828
REMARK minimizedRMSD -1
REMARK  0 active torsions:
REMARK  status: ('A' for Active; 'I' for Inactive)
ROOT
ATOM      1  C   UNL d   1       3.500  -0.134  -0.493  0.00  0.00     0.077 C 
ATOM      2  C1  UNL d   1       2.077  -0.608  -0.468  0.00  0.00    -0.074 A 
ATOM      3  C2  UNL d   1       1.738  -1.888  -0.917  0.00  0.00    -0.005 A 
ATOM      4  C3  UNL d   1       0.412  -2.319  -0.879  0.00  0.00     0.006 A 
ATOM      5  C4  UNL d   1      -0.587  -1.474  -0.393  0.00  0.00    -0.005 A 
ATOM      6  C5  UNL d   1      -0.267  -0.191   0.060  0.00  0.00    -0.074 A 
ATOM      7  C6  UNL d   1      -1.327   0.726   0.595  0.00  0.00     0.077 C 
ATOM      8  C7  UNL d   1       1.069   0.232   0.026  0.00  0.00    -0.001 A 
ENDROOT
TORSDOF 0
ENDMDL
