MODEL 1
REMARK minimizedAffinity -1.24702489
REMARK minimizedRMSD -1
REMARK  0 active torsions:
REMARK  status: ('A' for Active; 'I' for Inactive)
ROOT
ATOM      1  C   UNL d   1      -1.531   0.006   0.907  0.00  0.00     0.077 C 
ATOM      2  C1  UNL d   1      -0.178  -0.055   0.263  0.00  0.00    -0.074 A 
ATOM      3  C2  UNL d   1       0.829   0.849   0.617  0.00  0.00    -0.005 A 
ATOM      4  C3  UNL d   1       2.085   0.774   0.016  0.00  0.00     0.006 A 
ATOM      5  C4  UNL d   1       2.347  -0.205  -0.944  0.00  0.00    -0.005 A 
ATOM      6  C5  UNL d   1       1.353  -1.118  -1.310  0.00  0.00    -0.074 A 
ATOM      7  C6  UNL d   1       1.622  -2.182  -2.333  0.00  0.00     0.077 C 
ATOM      8  C7  UNL d   1       0.096  -1.040  -0.696  0.00  0.00    -0.001 A 
ENDROOT
TORSDOF 0
ENDMDL
