MODEL 1
REMARK minimizedAffinity -3.01275587
REMARK minimizedRMSD -1
REMARK  0 active torsions:
REMARK  status: ('A' for Active; 'I' for Inactive)
ROOT
ATOM      1  C   UNL d   1      -1.380   0.886   3.036  0.00  0.00     0.077 C 
ATOM      2  C1  UNL d   1      -0.986   0.593   1.619  0.00  0.00    -0.074 A 
ATOM      3  C2  UNL d   1      -1.924   0.655   0.584  0.00  0.00    -0.005 A 
ATOM      4  C3  UNL d   1      -1.541   0.389  -0.730  0.00  0.00     0.006 A 
ATOM      5  C4  UNL d   1      -0.216   0.060  -1.023  0.00  0.00    -0.005 A 
ATOM      6  C5  UNL d   1       0.737  -0.005  -0.001  0.00  0.00    -0.074 A 
ATOM      7  C6  UNL d   1       2.166  -0.347  -0.300  0.00  0.00     0.077 C 
ATOM      8  C7  UNL d   1       0.345   0.270   1.316  0.00  0.00    -0.001 A 
ENDROOT
TORSDOF 0
ENDMDL
