MODEL 1
REMARK minimizedAffinity -5.13658619
REMARK minimizedRMSD -1
REMARK  0 active torsions:
REMARK  status: ('A' for Active; 'I' for Inactive)
ROOT
ATOM      1  C   UNL d   1       2.775  -0.811  -1.119  0.00  0.00     0.077 C 
ATOM      2  C1  UNL d   1       1.546   0.027  -0.927  0.00  0.00    -0.074 A 
ATOM      3  C2  UNL d   1       1.317   1.159  -1.716  0.00  0.00    -0.005 A 
ATOM      4  C3  UNL d   1       0.165   1.923  -1.531  0.00  0.00     0.006 A 
ATOM      5  C4  UNL d   1      -0.768   1.564  -0.558  0.00  0.00    -0.005 A 
ATOM      6  C5  UNL d   1      -0.556   0.435   0.240  0.00  0.00    -0.074 A 
ATOM      7  C6  UNL d   1      -1.554   0.030   1.284  0.00  0.00     0.077 C 
ATOM      8  C7  UNL d   1       0.601  -0.332   0.044  0.00  0.00    -0.001 A 
ENDROOT
TORSDOF 0
ENDMDL
