MODEL 1
REMARK minimizedAffinity 0.911027372
REMARK minimizedRMSD -1
REMARK  0 active torsions:
REMARK  status: ('A' for Active; 'I' for Inactive)
ROOT
ATOM      1  C   UNL d   1       2.206   1.118  -0.744  0.00  0.00     0.077 C 
ATOM      2  C1  UNL d   1       0.894   0.529  -0.319  0.00  0.00    -0.074 A 
ATOM      3  C2  UNL d   1       0.328  -0.542  -1.017  0.00  0.00    -0.005 A 
ATOM      4  C3  UNL d   1      -0.888  -1.087  -0.604  0.00  0.00     0.006 A 
ATOM      5  C4  UNL d   1      -1.549  -0.567   0.509  0.00  0.00    -0.005 A 
ATOM      6  C5  UNL d   1      -0.997   0.503   1.221  0.00  0.00    -0.074 A 
ATOM      7  C6  UNL d   1      -1.689   1.067   2.426  0.00  0.00     0.077 C 
ATOM      8  C7  UNL d   1       0.229   1.040   0.804  0.00  0.00    -0.001 A 
ENDROOT
TORSDOF 0
ENDMDL
