MODEL 1
REMARK minimizedAffinity -3.8339448
REMARK minimizedRMSD -1
REMARK  0 active torsions:
REMARK  status: ('A' for Active; 'I' for Inactive)
ROOT
ATOM      1  C   UNL d   1       1.199  -2.925  -2.526  0.00  0.00     0.077 C 
ATOM      2  C1  UNL d   1       1.154  -1.728  -1.623  0.00  0.00    -0.074 A 
ATOM      3  C2  UNL d   1       2.144  -0.742  -1.687  0.00  0.00    -0.005 A 
ATOM      4  C3  UNL d   1       2.084   0.370  -0.848  0.00  0.00     0.006 A 
ATOM      5  C4  UNL d   1       1.035   0.507   0.062  0.00  0.00    -0.005 A 
ATOM      6  C5  UNL d   1       0.036  -0.468   0.140  0.00  0.00    -0.074 A 
ATOM      7  C6  UNL d   1      -1.103  -0.331   1.106  0.00  0.00     0.077 C 
ATOM      8  C7  UNL d   1       0.100  -1.579  -0.712  0.00  0.00    -0.001 A 
ENDROOT
TORSDOF 0
ENDMDL
