MODEL 1
REMARK minimizedAffinity -4.45551825
REMARK minimizedRMSD -1
REMARK  0 active torsions:
REMARK  status: ('A' for Active; 'I' for Inactive)
ROOT
ATOM      1  C   UNL d   1       3.407  -0.415  -2.038  0.00  0.00     0.077 C 
ATOM      2  C1  UNL d   1       2.084  -0.136  -1.389  0.00  0.00    -0.074 A 
ATOM      3  C2  UNL d   1       1.629   1.175  -1.219  0.00  0.00    -0.005 A 
ATOM      4  C3  UNL d   1       0.392   1.419  -0.622  0.00  0.00     0.006 A 
ATOM      5  C4  UNL d   1      -0.401   0.355  -0.190  0.00  0.00    -0.005 A 
ATOM      6  C5  UNL d   1       0.037  -0.963  -0.352  0.00  0.00    -0.074 A 
ATOM      7  C6  UNL d   1      -0.807  -2.118   0.099  0.00  0.00     0.077 C 
ATOM      8  C7  UNL d   1       1.278  -1.200  -0.959  0.00  0.00    -0.001 A 
ENDROOT
TORSDOF 0
ENDMDL
