MODEL 1
REMARK minimizedAffinity -4.17174339
REMARK minimizedRMSD -1
REMARK  0 active torsions:
REMARK  status: ('A' for Active; 'I' for Inactive)
ROOT
ATOM      1  C   UNL d   1      -1.166   1.807   2.676  0.00  0.00     0.077 C 
ATOM      2  C1  UNL d   1      -0.830   0.893   1.536  0.00  0.00    -0.074 A 
ATOM      3  C2  UNL d   1      -1.837   0.327   0.747  0.00  0.00    -0.005 A 
ATOM      4  C3  UNL d   1      -1.509  -0.513  -0.317  0.00  0.00     0.006 A 
ATOM      5  C4  UNL d   1      -0.173  -0.797  -0.602  0.00  0.00    -0.005 A 
ATOM      6  C5  UNL d   1       0.848  -0.240   0.175  0.00  0.00    -0.074 A 
ATOM      7  C6  UNL d   1       2.290  -0.526  -0.123  0.00  0.00     0.077 C 
ATOM      8  C7  UNL d   1       0.510   0.609   1.238  0.00  0.00    -0.001 A 
ENDROOT
TORSDOF 0
ENDMDL
