MODEL 1
REMARK minimizedAffinity -4.49386549
REMARK minimizedRMSD -1
REMARK  0 active torsions:
REMARK  status: ('A' for Active; 'I' for Inactive)
ROOT
ATOM      1  C   UNL d   1      -0.946  -0.057   1.138  0.00  0.00     0.077 C 
ATOM      2  C1  UNL d   1       0.158  -0.116   0.125  0.00  0.00    -0.074 A 
ATOM      3  C2  UNL d   1       0.788  -1.326  -0.182  0.00  0.00    -0.005 A 
ATOM      4  C3  UNL d   1       1.807  -1.368  -1.133  0.00  0.00     0.006 A 
ATOM      5  C4  UNL d   1       2.206  -0.201  -1.786  0.00  0.00    -0.005 A 
ATOM      6  C5  UNL d   1       1.587   1.018  -1.494  0.00  0.00    -0.074 A 
ATOM      7  C6  UNL d   1       1.997   2.280  -2.194  0.00  0.00     0.077 C 
ATOM      8  C7  UNL d   1       0.559   1.050  -0.541  0.00  0.00    -0.001 A 
ENDROOT
TORSDOF 0
ENDMDL
