MODEL 1
REMARK minimizedAffinity -3.55358458
REMARK minimizedRMSD -1
REMARK  0 active torsions:
REMARK  status: ('A' for Active; 'I' for Inactive)
ROOT
ATOM      1  C   UNL d   1       3.460  -0.145  -2.855  0.00  0.00     0.077 C 
ATOM      2  C1  UNL d   1       2.352   0.715  -2.324  0.00  0.00    -0.074 A 
ATOM      3  C2  UNL d   1       1.904   1.833  -3.035  0.00  0.00    -0.005 A 
ATOM      4  C3  UNL d   1       0.866   2.617  -2.533  0.00  0.00     0.006 A 
ATOM      5  C4  UNL d   1       0.265   2.292  -1.316  0.00  0.00    -0.005 A 
ATOM      6  C5  UNL d   1       0.699   1.177  -0.591  0.00  0.00    -0.074 A 
ATOM      7  C6  UNL d   1       0.057   0.808   0.714  0.00  0.00     0.077 C 
ATOM      8  C7  UNL d   1       1.738   0.390  -1.106  0.00  0.00    -0.001 A 
ENDROOT
TORSDOF 0
ENDMDL
