MODEL 1
REMARK minimizedAffinity 0.27666375
REMARK minimizedRMSD -1
REMARK  0 active torsions:
REMARK  status: ('A' for Active; 'I' for Inactive)
ROOT
ATOM      1  C   UNL d   1       3.153   0.034  -0.569  0.00  0.00     0.077 C 
ATOM      2  C1  UNL d   1       1.691   0.350  -0.671  0.00  0.00    -0.074 A 
ATOM      3  C2  UNL d   1       1.254   1.573  -1.190  0.00  0.00    -0.005 A 
ATOM      4  C3  UNL d   1      -0.110   1.849  -1.287  0.00  0.00     0.006 A 
ATOM      5  C4  UNL d   1      -1.049   0.906  -0.867  0.00  0.00    -0.005 A 
ATOM      6  C5  UNL d   1      -0.631  -0.322  -0.345  0.00  0.00    -0.074 A 
ATOM      7  C6  UNL d   1      -1.628  -1.350   0.103  0.00  0.00     0.077 C 
ATOM      8  C7  UNL d   1       0.741  -0.595  -0.257  0.00  0.00    -0.001 A 
ENDROOT
TORSDOF 0
ENDMDL
