MODEL 1
REMARK minimizedAffinity -4.67371607
REMARK minimizedRMSD -1
REMARK  0 active torsions:
REMARK  status: ('A' for Active; 'I' for Inactive)
ROOT
ATOM      1  C   UNL d   1       3.951  -0.399  -1.611  0.00  0.00     0.077 C 
ATOM      2  C1  UNL d   1       2.568   0.157  -1.449  0.00  0.00    -0.074 A 
ATOM      3  C2  UNL d   1       2.274   1.473  -1.822  0.00  0.00    -0.005 A 
ATOM      4  C3  UNL d   1       0.980   1.973  -1.675  0.00  0.00     0.006 A 
ATOM      5  C4  UNL d   1      -0.031   1.165  -1.153  0.00  0.00    -0.005 A 
ATOM      6  C5  UNL d   1       0.244  -0.153  -0.775  0.00  0.00    -0.074 A 
ATOM      7  C6  UNL d   1      -0.833  -1.038  -0.222  0.00  0.00     0.077 C 
ATOM      8  C7  UNL d   1       1.545  -0.651  -0.933  0.00  0.00    -0.001 A 
ENDROOT
TORSDOF 0
ENDMDL
