MODEL 1
REMARK minimizedAffinity -1.97938645
REMARK minimizedRMSD -1
REMARK  0 active torsions:
REMARK  status: ('A' for Active; 'I' for Inactive)
ROOT
ATOM      1  C   UNL d   1       1.254  -0.322  -1.466  0.00  0.00    -0.002 A 
ATOM      2  C1  UNL d   1       1.348  -0.304  -0.081  0.00  0.00     0.010 A 
ATOM      3  C2  UNL d   1       1.460   0.905   0.608  0.00  0.00     0.041 A 
ATOM      4  C3  UNL d   1       1.473   2.108  -0.125  0.00  0.00    -0.075 A 
ATOM      5  S   UNL d   1       1.601   3.708   0.506  0.00  0.00     0.015 SA
ATOM      6  C4  UNL d   1       1.533   4.406  -1.048  0.00  0.00     0.022 A 
ATOM      7  C5  UNL d   1       1.416   3.456  -2.035  0.00  0.00     0.026 A 
ATOM      8  C6  UNL d   1       1.379   2.116  -1.519  0.00  0.00    -0.082 A 
ATOM      9  C7  UNL d   1       1.268   0.874  -2.189  0.00  0.00     0.045 A 
ENDROOT
TORSDOF 0
ENDMDL
