MODEL 1
REMARK minimizedAffinity -2.45799041
REMARK minimizedRMSD -1
REMARK  0 active torsions:
REMARK  status: ('A' for Active; 'I' for Inactive)
ROOT
ATOM      1  C   UNL d   1       0.935   1.965   0.154  0.00  0.00    -0.002 A 
ATOM      2  C1  UNL d   1       0.878   2.258  -1.202  0.00  0.00     0.010 A 
ATOM      3  C2  UNL d   1       1.002   1.243  -2.153  0.00  0.00     0.041 A 
ATOM      4  C3  UNL d   1       1.184  -0.083  -1.716  0.00  0.00    -0.075 A 
ATOM      5  S   UNL d   1       1.359  -1.488  -2.700  0.00  0.00     0.015 SA
ATOM      6  C4  UNL d   1       1.513  -2.510  -1.345  0.00  0.00     0.022 A 
ATOM      7  C5  UNL d   1       1.436  -1.813  -0.162  0.00  0.00     0.026 A 
ATOM      8  C6  UNL d   1       1.244  -0.403  -0.356  0.00  0.00    -0.082 A 
ATOM      9  C7  UNL d   1       1.116   0.648   0.584  0.00  0.00     0.045 A 
ENDROOT
TORSDOF 0
ENDMDL
