MODEL 1
REMARK minimizedAffinity 9.44332981
REMARK minimizedRMSD -1
REMARK  0 active torsions:
REMARK  status: ('A' for Active; 'I' for Inactive)
ROOT
ATOM      1  C   UNL d   1       1.145  -0.611   0.474  0.00  0.00    -0.002 A 
ATOM      2  C1  UNL d   1       1.491   0.368   1.395  0.00  0.00     0.010 A 
ATOM      3  C2  UNL d   1       1.634   1.699   0.998  0.00  0.00     0.041 A 
ATOM      4  C3  UNL d   1       1.419   2.033  -0.354  0.00  0.00    -0.075 A 
ATOM      5  S   UNL d   1       1.537   3.598  -1.069  0.00  0.00     0.015 SA
ATOM      6  C4  UNL d   1       1.130   3.004  -2.614  0.00  0.00     0.022 A 
ATOM      7  C5  UNL d   1       0.906   1.648  -2.603  0.00  0.00     0.026 A 
ATOM      8  C6  UNL d   1       1.069   1.066  -1.300  0.00  0.00    -0.082 A 
ATOM      9  C7  UNL d   1       0.933  -0.275  -0.866  0.00  0.00     0.045 A 
ENDROOT
TORSDOF 0
ENDMDL
