MODEL 1
REMARK minimizedAffinity 2.10280538
REMARK minimizedRMSD -1
REMARK  0 active torsions:
REMARK  status: ('A' for Active; 'I' for Inactive)
ROOT
ATOM      1  C   UNL d   1       1.723  -0.320  -1.030  0.00  0.00    -0.002 A 
ATOM      2  C1  UNL d   1       1.561  -0.286   0.348  0.00  0.00     0.010 A 
ATOM      3  C2  UNL d   1       1.314   0.920   1.005  0.00  0.00     0.041 A 
ATOM      4  C3  UNL d   1       1.231   2.105   0.247  0.00  0.00    -0.075 A 
ATOM      5  S   UNL d   1       0.936   3.698   0.837  0.00  0.00     0.015 SA
ATOM      6  C4  UNL d   1       1.017   4.372  -0.727  0.00  0.00     0.022 A 
ATOM      7  C5  UNL d   1       1.263   3.419  -1.687  0.00  0.00     0.026 A 
ATOM      8  C6  UNL d   1       1.390   2.097  -1.142  0.00  0.00    -0.082 A 
ATOM      9  C7  UNL d   1       1.640   0.857  -1.778  0.00  0.00     0.045 A 
ENDROOT
TORSDOF 0
ENDMDL
