MODEL 1
REMARK minimizedAffinity 6.14951611
REMARK minimizedRMSD -1
REMARK  0 active torsions:
REMARK  status: ('A' for Active; 'I' for Inactive)
ROOT
ATOM      1  C   UNL d   1       0.930   0.565  -1.086  0.00  0.00    -0.002 A 
ATOM      2  C1  UNL d   1       0.837   0.815   0.276  0.00  0.00     0.010 A 
ATOM      3  C2  UNL d   1       1.043   2.101   0.778  0.00  0.00     0.041 A 
ATOM      4  C3  UNL d   1       1.344   3.143  -0.120  0.00  0.00    -0.075 A 
ATOM      5  S   UNL d   1       1.634   4.798   0.267  0.00  0.00     0.015 SA
ATOM      6  C4  UNL d   1       1.888   5.214  -1.366  0.00  0.00     0.022 A 
ATOM      7  C5  UNL d   1       1.758   4.128  -2.200  0.00  0.00     0.026 A 
ATOM      8  C6  UNL d   1       1.442   2.917  -1.496  0.00  0.00    -0.082 A 
ATOM      9  C7  UNL d   1       1.230   1.602  -1.974  0.00  0.00     0.045 A 
ENDROOT
TORSDOF 0
ENDMDL
