MODEL 1
REMARK minimizedAffinity 0.814985752
REMARK minimizedRMSD -1
REMARK  0 active torsions:
REMARK  status: ('A' for Active; 'I' for Inactive)
ROOT
ATOM      1  C   UNL d   1       1.217   3.702   0.117  0.00  0.00    -0.002 A 
ATOM      2  C1  UNL d   1       0.957   3.035   1.306  0.00  0.00     0.010 A 
ATOM      3  C2  UNL d   1       0.959   1.639   1.352  0.00  0.00     0.041 A 
ATOM      4  C3  UNL d   1       1.231   0.919   0.172  0.00  0.00    -0.075 A 
ATOM      5  S   UNL d   1       1.288  -0.795  -0.010  0.00  0.00     0.015 SA
ATOM      6  C4  UNL d   1       1.661  -0.681  -1.669  0.00  0.00     0.022 A 
ATOM      7  C5  UNL d   1       1.744   0.625  -2.091  0.00  0.00     0.026 A 
ATOM      8  C6  UNL d   1       1.498   1.569  -1.036  0.00  0.00    -0.082 A 
ATOM      9  C7  UNL d   1       1.488   2.984  -1.051  0.00  0.00     0.045 A 
ENDROOT
TORSDOF 0
ENDMDL
