MODEL 1
REMARK minimizedAffinity 6.18435526
REMARK minimizedRMSD -1
REMARK  0 active torsions:
REMARK  status: ('A' for Active; 'I' for Inactive)
ROOT
ATOM      1  C   UNL d   1       0.039  -3.162  -1.599  0.00  0.00    -0.002 A 
ATOM      2  C1  UNL d   1       0.865  -3.435  -0.518  0.00  0.00     0.010 A 
ATOM      3  C2  UNL d   1       1.656  -2.431   0.043  0.00  0.00     0.041 A 
ATOM      4  C3  UNL d   1       1.602  -1.134  -0.504  0.00  0.00    -0.075 A 
ATOM      5  S   UNL d   1       2.481   0.253   0.019  0.00  0.00     0.015 SA
ATOM      6  C4  UNL d   1       1.780   1.242  -1.179  0.00  0.00     0.022 A 
ATOM      7  C5  UNL d   1       0.895   0.547  -1.968  0.00  0.00     0.026 A 
ATOM      8  C6  UNL d   1       0.777  -0.834  -1.592  0.00  0.00    -0.082 A 
ATOM      9  C7  UNL d   1      -0.012  -1.874  -2.140  0.00  0.00     0.045 A 
ENDROOT
TORSDOF 0
ENDMDL
