MODEL 1
REMARK minimizedAffinity -1.26866484
REMARK minimizedRMSD -1
REMARK  0 active torsions:
REMARK  status: ('A' for Active; 'I' for Inactive)
ROOT
ATOM      1  C   UNL d   1       1.187  -0.462  -1.369  0.00  0.00    -0.002 A 
ATOM      2  C1  UNL d   1       1.048  -0.249  -0.005  0.00  0.00     0.010 A 
ATOM      3  C2  UNL d   1       1.129   1.041   0.524  0.00  0.00     0.041 A 
ATOM      4  C3  UNL d   1       1.352   2.123  -0.350  0.00  0.00    -0.075 A 
ATOM      5  S   UNL d   1       1.487   3.789   0.073  0.00  0.00     0.015 SA
ATOM      6  C4  UNL d   1       1.731   4.257  -1.548  0.00  0.00     0.022 A 
ATOM      7  C5  UNL d   1       1.714   3.181  -2.403  0.00  0.00     0.026 A 
ATOM      8  C6  UNL d   1       1.495   1.934  -1.727  0.00  0.00    -0.082 A 
ATOM      9  C7  UNL d   1       1.409   0.614  -2.233  0.00  0.00     0.045 A 
ENDROOT
TORSDOF 0
ENDMDL
