MODEL 1
REMARK minimizedAffinity 2.04166722
REMARK minimizedRMSD -1
REMARK  0 active torsions:
REMARK  status: ('A' for Active; 'I' for Inactive)
ROOT
ATOM      1  C   UNL d   1       0.626   0.618  -1.827  0.00  0.00    -0.002 A 
ATOM      2  C1  UNL d   1       0.722   0.435  -0.455  0.00  0.00     0.010 A 
ATOM      3  C2  UNL d   1       1.094   1.491   0.379  0.00  0.00     0.041 A 
ATOM      4  C3  UNL d   1       1.370   2.748  -0.195  0.00  0.00    -0.075 A 
ATOM      5  S   UNL d   1       1.842   4.186   0.629  0.00  0.00     0.015 SA
ATOM      6  C4  UNL d   1       1.927   5.079  -0.820  0.00  0.00     0.022 A 
ATOM      7  C5  UNL d   1       1.606   4.313  -1.916  0.00  0.00     0.026 A 
ATOM      8  C6  UNL d   1       1.279   2.958  -1.574  0.00  0.00    -0.082 A 
ATOM      9  C7  UNL d   1       0.900   1.866  -2.393  0.00  0.00     0.045 A 
ENDROOT
TORSDOF 0
ENDMDL
