MODEL 1
REMARK minimizedAffinity 4.59980345
REMARK minimizedRMSD -1
REMARK  0 active torsions:
REMARK  status: ('A' for Active; 'I' for Inactive)
ROOT
ATOM      1  C   UNL d   1       1.733   3.833   0.775  0.00  0.00    -0.002 A 
ATOM      2  C1  UNL d   1       1.761   4.697  -0.310  0.00  0.00     0.010 A 
ATOM      3  C2  UNL d   1       1.597   4.213  -1.609  0.00  0.00     0.041 A 
ATOM      4  C3  UNL d   1       1.400   2.831  -1.801  0.00  0.00    -0.075 A 
ATOM      5  S   UNL d   1       1.176   2.011  -3.301  0.00  0.00     0.015 SA
ATOM      6  C4  UNL d   1       1.036   0.494  -2.536  0.00  0.00     0.022 A 
ATOM      7  C5  UNL d   1       1.156   0.592  -1.170  0.00  0.00     0.026 A 
ATOM      8  C6  UNL d   1       1.368   1.940  -0.724  0.00  0.00    -0.082 A 
ATOM      9  C7  UNL d   1       1.538   2.463   0.581  0.00  0.00     0.045 A 
ENDROOT
TORSDOF 0
ENDMDL
