MODEL 1
REMARK minimizedAffinity -3.05636477
REMARK minimizedRMSD -1
REMARK  0 active torsions:
REMARK  status: ('A' for Active; 'I' for Inactive)
ROOT
ATOM      1  C   UNL d   1       1.301  -0.454  -0.712  0.00  0.00    -0.002 A 
ATOM      2  C1  UNL d   1       1.426   0.255  -1.899  0.00  0.00     0.010 A 
ATOM      3  C2  UNL d   1       1.399   1.651  -1.899  0.00  0.00     0.041 A 
ATOM      4  C3  UNL d   1       1.245   2.330  -0.674  0.00  0.00    -0.075 A 
ATOM      5  S   UNL d   1       1.186   4.035  -0.432  0.00  0.00     0.015 SA
ATOM      6  C4  UNL d   1       0.994   3.864   1.253  0.00  0.00     0.022 A 
ATOM      7  C5  UNL d   1       0.973   2.545   1.638  0.00  0.00     0.026 A 
ATOM      8  C6  UNL d   1       1.118   1.638   0.534  0.00  0.00    -0.082 A 
ATOM      9  C7  UNL d   1       1.148   0.223   0.501  0.00  0.00     0.045 A 
ENDROOT
TORSDOF 0
ENDMDL
