MODEL 1
REMARK minimizedAffinity -2.5083375
REMARK minimizedRMSD -1
REMARK  0 active torsions:
REMARK  status: ('A' for Active; 'I' for Inactive)
ROOT
ATOM      1  C   UNL d   1       1.581  -0.617  -1.474  0.00  0.00    -0.002 A 
ATOM      2  C1  UNL d   1       1.730   0.381  -2.428  0.00  0.00     0.010 A 
ATOM      3  C2  UNL d   1       1.577   1.724  -2.080  0.00  0.00     0.041 A 
ATOM      4  C3  UNL d   1       1.272   2.052  -0.745  0.00  0.00    -0.075 A 
ATOM      5  S   UNL d   1       1.040   3.630  -0.088  0.00  0.00     0.015 SA
ATOM      6  C4  UNL d   1       0.740   3.017   1.473  0.00  0.00     0.022 A 
ATOM      7  C5  UNL d   1       0.810   1.645   1.511  0.00  0.00     0.026 A 
ATOM      8  C6  UNL d   1       1.118   1.066   0.234  0.00  0.00    -0.082 A 
ATOM      9  C7  UNL d   1       1.278  -0.287  -0.151  0.00  0.00     0.045 A 
ENDROOT
TORSDOF 0
ENDMDL
