MODEL 1
REMARK minimizedAffinity 2.49577355
REMARK minimizedRMSD -1
REMARK  0 active torsions:
REMARK  status: ('A' for Active; 'I' for Inactive)
ROOT
ATOM      1  C   UNL d   1       1.122   0.067  -0.446  0.00  0.00    -0.002 A 
ATOM      2  C1  UNL d   1       1.127   0.528   0.863  0.00  0.00     0.010 A 
ATOM      3  C2  UNL d   1       1.493   1.844   1.151  0.00  0.00     0.041 A 
ATOM      4  C3  UNL d   1       1.856   2.698   0.091  0.00  0.00    -0.075 A 
ATOM      5  S   UNL d   1       2.339   4.349   0.206  0.00  0.00     0.015 SA
ATOM      6  C4  UNL d   1       2.549   4.482  -1.481  0.00  0.00     0.022 A 
ATOM      7  C5  UNL d   1       2.263   3.305  -2.130  0.00  0.00     0.026 A 
ATOM      8  C6  UNL d   1       1.858   2.258  -1.235  0.00  0.00    -0.082 A 
ATOM      9  C7  UNL d   1       1.483   0.917  -1.495  0.00  0.00     0.045 A 
ENDROOT
TORSDOF 0
ENDMDL
