MODEL 1
REMARK minimizedAffinity 9.75065041
REMARK minimizedRMSD -1
REMARK  0 active torsions:
REMARK  status: ('A' for Active; 'I' for Inactive)
ROOT
ATOM      1  O1  BZF d   1      -0.070  -0.311   2.836  0.00  0.00    -0.204 OA
ATOM      2  C2  BZF d   1      -1.307  -0.102   3.415  0.00  0.00     0.174 A 
ATOM      3  C3  BZF d   1      -2.242   0.139   2.473  0.00  0.00    -0.012 A 
ATOM      4  C3A BZF d   1      -1.564  -0.015   1.222  0.00  0.00    -0.107 A 
ATOM      5  C4  BZF d   1      -1.964   0.082  -0.080  0.00  0.00     0.055 A 
ATOM      6  C5  BZF d   1      -1.039  -0.053  -1.066  0.00  0.00    -0.016 A 
ATOM      7  C6  BZF d   1       0.293  -0.281  -0.787  0.00  0.00     0.022 A 
ATOM      8  C7  BZF d   1       0.736  -0.391   0.489  0.00  0.00     0.029 A 
ATOM      9  C7A BZF d   1      -0.202  -0.287   1.488  0.00  0.00     0.058 A 
ENDROOT
TORSDOF 0
ENDMDL
