MODEL 1
REMARK minimizedAffinity 6.11472225
REMARK minimizedRMSD -1
REMARK  0 active torsions:
REMARK  status: ('A' for Active; 'I' for Inactive)
ROOT
ATOM      1  O1  BZF d   1       1.374  -0.626   1.945  0.00  0.00    -0.204 OA
ATOM      2  C2  BZF d   1       1.790  -0.298   0.669  0.00  0.00     0.174 A 
ATOM      3  C3  BZF d   1       0.772   0.222  -0.047  0.00  0.00    -0.012 A 
ATOM      4  C3A BZF d   1      -0.327   0.303   0.865  0.00  0.00    -0.107 A 
ATOM      5  C4  BZF d   1      -1.612   0.750   0.750  0.00  0.00     0.055 A 
ATOM      6  C5  BZF d   1      -2.453   0.623   1.810  0.00  0.00    -0.016 A 
ATOM      7  C6  BZF d   1      -2.045   0.050   2.996  0.00  0.00     0.022 A 
ATOM      8  C7  BZF d   1      -0.778  -0.404   3.160  0.00  0.00     0.029 A 
ATOM      9  C7A BZF d   1       0.084  -0.247   2.102  0.00  0.00     0.058 A 
ENDROOT
TORSDOF 0
ENDMDL
