MODEL 1
REMARK minimizedAffinity 14.5919523
REMARK minimizedRMSD -1
REMARK  0 active torsions:
REMARK  status: ('A' for Active; 'I' for Inactive)
ROOT
ATOM      1  O1  BZF d   1      -3.221   0.399   2.732  0.00  0.00    -0.204 OA
ATOM      2  C2  BZF d   1      -2.198   0.069   3.599  0.00  0.00     0.174 A 
ATOM      3  C3  BZF d   1      -1.073  -0.232   2.919  0.00  0.00    -0.012 A 
ATOM      4  C3A BZF d   1      -1.389   0.009   1.544  0.00  0.00    -0.107 A 
ATOM      5  C4  BZF d   1      -0.674  -0.094   0.385  0.00  0.00     0.055 A 
ATOM      6  C5  BZF d   1      -1.298   0.144  -0.799  0.00  0.00    -0.016 A 
ATOM      7  C6  BZF d   1      -2.634   0.482  -0.860  0.00  0.00     0.022 A 
ATOM      8  C7  BZF d   1      -3.383   0.601   0.263  0.00  0.00     0.029 A 
ATOM      9  C7A BZF d   1      -2.747   0.393   1.463  0.00  0.00     0.058 A 
ENDROOT
TORSDOF 0
ENDMDL
