MODEL 1
REMARK minimizedAffinity 6.1447854
REMARK minimizedRMSD -1
REMARK  0 active torsions:
REMARK  status: ('A' for Active; 'I' for Inactive)
ROOT
ATOM      1  O1  BZF d   1       0.498  -0.293   1.077  0.00  0.00    -0.204 OA
ATOM      2  C2  BZF d   1       0.945  -0.814  -0.122  0.00  0.00     0.174 A 
ATOM      3  C3  BZF d   1      -0.066  -0.908  -1.009  0.00  0.00    -0.012 A 
ATOM      4  C3A BZF d   1      -1.198  -0.329  -0.352  0.00  0.00    -0.107 A 
ATOM      5  C4  BZF d   1      -2.494  -0.117  -0.727  0.00  0.00     0.055 A 
ATOM      6  C5  BZF d   1      -3.365   0.405   0.175  0.00  0.00    -0.016 A 
ATOM      7  C6  BZF d   1      -2.977   0.722   1.460  0.00  0.00     0.022 A 
ATOM      8  C7  BZF d   1      -1.701   0.534   1.877  0.00  0.00     0.029 A 
ATOM      9  C7A BZF d   1      -0.810   0.037   0.957  0.00  0.00     0.058 A 
ENDROOT
TORSDOF 0
ENDMDL
