MODEL 1
REMARK minimizedAffinity 8.31753159
REMARK minimizedRMSD -1
REMARK  0 active torsions:
REMARK  status: ('A' for Active; 'I' for Inactive)
ROOT
ATOM      1  O1  BZF d   1       1.065  -2.439  -1.421  0.00  0.00    -0.204 OA
ATOM      2  C2  BZF d   1       0.098  -2.750  -2.357  0.00  0.00     0.174 A 
ATOM      3  C3  BZF d   1      -1.000  -1.987  -2.182  0.00  0.00    -0.012 A 
ATOM      4  C3A BZF d   1      -0.666  -1.084  -1.124  0.00  0.00    -0.107 A 
ATOM      5  C4  BZF d   1      -1.342  -0.071  -0.506  0.00  0.00     0.055 A 
ATOM      6  C5  BZF d   1      -0.759   0.569   0.542  0.00  0.00    -0.016 A 
ATOM      7  C6  BZF d   1       0.494   0.219   1.001  0.00  0.00     0.022 A 
ATOM      8  C7  BZF d   1       1.205  -0.776   0.416  0.00  0.00     0.029 A 
ATOM      9  C7A BZF d   1       0.632  -1.403  -0.664  0.00  0.00     0.058 A 
ENDROOT
TORSDOF 0
ENDMDL
