MODEL 1
REMARK minimizedAffinity 5.2797904
REMARK minimizedRMSD -1
REMARK  0 active torsions:
REMARK  status: ('A' for Active; 'I' for Inactive)
ROOT
ATOM      1  O1  BZF d   1       0.396  -0.606   0.653  0.00  0.00    -0.204 OA
ATOM      2  C2  BZF d   1      -0.578  -0.200  -0.239  0.00  0.00     0.174 A 
ATOM      3  C3  BZF d   1      -1.768  -0.064   0.382  0.00  0.00    -0.012 A 
ATOM      4  C3A BZF d   1      -1.502  -0.318   1.764  0.00  0.00    -0.107 A 
ATOM      5  C4  BZF d   1      -2.282  -0.319   2.885  0.00  0.00     0.055 A 
ATOM      6  C5  BZF d   1      -1.730  -0.681   4.074  0.00  0.00    -0.016 A 
ATOM      7  C6  BZF d   1      -0.405  -1.051   4.176  0.00  0.00     0.022 A 
ATOM      8  C7  BZF d   1       0.409  -1.061   3.093  0.00  0.00     0.029 A 
ATOM      9  C7A BZF d   1      -0.137  -0.664   1.896  0.00  0.00     0.058 A 
ENDROOT
TORSDOF 0
ENDMDL
