MODEL 1
REMARK minimizedAffinity -5.12513924
REMARK minimizedRMSD -1
REMARK  0 active torsions:
REMARK  status: ('A' for Active; 'I' for Inactive)
ROOT
ATOM      1  O1  BZF d   1      -2.120  -0.023   2.050  0.00  0.00    -0.204 OA
ATOM      2  C2  BZF d   1      -2.162  -0.612   0.800  0.00  0.00     0.174 A 
ATOM      3  C3  BZF d   1      -0.977  -0.482   0.171  0.00  0.00    -0.012 A 
ATOM      4  C3A BZF d   1      -0.113   0.151   1.120  0.00  0.00    -0.107 A 
ATOM      5  C4  BZF d   1       1.197   0.533   1.089  0.00  0.00     0.055 A 
ATOM      6  C5  BZF d   1       1.719   1.193   2.156  0.00  0.00    -0.016 A 
ATOM      7  C6  BZF d   1       0.958   1.492   3.267  0.00  0.00     0.022 A 
ATOM      8  C7  BZF d   1      -0.346   1.130   3.347  0.00  0.00     0.029 A 
ATOM      9  C7A BZF d   1      -0.867   0.433   2.283  0.00  0.00     0.058 A 
ENDROOT
TORSDOF 0
ENDMDL
