MODEL 1
REMARK minimizedAffinity 5.44940853
REMARK minimizedRMSD -1
REMARK  0 active torsions:
REMARK  status: ('A' for Active; 'I' for Inactive)
ROOT
ATOM      1  O1  BZF d   1       0.428   0.055   1.429  0.00  0.00    -0.204 OA
ATOM      2  C2  BZF d   1       1.267  -0.202   0.363  0.00  0.00     0.174 A 
ATOM      3  C3  BZF d   1       0.561  -0.589  -0.719  0.00  0.00    -0.012 A 
ATOM      4  C3A BZF d   1      -0.812  -0.484  -0.330  0.00  0.00    -0.107 A 
ATOM      5  C4  BZF d   1      -1.991  -0.716  -0.978  0.00  0.00     0.055 A 
ATOM      6  C5  BZF d   1      -3.158  -0.588  -0.292  0.00  0.00    -0.016 A 
ATOM      7  C6  BZF d   1      -3.181  -0.236   1.042  0.00  0.00     0.022 A 
ATOM      8  C7  BZF d   1      -2.036   0.009   1.725  0.00  0.00     0.029 A 
ATOM      9  C7A BZF d   1      -0.858  -0.087   1.026  0.00  0.00     0.058 A 
ENDROOT
TORSDOF 0
ENDMDL
