MODEL 1
REMARK minimizedAffinity 5.16486692
REMARK minimizedRMSD -1
REMARK  0 active torsions:
REMARK  status: ('A' for Active; 'I' for Inactive)
ROOT
ATOM      1  O1  BZF d   1      -2.100  -0.245   2.998  0.00  0.00    -0.204 OA
ATOM      2  C2  BZF d   1      -2.678   0.396   1.920  0.00  0.00     0.174 A 
ATOM      3  C3  BZF d   1      -1.738   0.782   1.033  0.00  0.00    -0.012 A 
ATOM      4  C3A BZF d   1      -0.504   0.274   1.548  0.00  0.00    -0.107 A 
ATOM      5  C4  BZF d   1       0.788   0.319   1.105  0.00  0.00     0.055 A 
ATOM      6  C5  BZF d   1       1.770  -0.211   1.879  0.00  0.00    -0.016 A 
ATOM      7  C6  BZF d   1       1.499  -0.788   3.103  0.00  0.00     0.022 A 
ATOM      8  C7  BZF d   1       0.233  -0.861   3.582  0.00  0.00     0.029 A 
ATOM      9  C7A BZF d   1      -0.766  -0.355   2.786  0.00  0.00     0.058 A 
ENDROOT
TORSDOF 0
ENDMDL
