MODEL 1
REMARK minimizedAffinity 0.630202174
REMARK minimizedRMSD -1
REMARK  0 active torsions:
REMARK  status: ('A' for Active; 'I' for Inactive)
ROOT
ATOM      1  O1  BZF d   1       1.176  -0.783   2.461  0.00  0.00    -0.204 OA
ATOM      2  C2  BZF d   1       0.804  -0.796   3.791  0.00  0.00     0.174 A 
ATOM      3  C3  BZF d   1      -0.460  -0.348   3.939  0.00  0.00    -0.012 A 
ATOM      4  C3A BZF d   1      -0.936  -0.122   2.609  0.00  0.00    -0.107 A 
ATOM      5  C4  BZF d   1      -2.127   0.312   2.099  0.00  0.00     0.055 A 
ATOM      6  C5  BZF d   1      -2.244   0.494   0.758  0.00  0.00    -0.016 A 
ATOM      7  C6  BZF d   1      -1.191   0.257  -0.102  0.00  0.00     0.022 A 
ATOM      8  C7  BZF d   1       0.008  -0.178   0.357  0.00  0.00     0.029 A 
ATOM      9  C7A BZF d   1       0.119  -0.395   1.708  0.00  0.00     0.058 A 
ENDROOT
TORSDOF 0
ENDMDL
