MODEL 1
REMARK minimizedAffinity 3.99966836
REMARK minimizedRMSD -1
REMARK  0 active torsions:
REMARK  status: ('A' for Active; 'I' for Inactive)
ROOT
ATOM      1  O1  BZF d   1       0.916  -0.968   3.785  0.00  0.00    -0.204 OA
ATOM      2  C2  BZF d   1       1.672  -0.436   2.759  0.00  0.00     0.174 A 
ATOM      3  C3  BZF d   1       0.887   0.204   1.869  0.00  0.00    -0.012 A 
ATOM      4  C3A BZF d   1      -0.433   0.142   2.418  0.00  0.00    -0.107 A 
ATOM      5  C4  BZF d   1      -1.646   0.613   2.003  0.00  0.00     0.055 A 
ATOM      6  C5  BZF d   1      -2.753   0.318   2.733  0.00  0.00    -0.016 A 
ATOM      7  C6  BZF d   1      -2.686  -0.447   3.878  0.00  0.00     0.022 A 
ATOM      8  C7  BZF d   1      -1.505  -0.933   4.332  0.00  0.00     0.029 A 
ATOM      9  C7A BZF d   1      -0.379  -0.609   3.615  0.00  0.00     0.058 A 
ENDROOT
TORSDOF 0
ENDMDL
