MODEL 1
REMARK minimizedAffinity 18.0829563
REMARK minimizedRMSD -1
REMARK  0 active torsions:
REMARK  status: ('A' for Active; 'I' for Inactive)
ROOT
ATOM      1  C   UNL d   1       0.568  -0.948   4.709  0.00  0.00    -0.002 A 
ATOM      2  C1  UNL d   1       1.671  -1.013   3.871  0.00  0.00     0.010 A 
ATOM      3  C2  UNL d   1       1.821  -0.103   2.822  0.00  0.00     0.041 A 
ATOM      4  C3  UNL d   1       0.835   0.885   2.631  0.00  0.00    -0.075 A 
ATOM      5  S   UNL d   1       0.809   2.105   1.414  0.00  0.00     0.015 SA
ATOM      6  C4  UNL d   1      -0.668   2.742   1.979  0.00  0.00     0.022 A 
ATOM      7  C5  UNL d   1      -1.143   2.053   3.069  0.00  0.00     0.026 A 
ATOM      8  C6  UNL d   1      -0.285   0.971   3.463  0.00  0.00    -0.082 A 
ATOM      9  C7  UNL d   1      -0.409   0.033   4.516  0.00  0.00     0.045 A 
ENDROOT
TORSDOF 0
ENDMDL
