MODEL 1
REMARK minimizedAffinity 13.5965843
REMARK minimizedRMSD -1
REMARK  0 active torsions:
REMARK  status: ('A' for Active; 'I' for Inactive)
ROOT
ATOM      1  C   UNL d   1      -0.602   5.288  -1.128  0.00  0.00    -0.002 A 
ATOM      2  C1  UNL d   1       0.582   5.999  -0.998  0.00  0.00     0.010 A 
ATOM      3  C2  UNL d   1       1.526   5.637  -0.034  0.00  0.00     0.041 A 
ATOM      4  C3  UNL d   1       1.257   4.537   0.803  0.00  0.00    -0.075 A 
ATOM      5  S   UNL d   1       2.266   3.910   2.052  0.00  0.00     0.015 SA
ATOM      6  C4  UNL d   1       1.149   2.683   2.442  0.00  0.00     0.022 A 
ATOM      7  C5  UNL d   1       0.028   2.736   1.648  0.00  0.00     0.026 A 
ATOM      8  C6  UNL d   1       0.072   3.804   0.690  0.00  0.00    -0.082 A 
ATOM      9  C7  UNL d   1      -0.865   4.197  -0.296  0.00  0.00     0.045 A 
ENDROOT
TORSDOF 0
ENDMDL
