MODEL 1
REMARK minimizedAffinity 12.9614048
REMARK minimizedRMSD -1
REMARK  0 active torsions:
REMARK  status: ('A' for Active; 'I' for Inactive)
ROOT
ATOM      1  C   UNL d   1      -5.999  -5.988  -4.249  0.00  0.00    -0.002 A 
ATOM      2  C1  UNL d   1      -5.905  -5.759  -2.883  0.00  0.00     0.010 A 
ATOM      3  C2  UNL d   1      -4.663  -5.535  -2.285  0.00  0.00     0.041 A 
ATOM      4  C3  UNL d   1      -3.507  -5.542  -3.091  0.00  0.00    -0.075 A 
ATOM      5  S   UNL d   1      -1.881  -5.290  -2.578  0.00  0.00     0.015 SA
ATOM      6  C4  UNL d   1      -1.274  -5.480  -4.159  0.00  0.00     0.022 A 
ATOM      7  C5  UNL d   1      -2.274  -5.730  -5.069  0.00  0.00     0.026 A 
ATOM      8  C6  UNL d   1      -3.577  -5.770  -4.468  0.00  0.00    -0.082 A 
ATOM      9  C7  UNL d   1      -4.851  -5.995  -5.044  0.00  0.00     0.045 A 
ENDROOT
TORSDOF 0
ENDMDL
