MODEL 1
REMARK minimizedAffinity 13.276103
REMARK minimizedRMSD -1
REMARK  0 active torsions:
REMARK  status: ('A' for Active; 'I' for Inactive)
ROOT
ATOM      1  C   UNL d   1       0.259   2.057   2.207  0.00  0.00    -0.002 A 
ATOM      2  C1  UNL d   1      -0.752   2.604   2.985  0.00  0.00     0.010 A 
ATOM      3  C2  UNL d   1      -1.333   3.825   2.637  0.00  0.00     0.041 A 
ATOM      4  C3  UNL d   1      -0.879   4.493   1.483  0.00  0.00    -0.075 A 
ATOM      5  S   UNL d   1      -1.444   5.998   0.863  0.00  0.00     0.015 SA
ATOM      6  C4  UNL d   1      -0.358   5.951  -0.450  0.00  0.00     0.022 A 
ATOM      7  C5  UNL d   1       0.425   4.821  -0.430  0.00  0.00     0.026 A 
ATOM      8  C6  UNL d   1       0.137   3.961   0.683  0.00  0.00    -0.082 A 
ATOM      9  C7  UNL d   1       0.708   2.722   1.063  0.00  0.00     0.045 A 
ENDROOT
TORSDOF 0
ENDMDL
