MODEL 1
REMARK minimizedAffinity 17.1449299
REMARK minimizedRMSD -1
REMARK  0 active torsions:
REMARK  status: ('A' for Active; 'I' for Inactive)
ROOT
ATOM      1  C   UNL d   1       0.232  -0.465  -1.441  0.00  0.00    -0.002 A 
ATOM      2  C1  UNL d   1      -1.112  -0.412  -1.102  0.00  0.00     0.010 A 
ATOM      3  C2  UNL d   1      -1.569   0.498  -0.147  0.00  0.00     0.041 A 
ATOM      4  C3  UNL d   1      -0.643   1.364   0.466  0.00  0.00    -0.075 A 
ATOM      5  S   UNL d   1      -0.973   2.562   1.662  0.00  0.00     0.015 SA
ATOM      6  C4  UNL d   1       0.663   3.032   1.750  0.00  0.00     0.022 A 
ATOM      7  C5  UNL d   1       1.456   2.304   0.895  0.00  0.00     0.026 A 
ATOM      8  C6  UNL d   1       0.716   1.331   0.141  0.00  0.00    -0.082 A 
ATOM      9  C7  UNL d   1       1.148   0.396  -0.831  0.00  0.00     0.045 A 
ENDROOT
TORSDOF 0
ENDMDL
