MODEL 1
REMARK minimizedAffinity 18.8024216
REMARK minimizedRMSD -1
REMARK  0 active torsions:
REMARK  status: ('A' for Active; 'I' for Inactive)
ROOT
ATOM      1  C   UNL d   1      -1.100   6.000  -0.955  0.00  0.00    -0.002 A 
ATOM      2  C1  UNL d   1       0.202   5.992  -1.435  0.00  0.00     0.010 A 
ATOM      3  C2  UNL d   1       1.127   5.059  -0.964  0.00  0.00     0.041 A 
ATOM      4  C3  UNL d   1       0.718   4.123   0.006  0.00  0.00    -0.075 A 
ATOM      5  S   UNL d   1       1.678   2.887   0.728  0.00  0.00     0.015 SA
ATOM      6  C4  UNL d   1       0.383   2.339   1.690  0.00  0.00     0.022 A 
ATOM      7  C5  UNL d   1      -0.762   3.070   1.479  0.00  0.00     0.026 A 
ATOM      8  C6  UNL d   1      -0.588   4.110   0.504  0.00  0.00    -0.082 A 
ATOM      9  C7  UNL d   1      -1.503   5.070   0.007  0.00  0.00     0.045 A 
ENDROOT
TORSDOF 0
ENDMDL
