MODEL 1
REMARK minimizedAffinity 5.66798925
REMARK minimizedRMSD -1
REMARK  3 active torsions:
REMARK  status: ('A' for Active; 'I' for Inactive)
REMARK    1  A    between atoms: C3'_2  and  C2'_3 
REMARK    2  A    between atoms: C2'_3  and  C1'_4 
REMARK    3  A    between atoms: C1'_4  and  C1_5 
ROOT
ATOM      1  C1  N4B d   1       1.784  -0.772   2.369  0.00  0.00    -0.075 A 
ATOM      2  C2  N4B d   1       0.975  -1.402   1.398  0.00  0.00     0.002 A 
ATOM      3  C3  N4B d   1       0.640  -2.726   1.538  0.00  0.00     0.002 A 
ATOM      4  C4  N4B d   1       1.115  -3.443   2.626  0.00  0.00    -0.004 A 
ATOM      5  C5  N4B d   1       1.875  -2.821   3.573  0.00  0.00     0.002 A 
ATOM      6  C6  N4B d   1       2.216  -1.489   3.447  0.00  0.00     0.002 A 
ENDROOT
BRANCH   1   7
ATOM      7  C1' N4B d   1       2.249   0.650   2.215  0.00  0.00     0.057 C 
BRANCH   7   8
ATOM      8  C2' N4B d   1       3.004   0.791   0.897  0.00  0.00     0.009 C 
BRANCH   8   9
ATOM      9  C3' N4B d   1       3.484   2.213   0.666  0.00  0.00     0.004 C 
ATOM     10  C4' N4B d   1       2.662   2.946  -0.352  0.00  0.00     0.003 C 
ENDBRANCH   8   9
ENDBRANCH   7   8
ENDBRANCH   1   7
TORSDOF 3
ENDMDL
