MODEL 1
REMARK minimizedAffinity 7.41965103
REMARK minimizedRMSD -1
REMARK  3 active torsions:
REMARK  status: ('A' for Active; 'I' for Inactive)
REMARK    1  A    between atoms: C3'_2  and  C2'_3 
REMARK    2  A    between atoms: C2'_3  and  C1'_4 
REMARK    3  A    between atoms: C1'_4  and  C1_5 
ROOT
ATOM      1  C1  N4B d   1       1.871  -0.589   2.137  0.00  0.00    -0.075 A 
ATOM      2  C2  N4B d   1       2.152   0.216   1.011  0.00  0.00     0.002 A 
ATOM      3  C3  N4B d   1       2.693   1.467   1.180  0.00  0.00     0.002 A 
ATOM      4  C4  N4B d   1       2.944   1.939   2.460  0.00  0.00    -0.004 A 
ATOM      5  C5  N4B d   1       2.694   1.145   3.540  0.00  0.00     0.002 A 
ATOM      6  C6  N4B d   1       2.153  -0.116   3.385  0.00  0.00     0.002 A 
ENDROOT
BRANCH   1   7
ATOM      7  C1' N4B d   1       1.200  -1.929   2.007  0.00  0.00     0.057 C 
BRANCH   7   8
ATOM      8  C2' N4B d   1       0.717  -2.110   0.571  0.00  0.00     0.009 C 
BRANCH   8   9
ATOM      9  C3' N4B d   1      -0.783  -1.905   0.446  0.00  0.00     0.004 C 
ATOM     10  C4' N4B d   1      -1.361  -2.572  -0.766  0.00  0.00     0.003 C 
ENDBRANCH   8   9
ENDBRANCH   7   8
ENDBRANCH   1   7
TORSDOF 3
ENDMDL
