MODEL 1
REMARK minimizedAffinity 15.1143475
REMARK minimizedRMSD -1
REMARK  3 active torsions:
REMARK  status: ('A' for Active; 'I' for Inactive)
REMARK    1  A    between atoms: C3'_2  and  C2'_3 
REMARK    2  A    between atoms: C2'_3  and  C1'_4 
REMARK    3  A    between atoms: C1'_4  and  C1_5 
ROOT
ATOM      1  C1  N4B d   1      -3.745   1.821  -1.928  0.00  0.00    -0.075 A 
ATOM      2  C2  N4B d   1      -5.141   1.783  -2.138  0.00  0.00     0.002 A 
ATOM      3  C3  N4B d   1      -5.998   1.819  -1.066  0.00  0.00     0.002 A 
ATOM      4  C4  N4B d   1      -5.485   1.875   0.221  0.00  0.00    -0.004 A 
ATOM      5  C5  N4B d   1      -4.136   1.937   0.415  0.00  0.00     0.002 A 
ATOM      6  C6  N4B d   1      -3.263   1.906  -0.654  0.00  0.00     0.002 A 
ENDROOT
BRANCH   1   7
ATOM      7  C1' N4B d   1      -2.767   1.697  -3.064  0.00  0.00     0.057 C 
BRANCH   7   8
ATOM      8  C2' N4B d   1      -2.828   0.280  -3.625  0.00  0.00     0.009 C 
BRANCH   8   9
ATOM      9  C3' N4B d   1      -2.728  -0.769  -2.530  0.00  0.00     0.004 C 
ATOM     10  C4' N4B d   1      -3.654  -1.928  -2.750  0.00  0.00     0.003 C 
ENDBRANCH   8   9
ENDBRANCH   7   8
ENDBRANCH   1   7
TORSDOF 3
ENDMDL
