MODEL 1
REMARK minimizedAffinity 1.78257155
REMARK minimizedRMSD -1
REMARK  3 active torsions:
REMARK  status: ('A' for Active; 'I' for Inactive)
REMARK    1  A    between atoms: C3'_2  and  C2'_3 
REMARK    2  A    between atoms: C2'_3  and  C1'_4 
REMARK    3  A    between atoms: C1'_4  and  C1_5 
ROOT
ATOM      1  C1  N4B d   1       3.239  -5.841  -2.703  0.00  0.00    -0.075 A 
ATOM      2  C2  N4B d   1       1.896  -5.793  -3.137  0.00  0.00     0.002 A 
ATOM      3  C3  N4B d   1       0.877  -5.803  -2.216  0.00  0.00     0.002 A 
ATOM      4  C4  N4B d   1       1.175  -5.878  -0.864  0.00  0.00    -0.004 A 
ATOM      5  C5  N4B d   1       2.476  -5.899  -0.452  0.00  0.00     0.002 A 
ATOM      6  C6  N4B d   1       3.510  -5.886  -1.366  0.00  0.00     0.002 A 
ENDROOT
BRANCH   1   7
ATOM      7  C1' N4B d   1       4.385  -5.920  -3.675  0.00  0.00     0.057 C 
BRANCH   7   8
ATOM      8  C2' N4B d   1       3.833  -5.976  -5.096  0.00  0.00     0.009 C 
BRANCH   8   9
ATOM      9  C3' N4B d   1       4.369  -4.846  -5.959  0.00  0.00     0.004 C 
ATOM     10  C4' N4B d   1       5.868  -4.808  -6.000  0.00  0.00     0.003 C 
ENDBRANCH   8   9
ENDBRANCH   7   8
ENDBRANCH   1   7
TORSDOF 3
ENDMDL
