MODEL 1
REMARK minimizedAffinity 4.86471319
REMARK minimizedRMSD -1
REMARK  3 active torsions:
REMARK  status: ('A' for Active; 'I' for Inactive)
REMARK    1  A    between atoms: C3'_2  and  C2'_3 
REMARK    2  A    between atoms: C2'_3  and  C1'_4 
REMARK    3  A    between atoms: C1'_4  and  C1_5 
ROOT
ATOM      1  C1  N4B d   1       2.111  -1.455   3.307  0.00  0.00    -0.075 A 
ATOM      2  C2  N4B d   1       3.487  -1.774   3.292  0.00  0.00     0.002 A 
ATOM      3  C3  N4B d   1       4.105  -2.200   4.442  0.00  0.00     0.002 A 
ATOM      4  C4  N4B d   1       3.376  -2.296   5.618  0.00  0.00    -0.004 A 
ATOM      5  C5  N4B d   1       2.042  -2.010   5.618  0.00  0.00     0.002 A 
ATOM      6  C6  N4B d   1       1.407  -1.584   4.469  0.00  0.00     0.002 A 
ENDROOT
BRANCH   1   7
ATOM      7  C1' N4B d   1       1.411  -0.903   2.095  0.00  0.00     0.057 C 
BRANCH   7   8
ATOM      8  C2' N4B d   1       1.602   0.610   2.052  0.00  0.00     0.009 C 
BRANCH   8   9
ATOM      9  C3' N4B d   1       2.695   1.018   1.079  0.00  0.00     0.004 C 
ATOM     10  C4' N4B d   1       2.511   2.407   0.547  0.00  0.00     0.003 C 
ENDBRANCH   8   9
ENDBRANCH   7   8
ENDBRANCH   1   7
TORSDOF 3
ENDMDL
