MODEL 1
REMARK minimizedAffinity 1.8774786
REMARK minimizedRMSD -1
REMARK  3 active torsions:
REMARK  status: ('A' for Active; 'I' for Inactive)
REMARK    1  A    between atoms: C3'_2  and  C2'_3 
REMARK    2  A    between atoms: C2'_3  and  C1'_4 
REMARK    3  A    between atoms: C1'_4  and  C1_5 
ROOT
ATOM      1  C1  N4B d   1       2.367  -1.520  -0.926  0.00  0.00    -0.075 A 
ATOM      2  C2  N4B d   1       1.547  -0.546  -0.317  0.00  0.00     0.002 A 
ATOM      3  C3  N4B d   1       2.002   0.742  -0.174  0.00  0.00     0.002 A 
ATOM      4  C4  N4B d   1       3.275   1.073  -0.614  0.00  0.00    -0.004 A 
ATOM      5  C5  N4B d   1       4.051   0.132  -1.224  0.00  0.00     0.002 A 
ATOM      6  C6  N4B d   1       3.605  -1.166  -1.378  0.00  0.00     0.002 A 
ENDROOT
BRANCH   1   7
ATOM      7  C1' N4B d   1       1.947  -2.961  -1.026  0.00  0.00     0.057 C 
BRANCH   7   8
ATOM      8  C2' N4B d   1       0.484  -3.028  -1.456  0.00  0.00     0.009 C 
BRANCH   8   9
ATOM      9  C3' N4B d   1      -0.181  -4.318  -1.009  0.00  0.00     0.004 C 
ATOM     10  C4' N4B d   1      -1.378  -4.673  -1.841  0.00  0.00     0.003 C 
ENDBRANCH   8   9
ENDBRANCH   7   8
ENDBRANCH   1   7
TORSDOF 3
ENDMDL
