MODEL 1
REMARK minimizedAffinity 9.72777653
REMARK minimizedRMSD -1
REMARK  3 active torsions:
REMARK  status: ('A' for Active; 'I' for Inactive)
REMARK    1  A    between atoms: C3'_2  and  C2'_3 
REMARK    2  A    between atoms: C2'_3  and  C1'_4 
REMARK    3  A    between atoms: C1'_4  and  C1_5 
ROOT
ATOM      1  C1  N4B d   1       0.997   0.494   1.241  0.00  0.00    -0.075 A 
ATOM      2  C2  N4B d   1      -0.265   1.109   1.401  0.00  0.00     0.002 A 
ATOM      3  C3  N4B d   1      -0.843   1.176   2.645  0.00  0.00     0.002 A 
ATOM      4  C4  N4B d   1      -0.190   0.622   3.735  0.00  0.00    -0.004 A 
ATOM      5  C5  N4B d   1       1.039   0.052   3.577  0.00  0.00     0.002 A 
ATOM      6  C6  N4B d   1       1.634  -0.020   2.333  0.00  0.00     0.002 A 
ENDROOT
BRANCH   1   7
ATOM      7  C1' N4B d   1       1.629   0.319  -0.113  0.00  0.00     0.057 C 
BRANCH   7   8
ATOM      8  C2' N4B d   1       3.127   0.089   0.060  0.00  0.00     0.009 C 
BRANCH   8   9
ATOM      9  C3' N4B d   1       3.941   1.304  -0.350  0.00  0.00     0.004 C 
ATOM     10  C4' N4B d   1       5.408   1.135  -0.092  0.00  0.00     0.003 C 
ENDBRANCH   8   9
ENDBRANCH   7   8
ENDBRANCH   1   7
TORSDOF 3
ENDMDL
