MODEL 1
REMARK minimizedAffinity -1.47056699
REMARK minimizedRMSD -1
REMARK  3 active torsions:
REMARK  status: ('A' for Active; 'I' for Inactive)
REMARK    1  A    between atoms: C3'_2  and  C2'_3 
REMARK    2  A    between atoms: C2'_3  and  C1'_4 
REMARK    3  A    between atoms: C1'_4  and  C1_5 
ROOT
ATOM      1  C1  N4B d   1      -0.080  -0.653   0.702  0.00  0.00    -0.075 A 
ATOM      2  C2  N4B d   1      -1.327  -0.131   1.110  0.00  0.00     0.002 A 
ATOM      3  C3  N4B d   1      -1.539   0.190   2.428  0.00  0.00     0.002 A 
ATOM      4  C4  N4B d   1      -0.529  -0.018   3.356  0.00  0.00    -0.004 A 
ATOM      5  C5  N4B d   1       0.682  -0.499   2.949  0.00  0.00     0.002 A 
ATOM      6  C6  N4B d   1       0.910  -0.822   1.627  0.00  0.00     0.002 A 
ENDROOT
BRANCH   1   7
ATOM      7  C1' N4B d   1       0.170  -1.099  -0.713  0.00  0.00     0.057 C 
BRANCH   7   8
ATOM      8  C2' N4B d   1       0.795   0.051  -1.498  0.00  0.00     0.009 C 
BRANCH   8   9
ATOM      9  C3' N4B d   1       0.567  -0.092  -2.993  0.00  0.00     0.004 C 
ATOM     10  C4' N4B d   1       1.168   1.033  -3.782  0.00  0.00     0.003 C 
ENDBRANCH   8   9
ENDBRANCH   7   8
ENDBRANCH   1   7
TORSDOF 3
ENDMDL
