MODEL 1
REMARK minimizedAffinity -5.20759249
REMARK minimizedRMSD -1
REMARK  3 active torsions:
REMARK  status: ('A' for Active; 'I' for Inactive)
REMARK    1  A    between atoms: C3'_2  and  C2'_3 
REMARK    2  A    between atoms: C2'_3  and  C1'_4 
REMARK    3  A    between atoms: C1'_4  and  C1_5 
ROOT
ATOM      1  C1  N4B d   1      -0.739   0.106   0.940  0.00  0.00    -0.075 A 
ATOM      2  C2  N4B d   1       0.148  -0.365   1.932  0.00  0.00     0.002 A 
ATOM      3  C3  N4B d   1       0.333   0.356   3.086  0.00  0.00     0.002 A 
ATOM      4  C4  N4B d   1      -0.341   1.555   3.262  0.00  0.00    -0.004 A 
ATOM      5  C5  N4B d   1      -1.215   1.991   2.310  0.00  0.00     0.002 A 
ATOM      6  C6  N4B d   1      -1.414   1.275   1.146  0.00  0.00     0.002 A 
ENDROOT
BRANCH   1   7
ATOM      7  C1' N4B d   1      -0.909  -0.603  -0.375  0.00  0.00     0.057 C 
BRANCH   7   8
ATOM      8  C2' N4B d   1      -0.339   0.267  -1.491  0.00  0.00     0.009 C 
BRANCH   8   9
ATOM      9  C3' N4B d   1       0.388  -0.558  -2.540  0.00  0.00     0.004 C 
ATOM     10  C4' N4B d   1       1.116   0.288  -3.542  0.00  0.00     0.003 C 
ENDBRANCH   8   9
ENDBRANCH   7   8
ENDBRANCH   1   7
TORSDOF 3
ENDMDL
