MODEL 1
REMARK minimizedAffinity -5.60186052
REMARK minimizedRMSD -1
REMARK  3 active torsions:
REMARK  status: ('A' for Active; 'I' for Inactive)
REMARK    1  A    between atoms: C3'_2  and  C2'_3 
REMARK    2  A    between atoms: C2'_3  and  C1'_4 
REMARK    3  A    between atoms: C1'_4  and  C1_5 
ROOT
ATOM      1  C1  N4B d   1       0.089   0.119   0.745  0.00  0.00    -0.075 A 
ATOM      2  C2  N4B d   1       1.345  -0.427   1.088  0.00  0.00     0.002 A 
ATOM      3  C3  N4B d   1       1.735  -0.479   2.404  0.00  0.00     0.002 A 
ATOM      4  C4  N4B d   1       0.897   0.025   3.388  0.00  0.00    -0.004 A 
ATOM      5  C5  N4B d   1      -0.325   0.528   3.050  0.00  0.00     0.002 A 
ATOM      6  C6  N4B d   1      -0.731   0.582   1.732  0.00  0.00     0.002 A 
ENDROOT
BRANCH   1   7
ATOM      7  C1' N4B d   1      -0.344   0.276  -0.687  0.00  0.00     0.057 C 
BRANCH   7   8
ATOM      8  C2' N4B d   1       0.825  -0.068  -1.605  0.00  0.00     0.009 C 
BRANCH   8   9
ATOM      9  C3' N4B d   1       0.464   0.097  -3.071  0.00  0.00     0.004 C 
ATOM     10  C4' N4B d   1       1.576   0.696  -3.879  0.00  0.00     0.003 C 
ENDBRANCH   8   9
ENDBRANCH   7   8
ENDBRANCH   1   7
TORSDOF 3
ENDMDL
