MODEL 1
REMARK minimizedAffinity -3.61678791
REMARK minimizedRMSD -1
REMARK  3 active torsions:
REMARK  status: ('A' for Active; 'I' for Inactive)
REMARK    1  A    between atoms: C3'_2  and  C2'_3 
REMARK    2  A    between atoms: C2'_3  and  C1'_4 
REMARK    3  A    between atoms: C1'_4  and  C1_5 
ROOT
ATOM      1  C1  N4B d   1       0.535  -0.700  -1.759  0.00  0.00    -0.075 A 
ATOM      2  C2  N4B d   1      -0.260  -0.993  -2.889  0.00  0.00     0.002 A 
ATOM      3  C3  N4B d   1       0.071  -0.469  -4.115  0.00  0.00     0.002 A 
ATOM      4  C4  N4B d   1       1.176   0.362  -4.230  0.00  0.00    -0.004 A 
ATOM      5  C5  N4B d   1       1.952   0.619  -3.138  0.00  0.00     0.002 A 
ATOM      6  C6  N4B d   1       1.634   0.096  -1.901  0.00  0.00     0.002 A 
ENDROOT
BRANCH   1   7
ATOM      7  C1' N4B d   1       0.164  -1.180  -0.382  0.00  0.00     0.057 C 
BRANCH   7   8
ATOM      8  C2' N4B d   1      -0.726  -0.137   0.289  0.00  0.00     0.009 C 
BRANCH   8   9
ATOM      9  C3' N4B d   1      -0.134   0.356   1.598  0.00  0.00     0.004 C 
ATOM     10  C4' N4B d   1      -1.169   0.915   2.529  0.00  0.00     0.003 C 
ENDBRANCH   8   9
ENDBRANCH   7   8
ENDBRANCH   1   7
TORSDOF 3
ENDMDL
