MODEL 1
REMARK minimizedAffinity -0.40166086
REMARK minimizedRMSD -1
REMARK  3 active torsions:
REMARK  status: ('A' for Active; 'I' for Inactive)
REMARK    1  A    between atoms: C3'_2  and  C2'_3 
REMARK    2  A    between atoms: C2'_3  and  C1'_4 
REMARK    3  A    between atoms: C1'_4  and  C1_5 
ROOT
ATOM      1  C1  N4B d   1       0.072  -0.505   0.319  0.00  0.00    -0.075 A 
ATOM      2  C2  N4B d   1      -1.109  -0.067   0.957  0.00  0.00     0.002 A 
ATOM      3  C3  N4B d   1      -1.109   0.181   2.307  0.00  0.00     0.002 A 
ATOM      4  C4  N4B d   1       0.051  -0.021   3.041  0.00  0.00    -0.004 A 
ATOM      5  C5  N4B d   1       1.194  -0.420   2.413  0.00  0.00     0.002 A 
ATOM      6  C6  N4B d   1       1.209  -0.669   1.055  0.00  0.00     0.002 A 
ENDROOT
BRANCH   1   7
ATOM      7  C1' N4B d   1       0.097  -0.871  -1.140  0.00  0.00     0.057 C 
BRANCH   7   8
ATOM      8  C2' N4B d   1       0.642   0.308  -1.942  0.00  0.00     0.009 C 
BRANCH   8   9
ATOM      9  C3' N4B d   1       0.407   0.137  -3.433  0.00  0.00     0.004 C 
ATOM     10  C4' N4B d   1       1.096   1.187  -4.254  0.00  0.00     0.003 C 
ENDBRANCH   8   9
ENDBRANCH   7   8
ENDBRANCH   1   7
TORSDOF 3
ENDMDL
