MODEL 1
REMARK minimizedAffinity -2.94273996
REMARK minimizedRMSD -1
REMARK  1 active torsions:
REMARK  status: ('A' for Active; 'I' for Inactive)
REMARK    1  A    between atoms: C3_4  and  O_7 
ROOT
ATOM      1  C   UNL d   1       0.207  -0.633  -1.085  0.00  0.00    -0.033 A 
ATOM      2  C1  UNL d   1       1.089  -0.209  -0.090  0.00  0.00     0.039 A 
ATOM      3  C2  UNL d   1       0.609   0.482   1.024  0.00  0.00    -0.080 A 
ATOM      4  C3  UNL d   1      -0.755   0.743   1.130  0.00  0.00     0.150 A 
ATOM      5  C4  UNL d   1      -1.640   0.320   0.144  0.00  0.00    -0.007 A 
ATOM      6  C5  UNL d   1      -1.158  -0.369  -0.967  0.00  0.00     0.039 A 
ENDROOT
BRANCH   4   7
ATOM      7  O   UNL d   1      -1.270   1.419   2.196  0.00  0.00    -0.526 OA
ATOM      8  H5  UNL d   1      -0.538   1.673   2.782  0.00  0.00     0.418 HD
ENDBRANCH   4   7
TORSDOF 1
ENDMDL
