MODEL 1
REMARK minimizedAffinity -2.15989256
REMARK minimizedRMSD -1
REMARK  1 active torsions:
REMARK  status: ('A' for Active; 'I' for Inactive)
REMARK    1  A    between atoms: C3_4  and  O_7 
ROOT
ATOM      1  C   UNL d   1      -1.437  -0.180  -1.096  0.00  0.00    -0.033 A 
ATOM      2  C1  UNL d   1      -2.663   0.281  -0.615  0.00  0.00     0.039 A 
ATOM      3  C2  UNL d   1      -2.777   0.718   0.706  0.00  0.00    -0.080 A 
ATOM      4  C3  UNL d   1      -1.659   0.689   1.534  0.00  0.00     0.150 A 
ATOM      5  C4  UNL d   1      -0.432   0.234   1.060  0.00  0.00    -0.007 A 
ATOM      6  C5  UNL d   1      -0.321  -0.202  -0.259  0.00  0.00     0.039 A 
ENDROOT
BRANCH   4   7
ATOM      7  O   UNL d   1      -1.722   1.100   2.832  0.00  0.00    -0.526 OA
ATOM      8  H5  UNL d   1      -2.638   1.360   3.028  0.00  0.00     0.418 HD
ENDBRANCH   4   7
TORSDOF 1
ENDMDL
