MODEL 1
REMARK minimizedAffinity -4.0442276
REMARK minimizedRMSD -1
REMARK  1 active torsions:
REMARK  status: ('A' for Active; 'I' for Inactive)
REMARK    1  A    between atoms: C3_4  and  O_7 
ROOT
ATOM      1  C   UNL d   1      -0.214   1.154   3.258  0.00  0.00    -0.033 A 
ATOM      2  C1  UNL d   1       1.098   0.694   3.127  0.00  0.00     0.039 A 
ATOM      3  C2  UNL d   1       1.540   0.180   1.907  0.00  0.00    -0.080 A 
ATOM      4  C3  UNL d   1       0.663   0.131   0.827  0.00  0.00     0.150 A 
ATOM      5  C4  UNL d   1      -0.644   0.591   0.950  0.00  0.00    -0.007 A 
ATOM      6  C5  UNL d   1      -1.084   1.104   2.170  0.00  0.00     0.039 A 
ENDROOT
BRANCH   4   7
ATOM      7  O   UNL d   1       1.048  -0.367  -0.382  0.00  0.00    -0.526 OA
ATOM      8  H5  UNL d   1       1.967  -0.673  -0.310  0.00  0.00     0.418 HD
ENDBRANCH   4   7
TORSDOF 1
ENDMDL
