MODEL 1
REMARK minimizedAffinity -4.89095736
REMARK minimizedRMSD -1
REMARK  1 active torsions:
REMARK  status: ('A' for Active; 'I' for Inactive)
REMARK    1  A    between atoms: C3_4  and  O_7 
ROOT
ATOM      1  C   UNL d   1      -0.561  -0.503  -0.250  0.00  0.00    -0.033 A 
ATOM      2  C1  UNL d   1      -1.794  -0.208   0.334  0.00  0.00     0.039 A 
ATOM      3  C2  UNL d   1      -1.872   0.721   1.374  0.00  0.00    -0.080 A 
ATOM      4  C3  UNL d   1      -0.711   1.348   1.818  0.00  0.00     0.150 A 
ATOM      5  C4  UNL d   1       0.520   1.062   1.238  0.00  0.00    -0.007 A 
ATOM      6  C5  UNL d   1       0.596   0.133   0.201  0.00  0.00     0.039 A 
ENDROOT
BRANCH   4   7
ATOM      7  O   UNL d   1      -0.736   2.258   2.833  0.00  0.00    -0.526 OA
ATOM      8  H5  UNL d   1      -1.650   2.333   3.156  0.00  0.00     0.418 HD
ENDBRANCH   4   7
TORSDOF 1
ENDMDL
