MODEL 1
REMARK minimizedAffinity -1.56661344
REMARK minimizedRMSD -1
REMARK  1 active torsions:
REMARK  status: ('A' for Active; 'I' for Inactive)
REMARK    1  A    between atoms: C3_4  and  O_7 
ROOT
ATOM      1  C   UNL d   1       2.962   1.150  -3.449  0.00  0.00    -0.033 A 
ATOM      2  C1  UNL d   1       3.192   0.346  -4.567  0.00  0.00     0.039 A 
ATOM      3  C2  UNL d   1       2.117  -0.135  -5.317  0.00  0.00    -0.080 A 
ATOM      4  C3  UNL d   1       0.819   0.197  -4.941  0.00  0.00     0.150 A 
ATOM      5  C4  UNL d   1       0.582   1.001  -3.831  0.00  0.00    -0.007 A 
ATOM      6  C5  UNL d   1       1.657   1.479  -3.082  0.00  0.00     0.039 A 
ENDROOT
BRANCH   4   7
ATOM      7  O   UNL d   1      -0.262  -0.252  -5.639  0.00  0.00    -0.526 OA
ATOM      8  H5  UNL d   1       0.053  -0.819  -6.363  0.00  0.00     0.418 HD
ENDBRANCH   4   7
TORSDOF 1
ENDMDL
