MODEL 1
REMARK minimizedAffinity -4.70233679
REMARK minimizedRMSD -1
REMARK  1 active torsions:
REMARK  status: ('A' for Active; 'I' for Inactive)
REMARK    1  A    between atoms: C3_4  and  O_7 
ROOT
ATOM      1  C   UNL d   1      -0.279  -0.156  -0.434  0.00  0.00    -0.033 A 
ATOM      2  C1  UNL d   1       0.786   0.276   0.359  0.00  0.00     0.039 A 
ATOM      3  C2  UNL d   1       0.537   0.963   1.550  0.00  0.00    -0.080 A 
ATOM      4  C3  UNL d   1      -0.778   1.209   1.935  0.00  0.00     0.150 A 
ATOM      5  C4  UNL d   1      -1.843   0.777   1.151  0.00  0.00    -0.007 A 
ATOM      6  C5  UNL d   1      -1.593   0.093  -0.038  0.00  0.00     0.039 A 
ENDROOT
BRANCH   4   7
ATOM      7  O   UNL d   1      -1.070   1.879   3.085  0.00  0.00    -0.526 OA
ATOM      8  H5  UNL d   1      -0.235   2.141   3.509  0.00  0.00     0.418 HD
ENDBRANCH   4   7
TORSDOF 1
ENDMDL
