MODEL 1
REMARK minimizedAffinity 1.00505865
REMARK minimizedRMSD -1
REMARK  0 active torsions:
REMARK  status: ('A' for Active; 'I' for Inactive)
ROOT
ATOM      1  C   UNL d   1      -0.072   0.338  -1.461  0.00  0.00     0.023 A 
ATOM      2  C1  UNL d   1      -0.459   1.047  -0.323  0.00  0.00     0.003 A 
ATOM      3  C2  UNL d   1       0.099   0.735   0.918  0.00  0.00     0.048 A 
ATOM      4  C3  UNL d   1       1.045  -0.285   1.015  0.00  0.00     0.023 A 
ATOM      5  C4  UNL d   1       1.436  -0.996  -0.121  0.00  0.00     0.048 A 
ATOM      6  C5  UNL d   1       0.874  -0.682  -1.360  0.00  0.00     0.003 A 
ATOM      7  I   UNL d   1       1.878  -0.750   2.861  0.00  0.00    -0.146 I 
ENDROOT
TORSDOF 0
ENDMDL
