MODEL 1
REMARK minimizedAffinity 11.3366146
REMARK minimizedRMSD -1
REMARK  0 active torsions:
REMARK  status: ('A' for Active; 'I' for Inactive)
ROOT
ATOM      1  C   UNL d   1       0.014   1.015   2.652  0.00  0.00     0.023 A 
ATOM      2  C1  UNL d   1      -0.660   0.886   1.438  0.00  0.00     0.003 A 
ATOM      3  C2  UNL d   1      -0.227  -0.046   0.492  0.00  0.00     0.048 A 
ATOM      4  C3  UNL d   1       0.880  -0.847   0.768  0.00  0.00     0.023 A 
ATOM      5  C4  UNL d   1       1.557  -0.723   1.982  0.00  0.00     0.048 A 
ATOM      6  C5  UNL d   1       1.122   0.211   2.924  0.00  0.00     0.003 A 
ATOM      7  I   UNL d   1       1.526  -2.235  -0.637  0.00  0.00    -0.146 I 
ENDROOT
TORSDOF 0
ENDMDL
