MODEL 1
REMARK minimizedAffinity 7.64513159
REMARK minimizedRMSD -1
REMARK  0 active torsions:
REMARK  status: ('A' for Active; 'I' for Inactive)
ROOT
ATOM      1  C   UNL d   1      -5.995   4.689  -5.997  0.00  0.00     0.023 A 
ATOM      2  C1  UNL d   1      -5.484   5.915  -5.567  0.00  0.00     0.003 A 
ATOM      3  C2  UNL d   1      -4.796   5.999  -4.355  0.00  0.00     0.048 A 
ATOM      4  C3  UNL d   1      -4.621   4.855  -3.578  0.00  0.00     0.023 A 
ATOM      5  C4  UNL d   1      -5.129   3.626  -4.004  0.00  0.00     0.048 A 
ATOM      6  C5  UNL d   1      -5.817   3.547  -5.216  0.00  0.00     0.003 A 
ATOM      7  I   UNL d   1      -3.597   4.978  -1.773  0.00  0.00    -0.146 I 
ENDROOT
TORSDOF 0
ENDMDL
