MODEL 1
REMARK minimizedAffinity 4.61177158
REMARK minimizedRMSD -1
REMARK  0 active torsions:
REMARK  status: ('A' for Active; 'I' for Inactive)
ROOT
ATOM      1  C   UNL d   1      -1.224   2.906   1.903  0.00  0.00     0.023 A 
ATOM      2  C1  UNL d   1      -2.186   3.025   0.900  0.00  0.00     0.003 A 
ATOM      3  C2  UNL d   1      -1.928   2.530  -0.380  0.00  0.00     0.048 A 
ATOM      4  C3  UNL d   1      -0.706   1.914  -0.649  0.00  0.00     0.023 A 
ATOM      5  C4  UNL d   1       0.259   1.791   0.352  0.00  0.00     0.048 A 
ATOM      6  C5  UNL d   1      -0.003   2.289   1.629  0.00  0.00     0.003 A 
ATOM      7  I   UNL d   1      -0.319   1.175  -2.553  0.00  0.00    -0.146 I 
ENDROOT
TORSDOF 0
ENDMDL
