MODEL 1
REMARK minimizedAffinity 4.5590868
REMARK minimizedRMSD -1
REMARK  0 active torsions:
REMARK  status: ('A' for Active; 'I' for Inactive)
ROOT
ATOM      1  C   UNL d   1      -1.277   2.892   2.086  0.00  0.00     0.023 A 
ATOM      2  C1  UNL d   1       0.022   2.473   1.797  0.00  0.00     0.003 A 
ATOM      3  C2  UNL d   1       0.352   2.058   0.505  0.00  0.00     0.048 A 
ATOM      4  C3  UNL d   1      -0.622   2.066  -0.493  0.00  0.00     0.023 A 
ATOM      5  C4  UNL d   1      -1.922   2.486  -0.209  0.00  0.00     0.048 A 
ATOM      6  C5  UNL d   1      -2.248   2.899   1.085  0.00  0.00     0.003 A 
ATOM      7  I   UNL d   1      -0.134   1.450  -2.417  0.00  0.00    -0.146 I 
ENDROOT
TORSDOF 0
ENDMDL
