MODEL 1
REMARK minimizedAffinity 12.9501944
REMARK minimizedRMSD -1
REMARK  0 active torsions:
REMARK  status: ('A' for Active; 'I' for Inactive)
ROOT
ATOM      1  C   UNL d   1      -1.946   1.922  -0.847  0.00  0.00     0.023 A 
ATOM      2  C1  UNL d   1      -2.030   2.487   0.425  0.00  0.00     0.003 A 
ATOM      3  C2  UNL d   1      -0.895   2.557   1.236  0.00  0.00     0.048 A 
ATOM      4  C3  UNL d   1       0.321   2.062   0.767  0.00  0.00     0.023 A 
ATOM      5  C4  UNL d   1       0.410   1.496  -0.506  0.00  0.00     0.048 A 
ATOM      6  C5  UNL d   1      -0.728   1.427  -1.313  0.00  0.00     0.003 A 
ATOM      7  I   UNL d   1       2.012   2.165   1.971  0.00  0.00    -0.146 I 
ENDROOT
TORSDOF 0
ENDMDL
