MODEL 1
REMARK minimizedAffinity 9.41043758
REMARK minimizedRMSD -1
REMARK  0 active torsions:
REMARK  status: ('A' for Active; 'I' for Inactive)
ROOT
ATOM      1  C   UNL d   1       0.457   0.966  -1.559  0.00  0.00     0.023 A 
ATOM      2  C1  UNL d   1       0.213  -0.388  -1.333  0.00  0.00     0.003 A 
ATOM      3  C2  UNL d   1      -1.098  -0.861  -1.261  0.00  0.00     0.048 A 
ATOM      4  C3  UNL d   1      -2.163   0.026  -1.417  0.00  0.00     0.023 A 
ATOM      5  C4  UNL d   1      -1.924   1.383  -1.644  0.00  0.00     0.048 A 
ATOM      6  C5  UNL d   1      -0.611   1.851  -1.715  0.00  0.00     0.003 A 
ATOM      7  I   UNL d   1      -4.116  -0.675  -1.310  0.00  0.00    -0.146 I 
ENDROOT
TORSDOF 0
ENDMDL
