MODEL 1
REMARK minimizedAffinity -0.5945912
REMARK minimizedRMSD -1
REMARK  3 active torsions:
REMARK  status: ('A' for Active; 'I' for Inactive)
REMARK    1  A    between atoms: C3'_2  and  C2'_3 
REMARK    2  A    between atoms: C2'_3  and  C1'_4 
REMARK    3  A    between atoms: C1'_4  and  C1_5 
ROOT
ATOM      1  C1  N4B d   1      -0.031  -0.012  -0.071  0.00  0.00    -0.075 A 
ATOM      2  C2  N4B d   1      -0.139  -0.108   1.334  0.00  0.00     0.002 A 
ATOM      3  C3  N4B d   1      -1.373  -0.050   1.934  0.00  0.00     0.002 A 
ATOM      4  C4  N4B d   1      -2.507   0.121   1.154  0.00  0.00    -0.004 A 
ATOM      5  C5  N4B d   1      -2.397   0.188  -0.204  0.00  0.00     0.002 A 
ATOM      6  C6  N4B d   1      -1.163   0.127  -0.821  0.00  0.00     0.002 A 
ENDROOT
BRANCH   1   7
ATOM      7  C1' N4B d   1       1.303   0.016  -0.765  0.00  0.00     0.057 C 
BRANCH   7   8
ATOM      8  C2' N4B d   1       1.085  -0.072  -2.272  0.00  0.00     0.009 C 
BRANCH   8   9
ATOM      9  C3' N4B d   1       2.090  -0.997  -2.938  0.00  0.00     0.004 C 
ATOM     10  C4' N4B d   1       1.437  -2.116  -3.693  0.00  0.00     0.003 C 
ENDBRANCH   8   9
ENDBRANCH   7   8
ENDBRANCH   1   7
TORSDOF 3
ENDMDL
