MODEL 1
REMARK minimizedAffinity -2.59235525
REMARK minimizedRMSD -1
REMARK  3 active torsions:
REMARK  status: ('A' for Active; 'I' for Inactive)
REMARK    1  A    between atoms: C3'_2  and  C2'_3 
REMARK    2  A    between atoms: C2'_3  and  C1'_4 
REMARK    3  A    between atoms: C1'_4  and  C1_5 
ROOT
ATOM      1  C1  N4B d   1      -0.335   0.201   0.482  0.00  0.00    -0.075 A 
ATOM      2  C2  N4B d   1       0.326   0.336   1.722  0.00  0.00     0.002 A 
ATOM      3  C3  N4B d   1      -0.373   0.180   2.894  0.00  0.00     0.002 A 
ATOM      4  C4  N4B d   1      -1.732  -0.092   2.850  0.00  0.00    -0.004 A 
ATOM      5  C5  N4B d   1      -2.359  -0.247   1.648  0.00  0.00     0.002 A 
ATOM      6  C6  N4B d   1      -1.667  -0.096   0.463  0.00  0.00     0.002 A 
ENDROOT
BRANCH   1   7
ATOM      7  C1' N4B d   1       0.368   0.447  -0.824  0.00  0.00     0.057 C 
BRANCH   7   8
ATOM      8  C2' N4B d   1       0.191  -0.770  -1.726  0.00  0.00     0.009 C 
BRANCH   8   9
ATOM      9  C3' N4B d   1       1.274  -0.854  -2.788  0.00  0.00     0.004 C 
ATOM     10  C4' N4B d   1       1.039  -1.960  -3.773  0.00  0.00     0.003 C 
ENDBRANCH   8   9
ENDBRANCH   7   8
ENDBRANCH   1   7
TORSDOF 3
ENDMDL
