MODEL 1
REMARK minimizedAffinity -4.5021801
REMARK minimizedRMSD -1
REMARK  3 active torsions:
REMARK  status: ('A' for Active; 'I' for Inactive)
REMARK    1  A    between atoms: C3'_2  and  C2'_3 
REMARK    2  A    between atoms: C2'_3  and  C1'_4 
REMARK    3  A    between atoms: C1'_4  and  C1_5 
ROOT
ATOM      1  C1  N4B d   1       0.311  -0.229  -1.532  0.00  0.00    -0.075 A 
ATOM      2  C2  N4B d   1       1.543  -0.041  -2.197  0.00  0.00     0.002 A 
ATOM      3  C3  N4B d   1       1.794  -0.696  -3.377  0.00  0.00     0.002 A 
ATOM      4  C4  N4B d   1       0.840  -1.556  -3.900  0.00  0.00    -0.004 A 
ATOM      5  C5  N4B d   1      -0.358  -1.713  -3.266  0.00  0.00     0.002 A 
ATOM      6  C6  N4B d   1      -0.625  -1.058  -2.081  0.00  0.00     0.002 A 
ENDROOT
BRANCH   1   7
ATOM      7  C1' N4B d   1       0.025   0.399  -0.196  0.00  0.00     0.057 C 
BRANCH   7   8
ATOM      8  C2' N4B d   1       1.335   0.569   0.568  0.00  0.00     0.009 C 
BRANCH   8   9
ATOM      9  C3' N4B d   1       1.241   0.029   1.985  0.00  0.00     0.004 C 
ATOM     10  C4' N4B d   1       0.059   0.568   2.734  0.00  0.00     0.003 C 
ENDBRANCH   8   9
ENDBRANCH   7   8
ENDBRANCH   1   7
TORSDOF 3
ENDMDL
