MODEL 1
REMARK minimizedAffinity -3.26066184
REMARK minimizedRMSD -1
REMARK  3 active torsions:
REMARK  status: ('A' for Active; 'I' for Inactive)
REMARK    1  A    between atoms: C3'_2  and  C2'_3 
REMARK    2  A    between atoms: C2'_3  and  C1'_4 
REMARK    3  A    between atoms: C1'_4  and  C1_5 
ROOT
ATOM      1  C1  N4B d   1       0.366  -0.060  -1.308  0.00  0.00    -0.075 A 
ATOM      2  C2  N4B d   1      -0.434  -1.032  -1.949  0.00  0.00     0.002 A 
ATOM      3  C3  N4B d   1      -0.128  -1.440  -3.225  0.00  0.00     0.002 A 
ATOM      4  C4  N4B d   1       0.956  -0.878  -3.883  0.00  0.00    -0.004 A 
ATOM      5  C5  N4B d   1       1.738   0.041  -3.247  0.00  0.00     0.002 A 
ATOM      6  C6  N4B d   1       1.445   0.457  -1.964  0.00  0.00     0.002 A 
ENDROOT
BRANCH   1   7
ATOM      7  C1' N4B d   1       0.021   0.479   0.053  0.00  0.00     0.057 C 
BRANCH   7   8
ATOM      8  C2' N4B d   1       1.301   0.927   0.753  0.00  0.00     0.009 C 
BRANCH   8   9
ATOM      9  C3' N4B d   1       1.819  -0.126   1.718  0.00  0.00     0.004 C 
ATOM     10  C4' N4B d   1       0.963  -0.265   2.941  0.00  0.00     0.003 C 
ENDBRANCH   8   9
ENDBRANCH   7   8
ENDBRANCH   1   7
TORSDOF 3
ENDMDL
