MODEL 1
REMARK minimizedAffinity -4.42028999
REMARK minimizedRMSD -1
REMARK  3 active torsions:
REMARK  status: ('A' for Active; 'I' for Inactive)
REMARK    1  A    between atoms: C3'_2  and  C2'_3 
REMARK    2  A    between atoms: C2'_3  and  C1'_4 
REMARK    3  A    between atoms: C1'_4  and  C1_5 
ROOT
ATOM      1  C1  N4B d   1      -0.401   0.394   0.233  0.00  0.00    -0.075 A 
ATOM      2  C2  N4B d   1      -1.677   0.762  -0.246  0.00  0.00     0.002 A 
ATOM      3  C3  N4B d   1      -2.664   1.124   0.639  0.00  0.00     0.002 A 
ATOM      4  C4  N4B d   1      -2.403   1.106   2.001  0.00  0.00    -0.004 A 
ATOM      5  C5  N4B d   1      -1.160   0.774   2.453  0.00  0.00     0.002 A 
ATOM      6  C6  N4B d   1      -0.158   0.412   1.576  0.00  0.00     0.002 A 
ENDROOT
BRANCH   1   7
ATOM      7  C1' N4B d   1       0.684  -0.091  -0.691  0.00  0.00     0.057 C 
BRANCH   7   8
ATOM      8  C2' N4B d   1       0.651   0.730  -1.976  0.00  0.00     0.009 C 
BRANCH   8   9
ATOM      9  C3' N4B d   1       1.543   0.135  -3.053  0.00  0.00     0.004 C 
ATOM     10  C4' N4B d   1       1.181  -1.280  -3.391  0.00  0.00     0.003 C 
ENDBRANCH   8   9
ENDBRANCH   7   8
ENDBRANCH   1   7
TORSDOF 3
ENDMDL
