MODEL 1
REMARK minimizedAffinity -2.9884584
REMARK minimizedRMSD -1
REMARK  3 active torsions:
REMARK  status: ('A' for Active; 'I' for Inactive)
REMARK    1  A    between atoms: C3'_2  and  C2'_3 
REMARK    2  A    between atoms: C2'_3  and  C1'_4 
REMARK    3  A    between atoms: C1'_4  and  C1_5 
ROOT
ATOM      1  C1  N4B d   1       0.321  -0.203  -1.683  0.00  0.00    -0.075 A 
ATOM      2  C2  N4B d   1       1.577   0.104  -2.250  0.00  0.00     0.002 A 
ATOM      3  C3  N4B d   1       1.990  -0.537  -3.393  0.00  0.00     0.002 A 
ATOM      4  C4  N4B d   1       1.175  -1.498  -3.972  0.00  0.00    -0.004 A 
ATOM      5  C5  N4B d   1      -0.048  -1.770  -3.432  0.00  0.00     0.002 A 
ATOM      6  C6  N4B d   1      -0.477  -1.131  -2.287  0.00  0.00     0.002 A 
ENDROOT
BRANCH   1   7
ATOM      7  C1' N4B d   1      -0.136   0.409  -0.387  0.00  0.00     0.057 C 
BRANCH   7   8
ATOM      8  C2' N4B d   1       1.071   0.611   0.524  0.00  0.00     0.009 C 
BRANCH   8   9
ATOM      9  C3' N4B d   1       0.943  -0.173   1.819  0.00  0.00     0.004 C 
ATOM     10  C4' N4B d   1      -0.014   0.456   2.787  0.00  0.00     0.003 C 
ENDBRANCH   8   9
ENDBRANCH   7   8
ENDBRANCH   1   7
TORSDOF 3
ENDMDL
