MODEL 1
REMARK minimizedAffinity -2.19242907
REMARK minimizedRMSD -1
REMARK  3 active torsions:
REMARK  status: ('A' for Active; 'I' for Inactive)
REMARK    1  A    between atoms: C3'_2  and  C2'_3 
REMARK    2  A    between atoms: C2'_3  and  C1'_4 
REMARK    3  A    between atoms: C1'_4  and  C1_5 
ROOT
ATOM      1  C1  N4B d   1       0.781  -0.081  -0.062  0.00  0.00    -0.075 A 
ATOM      2  C2  N4B d   1      -0.553   0.376  -0.136  0.00  0.00     0.002 A 
ATOM      3  C3  N4B d   1      -1.269   0.594   1.015  0.00  0.00     0.002 A 
ATOM      4  C4  N4B d   1      -0.681   0.345   2.246  0.00  0.00    -0.004 A 
ATOM      5  C5  N4B d   1       0.617  -0.072   2.310  0.00  0.00     0.002 A 
ATOM      6  C6  N4B d   1       1.350  -0.291   1.161  0.00  0.00     0.002 A 
ENDROOT
BRANCH   1   7
ATOM      7  C1' N4B d   1       1.576  -0.416  -1.295  0.00  0.00     0.057 C 
BRANCH   7   8
ATOM      8  C2' N4B d   1       0.769  -0.029  -2.531  0.00  0.00     0.009 C 
BRANCH   8   9
ATOM      9  C3' N4B d   1       0.447  -1.233  -3.399  0.00  0.00     0.004 C 
ATOM     10  C4' N4B d   1       1.210  -2.459  -2.997  0.00  0.00     0.003 C 
ENDBRANCH   8   9
ENDBRANCH   7   8
ENDBRANCH   1   7
TORSDOF 3
ENDMDL
