MODEL 1
REMARK minimizedAffinity -5.08386469
REMARK minimizedRMSD -1
REMARK  3 active torsions:
REMARK  status: ('A' for Active; 'I' for Inactive)
REMARK    1  A    between atoms: C3'_2  and  C2'_3 
REMARK    2  A    between atoms: C2'_3  and  C1'_4 
REMARK    3  A    between atoms: C1'_4  and  C1_5 
ROOT
ATOM      1  C1  N4B d   1      -0.093   0.236   0.038  0.00  0.00    -0.075 A 
ATOM      2  C2  N4B d   1       1.041  -0.051   0.830  0.00  0.00     0.002 A 
ATOM      3  C3  N4B d   1       0.921  -0.138   2.195  0.00  0.00     0.002 A 
ATOM      4  C4  N4B d   1      -0.313   0.074   2.790  0.00  0.00    -0.004 A 
ATOM      5  C5  N4B d   1      -1.409   0.325   2.017  0.00  0.00     0.002 A 
ATOM      6  C6  N4B d   1      -1.304   0.412   0.643  0.00  0.00     0.002 A 
ENDROOT
BRANCH   1   7
ATOM      7  C1' N4B d   1       0.005   0.426  -1.451  0.00  0.00     0.057 C 
BRANCH   7   8
ATOM      8  C2' N4B d   1      -0.157  -0.925  -2.140  0.00  0.00     0.009 C 
BRANCH   8   9
ATOM      9  C3' N4B d   1       0.718  -1.040  -3.376  0.00  0.00     0.004 C 
ATOM     10  C4' N4B d   1       1.589  -2.261  -3.360  0.00  0.00     0.003 C 
ENDBRANCH   8   9
ENDBRANCH   7   8
ENDBRANCH   1   7
TORSDOF 3
ENDMDL
