MODEL 1
REMARK minimizedAffinity -1.41902089
REMARK minimizedRMSD -1
REMARK  1 active torsions:
REMARK  status: ('A' for Active; 'I' for Inactive)
REMARK    1  A    between atoms: C1_2  and  C2_3 
ROOT
ATOM      1  C2  UNL d   1       0.034  -1.468  -2.675  0.00  0.00    -0.077 A 
ATOM      2  C3  UNL d   1       0.441  -2.344  -1.660  0.00  0.00     0.002 A 
ATOM      3  C4  UNL d   1       0.076  -3.691  -1.701  0.00  0.00     0.002 A 
ATOM      4  C5  UNL d   1      -0.694  -4.174  -2.757  0.00  0.00    -0.004 A 
ATOM      5  C6  UNL d   1      -1.105  -3.310  -3.771  0.00  0.00     0.002 A 
ATOM      6  C7  UNL d   1      -0.742  -1.963  -3.731  0.00  0.00     0.002 A 
ENDROOT
BRANCH   1   7
ATOM      7  C1  UNL d   1       0.469  -0.026  -2.658  0.00  0.00     0.055 C 
ATOM      8  C   UNL d   1       1.514   0.225  -1.582  0.00  0.00     0.019 C 
ENDBRANCH   1   7
TORSDOF 1
ENDMDL
