MODEL 1
REMARK minimizedAffinity 5.99252892
REMARK minimizedRMSD -1
REMARK  1 active torsions:
REMARK  status: ('A' for Active; 'I' for Inactive)
REMARK    1  A    between atoms: C1_2  and  C2_3 
ROOT
ATOM      1  C2  UNL d   1      -5.072   2.917  -3.746  0.00  0.00    -0.077 A 
ATOM      2  C3  UNL d   1      -3.939   3.717  -3.539  0.00  0.00     0.002 A 
ATOM      3  C4  UNL d   1      -3.740   4.870  -4.300  0.00  0.00     0.002 A 
ATOM      4  C5  UNL d   1      -4.671   5.236  -5.270  0.00  0.00    -0.004 A 
ATOM      5  C6  UNL d   1      -5.800   4.446  -5.485  0.00  0.00     0.002 A 
ATOM      6  C7  UNL d   1      -6.000   3.292  -4.726  0.00  0.00     0.002 A 
ENDROOT
BRANCH   1   7
ATOM      7  C1  UNL d   1      -5.313   1.699  -2.892  0.00  0.00     0.055 C 
ATOM      8  C   UNL d   1      -4.017   1.183  -2.285  0.00  0.00     0.019 C 
ENDBRANCH   1   7
TORSDOF 1
ENDMDL
