MODEL 1
REMARK minimizedAffinity 9.72489071
REMARK minimizedRMSD -1
REMARK  1 active torsions:
REMARK  status: ('A' for Active; 'I' for Inactive)
REMARK    1  A    between atoms: C1_2  and  C2_3 
ROOT
ATOM      1  C2  UNL d   1      -2.974  -0.406  -2.767  0.00  0.00    -0.077 A 
ATOM      2  C3  UNL d   1      -4.232  -0.503  -2.157  0.00  0.00     0.002 A 
ATOM      3  C4  UNL d   1      -4.723   0.547  -1.379  0.00  0.00     0.002 A 
ATOM      4  C5  UNL d   1      -3.964   1.703  -1.207  0.00  0.00    -0.004 A 
ATOM      5  C6  UNL d   1      -2.710   1.808  -1.807  0.00  0.00     0.002 A 
ATOM      6  C7  UNL d   1      -2.218   0.759  -2.585  0.00  0.00     0.002 A 
ENDROOT
BRANCH   1   7
ATOM      7  C1  UNL d   1      -2.464  -1.517  -3.647  0.00  0.00     0.055 C 
ATOM      8  C   UNL d   1      -2.046  -2.727  -2.824  0.00  0.00     0.019 C 
ENDBRANCH   1   7
TORSDOF 1
ENDMDL
