MODEL 1
REMARK minimizedAffinity 8.68957615
REMARK minimizedRMSD -1
REMARK  1 active torsions:
REMARK  status: ('A' for Active; 'I' for Inactive)
REMARK    1  A    between atoms: C1_2  and  C2_3 
ROOT
ATOM      1  C2  UNL d   1      -1.195   0.403  -2.550  0.00  0.00    -0.077 A 
ATOM      2  C3  UNL d   1      -1.724  -0.885  -2.717  0.00  0.00     0.002 A 
ATOM      3  C4  UNL d   1      -3.098  -1.105  -2.603  0.00  0.00     0.002 A 
ATOM      4  C5  UNL d   1      -3.954  -0.041  -2.326  0.00  0.00    -0.004 A 
ATOM      5  C6  UNL d   1      -3.438   1.243  -2.156  0.00  0.00     0.002 A 
ATOM      6  C7  UNL d   1      -2.065   1.464  -2.269  0.00  0.00     0.002 A 
ENDROOT
BRANCH   1   7
ATOM      7  C1  UNL d   1       0.281   0.650  -2.722  0.00  0.00     0.055 C 
ATOM      8  C   UNL d   1       1.014   0.569  -1.391  0.00  0.00     0.019 C 
ENDBRANCH   1   7
TORSDOF 1
ENDMDL
