MODEL 1
REMARK minimizedAffinity 1.4681735
REMARK minimizedRMSD -1
REMARK  1 active torsions:
REMARK  status: ('A' for Active; 'I' for Inactive)
REMARK    1  A    between atoms: C1_2  and  C2_3 
ROOT
ATOM      1  C2  UNL d   1       5.064  -4.898  -1.264  0.00  0.00    -0.077 A 
ATOM      2  C3  UNL d   1       5.462  -3.658  -0.745  0.00  0.00     0.002 A 
ATOM      3  C4  UNL d   1       5.930  -2.653  -1.594  0.00  0.00     0.002 A 
ATOM      4  C5  UNL d   1       6.000  -2.877  -2.968  0.00  0.00    -0.004 A 
ATOM      5  C6  UNL d   1       5.608  -4.107  -3.494  0.00  0.00     0.002 A 
ATOM      6  C7  UNL d   1       5.141  -5.112  -2.646  0.00  0.00     0.002 A 
ENDROOT
BRANCH   1   7
ATOM      7  C1  UNL d   1       4.513  -5.965  -0.355  0.00  0.00     0.055 C 
ATOM      8  C   UNL d   1       5.256  -5.999   0.972  0.00  0.00     0.019 C 
ENDBRANCH   1   7
TORSDOF 1
ENDMDL
