MODEL 1
REMARK minimizedAffinity 5.4552474
REMARK minimizedRMSD -1
REMARK  1 active torsions:
REMARK  status: ('A' for Active; 'I' for Inactive)
REMARK    1  A    between atoms: C1_2  and  C2_3 
ROOT
ATOM      1  C2  UNL d   1       0.228   2.024  -1.105  0.00  0.00    -0.077 A 
ATOM      2  C3  UNL d   1       1.073   1.107  -1.746  0.00  0.00     0.002 A 
ATOM      3  C4  UNL d   1       0.645   0.433  -2.891  0.00  0.00     0.002 A 
ATOM      4  C5  UNL d   1      -0.628   0.670  -3.407  0.00  0.00    -0.004 A 
ATOM      5  C6  UNL d   1      -1.477   1.578  -2.775  0.00  0.00     0.002 A 
ATOM      6  C7  UNL d   1      -1.051   2.253  -1.630  0.00  0.00     0.002 A 
ENDROOT
BRANCH   1   7
ATOM      7  C1  UNL d   1       0.706   2.789   0.101  0.00  0.00     0.055 C 
ATOM      8  C   UNL d   1       1.220   4.168  -0.286  0.00  0.00     0.019 C 
ENDBRANCH   1   7
TORSDOF 1
ENDMDL
