MODEL 1
REMARK minimizedAffinity 1.49730587
REMARK minimizedRMSD -1
REMARK  0 active torsions:
REMARK  status: ('A' for Active; 'I' for Inactive)
ROOT
ATOM      1  C   UNL d   1      -2.037  -0.905   2.827  0.00  0.00     0.078 C 
ATOM      2  C1  UNL d   1      -1.130  -0.063   1.980  0.00  0.00    -0.077 A 
ATOM      3  C2  UNL d   1      -1.279   1.328   1.927  0.00  0.00    -0.001 A 
ATOM      4  C3  UNL d   1      -0.433   2.098   1.127  0.00  0.00     0.003 A 
ATOM      5  C4  UNL d   1       0.566   1.486   0.373  0.00  0.00    -0.005 A 
ATOM      6  C5  UNL d   1       0.720   0.102   0.418  0.00  0.00     0.003 A 
ATOM      7  C6  UNL d   1      -0.124  -0.670   1.218  0.00  0.00    -0.001 A 
ENDROOT
TORSDOF 0
ENDMDL
