MODEL 1
REMARK minimizedAffinity 2.72723341
REMARK minimizedRMSD -1
REMARK  0 active torsions:
REMARK  status: ('A' for Active; 'I' for Inactive)
ROOT
ATOM      1  C   UNL d   1      -0.339   2.524   0.038  0.00  0.00     0.078 C 
ATOM      2  C1  UNL d   1       1.131   2.417   0.318  0.00  0.00    -0.077 A 
ATOM      3  C2  UNL d   1       1.848   3.503   0.833  0.00  0.00    -0.001 A 
ATOM      4  C3  UNL d   1       3.217   3.392   1.079  0.00  0.00     0.003 A 
ATOM      5  C4  UNL d   1       3.882   2.197   0.813  0.00  0.00    -0.005 A 
ATOM      6  C5  UNL d   1       3.177   1.110   0.299  0.00  0.00     0.003 A 
ATOM      7  C6  UNL d   1       1.807   1.220   0.052  0.00  0.00    -0.001 A 
ENDROOT
TORSDOF 0
ENDMDL
