MODEL 1
REMARK minimizedAffinity 5.82804871
REMARK minimizedRMSD -1
REMARK  0 active torsions:
REMARK  status: ('A' for Active; 'I' for Inactive)
ROOT
ATOM      1  C   UNL d   1      -2.349  -0.798   2.867  0.00  0.00     0.078 C 
ATOM      2  C1  UNL d   1      -1.205  -0.998   1.919  0.00  0.00    -0.077 A 
ATOM      3  C2  UNL d   1      -0.503   0.094   1.394  0.00  0.00    -0.001 A 
ATOM      4  C3  UNL d   1       0.553  -0.106   0.505  0.00  0.00     0.003 A 
ATOM      5  C4  UNL d   1       0.917  -1.398   0.130  0.00  0.00    -0.005 A 
ATOM      6  C5  UNL d   1       0.223  -2.492   0.645  0.00  0.00     0.003 A 
ATOM      7  C6  UNL d   1      -0.834  -2.293   1.535  0.00  0.00    -0.001 A 
ENDROOT
TORSDOF 0
ENDMDL
