MODEL 1
REMARK minimizedAffinity 5.81285858
REMARK minimizedRMSD -1
REMARK  0 active torsions:
REMARK  status: ('A' for Active; 'I' for Inactive)
ROOT
ATOM      1  C   UNL d   1       2.657   2.693   0.427  0.00  0.00     0.078 C 
ATOM      2  C1  UNL d   1       1.175   2.687   0.653  0.00  0.00    -0.077 A 
ATOM      3  C2  UNL d   1       0.299   3.242  -0.288  0.00  0.00    -0.001 A 
ATOM      4  C3  UNL d   1      -1.078   3.238  -0.059  0.00  0.00     0.003 A 
ATOM      5  C4  UNL d   1      -1.591   2.682   1.111  0.00  0.00    -0.005 A 
ATOM      6  C5  UNL d   1      -0.727   2.129   2.054  0.00  0.00     0.003 A 
ATOM      7  C6  UNL d   1       0.650   2.132   1.827  0.00  0.00    -0.001 A 
ENDROOT
TORSDOF 0
ENDMDL
