MODEL 1
REMARK minimizedAffinity 0.446439832
REMARK minimizedRMSD -1
REMARK  0 active torsions:
REMARK  status: ('A' for Active; 'I' for Inactive)
ROOT
ATOM      1  C   UNL d   1      -1.176   3.451   0.217  0.00  0.00     0.078 C 
ATOM      2  C1  UNL d   1       0.193   2.849   0.331  0.00  0.00    -0.077 A 
ATOM      3  C2  UNL d   1       1.340   3.651   0.273  0.00  0.00    -0.001 A 
ATOM      4  C3  UNL d   1       2.608   3.077   0.372  0.00  0.00     0.003 A 
ATOM      5  C4  UNL d   1       2.742   1.698   0.528  0.00  0.00    -0.005 A 
ATOM      6  C5  UNL d   1       1.607   0.893   0.584  0.00  0.00     0.003 A 
ATOM      7  C6  UNL d   1       0.338   1.465   0.486  0.00  0.00    -0.001 A 
ENDROOT
TORSDOF 0
ENDMDL
