MODEL 1
REMARK minimizedAffinity 2.26365972
REMARK minimizedRMSD -1
REMARK  0 active torsions:
REMARK  status: ('A' for Active; 'I' for Inactive)
ROOT
ATOM      1  C   UNL d   1      -1.773   1.887   2.605  0.00  0.00     0.078 C 
ATOM      2  C1  UNL d   1      -1.023   2.321   1.381  0.00  0.00    -0.077 A 
ATOM      3  C2  UNL d   1       0.322   1.976   1.200  0.00  0.00    -0.001 A 
ATOM      4  C3  UNL d   1       1.011   2.395   0.060  0.00  0.00     0.003 A 
ATOM      5  C4  UNL d   1       0.363   3.161  -0.907  0.00  0.00    -0.005 A 
ATOM      6  C5  UNL d   1      -0.975   3.510  -0.735  0.00  0.00     0.003 A 
ATOM      7  C6  UNL d   1      -1.665   3.093   0.404  0.00  0.00    -0.001 A 
ENDROOT
TORSDOF 0
ENDMDL
