MODEL 1
REMARK minimizedAffinity 2.21956611
REMARK minimizedRMSD -1
REMARK  0 active torsions:
REMARK  status: ('A' for Active; 'I' for Inactive)
ROOT
ATOM      1  C   UNL d   1       3.319   2.043   1.232  0.00  0.00     0.078 C 
ATOM      2  C1  UNL d   1       1.842   2.297   1.198  0.00  0.00    -0.077 A 
ATOM      3  C2  UNL d   1       1.190   2.600  -0.003  0.00  0.00    -0.001 A 
ATOM      4  C3  UNL d   1      -0.184   2.844  -0.019  0.00  0.00     0.003 A 
ATOM      5  C4  UNL d   1      -0.918   2.788   1.165  0.00  0.00    -0.005 A 
ATOM      6  C5  UNL d   1      -0.278   2.490   2.365  0.00  0.00     0.003 A 
ATOM      7  C6  UNL d   1       1.097   2.246   2.383  0.00  0.00    -0.001 A 
ENDROOT
TORSDOF 0
ENDMDL
