MODEL 1
REMARK minimizedAffinity 10.4310141
REMARK minimizedRMSD -1
REMARK  0 active torsions:
REMARK  status: ('A' for Active; 'I' for Inactive)
ROOT
ATOM      1  C   UNL d   1      -0.959   2.718   2.823  0.00  0.00     0.078 C 
ATOM      2  C1  UNL d   1      -0.204   2.879   1.538  0.00  0.00    -0.077 A 
ATOM      3  C2  UNL d   1       1.136   2.486   1.435  0.00  0.00    -0.001 A 
ATOM      4  C3  UNL d   1       1.830   2.651   0.235  0.00  0.00     0.003 A 
ATOM      5  C4  UNL d   1       1.193   3.212  -0.870  0.00  0.00    -0.005 A 
ATOM      6  C5  UNL d   1      -0.140   3.609  -0.776  0.00  0.00     0.003 A 
ATOM      7  C6  UNL d   1      -0.835   3.444   0.423  0.00  0.00    -0.001 A 
ENDROOT
TORSDOF 0
ENDMDL
