MODEL 1
REMARK minimizedAffinity -0.624924719
REMARK minimizedRMSD -1
REMARK  0 active torsions:
REMARK  status: ('A' for Active; 'I' for Inactive)
ROOT
ATOM      1  C   UNL d   1       5.452  -5.973  -3.754  0.00  0.00     0.078 C 
ATOM      2  C1  UNL d   1       3.978  -5.983  -4.026  0.00  0.00    -0.077 A 
ATOM      3  C2  UNL d   1       3.487  -5.999  -5.337  0.00  0.00    -0.001 A 
ATOM      4  C3  UNL d   1       2.111  -5.999  -5.576  0.00  0.00     0.003 A 
ATOM      5  C4  UNL d   1       1.216  -5.981  -4.509  0.00  0.00    -0.005 A 
ATOM      6  C5  UNL d   1       1.695  -5.962  -3.201  0.00  0.00     0.003 A 
ATOM      7  C6  UNL d   1       3.070  -5.962  -2.960  0.00  0.00    -0.001 A 
ENDROOT
TORSDOF 0
ENDMDL
