MODEL 1
REMARK minimizedAffinity 7.88054371
REMARK minimizedRMSD -1
REMARK  0 active torsions:
REMARK  status: ('A' for Active; 'I' for Inactive)
ROOT
ATOM      1  C   UNL d   1       4.503   1.831  -2.408  0.00  0.00     0.078 C 
ATOM      2  C1  UNL d   1       4.644   2.640  -3.662  0.00  0.00    -0.077 A 
ATOM      3  C2  UNL d   1       3.973   2.276  -4.836  0.00  0.00    -0.001 A 
ATOM      4  C3  UNL d   1       4.122   3.033  -5.998  0.00  0.00     0.003 A 
ATOM      5  C4  UNL d   1       4.943   4.159  -5.999  0.00  0.00    -0.005 A 
ATOM      6  C5  UNL d   1       5.617   4.529  -4.837  0.00  0.00     0.003 A 
ATOM      7  C6  UNL d   1       5.469   3.772  -3.673  0.00  0.00    -0.001 A 
ENDROOT
TORSDOF 0
ENDMDL
