MODEL 1
REMARK minimizedAffinity -1.78478074
REMARK minimizedRMSD -1
REMARK  0 active torsions:
REMARK  status: ('A' for Active; 'I' for Inactive)
ROOT
ATOM      1  C   UNL d   1       2.822   2.253   2.181  0.00  0.00     0.078 C 
ATOM      2  C1  UNL d   1       1.498   2.701   1.638  0.00  0.00    -0.077 A 
ATOM      3  C2  UNL d   1       1.410   3.780   0.749  0.00  0.00    -0.001 A 
ATOM      4  C3  UNL d   1       0.170   4.192   0.260  0.00  0.00     0.003 A 
ATOM      5  C4  UNL d   1      -0.992   3.533   0.654  0.00  0.00    -0.005 A 
ATOM      6  C5  UNL d   1      -0.916   2.461   1.541  0.00  0.00     0.003 A 
ATOM      7  C6  UNL d   1       0.324   2.047   2.031  0.00  0.00    -0.001 A 
ENDROOT
TORSDOF 0
ENDMDL
