MODEL 1
REMARK minimizedAffinity 0.606779754
REMARK minimizedRMSD -1
REMARK  0 active torsions:
REMARK  status: ('A' for Active; 'I' for Inactive)
ROOT
ATOM      1  C   UNL d   1       2.979   3.143  -0.321  0.00  0.00     0.078 C 
ATOM      2  C1  UNL d   1       3.390   2.868   1.095  0.00  0.00    -0.077 A 
ATOM      3  C2  UNL d   1       2.633   2.020   1.914  0.00  0.00    -0.001 A 
ATOM      4  C3  UNL d   1       3.022   1.781   3.233  0.00  0.00     0.003 A 
ATOM      5  C4  UNL d   1       4.168   2.386   3.745  0.00  0.00    -0.005 A 
ATOM      6  C5  UNL d   1       4.926   3.232   2.939  0.00  0.00     0.003 A 
ATOM      7  C6  UNL d   1       4.539   3.473   1.620  0.00  0.00    -0.001 A 
ENDROOT
TORSDOF 0
ENDMDL
