MODEL 1
REMARK minimizedAffinity 1.25176179
REMARK minimizedRMSD -1
REMARK  0 active torsions:
REMARK  status: ('A' for Active; 'I' for Inactive)
ROOT
ATOM      1  C   UNL d   1       0.187   3.694  -0.510  0.00  0.00     0.078 C 
ATOM      2  C1  UNL d   1       0.614   2.405   0.125  0.00  0.00    -0.077 A 
ATOM      3  C2  UNL d   1       0.309   2.123   1.462  0.00  0.00    -0.001 A 
ATOM      4  C3  UNL d   1       0.721   0.923   2.043  0.00  0.00     0.003 A 
ATOM      5  C4  UNL d   1       1.442  -0.006   1.294  0.00  0.00    -0.005 A 
ATOM      6  C5  UNL d   1       1.752   0.267  -0.037  0.00  0.00     0.003 A 
ATOM      7  C6  UNL d   1       1.341   1.467  -0.619  0.00  0.00    -0.001 A 
ENDROOT
TORSDOF 0
ENDMDL
