MODEL 1
REMARK minimizedAffinity 4.5277853
REMARK minimizedRMSD -1
REMARK  0 active torsions:
REMARK  status: ('A' for Active; 'I' for Inactive)
ROOT
ATOM      1  C   UNL d   1       3.388   1.996  -1.784  0.00  0.00     0.078 C 
ATOM      2  C1  UNL d   1       2.992   1.729  -0.362  0.00  0.00    -0.077 A 
ATOM      3  C2  UNL d   1       3.945   1.357   0.594  0.00  0.00    -0.001 A 
ATOM      4  C3  UNL d   1       3.560   1.102   1.911  0.00  0.00     0.003 A 
ATOM      5  C4  UNL d   1       2.222   1.215   2.284  0.00  0.00    -0.005 A 
ATOM      6  C5  UNL d   1       1.267   1.582   1.339  0.00  0.00     0.003 A 
ATOM      7  C6  UNL d   1       1.649   1.837   0.021  0.00  0.00    -0.001 A 
ENDROOT
TORSDOF 0
ENDMDL
