MODEL 1
REMARK minimizedAffinity -0.407351255
REMARK minimizedRMSD -1
REMARK  0 active torsions:
REMARK  status: ('A' for Active; 'I' for Inactive)
ROOT
ATOM      1  C   UNL d   1       3.000   1.964   1.501  0.00  0.00     0.078 C 
ATOM      2  C1  UNL d   1       3.008   3.374   2.012  0.00  0.00    -0.077 A 
ATOM      3  C2  UNL d   1       4.141   4.185   1.874  0.00  0.00    -0.001 A 
ATOM      4  C3  UNL d   1       4.137   5.492   2.363  0.00  0.00     0.003 A 
ATOM      5  C4  UNL d   1       3.004   5.999   2.996  0.00  0.00    -0.005 A 
ATOM      6  C5  UNL d   1       1.873   5.199   3.140  0.00  0.00     0.003 A 
ATOM      7  C6  UNL d   1       1.874   3.891   2.652  0.00  0.00    -0.001 A 
ENDROOT
TORSDOF 0
ENDMDL
