MODEL 1
REMARK minimizedAffinity 1.42194283
REMARK minimizedRMSD -1
REMARK  0 active torsions:
REMARK  status: ('A' for Active; 'I' for Inactive)
ROOT
ATOM      1  C   UNL d   1      -0.547   2.861   0.620  0.00  0.00     0.078 C 
ATOM      2  C1  UNL d   1       0.888   2.436   0.718  0.00  0.00    -0.077 A 
ATOM      3  C2  UNL d   1       1.278   1.132   0.387  0.00  0.00    -0.001 A 
ATOM      4  C3  UNL d   1       2.615   0.748   0.492  0.00  0.00     0.003 A 
ATOM      5  C4  UNL d   1       3.573   1.660   0.929  0.00  0.00    -0.005 A 
ATOM      6  C5  UNL d   1       3.195   2.959   1.262  0.00  0.00     0.003 A 
ATOM      7  C6  UNL d   1       1.857   3.345   1.158  0.00  0.00    -0.001 A 
ENDROOT
TORSDOF 0
ENDMDL
