MODEL 1
REMARK minimizedAffinity 2.81614494
REMARK minimizedRMSD -1
REMARK  0 active torsions:
REMARK  status: ('A' for Active; 'I' for Inactive)
ROOT
ATOM      1  C   UNL d   1      -1.040   2.802   0.420  0.00  0.00     0.078 C 
ATOM      2  C1  UNL d   1       0.452   2.657   0.425  0.00  0.00    -0.077 A 
ATOM      3  C2  UNL d   1       1.057   1.421   0.167  0.00  0.00    -0.001 A 
ATOM      4  C3  UNL d   1       2.447   1.297   0.184  0.00  0.00     0.003 A 
ATOM      5  C4  UNL d   1       3.244   2.406   0.461  0.00  0.00    -0.005 A 
ATOM      6  C5  UNL d   1       2.652   3.640   0.721  0.00  0.00     0.003 A 
ATOM      7  C6  UNL d   1       1.261   3.765   0.704  0.00  0.00    -0.001 A 
ENDROOT
TORSDOF 0
ENDMDL
