MODEL 1
REMARK minimizedAffinity 1.49565363
REMARK minimizedRMSD -1
REMARK  0 active torsions:
REMARK  status: ('A' for Active; 'I' for Inactive)
ROOT
ATOM      1  C   UNL d   1      -0.639   2.755   0.629  0.00  0.00     0.078 C 
ATOM      2  C1  UNL d   1       0.780   2.272   0.666  0.00  0.00    -0.077 A 
ATOM      3  C2  UNL d   1       1.121   0.999   0.193  0.00  0.00    -0.001 A 
ATOM      4  C3  UNL d   1       2.445   0.559   0.244  0.00  0.00     0.003 A 
ATOM      5  C4  UNL d   1       3.438   1.385   0.767  0.00  0.00    -0.005 A 
ATOM      6  C5  UNL d   1       3.107   2.652   1.243  0.00  0.00     0.003 A 
ATOM      7  C6  UNL d   1       1.784   3.094   1.193  0.00  0.00    -0.001 A 
ENDROOT
TORSDOF 0
ENDMDL
