MODEL 1
REMARK minimizedAffinity -2.66476226
REMARK minimizedRMSD -1
REMARK  0 active torsions:
REMARK  status: ('A' for Active; 'I' for Inactive)
ROOT
ATOM      1  C   UNL d   1       5.998   5.979  -2.247  0.00  0.00     0.172 C 
ATOM      2  N   UNL d   1       5.465   5.274  -3.389  0.00  0.00    -0.070 N 
ATOM      3  C1  UNL d   1       6.000   4.146  -3.952  0.00  0.00    -0.004 A 
ATOM      4  C2  UNL d   1       5.202   3.786  -5.016  0.00  0.00    -0.047 A 
ATOM      5  C3  UNL d   1       4.151   4.731  -5.096  0.00  0.00    -0.047 A 
ATOM      6  C4  UNL d   1       4.339   5.641  -4.078  0.00  0.00    -0.004 A 
ENDROOT
TORSDOF 0
ENDMDL
