MODEL 1
REMARK minimizedAffinity -2.65512013
REMARK minimizedRMSD -1
REMARK  0 active torsions:
REMARK  status: ('A' for Active; 'I' for Inactive)
ROOT
ATOM      1  C   UNL d   1       5.996   5.854  -2.241  0.00  0.00     0.172 C 
ATOM      2  N   UNL d   1       5.576   5.320  -3.515  0.00  0.00    -0.070 N 
ATOM      3  C1  UNL d   1       5.999   4.139  -4.065  0.00  0.00    -0.004 A 
ATOM      4  C2  UNL d   1       5.368   3.990  -5.281  0.00  0.00    -0.047 A 
ATOM      5  C3  UNL d   1       4.538   5.120  -5.470  0.00  0.00    -0.047 A 
ATOM      6  C4  UNL d   1       4.686   5.928  -4.361  0.00  0.00    -0.004 A 
ENDROOT
TORSDOF 0
ENDMDL
