MODEL 1
REMARK minimizedAffinity 3.74230433
REMARK minimizedRMSD -1
REMARK  0 active torsions:
REMARK  status: ('A' for Active; 'I' for Inactive)
ROOT
ATOM      1  C   UNL d   1       2.529  -2.073  -3.328  0.00  0.00     0.172 C 
ATOM      2  N   UNL d   1       1.274  -1.951  -2.624  0.00  0.00    -0.070 N 
ATOM      3  C1  UNL d   1       0.169  -1.279  -3.073  0.00  0.00    -0.004 A 
ATOM      4  C2  UNL d   1      -0.816  -1.399  -2.116  0.00  0.00    -0.047 A 
ATOM      5  C3  UNL d   1      -0.283  -2.168  -1.055  0.00  0.00    -0.047 A 
ATOM      6  C4  UNL d   1       1.012  -2.497  -1.395  0.00  0.00    -0.004 A 
ENDROOT
TORSDOF 0
ENDMDL
