MODEL 1
REMARK minimizedAffinity 6.65172625
REMARK minimizedRMSD -1
REMARK  0 active torsions:
REMARK  status: ('A' for Active; 'I' for Inactive)
ROOT
ATOM      1  C   UNL d   1      -1.779  -1.520  -0.025  0.00  0.00     0.172 C 
ATOM      2  N   UNL d   1      -0.783  -1.844  -1.021  0.00  0.00    -0.070 N 
ATOM      3  C1  UNL d   1       0.348  -2.585  -0.806  0.00  0.00    -0.004 A 
ATOM      4  C2  UNL d   1       1.031  -2.667  -2.000  0.00  0.00    -0.047 A 
ATOM      5  C3  UNL d   1       0.285  -1.949  -2.965  0.00  0.00    -0.047 A 
ATOM      6  C4  UNL d   1      -0.833  -1.450  -2.332  0.00  0.00    -0.004 A 
ENDROOT
TORSDOF 0
ENDMDL
