MODEL 1
REMARK minimizedAffinity 1.36485767
REMARK minimizedRMSD -1
REMARK  0 active torsions:
REMARK  status: ('A' for Active; 'I' for Inactive)
ROOT
ATOM      1  C   UNL d   1       5.999   4.835  -1.433  0.00  0.00     0.172 C 
ATOM      2  N   UNL d   1       5.156   4.919  -2.602  0.00  0.00    -0.070 N 
ATOM      3  C1  UNL d   1       5.012   3.946  -3.554  0.00  0.00    -0.004 A 
ATOM      4  C2  UNL d   1       4.123   4.410  -4.500  0.00  0.00    -0.047 A 
ATOM      5  C3  UNL d   1       3.719   5.706  -4.102  0.00  0.00    -0.047 A 
ATOM      6  C4  UNL d   1       4.374   5.997  -2.924  0.00  0.00    -0.004 A 
ENDROOT
TORSDOF 0
ENDMDL
