MODEL 1
REMARK minimizedAffinity 10.7202444
REMARK minimizedRMSD -1
REMARK  0 active torsions:
REMARK  status: ('A' for Active; 'I' for Inactive)
ROOT
ATOM      1  C   UNL d   1       2.762  -1.959  -3.148  0.00  0.00     0.172 C 
ATOM      2  N   UNL d   1       1.469  -2.012  -2.507  0.00  0.00    -0.070 N 
ATOM      3  C1  UNL d   1       1.167  -2.722  -1.375  0.00  0.00    -0.004 A 
ATOM      4  C2  UNL d   1      -0.164  -2.511  -1.087  0.00  0.00    -0.047 A 
ATOM      5  C3  UNL d   1      -0.680  -1.645  -2.080  0.00  0.00    -0.047 A 
ATOM      6  C4  UNL d   1       0.352  -1.352  -2.946  0.00  0.00    -0.004 A 
ENDROOT
TORSDOF 0
ENDMDL
