MODEL 1
REMARK minimizedAffinity -0.49450925
REMARK minimizedRMSD -1
REMARK  0 active torsions:
REMARK  status: ('A' for Active; 'I' for Inactive)
ROOT
ATOM      1  C   UNL d   1      -3.284  -2.028  -1.781  0.00  0.00     0.172 C 
ATOM      2  N   UNL d   1      -1.848  -2.155  -1.702  0.00  0.00    -0.070 N 
ATOM      3  C1  UNL d   1      -0.988  -2.173  -2.768  0.00  0.00    -0.004 A 
ATOM      4  C2  UNL d   1       0.292  -2.308  -2.275  0.00  0.00    -0.047 A 
ATOM      5  C3  UNL d   1       0.198  -2.375  -0.865  0.00  0.00    -0.047 A 
ATOM      6  C4  UNL d   1      -1.138  -2.278  -0.537  0.00  0.00    -0.004 A 
ENDROOT
TORSDOF 0
ENDMDL
