MODEL 1
REMARK minimizedAffinity 12.1264181
REMARK minimizedRMSD -1
REMARK  0 active torsions:
REMARK  status: ('A' for Active; 'I' for Inactive)
ROOT
ATOM      1  C   UNL d   1       4.170  -5.470   5.829  0.00  0.00     0.172 C 
ATOM      2  N   UNL d   1       4.642  -4.107   5.763  0.00  0.00    -0.070 N 
ATOM      3  C1  UNL d   1       3.874  -3.009   5.480  0.00  0.00    -0.004 A 
ATOM      4  C2  UNL d   1       4.693  -1.901   5.514  0.00  0.00    -0.047 A 
ATOM      5  C3  UNL d   1       5.999  -2.349   5.827  0.00  0.00    -0.047 A 
ATOM      6  C4  UNL d   1       5.939  -3.718   5.976  0.00  0.00    -0.004 A 
ENDROOT
TORSDOF 0
ENDMDL
