MODEL 1
REMARK minimizedAffinity 2.13311315
REMARK minimizedRMSD -1
REMARK  0 active torsions:
REMARK  status: ('A' for Active; 'I' for Inactive)
ROOT
ATOM      1  C   UNL d   1      -2.140  -2.404  -3.510  0.00  0.00     0.172 C 
ATOM      2  N   UNL d   1      -1.428  -2.235  -2.265  0.00  0.00    -0.070 N 
ATOM      3  C1  UNL d   1      -1.811  -1.424  -1.230  0.00  0.00    -0.004 A 
ATOM      4  C2  UNL d   1      -0.870  -1.542  -0.230  0.00  0.00    -0.047 A 
ATOM      5  C3  UNL d   1       0.113  -2.455  -0.680  0.00  0.00    -0.047 A 
ATOM      6  C4  UNL d   1      -0.257  -2.869  -1.942  0.00  0.00    -0.004 A 
ENDROOT
TORSDOF 0
ENDMDL
