MODEL 1
REMARK minimizedAffinity 8.77631569
REMARK minimizedRMSD -1
REMARK  0 active torsions:
REMARK  status: ('A' for Active; 'I' for Inactive)
ROOT
ATOM      1  C   UNL d   1      -2.735  -4.027  -5.930  0.00  0.00     0.172 C 
ATOM      2  N   UNL d   1      -3.992  -4.605  -5.518  0.00  0.00    -0.070 N 
ATOM      3  C1  UNL d   1      -4.851  -4.072  -4.593  0.00  0.00    -0.004 A 
ATOM      4  C2  UNL d   1      -5.932  -4.920  -4.484  0.00  0.00    -0.047 A 
ATOM      5  C3  UNL d   1      -5.715  -6.000  -5.372  0.00  0.00    -0.047 A 
ATOM      6  C4  UNL d   1      -4.507  -5.779  -5.999  0.00  0.00    -0.004 A 
ENDROOT
TORSDOF 0
ENDMDL
