MODEL 1
REMARK minimizedAffinity 9.93822193
REMARK minimizedRMSD -1
REMARK  0 active torsions:
REMARK  status: ('A' for Active; 'I' for Inactive)
ROOT
ATOM      1  C   UNL d   1      -1.152  -0.629  -1.282  0.00  0.00     0.172 C 
ATOM      2  N   UNL d   1      -0.482  -1.905  -1.383  0.00  0.00    -0.070 N 
ATOM      3  C1  UNL d   1       0.072  -2.600  -0.341  0.00  0.00    -0.004 A 
ATOM      4  C2  UNL d   1       0.610  -3.763  -0.849  0.00  0.00    -0.047 A 
ATOM      5  C3  UNL d   1       0.372  -3.766  -2.244  0.00  0.00    -0.047 A 
ATOM      6  C4  UNL d   1      -0.306  -2.604  -2.547  0.00  0.00    -0.004 A 
ENDROOT
TORSDOF 0
ENDMDL
