MODEL 1
REMARK minimizedAffinity 6.14792395
REMARK minimizedRMSD -1
REMARK  0 active torsions:
REMARK  status: ('A' for Active; 'I' for Inactive)
ROOT
ATOM      1  C   UNL d   1      -1.229   0.156  -1.077  0.00  0.00     0.172 C 
ATOM      2  N   UNL d   1      -0.706  -1.143  -1.428  0.00  0.00    -0.070 N 
ATOM      3  C1  UNL d   1       0.205  -1.860  -0.699  0.00  0.00    -0.004 A 
ATOM      4  C2  UNL d   1       0.445  -3.041  -1.367  0.00  0.00    -0.047 A 
ATOM      5  C3  UNL d   1      -0.348  -3.034  -2.539  0.00  0.00    -0.047 A 
ATOM      6  C4  UNL d   1      -1.051  -1.847  -2.551  0.00  0.00    -0.004 A 
ENDROOT
TORSDOF 0
ENDMDL
