MODEL 1
REMARK minimizedAffinity 6.45923853
REMARK minimizedRMSD -1
REMARK  0 active torsions:
REMARK  status: ('A' for Active; 'I' for Inactive)
ROOT
ATOM      1  C   UNL d   1      -0.937   0.122  -1.084  0.00  0.00     0.172 C 
ATOM      2  N   UNL d   1      -0.640  -1.234  -1.484  0.00  0.00    -0.070 N 
ATOM      3  C1  UNL d   1      -1.111  -1.856  -2.609  0.00  0.00    -0.004 A 
ATOM      4  C2  UNL d   1      -0.599  -3.135  -2.630  0.00  0.00    -0.047 A 
ATOM      5  C3  UNL d   1       0.207  -3.287  -1.477  0.00  0.00    -0.047 A 
ATOM      6  C4  UNL d   1       0.164  -2.095  -0.785  0.00  0.00    -0.004 A 
ENDROOT
TORSDOF 0
ENDMDL
