MODEL 1
REMARK minimizedAffinity 4.1016202
REMARK minimizedRMSD -1
REMARK  0 active torsions:
REMARK  status: ('A' for Active; 'I' for Inactive)
ROOT
ATOM      1  C   UNL d   1       1.329   5.303  -2.444  0.00  0.00     0.172 C 
ATOM      2  N   UNL d   1       1.198   4.873  -1.071  0.00  0.00    -0.070 N 
ATOM      3  C1  UNL d   1       2.015   3.978  -0.434  0.00  0.00    -0.004 A 
ATOM      4  C2  UNL d   1       1.560   3.838   0.859  0.00  0.00    -0.047 A 
ATOM      5  C3  UNL d   1       0.429   4.676   1.004  0.00  0.00    -0.047 A 
ATOM      6  C4  UNL d   1       0.228   5.306  -0.207  0.00  0.00    -0.004 A 
ENDROOT
TORSDOF 0
ENDMDL
