MODEL 1
REMARK minimizedAffinity -0.159024388
REMARK minimizedRMSD -1
REMARK  0 active torsions:
REMARK  status: ('A' for Active; 'I' for Inactive)
ROOT
ATOM      1  C   UNL d   1      -1.125  -2.998  -6.000  0.00  0.00     0.172 C 
ATOM      2  N   UNL d   1      -0.520  -2.704  -4.722  0.00  0.00    -0.070 N 
ATOM      3  C1  UNL d   1      -1.161  -2.155  -3.643  0.00  0.00    -0.004 A 
ATOM      4  C2  UNL d   1      -0.242  -2.035  -2.623  0.00  0.00    -0.047 A 
ATOM      5  C3  UNL d   1       0.993  -2.527  -3.105  0.00  0.00    -0.047 A 
ATOM      6  C4  UNL d   1       0.793  -2.935  -4.407  0.00  0.00    -0.004 A 
ENDROOT
TORSDOF 0
ENDMDL
