MODEL 1
REMARK minimizedAffinity 10.1006746
REMARK minimizedRMSD -1
REMARK  0 active torsions:
REMARK  status: ('A' for Active; 'I' for Inactive)
ROOT
ATOM      1  C   UNL d   1       1.124   6.000  -2.048  0.00  0.00     0.172 C 
ATOM      2  N   UNL d   1       1.065   5.212  -0.839  0.00  0.00    -0.070 N 
ATOM      3  C1  UNL d   1       1.968   4.251  -0.468  0.00  0.00    -0.004 A 
ATOM      4  C2  UNL d   1       1.561   3.735   0.744  0.00  0.00    -0.047 A 
ATOM      5  C3  UNL d   1       0.372   4.409   1.113  0.00  0.00    -0.047 A 
ATOM      6  C4  UNL d   1       0.088   5.318   0.116  0.00  0.00    -0.004 A 
ENDROOT
TORSDOF 0
ENDMDL
