MODEL 1
REMARK minimizedAffinity 2.74343419
REMARK minimizedRMSD -1
REMARK  0 active torsions:
REMARK  status: ('A' for Active; 'I' for Inactive)
ROOT
ATOM      1  C   UNL d   1       0.282  -5.994  -1.979  0.00  0.00     0.172 C 
ATOM      2  N   UNL d   1      -0.020  -4.590  -2.132  0.00  0.00    -0.070 N 
ATOM      3  C1  UNL d   1      -0.358  -3.970  -3.305  0.00  0.00    -0.004 A 
ATOM      4  C2  UNL d   1      -0.568  -2.636  -3.031  0.00  0.00    -0.047 A 
ATOM      5  C3  UNL d   1      -0.347  -2.447  -1.646  0.00  0.00    -0.047 A 
ATOM      6  C4  UNL d   1      -0.009  -3.674  -1.114  0.00  0.00    -0.004 A 
ENDROOT
TORSDOF 0
ENDMDL
