MODEL 1
REMARK minimizedAffinity 7.15568638
REMARK minimizedRMSD -1
REMARK  0 active torsions:
REMARK  status: ('A' for Active; 'I' for Inactive)
ROOT
ATOM      1  C   UNL d   1      -1.034   0.105  -1.116  0.00  0.00     0.172 C 
ATOM      2  N   UNL d   1      -0.597  -1.184  -1.599  0.00  0.00    -0.070 N 
ATOM      3  C1  UNL d   1      -0.783  -1.666  -2.867  0.00  0.00    -0.004 A 
ATOM      4  C2  UNL d   1      -0.224  -2.924  -2.926  0.00  0.00    -0.047 A 
ATOM      5  C3  UNL d   1       0.316  -3.208  -1.649  0.00  0.00    -0.047 A 
ATOM      6  C4  UNL d   1       0.070  -2.114  -0.846  0.00  0.00    -0.004 A 
ENDROOT
TORSDOF 0
ENDMDL
