MODEL 1
REMARK minimizedAffinity 12.1781626
REMARK minimizedRMSD -1
REMARK  1 active torsions:
REMARK  status: ('A' for Active; 'I' for Inactive)
REMARK    1  A    between atoms: C1_2  and  C2_3 
ROOT
ATOM      1  C2  UNL d   1      -1.485   1.898   1.997  0.00  0.00    -0.073 A 
ATOM      2  C3  UNL d   1      -2.731   1.863   1.362  0.00  0.00    -0.002 A 
ATOM      3  C4  UNL d   1      -3.326   0.641   1.045  0.00  0.00     0.004 A 
ATOM      4  C5  UNL d   1      -2.686  -0.556   1.365  0.00  0.00    -0.004 A 
ATOM      5  C6  UNL d   1      -1.445  -0.542   2.011  0.00  0.00    -0.075 A 
ATOM      6  C7  UNL d   1      -0.742  -1.820   2.360  0.00  0.00     0.076 C 
ATOM      7  C8  UNL d   1      -0.853   0.689   2.323  0.00  0.00     0.001 A 
ENDROOT
BRANCH   1   8
ATOM      8  C1  UNL d   1      -0.841   3.215   2.347  0.00  0.00     0.053 C 
ATOM      9  C   UNL d   1       0.517   3.028   3.004  0.00  0.00     0.018 C 
ENDBRANCH   1   8
TORSDOF 1
ENDMDL
