MODEL 1
REMARK minimizedAffinity 8.80915833
REMARK minimizedRMSD -1
REMARK  1 active torsions:
REMARK  status: ('A' for Active; 'I' for Inactive)
REMARK    1  A    between atoms: C1_2  and  C2_3 
ROOT
ATOM      1  C2  UNL d   1      -4.645  -4.587  -0.647  0.00  0.00    -0.073 A 
ATOM      2  C3  UNL d   1      -5.245  -3.533  -1.346  0.00  0.00    -0.002 A 
ATOM      3  C4  UNL d   1      -5.760  -2.434  -0.657  0.00  0.00     0.004 A 
ATOM      4  C5  UNL d   1      -5.674  -2.374   0.734  0.00  0.00    -0.004 A 
ATOM      5  C6  UNL d   1      -5.068  -3.412   1.449  0.00  0.00    -0.075 A 
ATOM      6  C7  UNL d   1      -4.970  -3.363   2.945  0.00  0.00     0.076 C 
ATOM      7  C8  UNL d   1      -4.556  -4.513   0.751  0.00  0.00     0.001 A 
ENDROOT
BRANCH   1   8
ATOM      8  C1  UNL d   1      -4.082  -5.773  -1.386  0.00  0.00     0.053 C 
ATOM      9  C   UNL d   1      -4.779  -5.998  -2.719  0.00  0.00     0.018 C 
ENDBRANCH   1   8
TORSDOF 1
ENDMDL
