MODEL 1
REMARK minimizedAffinity 16.2084026
REMARK minimizedRMSD -1
REMARK  1 active torsions:
REMARK  status: ('A' for Active; 'I' for Inactive)
REMARK    1  A    between atoms: C1_2  and  C2_3 
ROOT
ATOM      1  C2  UNL d   1      -1.841  -0.522   2.988  0.00  0.00    -0.073 A 
ATOM      2  C3  UNL d   1      -0.626   0.137   2.768  0.00  0.00    -0.002 A 
ATOM      3  C4  UNL d   1      -0.532   1.136   1.798  0.00  0.00     0.004 A 
ATOM      4  C5  UNL d   1      -1.651   1.491   1.045  0.00  0.00    -0.004 A 
ATOM      5  C6  UNL d   1      -2.877   0.852   1.258  0.00  0.00    -0.075 A 
ATOM      6  C7  UNL d   1      -4.090   1.221   0.455  0.00  0.00     0.076 C 
ATOM      7  C8  UNL d   1      -2.963  -0.152   2.232  0.00  0.00     0.001 A 
ENDROOT
BRANCH   1   8
ATOM      8  C1  UNL d   1      -1.949  -1.597   4.038  0.00  0.00     0.053 C 
ATOM      9  C   UNL d   1      -3.185  -1.423   4.907  0.00  0.00     0.018 C 
ENDBRANCH   1   8
TORSDOF 1
ENDMDL
