MODEL 1
REMARK minimizedAffinity -5.67872095
REMARK minimizedRMSD -1
REMARK  1 active torsions:
REMARK  status: ('A' for Active; 'I' for Inactive)
REMARK    1  A    between atoms: C1_2  and  C2_3 
ROOT
ATOM      1  C2  UNL d   1      -0.747  -0.098  -0.823  0.00  0.00    -0.073 A 
ATOM      2  C3  UNL d   1       0.538   0.407  -1.051  0.00  0.00    -0.002 A 
ATOM      3  C4  UNL d   1       1.400   0.649   0.019  0.00  0.00     0.004 A 
ATOM      4  C5  UNL d   1       0.990   0.382   1.325  0.00  0.00    -0.004 A 
ATOM      5  C6  UNL d   1      -0.285  -0.135   1.572  0.00  0.00    -0.075 A 
ATOM      6  C7  UNL d   1      -0.742  -0.427   2.972  0.00  0.00     0.076 C 
ATOM      7  C8  UNL d   1      -1.147  -0.373   0.493  0.00  0.00     0.001 A 
ENDROOT
BRANCH   1   8
ATOM      8  C1  UNL d   1      -1.680  -0.367  -1.976  0.00  0.00     0.053 C 
ATOM      9  C   UNL d   1      -1.377  -1.693  -2.657  0.00  0.00     0.018 C 
ENDBRANCH   1   8
TORSDOF 1
ENDMDL
