MODEL 1
REMARK minimizedAffinity -1.70974016
REMARK minimizedRMSD -1
REMARK  1 active torsions:
REMARK  status: ('A' for Active; 'I' for Inactive)
REMARK    1  A    between atoms: C1_2  and  C2_3 
ROOT
ATOM      1  C2  UNL d   1      -0.434  -1.762  -2.274  0.00  0.00    -0.073 A 
ATOM      2  C3  UNL d   1       0.643  -2.055  -3.118  0.00  0.00    -0.002 A 
ATOM      3  C4  UNL d   1       1.855  -1.378  -2.976  0.00  0.00     0.004 A 
ATOM      4  C5  UNL d   1       2.005  -0.408  -1.985  0.00  0.00    -0.004 A 
ATOM      5  C6  UNL d   1       0.944  -0.109  -1.124  0.00  0.00    -0.075 A 
ATOM      6  C7  UNL d   1       1.088   0.933  -0.054  0.00  0.00     0.076 C 
ATOM      7  C8  UNL d   1      -0.271  -0.792  -1.275  0.00  0.00     0.001 A 
ENDROOT
BRANCH   1   8
ATOM      8  C1  UNL d   1      -1.742  -2.496  -2.420  0.00  0.00     0.053 C 
ATOM      9  C   UNL d   1      -2.825  -1.615  -3.024  0.00  0.00     0.018 C 
ENDBRANCH   1   8
TORSDOF 1
ENDMDL
