MODEL 1
REMARK minimizedAffinity 2.34059906
REMARK minimizedRMSD -1
REMARK  1 active torsions:
REMARK  status: ('A' for Active; 'I' for Inactive)
REMARK    1  A    between atoms: C1_2  and  C2_3 
ROOT
ATOM      1  C2  UNL d   1       0.945  -0.222  -1.533  0.00  0.00    -0.073 A 
ATOM      2  C3  UNL d   1       0.358  -1.394  -2.023  0.00  0.00    -0.002 A 
ATOM      3  C4  UNL d   1       0.969  -2.111  -3.052  0.00  0.00     0.004 A 
ATOM      4  C5  UNL d   1       2.174  -1.669  -3.597  0.00  0.00    -0.004 A 
ATOM      5  C6  UNL d   1       2.783  -0.507  -3.112  0.00  0.00    -0.075 A 
ATOM      6  C7  UNL d   1       4.078  -0.016  -3.689  0.00  0.00     0.076 C 
ATOM      7  C8  UNL d   1       2.162   0.210  -2.081  0.00  0.00     0.001 A 
ENDROOT
BRANCH   1   8
ATOM      8  C1  UNL d   1       0.292   0.553  -0.417  0.00  0.00     0.053 C 
ATOM      9  C   UNL d   1       1.244   0.789   0.745  0.00  0.00     0.018 C 
ENDBRANCH   1   8
TORSDOF 1
ENDMDL
