MODEL 1
REMARK minimizedAffinity -0.90844059
REMARK minimizedRMSD -1
REMARK  1 active torsions:
REMARK  status: ('A' for Active; 'I' for Inactive)
REMARK    1  A    between atoms: C1_2  and  C2_3 
ROOT
ATOM      1  C2  UNL d   1       0.623   0.304  -1.641  0.00  0.00    -0.073 A 
ATOM      2  C3  UNL d   1       1.070   0.353  -0.315  0.00  0.00    -0.002 A 
ATOM      3  C4  UNL d   1       0.156   0.337   0.738  0.00  0.00     0.004 A 
ATOM      4  C5  UNL d   1      -1.213   0.267   0.479  0.00  0.00    -0.004 A 
ATOM      5  C6  UNL d   1      -1.679   0.206  -0.838  0.00  0.00    -0.075 A 
ATOM      6  C7  UNL d   1      -3.148   0.132  -1.134  0.00  0.00     0.076 C 
ATOM      7  C8  UNL d   1      -0.755   0.224  -1.891  0.00  0.00     0.001 A 
ENDROOT
BRANCH   1   8
ATOM      8  C1  UNL d   1       1.607   0.314  -2.782  0.00  0.00     0.053 C 
ATOM      9  C   UNL d   1       1.622  -1.008  -3.532  0.00  0.00     0.018 C 
ENDBRANCH   1   8
TORSDOF 1
ENDMDL
