MODEL 1
REMARK minimizedAffinity -5.23688269
REMARK minimizedRMSD -1
REMARK  1 active torsions:
REMARK  status: ('A' for Active; 'I' for Inactive)
REMARK    1  A    between atoms: C1_2  and  C2_3 
ROOT
ATOM      1  C2  UNL d   1      -1.750  -3.601  -2.524  0.00  0.00    -0.073 A 
ATOM      2  C3  UNL d   1      -0.743  -3.376  -3.469  0.00  0.00    -0.002 A 
ATOM      3  C4  UNL d   1      -0.270  -2.084  -3.701  0.00  0.00     0.004 A 
ATOM      4  C5  UNL d   1      -0.794  -1.006  -2.987  0.00  0.00    -0.004 A 
ATOM      5  C6  UNL d   1      -1.793  -1.212  -2.031  0.00  0.00    -0.075 A 
ATOM      6  C7  UNL d   1      -2.369  -0.063  -1.256  0.00  0.00     0.076 C 
ATOM      7  C8  UNL d   1      -2.265  -2.512  -1.806  0.00  0.00     0.001 A 
ENDROOT
BRANCH   1   8
ATOM      8  C1  UNL d   1      -2.260  -4.996  -2.266  0.00  0.00     0.053 C 
ATOM      9  C   UNL d   1      -2.145  -5.881  -3.496  0.00  0.00     0.018 C 
ENDBRANCH   1   8
TORSDOF 1
ENDMDL
