MODEL 1
REMARK minimizedAffinity -1.87470806
REMARK minimizedRMSD -1
REMARK  1 active torsions:
REMARK  status: ('A' for Active; 'I' for Inactive)
REMARK    1  A    between atoms: C1_2  and  C2_3 
ROOT
ATOM      1  C2  UNL d   1      -0.667  -2.032  -2.419  0.00  0.00    -0.073 A 
ATOM      2  C3  UNL d   1       0.378  -2.263  -3.320  0.00  0.00    -0.002 A 
ATOM      3  C4  UNL d   1       1.540  -1.492  -3.265  0.00  0.00     0.004 A 
ATOM      4  C5  UNL d   1       1.671  -0.488  -2.306  0.00  0.00    -0.004 A 
ATOM      5  C6  UNL d   1       0.642  -0.250  -1.389  0.00  0.00    -0.075 A 
ATOM      6  C7  UNL d   1       0.766   0.828  -0.352  0.00  0.00     0.076 C 
ATOM      7  C8  UNL d   1      -0.523  -1.027  -1.453  0.00  0.00     0.001 A 
ENDROOT
BRANCH   1   8
ATOM      8  C1  UNL d   1      -1.921  -2.867  -2.471  0.00  0.00     0.053 C 
ATOM      9  C   UNL d   1      -1.955  -3.913  -1.368  0.00  0.00     0.018 C 
ENDBRANCH   1   8
TORSDOF 1
ENDMDL
