MODEL 1
REMARK minimizedAffinity -4.00298691
REMARK minimizedRMSD -1
REMARK  1 active torsions:
REMARK  status: ('A' for Active; 'I' for Inactive)
REMARK    1  A    between atoms: C1_2  and  C2_3 
ROOT
ATOM      1  C2  UNL d   1      -1.470  -1.705  -2.136  0.00  0.00    -0.073 A 
ATOM      2  C3  UNL d   1      -1.522  -0.697  -1.167  0.00  0.00    -0.002 A 
ATOM      3  C4  UNL d   1      -0.425   0.141  -0.963  0.00  0.00     0.004 A 
ATOM      4  C5  UNL d   1       0.730  -0.015  -1.729  0.00  0.00    -0.004 A 
ATOM      5  C6  UNL d   1       0.797  -1.009  -2.711  0.00  0.00    -0.075 A 
ATOM      6  C7  UNL d   1       2.033  -1.191  -3.542  0.00  0.00     0.076 C 
ATOM      7  C8  UNL d   1      -0.308  -1.848  -2.908  0.00  0.00     0.001 A 
ENDROOT
BRANCH   1   8
ATOM      8  C1  UNL d   1      -2.654  -2.608  -2.365  0.00  0.00     0.053 C 
ATOM      9  C   UNL d   1      -2.316  -4.068  -2.105  0.00  0.00     0.018 C 
ENDBRANCH   1   8
TORSDOF 1
ENDMDL
