MODEL 1
REMARK minimizedAffinity -3.13114071
REMARK minimizedRMSD -1
REMARK  1 active torsions:
REMARK  status: ('A' for Active; 'I' for Inactive)
REMARK    1  A    between atoms: C1_2  and  C2_3 
ROOT
ATOM      1  C2  UNL d   1       0.225   0.461   1.708  0.00  0.00    -0.073 A 
ATOM      2  C3  UNL d   1       1.381   0.542   0.923  0.00  0.00    -0.002 A 
ATOM      3  C4  UNL d   1       1.287   0.581  -0.468  0.00  0.00     0.004 A 
ATOM      4  C5  UNL d   1       0.038   0.546  -1.089  0.00  0.00    -0.004 A 
ATOM      5  C6  UNL d   1      -1.129   0.478  -0.321  0.00  0.00    -0.075 A 
ATOM      6  C7  UNL d   1      -2.480   0.438  -0.973  0.00  0.00     0.076 C 
ATOM      7  C8  UNL d   1      -1.026   0.436   1.076  0.00  0.00     0.001 A 
ENDROOT
BRANCH   1   8
ATOM      8  C1  UNL d   1       0.321   0.425   3.212  0.00  0.00     0.053 C 
ATOM      9  C   UNL d   1      -0.966  -0.068   3.854  0.00  0.00     0.018 C 
ENDBRANCH   1   8
TORSDOF 1
ENDMDL
