MODEL 1
REMARK minimizedAffinity 4.13520813
REMARK minimizedRMSD -1
REMARK  0 active torsions:
REMARK  status: ('A' for Active; 'I' for Inactive)
ROOT
ATOM      1  C   UNL d   1       2.635   1.258   5.980  0.00  0.00     0.077 C 
ATOM      2  C1  UNL d   1       2.928   2.729   5.978  0.00  0.00    -0.074 A 
ATOM      3  C2  UNL d   1       1.892   3.668   5.985  0.00  0.00    -0.005 A 
ATOM      4  C3  UNL d   1       2.180   5.033   5.993  0.00  0.00     0.006 A 
ATOM      5  C4  UNL d   1       3.505   5.471   5.994  0.00  0.00    -0.005 A 
ATOM      6  C5  UNL d   1       4.554   4.546   5.988  0.00  0.00    -0.074 A 
ATOM      7  C6  UNL d   1       5.984   5.000   5.999  0.00  0.00     0.077 C 
ATOM      8  C7  UNL d   1       4.256   3.177   5.987  0.00  0.00    -0.001 A 
ENDROOT
TORSDOF 0
ENDMDL
