MODEL 1
REMARK minimizedAffinity 3.20708656
REMARK minimizedRMSD -1
REMARK  0 active torsions:
REMARK  status: ('A' for Active; 'I' for Inactive)
ROOT
ATOM      1  C   UNL d   1       5.068   1.176   1.949  0.00  0.00     0.077 C 
ATOM      2  C1  UNL d   1       4.572   0.621   0.647  0.00  0.00    -0.074 A 
ATOM      3  C2  UNL d   1       4.723   1.338  -0.544  0.00  0.00    -0.005 A 
ATOM      4  C3  UNL d   1       4.265   0.805  -1.749  0.00  0.00     0.006 A 
ATOM      5  C4  UNL d   1       3.652  -0.448  -1.775  0.00  0.00    -0.005 A 
ATOM      6  C5  UNL d   1       3.494  -1.181  -0.594  0.00  0.00    -0.074 A 
ATOM      7  C6  UNL d   1       2.847  -2.534  -0.606  0.00  0.00     0.077 C 
ATOM      8  C7  UNL d   1       3.963  -0.641   0.612  0.00  0.00    -0.001 A 
ENDROOT
TORSDOF 0
ENDMDL
