MODEL 1
REMARK minimizedAffinity 0.241717681
REMARK minimizedRMSD -1
REMARK  0 active torsions:
REMARK  status: ('A' for Active; 'I' for Inactive)
ROOT
ATOM      1  C   UNL d   1       1.163   5.400   6.000  0.00  0.00     0.077 C 
ATOM      2  C1  UNL d   1       2.482   4.686   5.986  0.00  0.00    -0.074 A 
ATOM      3  C2  UNL d   1       3.685   5.399   5.978  0.00  0.00    -0.005 A 
ATOM      4  C3  UNL d   1       4.904   4.721   5.975  0.00  0.00     0.006 A 
ATOM      5  C4  UNL d   1       4.932   3.326   5.978  0.00  0.00    -0.005 A 
ATOM      6  C5  UNL d   1       3.739   2.596   5.986  0.00  0.00    -0.074 A 
ATOM      7  C6  UNL d   1       3.751   1.096   6.000  0.00  0.00     0.077 C 
ATOM      8  C7  UNL d   1       2.518   3.285   5.997  0.00  0.00    -0.001 A 
ENDROOT
TORSDOF 0
ENDMDL
