MODEL 1
REMARK minimizedAffinity -2.21537876
REMARK minimizedRMSD -1
REMARK  0 active torsions:
REMARK  status: ('A' for Active; 'I' for Inactive)
ROOT
ATOM      1  C   UNL d   1       0.911   5.868   5.434  0.00  0.00     0.077 C 
ATOM      2  C1  UNL d   1       2.252   5.225   5.624  0.00  0.00    -0.074 A 
ATOM      3  C2  UNL d   1       3.412   6.000   5.728  0.00  0.00    -0.005 A 
ATOM      4  C3  UNL d   1       4.652   5.388   5.915  0.00  0.00     0.006 A 
ATOM      5  C4  UNL d   1       4.744   3.999   6.000  0.00  0.00    -0.005 A 
ATOM      6  C5  UNL d   1       3.595   3.208   5.899  0.00  0.00    -0.074 A 
ATOM      7  C6  UNL d   1       3.675   1.713   5.999  0.00  0.00     0.077 C 
ATOM      8  C7  UNL d   1       2.352   3.830   5.719  0.00  0.00    -0.001 A 
ENDROOT
TORSDOF 0
ENDMDL
