MODEL 1
REMARK minimizedAffinity 3.39176726
REMARK minimizedRMSD -1
REMARK  0 active torsions:
REMARK  status: ('A' for Active; 'I' for Inactive)
ROOT
ATOM      1  C   UNL d   1       1.655  -6.000  -3.295  0.00  0.00     0.077 C 
ATOM      2  C1  UNL d   1       2.656  -5.274  -4.144  0.00  0.00    -0.074 A 
ATOM      3  C2  UNL d   1       2.459  -3.936  -4.502  0.00  0.00    -0.005 A 
ATOM      4  C3  UNL d   1       3.404  -3.271  -5.284  0.00  0.00     0.006 A 
ATOM      5  C4  UNL d   1       4.552  -3.936  -5.715  0.00  0.00    -0.005 A 
ATOM      6  C5  UNL d   1       4.766  -5.274  -5.367  0.00  0.00    -0.074 A 
ATOM      7  C6  UNL d   1       6.000  -6.000  -5.814  0.00  0.00     0.077 C 
ATOM      8  C7  UNL d   1       3.816  -5.933  -4.575  0.00  0.00    -0.001 A 
ENDROOT
TORSDOF 0
ENDMDL
