MODEL 1
REMARK minimizedAffinity 3.78818965
REMARK minimizedRMSD -1
REMARK  0 active torsions:
REMARK  status: ('A' for Active; 'I' for Inactive)
ROOT
ATOM      1  C   UNL d   1      -0.542  -1.201  -2.753  0.00  0.00     0.077 C 
ATOM      2  C1  UNL d   1      -0.025  -0.396  -1.598  0.00  0.00    -0.074 A 
ATOM      3  C2  UNL d   1       1.336  -0.092  -1.486  0.00  0.00    -0.005 A 
ATOM      4  C3  UNL d   1       1.801   0.666  -0.411  0.00  0.00     0.006 A 
ATOM      5  C4  UNL d   1       0.912   1.127   0.560  0.00  0.00    -0.005 A 
ATOM      6  C5  UNL d   1      -0.452   0.834   0.464  0.00  0.00    -0.074 A 
ATOM      7  C6  UNL d   1      -1.423   1.330   1.495  0.00  0.00     0.077 C 
ATOM      8  C7  UNL d   1      -0.913   0.078  -0.622  0.00  0.00    -0.001 A 
ENDROOT
TORSDOF 0
ENDMDL
