MODEL 1
REMARK minimizedAffinity -3.43255639
REMARK minimizedRMSD -1
REMARK  0 active torsions:
REMARK  status: ('A' for Active; 'I' for Inactive)
ROOT
ATOM      1  C   UNL d   1      -3.143   5.998  -5.910  0.00  0.00     0.077 C 
ATOM      2  C1  UNL d   1      -2.076   4.945  -5.934  0.00  0.00    -0.074 A 
ATOM      3  C2  UNL d   1      -2.406   3.587  -5.958  0.00  0.00    -0.005 A 
ATOM      4  C3  UNL d   1      -1.402   2.619  -5.990  0.00  0.00     0.006 A 
ATOM      5  C4  UNL d   1      -0.060   2.999  -5.999  0.00  0.00    -0.005 A 
ATOM      6  C5  UNL d   1       0.290   4.353  -5.977  0.00  0.00    -0.074 A 
ATOM      7  C6  UNL d   1       1.728   4.779  -5.997  0.00  0.00     0.077 C 
ATOM      8  C7  UNL d   1      -0.725   5.320  -5.952  0.00  0.00    -0.001 A 
ENDROOT
TORSDOF 0
ENDMDL
