MODEL 1
REMARK minimizedAffinity 1.63281488
REMARK minimizedRMSD -1
REMARK  0 active torsions:
REMARK  status: ('A' for Active; 'I' for Inactive)
ROOT
ATOM      1  C   UNL d   1      -3.905   5.912  -5.850  0.00  0.00     0.077 C 
ATOM      2  C1  UNL d   1      -2.987   4.726  -5.886  0.00  0.00    -0.074 A 
ATOM      3  C2  UNL d   1      -3.496   3.424  -5.905  0.00  0.00    -0.005 A 
ATOM      4  C3  UNL d   1      -2.631   2.331  -5.947  0.00  0.00     0.006 A 
ATOM      5  C4  UNL d   1      -1.249   2.529  -5.970  0.00  0.00    -0.005 A 
ATOM      6  C5  UNL d   1      -0.722   3.824  -5.952  0.00  0.00    -0.074 A 
ATOM      7  C6  UNL d   1       0.759   4.055  -5.987  0.00  0.00     0.077 C 
ATOM      8  C7  UNL d   1      -1.599   4.917  -5.917  0.00  0.00    -0.001 A 
ENDROOT
TORSDOF 0
ENDMDL
