MODEL 1
REMARK minimizedAffinity -0.136940464
REMARK minimizedRMSD -1
REMARK  0 active torsions:
REMARK  status: ('A' for Active; 'I' for Inactive)
ROOT
ATOM      1  C   UNL d   1      -0.932   4.664  -5.999  0.00  0.00     0.077 C 
ATOM      2  C1  UNL d   1       0.509   4.249  -5.989  0.00  0.00    -0.074 A 
ATOM      3  C2  UNL d   1       0.867   2.897  -5.991  0.00  0.00    -0.005 A 
ATOM      4  C3  UNL d   1       2.212   2.525  -5.992  0.00  0.00     0.006 A 
ATOM      5  C4  UNL d   1       3.210   3.500  -5.991  0.00  0.00    -0.005 A 
ATOM      6  C5  UNL d   1       2.871   4.857  -5.990  0.00  0.00    -0.074 A 
ATOM      7  C6  UNL d   1       3.931   5.918  -5.999  0.00  0.00     0.077 C 
ATOM      8  C7  UNL d   1       1.518   5.222  -5.997  0.00  0.00    -0.001 A 
ENDROOT
TORSDOF 0
ENDMDL
