MODEL 1
REMARK minimizedAffinity -1.47595644
REMARK minimizedRMSD -1
REMARK  0 active torsions:
REMARK  status: ('A' for Active; 'I' for Inactive)
ROOT
ATOM      1  C   UNL d   1       0.902   4.335  -5.999  0.00  0.00     0.077 C 
ATOM      2  C1  UNL d   1       2.329   3.872  -5.992  0.00  0.00    -0.074 A 
ATOM      3  C2  UNL d   1       2.644   2.510  -5.997  0.00  0.00    -0.005 A 
ATOM      4  C3  UNL d   1       3.975   2.095  -5.999  0.00  0.00     0.006 A 
ATOM      5  C4  UNL d   1       5.005   3.037  -5.997  0.00  0.00    -0.005 A 
ATOM      6  C5  UNL d   1       4.710   4.404  -5.993  0.00  0.00    -0.074 A 
ATOM      7  C6  UNL d   1       5.804   5.430  -6.000  0.00  0.00     0.077 C 
ATOM      8  C7  UNL d   1       3.369   4.813  -5.997  0.00  0.00    -0.001 A 
ENDROOT
TORSDOF 0
ENDMDL
