MODEL 1
REMARK minimizedAffinity -2.18622589
REMARK minimizedRMSD -1
REMARK  0 active torsions:
REMARK  status: ('A' for Active; 'I' for Inactive)
ROOT
ATOM      1  C   UNL d   1      -3.998   5.949  -6.000  0.00  0.00     0.077 C 
ATOM      2  C1  UNL d   1      -2.749   5.119  -5.988  0.00  0.00    -0.074 A 
ATOM      3  C2  UNL d   1      -2.814   3.722  -5.989  0.00  0.00    -0.005 A 
ATOM      4  C3  UNL d   1      -1.643   2.964  -5.987  0.00  0.00     0.006 A 
ATOM      5  C4  UNL d   1      -0.398   3.593  -5.984  0.00  0.00    -0.005 A 
ATOM      6  C5  UNL d   1      -0.313   4.989  -5.984  0.00  0.00    -0.074 A 
ATOM      7  C6  UNL d   1       1.017   5.682  -5.990  0.00  0.00     0.077 C 
ATOM      8  C7  UNL d   1      -1.494   5.744  -5.993  0.00  0.00    -0.001 A 
ENDROOT
TORSDOF 0
ENDMDL
