MODEL 1
REMARK minimizedAffinity 3.30655599
REMARK minimizedRMSD -1
REMARK  0 active torsions:
REMARK  status: ('A' for Active; 'I' for Inactive)
ROOT
ATOM      1  C   UNL d   1       1.778   1.435  -6.000  0.00  0.00     0.077 C 
ATOM      2  C1  UNL d   1       0.900   2.650  -5.991  0.00  0.00    -0.074 A 
ATOM      3  C2  UNL d   1       1.451   3.936  -5.997  0.00  0.00    -0.005 A 
ATOM      4  C3  UNL d   1       0.621   5.057  -5.999  0.00  0.00     0.006 A 
ATOM      5  C4  UNL d   1      -0.766   4.904  -5.994  0.00  0.00    -0.005 A 
ATOM      6  C5  UNL d   1      -1.335   3.627  -5.989  0.00  0.00    -0.074 A 
ATOM      7  C6  UNL d   1      -2.824   3.445  -5.994  0.00  0.00     0.077 C 
ATOM      8  C7  UNL d   1      -0.495   2.505  -5.995  0.00  0.00    -0.001 A 
ENDROOT
TORSDOF 0
ENDMDL
