MODEL 1
REMARK minimizedAffinity -0.457990259
REMARK minimizedRMSD -1
REMARK  0 active torsions:
REMARK  status: ('A' for Active; 'I' for Inactive)
ROOT
ATOM      1  C   UNL d   1      -1.472   5.999  -6.000  0.00  0.00     0.077 C 
ATOM      2  C1  UNL d   1      -0.406   4.945  -5.984  0.00  0.00    -0.074 A 
ATOM      3  C2  UNL d   1      -0.739   3.586  -5.976  0.00  0.00    -0.005 A 
ATOM      4  C3  UNL d   1       0.264   2.617  -5.971  0.00  0.00     0.006 A 
ATOM      5  C4  UNL d   1       1.607   2.995  -5.975  0.00  0.00    -0.005 A 
ATOM      6  C5  UNL d   1       1.959   4.348  -5.984  0.00  0.00    -0.074 A 
ATOM      7  C6  UNL d   1       3.398   4.772  -5.997  0.00  0.00     0.077 C 
ATOM      8  C7  UNL d   1       0.946   5.317  -5.995  0.00  0.00    -0.001 A 
ENDROOT
TORSDOF 0
ENDMDL
