MODEL 1
REMARK minimizedAffinity 0.455559671
REMARK minimizedRMSD -1
REMARK  0 active torsions:
REMARK  status: ('A' for Active; 'I' for Inactive)
ROOT
ATOM      1  C   UNL d   1      -4.895   3.856  -5.970  0.00  0.00     0.077 C 
ATOM      2  C1  UNL d   1      -3.455   4.273  -5.987  0.00  0.00    -0.074 A 
ATOM      3  C2  UNL d   1      -3.098   5.626  -5.985  0.00  0.00    -0.005 A 
ATOM      4  C3  UNL d   1      -1.754   5.999  -5.992  0.00  0.00     0.006 A 
ATOM      5  C4  UNL d   1      -0.755   5.025  -5.999  0.00  0.00    -0.005 A 
ATOM      6  C5  UNL d   1      -1.092   3.668  -5.999  0.00  0.00    -0.074 A 
ATOM      7  C6  UNL d   1      -0.030   2.608  -5.997  0.00  0.00     0.077 C 
ATOM      8  C7  UNL d   1      -2.445   3.301  -5.986  0.00  0.00    -0.001 A 
ENDROOT
TORSDOF 0
ENDMDL
