MODEL 1
REMARK minimizedAffinity 12.3086805
REMARK minimizedRMSD -1
REMARK  0 active torsions:
REMARK  status: ('A' for Active; 'I' for Inactive)
ROOT
ATOM      1  C   UNL d   1       5.431   6.000  -0.728  0.00  0.00     0.077 C 
ATOM      2  C1  UNL d   1       4.929   5.199   0.436  0.00  0.00    -0.074 A 
ATOM      3  C2  UNL d   1       3.750   4.452   0.340  0.00  0.00    -0.005 A 
ATOM      4  C3  UNL d   1       3.301   3.704   1.429  0.00  0.00     0.006 A 
ATOM      5  C4  UNL d   1       4.024   3.695   2.622  0.00  0.00    -0.005 A 
ATOM      6  C5  UNL d   1       5.205   4.435   2.736  0.00  0.00    -0.074 A 
ATOM      7  C6  UNL d   1       6.000   4.429   4.008  0.00  0.00     0.077 C 
ATOM      8  C7  UNL d   1       5.654   5.179   1.636  0.00  0.00    -0.001 A 
ENDROOT
TORSDOF 0
ENDMDL
