MODEL 1
REMARK minimizedAffinity -0.944475651
REMARK minimizedRMSD -1
REMARK  0 active torsions:
REMARK  status: ('A' for Active; 'I' for Inactive)
ROOT
ATOM      1  C   UNL d   1      -2.382   5.718  -5.341  0.00  0.00     0.077 C 
ATOM      2  C1  UNL d   1      -1.158   5.041  -4.802  0.00  0.00    -0.074 A 
ATOM      3  C2  UNL d   1      -1.142   4.508  -3.509  0.00  0.00    -0.005 A 
ATOM      4  C3  UNL d   1       0.001   3.873  -3.024  0.00  0.00     0.006 A 
ATOM      5  C4  UNL d   1       1.138   3.765  -3.825  0.00  0.00    -0.005 A 
ATOM      6  C5  UNL d   1       1.141   4.291  -5.121  0.00  0.00    -0.074 A 
ATOM      7  C6  UNL d   1       2.351   4.174  -5.999  0.00  0.00     0.077 C 
ATOM      8  C7  UNL d   1      -0.014   4.921  -5.604  0.00  0.00    -0.001 A 
ENDROOT
TORSDOF 0
ENDMDL
