MODEL 1
REMARK minimizedAffinity 4.16472626
REMARK minimizedRMSD -1
REMARK  0 active torsions:
REMARK  status: ('A' for Active; 'I' for Inactive)
ROOT
ATOM      1  C   UNL d   1      -0.812   5.223  -5.977  0.00  0.00     0.077 C 
ATOM      2  C1  UNL d   1       0.077   4.015  -5.990  0.00  0.00    -0.074 A 
ATOM      3  C2  UNL d   1       1.469   4.147  -5.996  0.00  0.00    -0.005 A 
ATOM      4  C3  UNL d   1       2.282   3.014  -5.998  0.00  0.00     0.006 A 
ATOM      5  C4  UNL d   1       1.713   1.740  -5.995  0.00  0.00    -0.005 A 
ATOM      6  C5  UNL d   1       0.323   1.589  -5.989  0.00  0.00    -0.074 A 
ATOM      7  C6  UNL d   1      -0.306   0.227  -5.975  0.00  0.00     0.077 C 
ATOM      8  C7  UNL d   1      -0.488   2.732  -5.979  0.00  0.00    -0.001 A 
ENDROOT
TORSDOF 0
ENDMDL
