MODEL 1
REMARK minimizedAffinity 5.61767244
REMARK minimizedRMSD -1
REMARK  0 active torsions:
REMARK  status: ('A' for Active; 'I' for Inactive)
ROOT
ATOM      1  C   UNL d   1      -5.801  -1.520   4.823  0.00  0.00     0.077 C 
ATOM      2  C1  UNL d   1      -4.741  -1.315   3.781  0.00  0.00    -0.074 A 
ATOM      3  C2  UNL d   1      -4.845  -0.283   2.843  0.00  0.00    -0.005 A 
ATOM      4  C3  UNL d   1      -3.848  -0.099   1.886  0.00  0.00     0.006 A 
ATOM      5  C4  UNL d   1      -2.738  -0.944   1.857  0.00  0.00    -0.005 A 
ATOM      6  C5  UNL d   1      -2.616  -1.981   2.787  0.00  0.00    -0.074 A 
ATOM      7  C6  UNL d   1      -1.425  -2.892   2.776  0.00  0.00     0.077 C 
ATOM      8  C7  UNL d   1      -3.619  -2.155   3.750  0.00  0.00    -0.001 A 
ENDROOT
TORSDOF 0
ENDMDL
