MODEL 1
REMARK minimizedAffinity 1.64598882
REMARK minimizedRMSD -1
REMARK  0 active torsions:
REMARK  status: ('A' for Active; 'I' for Inactive)
ROOT
ATOM      1  C   UNL d   1       1.798  -0.686  -1.906  0.00  0.00     0.077 C 
ATOM      2  C1  UNL d   1       1.164   0.536  -1.312  0.00  0.00    -0.074 A 
ATOM      3  C2  UNL d   1       1.528   1.816  -1.741  0.00  0.00    -0.005 A 
ATOM      4  C3  UNL d   1       0.922   2.943  -1.185  0.00  0.00     0.006 A 
ATOM      5  C4  UNL d   1      -0.051   2.802  -0.196  0.00  0.00    -0.005 A 
ATOM      6  C5  UNL d   1      -0.429   1.529   0.246  0.00  0.00    -0.074 A 
ATOM      7  C6  UNL d   1      -1.480   1.359   1.302  0.00  0.00     0.077 C 
ATOM      8  C7  UNL d   1       0.179   0.402  -0.323  0.00  0.00    -0.001 A 
ENDROOT
TORSDOF 0
ENDMDL
