MODEL 1
REMARK minimizedAffinity 4.25162745
REMARK minimizedRMSD -1
REMARK  0 active torsions:
REMARK  status: ('A' for Active; 'I' for Inactive)
ROOT
ATOM      1  C   UNL d   1       0.468   4.289  -5.999  0.00  0.00     0.077 C 
ATOM      2  C1  UNL d   1      -0.827   4.735  -5.388  0.00  0.00    -0.074 A 
ATOM      3  C2  UNL d   1      -0.843   5.586  -4.278  0.00  0.00    -0.005 A 
ATOM      4  C3  UNL d   1      -2.055   6.000  -3.727  0.00  0.00     0.006 A 
ATOM      5  C4  UNL d   1      -3.262   5.568  -4.278  0.00  0.00    -0.005 A 
ATOM      6  C5  UNL d   1      -3.266   4.718  -5.389  0.00  0.00    -0.074 A 
ATOM      7  C6  UNL d   1      -4.554   4.252  -6.000  0.00  0.00     0.077 C 
ATOM      8  C7  UNL d   1      -2.043   4.312  -5.942  0.00  0.00    -0.001 A 
ENDROOT
TORSDOF 0
ENDMDL
