MODEL 1
REMARK minimizedAffinity 2.97711754
REMARK minimizedRMSD -1
REMARK  0 active torsions:
REMARK  status: ('A' for Active; 'I' for Inactive)
ROOT
ATOM      1  C   UNL d   1      -0.248  -0.245   1.030  0.00  0.00     0.077 C 
ATOM      2  C1  UNL d   1      -1.452  -0.826   1.710  0.00  0.00    -0.074 A 
ATOM      3  C2  UNL d   1      -1.396  -2.084   2.319  0.00  0.00    -0.005 A 
ATOM      4  C3  UNL d   1      -2.521  -2.607   2.955  0.00  0.00     0.006 A 
ATOM      5  C4  UNL d   1      -3.712  -1.880   2.990  0.00  0.00    -0.005 A 
ATOM      6  C5  UNL d   1      -3.786  -0.620   2.387  0.00  0.00    -0.074 A 
ATOM      7  C6  UNL d   1      -5.054   0.180   2.424  0.00  0.00     0.077 C 
ATOM      8  C7  UNL d   1      -2.649  -0.098   1.756  0.00  0.00    -0.001 A 
ENDROOT
TORSDOF 0
ENDMDL
