MODEL 1
REMARK minimizedAffinity -5.34799767
REMARK minimizedRMSD -1
REMARK  0 active torsions:
REMARK  status: ('A' for Active; 'I' for Inactive)
ROOT
ATOM      1  C1  DEN d   1       0.119   0.135   0.818  0.00  0.00     0.130 A 
ATOM      2  C2  DEN d   1      -1.029   0.796   0.204  0.00  0.00    -0.031 A 
ATOM      3  C3  DEN d   1      -0.675   1.120  -1.193  0.00  0.00     0.027 A 
ATOM      4  C4  DEN d   1       1.525   0.660  -2.458  0.00  0.00     0.027 A 
ATOM      5  C5  DEN d   1       2.793   0.132  -2.350  0.00  0.00    -0.003 A 
ATOM      6  C6  DEN d   1       3.266  -0.397  -1.179  0.00  0.00     0.001 A 
ATOM      7  C7  DEN d   1       2.450  -0.450  -0.080  0.00  0.00     0.017 A 
ATOM      8  C8  DEN d   1       1.173   0.087  -0.179  0.00  0.00    -0.094 A 
ATOM      9  C9  DEN d   1       0.709   0.606  -1.375  0.00  0.00    -0.072 A 
ENDROOT
TORSDOF 0
ENDMDL
