MODEL 1
REMARK minimizedAffinity -1.75132024
REMARK minimizedRMSD -1
REMARK  0 active torsions:
REMARK  status: ('A' for Active; 'I' for Inactive)
ROOT
ATOM      1  C1  DEN d   1       0.157   1.221   1.102  0.00  0.00     0.130 A 
ATOM      2  C2  DEN d   1      -1.240   1.124   1.516  0.00  0.00    -0.031 A 
ATOM      3  C3  DEN d   1      -1.772  -0.164   1.027  0.00  0.00     0.027 A 
ATOM      4  C4  DEN d   1      -0.574  -2.009  -0.319  0.00  0.00     0.027 A 
ATOM      5  C5  DEN d   1       0.614  -2.372  -0.915  0.00  0.00    -0.003 A 
ATOM      6  C6  DEN d   1       1.713  -1.555  -0.909  0.00  0.00     0.001 A 
ATOM      7  C7  DEN d   1       1.662  -0.352  -0.256  0.00  0.00     0.017 A 
ATOM      8  C8  DEN d   1       0.465   0.025   0.340  0.00  0.00    -0.094 A 
ATOM      9  C9  DEN d   1      -0.631  -0.820   0.334  0.00  0.00    -0.072 A 
ENDROOT
TORSDOF 0
ENDMDL
