MODEL 1
REMARK minimizedAffinity -2.24771047
REMARK minimizedRMSD -1
REMARK  0 active torsions:
REMARK  status: ('A' for Active; 'I' for Inactive)
ROOT
ATOM      1  C1  DEN d   1       3.183  -0.901  -0.779  0.00  0.00     0.130 A 
ATOM      2  C2  DEN d   1       3.447   0.464  -0.331  0.00  0.00    -0.031 A 
ATOM      3  C3  DEN d   1       2.167   1.058   0.103  0.00  0.00     0.027 A 
ATOM      4  C4  DEN d   1      -0.186   0.001   0.130  0.00  0.00     0.027 A 
ATOM      5  C5  DEN d   1      -0.911  -1.132  -0.167  0.00  0.00    -0.003 A 
ATOM      6  C6  DEN d   1      -0.333  -2.246  -0.715  0.00  0.00     0.001 A 
ATOM      7  C7  DEN d   1       1.018  -2.268  -0.943  0.00  0.00     0.017 A 
ATOM      8  C8  DEN d   1       1.754  -1.127  -0.653  0.00  0.00    -0.094 A 
ATOM      9  C9  DEN d   1       1.154  -0.015  -0.087  0.00  0.00    -0.072 A 
ENDROOT
TORSDOF 0
ENDMDL
