MODEL 1
REMARK minimizedAffinity -2.95482755
REMARK minimizedRMSD -1
REMARK  0 active torsions:
REMARK  status: ('A' for Active; 'I' for Inactive)
ROOT
ATOM      1  C1  DEN d   1      -0.712  -0.667  -0.849  0.00  0.00     0.130 A 
ATOM      2  C2  DEN d   1      -1.233   0.162   0.235  0.00  0.00    -0.031 A 
ATOM      3  C3  DEN d   1      -0.085   0.776   0.932  0.00  0.00     0.027 A 
ATOM      4  C4  DEN d   1       2.435   0.529   0.437  0.00  0.00     0.027 A 
ATOM      5  C5  DEN d   1       3.364  -0.078  -0.378  0.00  0.00    -0.003 A 
ATOM      6  C6  DEN d   1       3.005  -0.944  -1.377  0.00  0.00     0.001 A 
ATOM      7  C7  DEN d   1       1.679  -1.191  -1.616  0.00  0.00     0.017 A 
ATOM      8  C8  DEN d   1       0.737  -0.588  -0.794  0.00  0.00    -0.094 A 
ATOM      9  C9  DEN d   1       1.119   0.293   0.203  0.00  0.00    -0.072 A 
ENDROOT
TORSDOF 0
ENDMDL
