MODEL 1
REMARK minimizedAffinity 1.98292124
REMARK minimizedRMSD -1
REMARK  0 active torsions:
REMARK  status: ('A' for Active; 'I' for Inactive)
ROOT
ATOM      1  C1  DEN d   1       1.784   0.674   0.478  0.00  0.00     0.130 A 
ATOM      2  C2  DEN d   1       2.099   1.080  -0.888  0.00  0.00    -0.031 A 
ATOM      3  C3  DEN d   1       0.830   1.197  -1.634  0.00  0.00     0.027 A 
ATOM      4  C4  DEN d   1      -1.580   0.795  -0.809  0.00  0.00     0.027 A 
ATOM      5  C5  DEN d   1      -2.349   0.424   0.272  0.00  0.00    -0.003 A 
ATOM      6  C6  DEN d   1      -1.798   0.080   1.477  0.00  0.00     0.001 A 
ATOM      7  C7  DEN d   1      -0.439   0.144   1.645  0.00  0.00     0.017 A 
ATOM      8  C8  DEN d   1       0.343   0.510   0.558  0.00  0.00    -0.094 A 
ATOM      9  C9  DEN d   1      -0.234   0.865  -0.649  0.00  0.00    -0.072 A 
ENDROOT
TORSDOF 0
ENDMDL
