MODEL 1
REMARK minimizedAffinity -4.55650902
REMARK minimizedRMSD -1
REMARK  0 active torsions:
REMARK  status: ('A' for Active; 'I' for Inactive)
ROOT
ATOM      1  C1  DEN d   1       2.150   0.049   0.779  0.00  0.00     0.130 A 
ATOM      2  C2  DEN d   1       2.380  -0.776  -0.403  0.00  0.00    -0.031 A 
ATOM      3  C3  DEN d   1       1.069  -1.067  -1.019  0.00  0.00     0.027 A 
ATOM      4  C4  DEN d   1      -1.280  -0.318  -0.262  0.00  0.00     0.027 A 
ATOM      5  C5  DEN d   1      -1.981   0.385   0.692  0.00  0.00    -0.003 A 
ATOM      6  C6  DEN d   1      -1.362   0.992   1.753  0.00  0.00     0.001 A 
ATOM      7  C7  DEN d   1       0.003   0.945   1.860  0.00  0.00     0.017 A 
ATOM      8  C8  DEN d   1       0.715   0.232   0.905  0.00  0.00    -0.094 A 
ATOM      9  C9  DEN d   1       0.073  -0.364  -0.166  0.00  0.00    -0.072 A 
ENDROOT
TORSDOF 0
ENDMDL
