MODEL 1
REMARK minimizedAffinity -4.25323057
REMARK minimizedRMSD -1
REMARK  0 active torsions:
REMARK  status: ('A' for Active; 'I' for Inactive)
ROOT
ATOM      1  C1  DEN d   1      -0.023  -1.253   0.435  0.00  0.00     0.130 A 
ATOM      2  C2  DEN d   1      -0.810  -0.087   0.827  0.00  0.00    -0.031 A 
ATOM      3  C3  DEN d   1      -0.229   1.099   0.167  0.00  0.00     0.027 A 
ATOM      4  C4  DEN d   1       1.799   1.241  -1.420  0.00  0.00     0.027 A 
ATOM      5  C5  DEN d   1       2.794   0.517  -2.038  0.00  0.00    -0.003 A 
ATOM      6  C6  DEN d   1       2.939  -0.832  -1.849  0.00  0.00     0.001 A 
ATOM      7  C7  DEN d   1       2.048  -1.507  -1.058  0.00  0.00     0.017 A 
ATOM      8  C8  DEN d   1       1.046  -0.782  -0.426  0.00  0.00    -0.094 A 
ATOM      9  C9  DEN d   1       0.909   0.579  -0.639  0.00  0.00    -0.072 A 
ENDROOT
TORSDOF 0
ENDMDL
