MODEL 1
REMARK minimizedAffinity -1.27485836
REMARK minimizedRMSD -1
REMARK  0 active torsions:
REMARK  status: ('A' for Active; 'I' for Inactive)
ROOT
ATOM      1  C1  DEN d   1      -1.161  -1.537  -0.241  0.00  0.00     0.130 A 
ATOM      2  C2  DEN d   1      -1.818  -0.677   0.739  0.00  0.00    -0.031 A 
ATOM      3  C3  DEN d   1      -0.908   0.446   1.043  0.00  0.00     0.027 A 
ATOM      4  C4  DEN d   1       1.439   0.935   0.094  0.00  0.00     0.027 A 
ATOM      5  C5  DEN d   1       2.422   0.482  -0.758  0.00  0.00    -0.003 A 
ATOM      6  C6  DEN d   1       2.295  -0.683  -1.466  0.00  0.00     0.001 A 
ATOM      7  C7  DEN d   1       1.140  -1.414  -1.369  0.00  0.00     0.017 A 
ATOM      8  C8  DEN d   1       0.147  -0.968  -0.507  0.00  0.00    -0.094 A 
ATOM      9  C9  DEN d   1       0.290   0.220   0.191  0.00  0.00    -0.072 A 
ENDROOT
TORSDOF 0
ENDMDL
