MODEL 1
REMARK minimizedAffinity -4.55648947
REMARK minimizedRMSD -1
REMARK  0 active torsions:
REMARK  status: ('A' for Active; 'I' for Inactive)
ROOT
ATOM      1  C1  DEN d   1      -0.382  -1.604  -0.331  0.00  0.00     0.130 A 
ATOM      2  C2  DEN d   1      -0.813  -0.590   0.628  0.00  0.00    -0.031 A 
ATOM      3  C3  DEN d   1      -0.006   0.626   0.401  0.00  0.00     0.027 A 
ATOM      4  C4  DEN d   1       1.856   1.036  -1.335  0.00  0.00     0.027 A 
ATOM      5  C5  DEN d   1       2.582   0.468  -2.359  0.00  0.00    -0.003 A 
ATOM      6  C6  DEN d   1       2.395  -0.831  -2.753  0.00  0.00     0.001 A 
ATOM      7  C7  DEN d   1       1.429  -1.591  -2.148  0.00  0.00     0.017 A 
ATOM      8  C8  DEN d   1       0.699  -1.027  -1.110  0.00  0.00    -0.094 A 
ATOM      9  C9  DEN d   1       0.894   0.291  -0.735  0.00  0.00    -0.072 A 
ENDROOT
TORSDOF 0
ENDMDL
