MODEL 1
REMARK minimizedAffinity -4.79473257
REMARK minimizedRMSD -1
REMARK  0 active torsions:
REMARK  status: ('A' for Active; 'I' for Inactive)
ROOT
ATOM      1  C1  DEN d   1       0.804   0.932   1.098  0.00  0.00     0.130 A 
ATOM      2  C2  DEN d   1      -0.454   0.472   1.680  0.00  0.00    -0.031 A 
ATOM      3  C3  DEN d   1      -0.840  -0.781   1.000  0.00  0.00     0.027 A 
ATOM      4  C4  DEN d   1       0.384  -2.050  -0.882  0.00  0.00     0.027 A 
ATOM      5  C5  DEN d   1       1.485  -2.041  -1.710  0.00  0.00    -0.003 A 
ATOM      6  C6  DEN d   1       2.410  -1.031  -1.684  0.00  0.00     0.001 A 
ATOM      7  C7  DEN d   1       2.276  -0.011  -0.780  0.00  0.00     0.017 A 
ATOM      8  C8  DEN d   1       1.165  -0.009   0.053  0.00  0.00    -0.094 A 
ATOM      9  C9  DEN d   1       0.247  -1.045   0.020  0.00  0.00    -0.072 A 
ENDROOT
TORSDOF 0
ENDMDL
