MODEL 1
REMARK minimizedAffinity 1.4485538
REMARK minimizedRMSD -1
REMARK  0 active torsions:
REMARK  status: ('A' for Active; 'I' for Inactive)
ROOT
ATOM      1  C1  DEN d   1      -0.928  -1.147  -0.663  0.00  0.00     0.130 A 
ATOM      2  C2  DEN d   1      -1.530  -0.252   0.321  0.00  0.00    -0.031 A 
ATOM      3  C3  DEN d   1      -0.481   0.668   0.804  0.00  0.00     0.027 A 
ATOM      4  C4  DEN d   1       2.004   0.796   0.123  0.00  0.00     0.027 A 
ATOM      5  C5  DEN d   1       2.981   0.234  -0.668  0.00  0.00    -0.003 A 
ATOM      6  C6  DEN d   1       2.734  -0.840  -1.482  0.00  0.00     0.001 A 
ATOM      7  C7  DEN d   1       1.468  -1.358  -1.556  0.00  0.00     0.017 A 
ATOM      8  C8  DEN d   1       0.480  -0.802  -0.755  0.00  0.00    -0.094 A 
ATOM      9  C9  DEN d   1       0.746   0.291   0.052  0.00  0.00    -0.072 A 
ENDROOT
TORSDOF 0
ENDMDL
