MODEL 1
REMARK minimizedAffinity -5.00847673
REMARK minimizedRMSD -1
REMARK  0 active torsions:
REMARK  status: ('A' for Active; 'I' for Inactive)
ROOT
ATOM      1  C1  DEN d   1       2.696   1.170  -1.946  0.00  0.00     0.130 A 
ATOM      2  C2  DEN d   1       1.960   2.409  -1.713  0.00  0.00    -0.031 A 
ATOM      3  C3  DEN d   1       0.673   2.063  -1.077  0.00  0.00     0.027 A 
ATOM      4  C4  DEN d   1      -0.245  -0.258  -0.431  0.00  0.00     0.027 A 
ATOM      5  C5  DEN d   1       0.014  -1.611  -0.442  0.00  0.00    -0.003 A 
ATOM      6  C6  DEN d   1       1.161  -2.130  -0.982  0.00  0.00     0.001 A 
ATOM      7  C7  DEN d   1       2.113  -1.288  -1.492  0.00  0.00     0.017 A 
ATOM      8  C8  DEN d   1       1.855   0.077  -1.491  0.00  0.00    -0.094 A 
ATOM      9  C9  DEN d   1       0.695   0.583  -0.930  0.00  0.00    -0.072 A 
ENDROOT
TORSDOF 0
ENDMDL
