MODEL 1
REMARK minimizedAffinity -4.76196194
REMARK minimizedRMSD -1
REMARK  1 active torsions:
REMARK  status: ('A' for Active; 'I' for Inactive)
REMARK    1  A    between atoms: C1_2  and  C2_3 
ROOT
ATOM      1  C2  UNL d   1      -0.077   0.210  -0.010  0.00  0.00    -0.077 A 
ATOM      2  C3  UNL d   1      -1.113  -0.280   0.797  0.00  0.00     0.002 A 
ATOM      3  C4  UNL d   1      -0.910  -0.476   2.164  0.00  0.00     0.002 A 
ATOM      4  C5  UNL d   1       0.325  -0.181   2.737  0.00  0.00    -0.004 A 
ATOM      5  C6  UNL d   1       1.363   0.305   1.942  0.00  0.00     0.002 A 
ATOM      6  C7  UNL d   1       1.163   0.500   0.575  0.00  0.00     0.002 A 
ENDROOT
BRANCH   1   7
ATOM      7  C1  UNL d   1      -0.308   0.469  -1.476  0.00  0.00     0.055 C 
ATOM      8  C   UNL d   1       0.811  -0.117  -2.325  0.00  0.00     0.019 C 
ENDBRANCH   1   7
TORSDOF 1
ENDMDL
