MODEL 1
REMARK minimizedAffinity -5.15199137
REMARK minimizedRMSD -1
REMARK  1 active torsions:
REMARK  status: ('A' for Active; 'I' for Inactive)
REMARK    1  A    between atoms: C1_2  and  C2_3 
ROOT
ATOM      1  C2  UNL d   1      -0.142   0.114   0.160  0.00  0.00    -0.077 A 
ATOM      2  C3  UNL d   1      -1.212  -0.209   1.007  0.00  0.00     0.002 A 
ATOM      3  C4  UNL d   1      -0.984  -0.502   2.353  0.00  0.00     0.002 A 
ATOM      4  C5  UNL d   1       0.311  -0.470   2.865  0.00  0.00    -0.004 A 
ATOM      5  C6  UNL d   1       1.382  -0.152   2.031  0.00  0.00     0.002 A 
ATOM      6  C7  UNL d   1       1.156   0.139   0.685  0.00  0.00     0.002 A 
ENDROOT
BRANCH   1   7
ATOM      7  C1  UNL d   1      -0.391   0.478  -1.280  0.00  0.00     0.055 C 
ATOM      8  C   UNL d   1       0.473  -0.352  -2.218  0.00  0.00     0.019 C 
ENDBRANCH   1   7
TORSDOF 1
ENDMDL
