MODEL 1
REMARK minimizedAffinity -5.1624465
REMARK minimizedRMSD -1
REMARK  1 active torsions:
REMARK  status: ('A' for Active; 'I' for Inactive)
REMARK    1  A    between atoms: C1_2  and  C2_3 
ROOT
ATOM      1  C2  UNL d   1       0.001   0.081   1.259  0.00  0.00    -0.077 A 
ATOM      2  C3  UNL d   1       1.208   0.381   0.612  0.00  0.00     0.002 A 
ATOM      3  C4  UNL d   1       1.247   0.535  -0.775  0.00  0.00     0.002 A 
ATOM      4  C5  UNL d   1       0.082   0.396  -1.526  0.00  0.00    -0.004 A 
ATOM      5  C6  UNL d   1      -1.123   0.096  -0.893  0.00  0.00     0.002 A 
ATOM      6  C7  UNL d   1      -1.164  -0.060   0.493  0.00  0.00     0.002 A 
ENDROOT
BRANCH   1   7
ATOM      7  C1  UNL d   1      -0.053  -0.037   2.759  0.00  0.00     0.055 C 
ATOM      8  C   UNL d   1      -0.957  -1.182   3.192  0.00  0.00     0.019 C 
ENDBRANCH   1   7
TORSDOF 1
ENDMDL
