MODEL 1
REMARK minimizedAffinity -4.40735912
REMARK minimizedRMSD -1
REMARK  1 active torsions:
REMARK  status: ('A' for Active; 'I' for Inactive)
REMARK    1  A    between atoms: C1_2  and  C2_3 
ROOT
ATOM      1  C2  UNL d   1       0.016  -0.091  -0.227  0.00  0.00    -0.077 A 
ATOM      2  C3  UNL d   1      -1.157  -0.569   0.372  0.00  0.00     0.002 A 
ATOM      3  C4  UNL d   1      -1.214  -0.770   1.753  0.00  0.00     0.002 A 
ATOM      4  C5  UNL d   1      -0.103  -0.492   2.546  0.00  0.00    -0.004 A 
ATOM      5  C6  UNL d   1       1.069  -0.017   1.959  0.00  0.00     0.002 A 
ATOM      6  C7  UNL d   1       1.129   0.183   0.579  0.00  0.00     0.002 A 
ENDROOT
BRANCH   1   7
ATOM      7  C1  UNL d   1       0.064   0.174  -1.709  0.00  0.00     0.055 C 
ATOM      8  C   UNL d   1       0.860  -0.899  -2.437  0.00  0.00     0.019 C 
ENDBRANCH   1   7
TORSDOF 1
ENDMDL
