MODEL 1
REMARK minimizedAffinity -5.51633072
REMARK minimizedRMSD -1
REMARK  1 active torsions:
REMARK  status: ('A' for Active; 'I' for Inactive)
REMARK    1  A    between atoms: C1_2  and  C2_3 
ROOT
ATOM      1  C2  UNL d   1      -0.197  -0.083   1.442  0.00  0.00    -0.077 A 
ATOM      2  C3  UNL d   1       0.975   0.353   0.808  0.00  0.00     0.002 A 
ATOM      3  C4  UNL d   1       1.001   0.545  -0.575  0.00  0.00     0.002 A 
ATOM      4  C5  UNL d   1      -0.143   0.309  -1.334  0.00  0.00    -0.004 A 
ATOM      5  C6  UNL d   1      -1.313  -0.127  -0.714  0.00  0.00     0.002 A 
ATOM      6  C7  UNL d   1      -1.340  -0.321   0.668  0.00  0.00     0.002 A 
ENDROOT
BRANCH   1   7
ATOM      7  C1  UNL d   1      -0.241  -0.243   2.939  0.00  0.00     0.055 C 
ATOM      8  C   UNL d   1      -1.101  -1.432   3.343  0.00  0.00     0.019 C 
ENDBRANCH   1   7
TORSDOF 1
ENDMDL
