MODEL 1
REMARK minimizedAffinity -2.35557795
REMARK minimizedRMSD -1
REMARK  1 active torsions:
REMARK  status: ('A' for Active; 'I' for Inactive)
REMARK    1  A    between atoms: C1_2  and  C2_3 
ROOT
ATOM      1  C2  UNL d   1       0.074   0.103  -0.390  0.00  0.00    -0.077 A 
ATOM      2  C3  UNL d   1       0.990   0.928   0.277  0.00  0.00     0.002 A 
ATOM      3  C4  UNL d   1       1.075   0.907   1.671  0.00  0.00     0.002 A 
ATOM      4  C5  UNL d   1       0.251   0.060   2.408  0.00  0.00    -0.004 A 
ATOM      5  C6  UNL d   1      -0.665  -0.764   1.754  0.00  0.00     0.002 A 
ATOM      6  C7  UNL d   1      -0.752  -0.743   0.361  0.00  0.00     0.002 A 
ENDROOT
BRANCH   1   7
ATOM      7  C1  UNL d   1       0.015   0.088  -1.895  0.00  0.00     0.055 C 
ATOM      8  C   UNL d   1       0.781  -1.095  -2.468  0.00  0.00     0.019 C 
ENDBRANCH   1   7
TORSDOF 1
ENDMDL
