MODEL 1
REMARK minimizedAffinity -3.7595458
REMARK minimizedRMSD -1
REMARK  1 active torsions:
REMARK  status: ('A' for Active; 'I' for Inactive)
REMARK    1  A    between atoms: C1_2  and  C2_3 
ROOT
ATOM      1  C2  UNL d   1      -0.158   0.237  -0.884  0.00  0.00    -0.077 A 
ATOM      2  C3  UNL d   1       0.981   0.622  -0.164  0.00  0.00     0.002 A 
ATOM      3  C4  UNL d   1       1.037   0.444   1.220  0.00  0.00     0.002 A 
ATOM      4  C5  UNL d   1      -0.042  -0.125   1.894  0.00  0.00    -0.004 A 
ATOM      5  C6  UNL d   1      -1.180  -0.510   1.188  0.00  0.00     0.002 A 
ATOM      6  C7  UNL d   1      -1.238  -0.331  -0.195  0.00  0.00     0.002 A 
ENDROOT
BRANCH   1   7
ATOM      7  C1  UNL d   1      -0.201   0.383  -2.382  0.00  0.00     0.055 C 
ATOM      8  C   UNL d   1       1.126  -0.011  -3.015  0.00  0.00     0.019 C 
ENDBRANCH   1   7
TORSDOF 1
ENDMDL
