MODEL 1
REMARK minimizedAffinity -3.73246431
REMARK minimizedRMSD -1
REMARK  0 active torsions:
REMARK  status: ('A' for Active; 'I' for Inactive)
ROOT
ATOM      1  C   UNL d   1      -1.191   0.970   0.012  0.00  0.00     0.077 C 
ATOM      2  C1  UNL d   1       0.123   0.247  -0.003  0.00  0.00    -0.074 A 
ATOM      3  C2  UNL d   1       1.254   0.825  -0.589  0.00  0.00    -0.005 A 
ATOM      4  C3  UNL d   1       2.472   0.145  -0.587  0.00  0.00     0.006 A 
ATOM      5  C4  UNL d   1       2.571  -1.118  -0.001  0.00  0.00    -0.005 A 
ATOM      6  C5  UNL d   1       1.451  -1.711   0.590  0.00  0.00    -0.074 A 
ATOM      7  C6  UNL d   1       1.542  -3.063   1.233  0.00  0.00     0.077 C 
ATOM      8  C7  UNL d   1       0.232  -1.018   0.591  0.00  0.00    -0.001 A 
ENDROOT
TORSDOF 0
ENDMDL
