MODEL 1
REMARK minimizedAffinity -2.69845104
REMARK minimizedRMSD -1
REMARK  0 active torsions:
REMARK  status: ('A' for Active; 'I' for Inactive)
ROOT
ATOM      1  C   UNL d   1       1.622  -2.826   1.158  0.00  0.00     0.077 C 
ATOM      2  C1  UNL d   1       1.594  -1.499   0.461  0.00  0.00    -0.074 A 
ATOM      3  C2  UNL d   1       2.780  -0.851   0.101  0.00  0.00    -0.005 A 
ATOM      4  C3  UNL d   1       2.739   0.378  -0.556  0.00  0.00     0.006 A 
ATOM      5  C4  UNL d   1       1.513   0.973  -0.858  0.00  0.00    -0.005 A 
ATOM      6  C5  UNL d   1       0.317   0.340  -0.507  0.00  0.00    -0.074 A 
ATOM      7  C6  UNL d   1      -1.009   0.960  -0.833  0.00  0.00     0.077 C 
ATOM      8  C7  UNL d   1       0.366  -0.899   0.147  0.00  0.00    -0.001 A 
ENDROOT
TORSDOF 0
ENDMDL
