MODEL 1
REMARK minimizedAffinity -3.92335892
REMARK minimizedRMSD -1
REMARK  0 active torsions:
REMARK  status: ('A' for Active; 'I' for Inactive)
ROOT
ATOM      1  C   UNL d   1      -0.918   0.810  -0.879  0.00  0.00     0.077 C 
ATOM      2  C1  UNL d   1       0.405   0.201  -0.521  0.00  0.00    -0.074 A 
ATOM      3  C2  UNL d   1       1.545   0.455  -1.292  0.00  0.00    -0.005 A 
ATOM      4  C3  UNL d   1       2.771  -0.111  -0.942  0.00  0.00     0.006 A 
ATOM      5  C4  UNL d   1       2.870  -0.935   0.180  0.00  0.00    -0.005 A 
ATOM      6  C5  UNL d   1       1.741  -1.199   0.963  0.00  0.00    -0.074 A 
ATOM      7  C6  UNL d   1       1.833  -2.075   2.177  0.00  0.00     0.077 C 
ATOM      8  C7  UNL d   1       0.515  -0.622   0.609  0.00  0.00    -0.001 A 
ENDROOT
TORSDOF 0
ENDMDL
