MODEL 1
REMARK minimizedAffinity -1.57500386
REMARK minimizedRMSD -1
REMARK  0 active torsions:
REMARK  status: ('A' for Active; 'I' for Inactive)
ROOT
ATOM      1  C   UNL d   1      -0.867   1.377  -0.665  0.00  0.00     0.077 C 
ATOM      2  C1  UNL d   1       0.340   0.615  -0.204  0.00  0.00    -0.074 A 
ATOM      3  C2  UNL d   1       1.630   1.105  -0.432  0.00  0.00    -0.005 A 
ATOM      4  C3  UNL d   1       2.742   0.389   0.011  0.00  0.00     0.006 A 
ATOM      5  C4  UNL d   1       2.576  -0.821   0.686  0.00  0.00    -0.005 A 
ATOM      6  C5  UNL d   1       1.294  -1.326   0.924  0.00  0.00    -0.074 A 
ATOM      7  C6  UNL d   1       1.097  -2.620   1.657  0.00  0.00     0.077 C 
ATOM      8  C7  UNL d   1       0.181  -0.597   0.482  0.00  0.00    -0.001 A 
ENDROOT
TORSDOF 0
ENDMDL
