MODEL 1
REMARK minimizedAffinity -0.696698308
REMARK minimizedRMSD -1
REMARK  0 active torsions:
REMARK  status: ('A' for Active; 'I' for Inactive)
ROOT
ATOM      1  C   UNL d   1      -1.989  -0.018   1.577  0.00  0.00     0.077 C 
ATOM      2  C1  UNL d   1      -0.714   0.086   0.794  0.00  0.00    -0.074 A 
ATOM      3  C2  UNL d   1      -0.580   1.019  -0.240  0.00  0.00    -0.005 A 
ATOM      4  C3  UNL d   1       0.615   1.110  -0.954  0.00  0.00     0.006 A 
ATOM      5  C4  UNL d   1       1.686   0.272  -0.641  0.00  0.00    -0.005 A 
ATOM      6  C5  UNL d   1       1.570  -0.666   0.389  0.00  0.00    -0.074 A 
ATOM      7  C6  UNL d   1       2.715  -1.568   0.744  0.00  0.00     0.077 C 
ATOM      8  C7  UNL d   1       0.369  -0.747   1.106  0.00  0.00    -0.001 A 
ENDROOT
TORSDOF 0
ENDMDL
