MODEL 1
REMARK minimizedAffinity -3.25325823
REMARK minimizedRMSD -1
REMARK  0 active torsions:
REMARK  status: ('A' for Active; 'I' for Inactive)
ROOT
ATOM      1  C   UNL d   1      -1.272   0.740  -0.093  0.00  0.00     0.077 C 
ATOM      2  C1  UNL d   1       0.090   0.196   0.218  0.00  0.00    -0.074 A 
ATOM      3  C2  UNL d   1       0.253  -0.870   1.108  0.00  0.00    -0.005 A 
ATOM      4  C3  UNL d   1       1.526  -1.372   1.379  0.00  0.00     0.006 A 
ATOM      5  C4  UNL d   1       2.647  -0.812   0.765  0.00  0.00    -0.005 A 
ATOM      6  C5  UNL d   1       2.504   0.254  -0.128  0.00  0.00    -0.074 A 
ATOM      7  C6  UNL d   1       3.698   0.860  -0.804  0.00  0.00     0.077 C 
ATOM      8  C7  UNL d   1       1.221   0.748  -0.401  0.00  0.00    -0.001 A 
ENDROOT
TORSDOF 0
ENDMDL
