MODEL 1
REMARK minimizedAffinity -4.34532833
REMARK minimizedRMSD -1
REMARK  0 active torsions:
REMARK  status: ('A' for Active; 'I' for Inactive)
ROOT
ATOM      1  C   UNL d   1      -0.683   0.591  -0.737  0.00  0.00     0.077 C 
ATOM      2  C1  UNL d   1       0.339  -0.201   0.023  0.00  0.00    -0.074 A 
ATOM      3  C2  UNL d   1       1.552  -0.566  -0.571  0.00  0.00    -0.005 A 
ATOM      4  C3  UNL d   1       2.497  -1.295   0.151  0.00  0.00     0.006 A 
ATOM      5  C4  UNL d   1       2.240  -1.665   1.472  0.00  0.00    -0.005 A 
ATOM      6  C5  UNL d   1       1.034  -1.308   2.082  0.00  0.00    -0.074 A 
ATOM      7  C6  UNL d   1       0.745  -1.690   3.504  0.00  0.00     0.077 C 
ATOM      8  C7  UNL d   1       0.092  -0.570   1.352  0.00  0.00    -0.001 A 
ENDROOT
TORSDOF 0
ENDMDL
