MODEL 1
REMARK minimizedAffinity -4.15244818
REMARK minimizedRMSD -1
REMARK  0 active torsions:
REMARK  status: ('A' for Active; 'I' for Inactive)
ROOT
ATOM      1  C   UNL d   1      -2.068   0.815  -3.946  0.00  0.00     0.077 C 
ATOM      2  C1  UNL d   1      -1.780   0.841  -2.474  0.00  0.00    -0.074 A 
ATOM      3  C2  UNL d   1      -2.602   1.550  -1.593  0.00  0.00    -0.005 A 
ATOM      4  C3  UNL d   1      -2.327   1.557  -0.225  0.00  0.00     0.006 A 
ATOM      5  C4  UNL d   1      -1.228   0.856   0.274  0.00  0.00    -0.005 A 
ATOM      6  C5  UNL d   1      -0.396   0.140  -0.592  0.00  0.00    -0.074 A 
ATOM      7  C6  UNL d   1       0.783  -0.627  -0.071  0.00  0.00     0.077 C 
ATOM      8  C7  UNL d   1      -0.683   0.132  -1.964  0.00  0.00    -0.001 A 
ENDROOT
TORSDOF 0
ENDMDL
