MODEL 1
REMARK minimizedAffinity -1.66327167
REMARK minimizedRMSD -1
REMARK  0 active torsions:
REMARK  status: ('A' for Active; 'I' for Inactive)
ROOT
ATOM      1  C   UNL d   1       3.250   1.190  -1.333  0.00  0.00     0.077 C 
ATOM      2  C1  UNL d   1       2.458   0.388  -0.344  0.00  0.00    -0.074 A 
ATOM      3  C2  UNL d   1       3.041  -0.677   0.351  0.00  0.00    -0.005 A 
ATOM      4  C3  UNL d   1       2.295  -1.408   1.274  0.00  0.00     0.006 A 
ATOM      5  C4  UNL d   1       0.959  -1.083   1.513  0.00  0.00    -0.005 A 
ATOM      6  C5  UNL d   1       0.358  -0.021   0.829  0.00  0.00    -0.074 A 
ATOM      7  C6  UNL d   1      -1.073   0.348   1.080  0.00  0.00     0.077 C 
ATOM      8  C7  UNL d   1       1.117   0.713  -0.093  0.00  0.00    -0.001 A 
ENDROOT
TORSDOF 0
ENDMDL
