MODEL 1
REMARK minimizedAffinity -3.9151237
REMARK minimizedRMSD -1
REMARK  0 active torsions:
REMARK  status: ('A' for Active; 'I' for Inactive)
ROOT
ATOM      1  C   UNL d   1      -0.588   3.708  -2.481  0.00  0.00     0.077 C 
ATOM      2  C1  UNL d   1      -1.215   2.438  -1.988  0.00  0.00    -0.074 A 
ATOM      3  C2  UNL d   1      -2.476   2.036  -2.439  0.00  0.00    -0.005 A 
ATOM      4  C3  UNL d   1      -3.042   0.847  -1.979  0.00  0.00     0.006 A 
ATOM      5  C4  UNL d   1      -2.353   0.049  -1.065  0.00  0.00    -0.005 A 
ATOM      6  C5  UNL d   1      -1.091   0.434  -0.603  0.00  0.00    -0.074 A 
ATOM      7  C6  UNL d   1      -0.333  -0.417   0.372  0.00  0.00     0.077 C 
ATOM      8  C7  UNL d   1      -0.526   1.627  -1.076  0.00  0.00    -0.001 A 
ENDROOT
TORSDOF 0
ENDMDL
