MODEL 1
REMARK minimizedAffinity -4.02328777
REMARK minimizedRMSD -1
REMARK  0 active torsions:
REMARK  status: ('A' for Active; 'I' for Inactive)
ROOT
ATOM      1  C   UNL d   1      -1.025   1.374  -0.071  0.00  0.00     0.077 C 
ATOM      2  C1  UNL d   1       0.063   0.341  -0.076  0.00  0.00    -0.074 A 
ATOM      3  C2  UNL d   1       0.688  -0.038  -1.268  0.00  0.00    -0.005 A 
ATOM      4  C3  UNL d   1       1.704  -0.994  -1.257  0.00  0.00     0.006 A 
ATOM      5  C4  UNL d   1       2.105  -1.578  -0.055  0.00  0.00    -0.005 A 
ATOM      6  C5  UNL d   1       1.492  -1.211   1.147  0.00  0.00    -0.074 A 
ATOM      7  C6  UNL d   1       1.917  -1.823   2.449  0.00  0.00     0.077 C 
ATOM      8  C7  UNL d   1       0.476  -0.245   1.128  0.00  0.00    -0.001 A 
ENDROOT
TORSDOF 0
ENDMDL
