MODEL 1
REMARK minimizedAffinity -4.40125751
REMARK minimizedRMSD -1
REMARK  0 active torsions:
REMARK  status: ('A' for Active; 'I' for Inactive)
ROOT
ATOM      1  C   UNL d   1       1.431  -2.754   1.527  0.00  0.00     0.077 C 
ATOM      2  C1  UNL d   1       1.487  -1.501   0.705  0.00  0.00    -0.074 A 
ATOM      3  C2  UNL d   1       2.696  -1.047   0.166  0.00  0.00    -0.005 A 
ATOM      4  C3  UNL d   1       2.730   0.115  -0.604  0.00  0.00     0.006 A 
ATOM      5  C4  UNL d   1       1.559   0.834  -0.844  0.00  0.00    -0.005 A 
ATOM      6  C5  UNL d   1       0.341   0.396  -0.315  0.00  0.00    -0.074 A 
ATOM      7  C6  UNL d   1      -0.929   1.152  -0.571  0.00  0.00     0.077 C 
ATOM      8  C7  UNL d   1       0.313  -0.777   0.453  0.00  0.00    -0.001 A 
ENDROOT
TORSDOF 0
ENDMDL
