MODEL 1
REMARK minimizedAffinity -4.71597958
REMARK minimizedRMSD -1
REMARK  0 active torsions:
REMARK  status: ('A' for Active; 'I' for Inactive)
ROOT
ATOM      1  C   UNL d   1       4.208   0.677  -0.906  0.00  0.00     0.077 C 
ATOM      2  C1  UNL d   1       3.000   0.091  -0.238  0.00  0.00    -0.074 A 
ATOM      3  C2  UNL d   1       3.106  -1.047   0.569  0.00  0.00    -0.005 A 
ATOM      4  C3  UNL d   1       1.975  -1.575   1.192  0.00  0.00     0.006 A 
ATOM      5  C4  UNL d   1       0.729  -0.973   1.014  0.00  0.00    -0.005 A 
ATOM      6  C5  UNL d   1       0.604   0.166   0.212  0.00  0.00    -0.074 A 
ATOM      7  C6  UNL d   1      -0.726   0.832   0.019  0.00  0.00     0.077 C 
ATOM      8  C7  UNL d   1       1.746   0.695  -0.405  0.00  0.00    -0.001 A 
ENDROOT
TORSDOF 0
ENDMDL
