MODEL 1
REMARK minimizedAffinity -2.21290159
REMARK minimizedRMSD -1
REMARK  0 active torsions:
REMARK  status: ('A' for Active; 'I' for Inactive)
ROOT
ATOM      1  C   UNL d   1       3.105   1.407  -1.208  0.00  0.00     0.077 C 
ATOM      2  C1  UNL d   1       2.030   0.709  -0.429  0.00  0.00    -0.074 A 
ATOM      3  C2  UNL d   1       0.693   1.106  -0.535  0.00  0.00    -0.005 A 
ATOM      4  C3  UNL d   1      -0.297   0.441   0.188  0.00  0.00     0.006 A 
ATOM      5  C4  UNL d   1       0.039  -0.625   1.024  0.00  0.00    -0.005 A 
ATOM      6  C5  UNL d   1       1.370  -1.036   1.142  0.00  0.00    -0.074 A 
ATOM      7  C6  UNL d   1       1.747  -2.186   2.028  0.00  0.00     0.077 C 
ATOM      8  C7  UNL d   1       2.358  -0.367   0.406  0.00  0.00    -0.001 A 
ENDROOT
TORSDOF 0
ENDMDL
