MODEL 1
REMARK minimizedAffinity -0.651289582
REMARK minimizedRMSD -1
REMARK  0 active torsions:
REMARK  status: ('A' for Active; 'I' for Inactive)
ROOT
ATOM      1  C   UNL d   1      -1.971   1.865  -3.273  0.00  0.00     0.077 C 
ATOM      2  C1  UNL d   1      -1.642   1.013  -2.083  0.00  0.00    -0.074 A 
ATOM      3  C2  UNL d   1      -2.536   0.039  -1.627  0.00  0.00    -0.005 A 
ATOM      4  C3  UNL d   1      -2.212  -0.752  -0.525  0.00  0.00     0.006 A 
ATOM      5  C4  UNL d   1      -0.992  -0.579   0.130  0.00  0.00    -0.005 A 
ATOM      6  C5  UNL d   1      -0.085   0.389  -0.313  0.00  0.00    -0.074 A 
ATOM      7  C6  UNL d   1       1.234   0.582   0.374  0.00  0.00     0.077 C 
ATOM      8  C7  UNL d   1      -0.415   1.176  -1.425  0.00  0.00    -0.001 A 
ENDROOT
TORSDOF 0
ENDMDL
