MODEL 1
REMARK minimizedAffinity 7.64328146
REMARK minimizedRMSD -1
REMARK  0 active torsions:
REMARK  status: ('A' for Active; 'I' for Inactive)
ROOT
ATOM      1  C   UNL d   1      -1.895  -5.751  -5.999  0.00  0.00     0.077 C 
ATOM      2  C1  UNL d   1      -0.526  -5.311  -5.573  0.00  0.00    -0.074 A 
ATOM      3  C2  UNL d   1       0.615  -5.999  -5.997  0.00  0.00    -0.005 A 
ATOM      4  C3  UNL d   1       1.883  -5.572  -5.601  0.00  0.00     0.006 A 
ATOM      5  C4  UNL d   1       2.021  -4.455  -4.777  0.00  0.00    -0.005 A 
ATOM      6  C5  UNL d   1       0.892  -3.753  -4.343  0.00  0.00    -0.074 A 
ATOM      7  C6  UNL d   1       1.024  -2.544  -3.465  0.00  0.00     0.077 C 
ATOM      8  C7  UNL d   1      -0.377  -4.184  -4.751  0.00  0.00    -0.001 A 
ENDROOT
TORSDOF 0
ENDMDL
