MODEL 1
REMARK minimizedAffinity -2.40301561
REMARK minimizedRMSD -1
REMARK  0 active torsions:
REMARK  status: ('A' for Active; 'I' for Inactive)
ROOT
ATOM      1  C   UNL d   1      -4.367  -0.717  -0.981  0.00  0.00     0.077 C 
ATOM      2  C1  UNL d   1      -3.134   0.093  -0.708  0.00  0.00    -0.074 A 
ATOM      3  C2  UNL d   1      -2.470   0.001   0.519  0.00  0.00    -0.005 A 
ATOM      4  C3  UNL d   1      -1.320   0.753   0.755  0.00  0.00     0.006 A 
ATOM      5  C4  UNL d   1      -0.822   1.603  -0.233  0.00  0.00    -0.005 A 
ATOM      6  C5  UNL d   1      -1.471   1.708  -1.467  0.00  0.00    -0.074 A 
ATOM      7  C6  UNL d   1      -0.944   2.610  -2.543  0.00  0.00     0.077 C 
ATOM      8  C7  UNL d   1      -2.623   0.944  -1.699  0.00  0.00    -0.001 A 
ENDROOT
TORSDOF 0
ENDMDL
