MODEL 1
REMARK minimizedAffinity -4.92153931
REMARK minimizedRMSD -1
REMARK  0 active torsions:
REMARK  status: ('A' for Active; 'I' for Inactive)
ROOT
ATOM      1  C   UNL d   1      -1.126   1.620  -0.732  0.00  0.00     0.077 C 
ATOM      2  C1  UNL d   1      -0.804   0.498   0.211  0.00  0.00    -0.074 A 
ATOM      3  C2  UNL d   1      -1.515   0.337   1.405  0.00  0.00    -0.005 A 
ATOM      4  C3  UNL d   1      -1.210  -0.717   2.267  0.00  0.00     0.006 A 
ATOM      5  C4  UNL d   1      -0.194  -1.617   1.945  0.00  0.00    -0.005 A 
ATOM      6  C5  UNL d   1       0.526  -1.472   0.755  0.00  0.00    -0.074 A 
ATOM      7  C6  UNL d   1       1.614  -2.437   0.389  0.00  0.00     0.077 C 
ATOM      8  C7  UNL d   1       0.210  -0.415  -0.110  0.00  0.00    -0.001 A 
ENDROOT
TORSDOF 0
ENDMDL
