MODEL 1
REMARK minimizedAffinity 8.52369785
REMARK minimizedRMSD -1
REMARK  1 active torsions:
REMARK  status: ('A' for Active; 'I' for Inactive)
REMARK    1  A    between atoms: C3_4  and  O_7 
ROOT
ATOM      1  C   UNL d   1      -3.174  -4.995  -4.232  0.00  0.00    -0.033 A 
ATOM      2  C1  UNL d   1      -3.221  -4.022  -3.231  0.00  0.00     0.039 A 
ATOM      3  C2  UNL d   1      -2.286  -4.038  -2.194  0.00  0.00    -0.080 A 
ATOM      4  C3  UNL d   1      -1.309  -5.030  -2.171  0.00  0.00     0.150 A 
ATOM      5  C4  UNL d   1      -1.253  -5.999  -3.167  0.00  0.00    -0.007 A 
ATOM      6  C5  UNL d   1      -2.189  -5.982  -4.200  0.00  0.00     0.039 A 
ENDROOT
BRANCH   4   7
ATOM      7  O   UNL d   1      -0.378  -5.089  -1.177  0.00  0.00    -0.526 OA
ATOM      8  H5  UNL d   1      -0.557  -4.373  -0.544  0.00  0.00     0.418 HD
ENDBRANCH   4   7
TORSDOF 1
ENDMDL
