MODEL 1
REMARK minimizedAffinity 4.70837688
REMARK minimizedRMSD -1
REMARK  1 active torsions:
REMARK  status: ('A' for Active; 'I' for Inactive)
REMARK    1  A    between atoms: C3_4  and  O_7 
ROOT
ATOM      1  C   UNL d   1       4.795  -1.003   0.263  0.00  0.00    -0.033 A 
ATOM      2  C1  UNL d   1       3.642  -0.583  -0.402  0.00  0.00     0.039 A 
ATOM      3  C2  UNL d   1       3.665   0.581  -1.173  0.00  0.00    -0.080 A 
ATOM      4  C3  UNL d   1       4.844   1.313  -1.271  0.00  0.00     0.150 A 
ATOM      5  C4  UNL d   1       5.998   0.898  -0.614  0.00  0.00    -0.007 A 
ATOM      6  C5  UNL d   1       5.973  -0.264   0.157  0.00  0.00     0.039 A 
ENDROOT
BRANCH   4   7
ATOM      7  O   UNL d   1       4.913   2.458  -2.008  0.00  0.00    -0.526 OA
ATOM      8  H5  UNL d   1       4.034   2.637  -2.382  0.00  0.00     0.418 HD
ENDBRANCH   4   7
TORSDOF 1
ENDMDL
