MODEL 1
REMARK minimizedAffinity 4.95652103
REMARK minimizedRMSD -1
REMARK  1 active torsions:
REMARK  status: ('A' for Active; 'I' for Inactive)
REMARK    1  A    between atoms: C3_4  and  O_7 
ROOT
ATOM      1  C   UNL d   1       4.719  -0.719   0.037  0.00  0.00    -0.033 A 
ATOM      2  C1  UNL d   1       5.929  -0.023   0.030  0.00  0.00     0.039 A 
ATOM      3  C2  UNL d   1       5.999   1.253  -0.531  0.00  0.00    -0.080 A 
ATOM      4  C3  UNL d   1       4.854   1.822  -1.081  0.00  0.00     0.150 A 
ATOM      5  C4  UNL d   1       3.644   1.136  -1.075  0.00  0.00    -0.007 A 
ATOM      6  C5  UNL d   1       3.576  -0.139  -0.514  0.00  0.00     0.039 A 
ENDROOT
BRANCH   4   7
ATOM      7  O   UNL d   1       4.874   3.063  -1.645  0.00  0.00    -0.526 OA
ATOM      8  H5  UNL d   1       5.783   3.405  -1.603  0.00  0.00     0.418 HD
ENDBRANCH   4   7
TORSDOF 1
ENDMDL
