MODEL 1
REMARK minimizedAffinity 4.32237816
REMARK minimizedRMSD -1
REMARK  1 active torsions:
REMARK  status: ('A' for Active; 'I' for Inactive)
REMARK    1  A    between atoms: C3_4  and  O_7 
ROOT
ATOM      1  C   UNL d   1       3.873  -1.022   0.135  0.00  0.00    -0.033 A 
ATOM      2  C1  UNL d   1       5.216  -0.687   0.326  0.00  0.00     0.039 A 
ATOM      3  C2  UNL d   1       5.730   0.486  -0.229  0.00  0.00    -0.080 A 
ATOM      4  C3  UNL d   1       4.893   1.316  -0.971  0.00  0.00     0.150 A 
ATOM      5  C4  UNL d   1       3.554   0.990  -1.161  0.00  0.00    -0.007 A 
ATOM      6  C5  UNL d   1       3.042  -0.182  -0.607  0.00  0.00     0.039 A 
ENDROOT
BRANCH   4   7
ATOM      7  O   UNL d   1       5.351   2.469  -1.536  0.00  0.00    -0.526 OA
ATOM      8  H5  UNL d   1       6.300   2.549  -1.345  0.00  0.00     0.418 HD
ENDBRANCH   4   7
TORSDOF 1
ENDMDL
