MODEL 1
REMARK minimizedAffinity 4.1475296
REMARK minimizedRMSD -1
REMARK  1 active torsions:
REMARK  status: ('A' for Active; 'I' for Inactive)
REMARK    1  A    between atoms: C3_4  and  O_7 
ROOT
ATOM      1  C   UNL d   1       4.914   0.966   0.309  0.00  0.00    -0.033 A 
ATOM      2  C1  UNL d   1       3.837   0.295  -0.275  0.00  0.00     0.039 A 
ATOM      3  C2  UNL d   1       3.839   0.028  -1.645  0.00  0.00    -0.080 A 
ATOM      4  C3  UNL d   1       4.922   0.435  -2.420  0.00  0.00     0.150 A 
ATOM      5  C4  UNL d   1       6.000   1.100  -1.844  0.00  0.00    -0.007 A 
ATOM      6  C5  UNL d   1       5.996   1.367  -0.476  0.00  0.00     0.039 A 
ENDROOT
BRANCH   4   7
ATOM      7  O   UNL d   1       4.967   0.200  -3.762  0.00  0.00    -0.526 OA
ATOM      8  H5  UNL d   1       4.142  -0.241  -4.025  0.00  0.00     0.418 HD
ENDBRANCH   4   7
TORSDOF 1
ENDMDL
