MODEL 1
REMARK minimizedAffinity -0.190469697
REMARK minimizedRMSD -1
REMARK  1 active torsions:
REMARK  status: ('A' for Active; 'I' for Inactive)
REMARK    1  A    between atoms: C3_4  and  O_7 
ROOT
ATOM      1  C   UNL d   1       5.206   1.134  -0.656  0.00  0.00    -0.033 A 
ATOM      2  C1  UNL d   1       6.000   0.304   0.138  0.00  0.00     0.039 A 
ATOM      3  C2  UNL d   1       5.509  -0.930   0.570  0.00  0.00    -0.080 A 
ATOM      4  C3  UNL d   1       4.225  -1.322   0.200  0.00  0.00     0.150 A 
ATOM      5  C4  UNL d   1       3.431  -0.502  -0.595  0.00  0.00    -0.007 A 
ATOM      6  C5  UNL d   1       3.922   0.730  -1.024  0.00  0.00     0.039 A 
ENDROOT
BRANCH   4   7
ATOM      7  O   UNL d   1       3.701  -2.515   0.600  0.00  0.00    -0.526 OA
ATOM      8  H5  UNL d   1       4.352  -2.962   1.167  0.00  0.00     0.418 HD
ENDBRANCH   4   7
TORSDOF 1
ENDMDL
