MODEL 1
REMARK minimizedAffinity 4.50737
REMARK minimizedRMSD -1
REMARK  1 active torsions:
REMARK  status: ('A' for Active; 'I' for Inactive)
REMARK    1  A    between atoms: C3_4  and  O_7 
ROOT
ATOM      1  C   UNL d   1       5.999   4.570  -0.274  0.00  0.00    -0.033 A 
ATOM      2  C1  UNL d   1       5.277   4.649  -1.467  0.00  0.00     0.039 A 
ATOM      3  C2  UNL d   1       4.559   3.543  -1.924  0.00  0.00    -0.080 A 
ATOM      4  C3  UNL d   1       4.569   2.366  -1.181  0.00  0.00     0.150 A 
ATOM      5  C4  UNL d   1       5.282   2.281   0.010  0.00  0.00    -0.007 A 
ATOM      6  C5  UNL d   1       6.000   3.387   0.466  0.00  0.00     0.039 A 
ENDROOT
BRANCH   4   7
ATOM      7  O   UNL d   1       3.886   1.259  -1.590  0.00  0.00    -0.526 OA
ATOM      8  H5  UNL d   1       3.464   1.455  -2.443  0.00  0.00     0.418 HD
ENDBRANCH   4   7
TORSDOF 1
ENDMDL
