MODEL 1
REMARK minimizedAffinity 6.10821438
REMARK minimizedRMSD -1
REMARK  1 active torsions:
REMARK  status: ('A' for Active; 'I' for Inactive)
REMARK    1  A    between atoms: C3_4  and  O_7 
ROOT
ATOM      1  C   UNL d   1       6.000   5.682  -0.468  0.00  0.00    -0.033 A 
ATOM      2  C1  UNL d   1       6.000   5.442  -1.843  0.00  0.00     0.039 A 
ATOM      3  C2  UNL d   1       5.746   4.158  -2.330  0.00  0.00    -0.080 A 
ATOM      4  C3  UNL d   1       5.493   3.125  -1.431  0.00  0.00     0.150 A 
ATOM      5  C4  UNL d   1       5.488   3.358  -0.060  0.00  0.00    -0.007 A 
ATOM      6  C5  UNL d   1       5.742   4.640   0.424  0.00  0.00     0.039 A 
ENDROOT
BRANCH   4   7
ATOM      7  O   UNL d   1       5.244   1.854  -1.859  0.00  0.00    -0.526 OA
ATOM      8  H5  UNL d   1       5.309   1.838  -2.828  0.00  0.00     0.418 HD
ENDBRANCH   4   7
TORSDOF 1
ENDMDL
