MODEL 1
REMARK minimizedAffinity 5.70251894
REMARK minimizedRMSD -1
REMARK  1 active torsions:
REMARK  status: ('A' for Active; 'I' for Inactive)
REMARK    1  A    between atoms: C3_4  and  O_7 
ROOT
ATOM      1  C   UNL d   1      -3.771  -0.401  -3.146  0.00  0.00    -0.033 A 
ATOM      2  C1  UNL d   1      -4.763   0.170  -3.946  0.00  0.00     0.039 A 
ATOM      3  C2  UNL d   1      -4.423   1.118  -4.912  0.00  0.00    -0.080 A 
ATOM      4  C3  UNL d   1      -3.090   1.486  -5.070  0.00  0.00     0.150 A 
ATOM      5  C4  UNL d   1      -2.096   0.919  -4.279  0.00  0.00    -0.007 A 
ATOM      6  C5  UNL d   1      -2.437  -0.028  -3.314  0.00  0.00     0.039 A 
ENDROOT
BRANCH   4   7
ATOM      7  O   UNL d   1      -2.710   2.411  -5.996  0.00  0.00    -0.526 OA
ATOM      8  H5  UNL d   1      -3.506   2.738  -6.449  0.00  0.00     0.418 HD
ENDBRANCH   4   7
TORSDOF 1
ENDMDL
