MODEL 1
REMARK minimizedAffinity 12.3518248
REMARK minimizedRMSD -1
REMARK  2 active torsions:
REMARK  status: ('A' for Active; 'I' for Inactive)
REMARK    1  A    between atoms: C2'_3  and  C1'_4 
REMARK    2  A    between atoms: C1'_4  and  C1_5 
ROOT
ATOM      1  C1  I4B d   1      -0.082   3.733  -3.056  0.00  0.00    -0.075 A 
ATOM      2  C2  I4B d   1       0.847   3.477  -2.079  0.00  0.00     0.003 A 
ATOM      3  C3  I4B d   1       0.430   3.177  -0.759  0.00  0.00     0.002 A 
ATOM      4  C4  I4B d   1      -0.915   3.194  -0.451  0.00  0.00    -0.004 A 
ATOM      5  C5  I4B d   1      -1.857   3.432  -1.449  0.00  0.00     0.002 A 
ATOM      6  C6  I4B d   1      -1.438   3.691  -2.762  0.00  0.00     0.003 A 
ENDROOT
BRANCH   1   7
ATOM      7  C1' I4B d   1       0.395   4.078  -4.431  0.00  0.00     0.060 C 
BRANCH   7   8
ATOM      8  C2' I4B d   1       0.590   5.579  -4.495  0.00  0.00    -0.013 C 
ATOM      9  C4' I4B d   1       1.916   5.982  -3.906  0.00  0.00     0.013 C 
ATOM     10  C3' I4B d   1       0.485   5.999  -5.930  0.00  0.00     0.013 C 
ENDBRANCH   7   8
ENDBRANCH   1   7
TORSDOF 2
ENDMDL
