MODEL 1
REMARK minimizedAffinity 16.539402
REMARK minimizedRMSD -1
REMARK  2 active torsions:
REMARK  status: ('A' for Active; 'I' for Inactive)
REMARK    1  A    between atoms: C2'_3  and  C1'_4 
REMARK    2  A    between atoms: C1'_4  and  C1_5 
ROOT
ATOM      1  C1  I4B d   1      -0.077   3.016   0.075  0.00  0.00    -0.075 A 
ATOM      2  C2  I4B d   1      -1.444   2.926   0.155  0.00  0.00     0.003 A 
ATOM      3  C3  I4B d   1      -2.051   2.223   1.224  0.00  0.00     0.002 A 
ATOM      4  C4  I4B d   1      -1.257   1.587   2.157  0.00  0.00    -0.004 A 
ATOM      5  C5  I4B d   1       0.129   1.698   2.086  0.00  0.00     0.002 A 
ATOM      6  C6  I4B d   1       0.723   2.427   1.046  0.00  0.00     0.003 A 
ENDROOT
BRANCH   1   7
ATOM      7  C1' I4B d   1       0.531   3.737  -1.086  0.00  0.00     0.060 C 
BRANCH   7   8
ATOM      8  C2' I4B d   1       0.494   2.810  -2.284  0.00  0.00    -0.013 C 
ATOM      9  C4' I4B d   1      -0.420   3.340  -3.357  0.00  0.00     0.013 C 
ATOM     10  C3' I4B d   1       1.896   2.657  -2.793  0.00  0.00     0.013 C 
ENDBRANCH   7   8
ENDBRANCH   1   7
TORSDOF 2
ENDMDL
