MODEL 1
REMARK minimizedAffinity 19.4020519
REMARK minimizedRMSD -1
REMARK  2 active torsions:
REMARK  status: ('A' for Active; 'I' for Inactive)
REMARK    1  A    between atoms: C2'_3  and  C1'_4 
REMARK    2  A    between atoms: C1'_4  and  C1_5 
ROOT
ATOM      1  C1  I4B d   1       0.781   3.799   1.118  0.00  0.00    -0.075 A 
ATOM      2  C2  I4B d   1       1.216   3.836   2.420  0.00  0.00     0.003 A 
ATOM      3  C3  I4B d   1       1.932   4.959   2.901  0.00  0.00     0.002 A 
ATOM      4  C4  I4B d   1       2.233   5.993   2.038  0.00  0.00    -0.004 A 
ATOM      5  C5  I4B d   1       1.771   5.965   0.726  0.00  0.00     0.002 A 
ATOM      6  C6  I4B d   1       1.030   4.867   0.265  0.00  0.00     0.003 A 
ENDROOT
BRANCH   1   7
ATOM      7  C1' I4B d   1       0.056   2.583   0.635  0.00  0.00     0.060 C 
BRANCH   7   8
ATOM      8  C2' I4B d   1      -0.441   1.823   1.847  0.00  0.00    -0.013 C 
ATOM      9  C4' I4B d   1      -1.872   1.387   1.669  0.00  0.00     0.013 C 
ATOM     10  C3' I4B d   1       0.462   0.644   2.057  0.00  0.00     0.013 C 
ENDBRANCH   7   8
ENDBRANCH   1   7
TORSDOF 2
ENDMDL
