MODEL 1
REMARK minimizedAffinity 17.1763268
REMARK minimizedRMSD -1
REMARK  2 active torsions:
REMARK  status: ('A' for Active; 'I' for Inactive)
REMARK    1  A    between atoms: C2'_3  and  C1'_4 
REMARK    2  A    between atoms: C1'_4  and  C1_5 
ROOT
ATOM      1  C1  I4B d   1       2.126  -3.347  -4.385  0.00  0.00    -0.075 A 
ATOM      2  C2  I4B d   1       3.494  -3.229  -4.367  0.00  0.00     0.003 A 
ATOM      3  C3  I4B d   1       4.136  -2.252  -5.165  0.00  0.00     0.002 A 
ATOM      4  C4  I4B d   1       3.381  -1.453  -6.000  0.00  0.00    -0.004 A 
ATOM      5  C5  I4B d   1       1.993  -1.558  -6.000  0.00  0.00     0.002 A 
ATOM      6  C6  I4B d   1       1.361  -2.502  -5.179  0.00  0.00     0.003 A 
ENDROOT
BRANCH   1   7
ATOM      7  C1' I4B d   1       1.483  -4.411  -3.554  0.00  0.00     0.060 C 
BRANCH   7   8
ATOM      8  C2' I4B d   1       2.244  -4.507  -2.248  0.00  0.00    -0.013 C 
ATOM      9  C4' I4B d   1       1.512  -3.800  -1.138  0.00  0.00     0.013 C 
ATOM     10  C3' I4B d   1       2.437  -5.960  -1.930  0.00  0.00     0.013 C 
ENDBRANCH   7   8
ENDBRANCH   1   7
TORSDOF 2
ENDMDL
