MODEL 1
REMARK minimizedAffinity 23.8483028
REMARK minimizedRMSD -1
REMARK  2 active torsions:
REMARK  status: ('A' for Active; 'I' for Inactive)
REMARK    1  A    between atoms: C2'_3  and  C1'_4 
REMARK    2  A    between atoms: C1'_4  and  C1_5 
ROOT
ATOM      1  C1  I4B d   1       0.017   5.254  -3.908  0.00  0.00    -0.075 A 
ATOM      2  C2  I4B d   1       1.149   5.287  -3.132  0.00  0.00     0.003 A 
ATOM      3  C3  I4B d   1       2.386   5.689  -3.691  0.00  0.00     0.002 A 
ATOM      4  C4  I4B d   1       2.456   5.999  -5.034  0.00  0.00    -0.004 A 
ATOM      5  C5  I4B d   1       1.303   5.987  -5.814  0.00  0.00     0.002 A 
ATOM      6  C6  I4B d   1       0.074   5.624  -5.246  0.00  0.00     0.003 A 
ENDROOT
BRANCH   1   7
ATOM      7  C1' I4B d   1      -1.266   4.793  -3.293  0.00  0.00     0.060 C 
BRANCH   7   8
ATOM      8  C2' I4B d   1      -1.184   3.290  -3.114  0.00  0.00    -0.013 C 
ATOM      9  C4' I4B d   1      -0.752   2.931  -1.716  0.00  0.00     0.013 C 
ATOM     10  C3' I4B d   1      -2.531   2.712  -3.430  0.00  0.00     0.013 C 
ENDBRANCH   7   8
ENDBRANCH   1   7
TORSDOF 2
ENDMDL
