MODEL 1
REMARK minimizedAffinity 25.3121281
REMARK minimizedRMSD -1
REMARK  2 active torsions:
REMARK  status: ('A' for Active; 'I' for Inactive)
REMARK    1  A    between atoms: C2'_3  and  C1'_4 
REMARK    2  A    between atoms: C1'_4  and  C1_5 
ROOT
ATOM      1  C1  I4B d   1      -0.992   2.973  -2.300  0.00  0.00    -0.075 A 
ATOM      2  C2  I4B d   1       0.331   3.219  -2.027  0.00  0.00     0.003 A 
ATOM      3  C3  I4B d   1       0.894   2.802  -0.797  0.00  0.00     0.002 A 
ATOM      4  C4  I4B d   1       0.092   2.193   0.146  0.00  0.00    -0.004 A 
ATOM      5  C5  I4B d   1      -1.243   1.925  -0.141  0.00  0.00     0.002 A 
ATOM      6  C6  I4B d   1      -1.786   2.306  -1.376  0.00  0.00     0.003 A 
ENDROOT
BRANCH   1   7
ATOM      7  C1' I4B d   1      -1.563   3.456  -3.595  0.00  0.00     0.060 C 
BRANCH   7   8
ATOM      8  C2' I4B d   1      -1.518   4.971  -3.589  0.00  0.00    -0.013 C 
ATOM      9  C4' I4B d   1      -0.902   5.503  -4.857  0.00  0.00     0.013 C 
ATOM     10  C3' I4B d   1      -2.920   5.475  -3.415  0.00  0.00     0.013 C 
ENDBRANCH   7   8
ENDBRANCH   1   7
TORSDOF 2
ENDMDL
