MODEL 1
REMARK minimizedAffinity 17.2142658
REMARK minimizedRMSD -1
REMARK  2 active torsions:
REMARK  status: ('A' for Active; 'I' for Inactive)
REMARK    1  A    between atoms: C2'_3  and  C1'_4 
REMARK    2  A    between atoms: C1'_4  and  C1_5 
ROOT
ATOM      1  C1  I4B d   1      -0.280   5.544  -4.129  0.00  0.00    -0.075 A 
ATOM      2  C2  I4B d   1       0.739   5.564  -3.209  0.00  0.00     0.003 A 
ATOM      3  C3  I4B d   1       2.069   5.818  -3.624  0.00  0.00     0.002 A 
ATOM      4  C4  I4B d   1       2.341   5.996  -4.965  0.00  0.00    -0.004 A 
ATOM      5  C5  I4B d   1       1.303   5.998  -5.893  0.00  0.00     0.002 A 
ATOM      6  C6  I4B d   1      -0.017   5.783  -5.472  0.00  0.00     0.003 A 
ENDROOT
BRANCH   1   7
ATOM      7  C1' I4B d   1      -1.667   5.240  -3.661  0.00  0.00     0.060 C 
BRANCH   7   8
ATOM      8  C2' I4B d   1      -1.744   3.757  -3.360  0.00  0.00    -0.013 C 
ATOM      9  C4' I4B d   1      -1.525   2.936  -4.603  0.00  0.00     0.013 C 
ATOM     10  C3' I4B d   1      -0.715   3.443  -2.315  0.00  0.00     0.013 C 
ENDBRANCH   7   8
ENDBRANCH   1   7
TORSDOF 2
ENDMDL
