MODEL 1
REMARK minimizedAffinity 13.3456535
REMARK minimizedRMSD -1
REMARK  2 active torsions:
REMARK  status: ('A' for Active; 'I' for Inactive)
REMARK    1  A    between atoms: C2'_3  and  C1'_4 
REMARK    2  A    between atoms: C1'_4  and  C1_5 
ROOT
ATOM      1  C1  I4B d   1       1.407  -2.587  -3.054  0.00  0.00    -0.075 A 
ATOM      2  C2  I4B d   1       1.188  -3.722  -2.314  0.00  0.00     0.003 A 
ATOM      3  C3  I4B d   1       1.376  -3.705  -0.910  0.00  0.00     0.002 A 
ATOM      4  C4  I4B d   1       1.830  -2.553  -0.299  0.00  0.00    -0.004 A 
ATOM      5  C5  I4B d   1       2.030  -1.397  -1.049  0.00  0.00     0.002 A 
ATOM      6  C6  I4B d   1       1.805  -1.410  -2.433  0.00  0.00     0.003 A 
ENDROOT
BRANCH   1   7
ATOM      7  C1' I4B d   1       1.230  -2.650  -4.538  0.00  0.00     0.060 C 
BRANCH   7   8
ATOM      8  C2' I4B d   1       2.180  -1.649  -5.164  0.00  0.00    -0.013 C 
ATOM      9  C4' I4B d   1       3.229  -2.339  -5.995  0.00  0.00     0.013 C 
ATOM     10  C3' I4B d   1       1.370  -0.698  -5.994  0.00  0.00     0.013 C 
ENDBRANCH   7   8
ENDBRANCH   1   7
TORSDOF 2
ENDMDL
