MODEL 1
REMARK minimizedAffinity 24.6599026
REMARK minimizedRMSD -1
REMARK  2 active torsions:
REMARK  status: ('A' for Active; 'I' for Inactive)
REMARK    1  A    between atoms: C2'_3  and  C1'_4 
REMARK    2  A    between atoms: C1'_4  and  C1_5 
ROOT
ATOM      1  C1  I4B d   1       1.409  -3.345  -1.106  0.00  0.00    -0.075 A 
ATOM      2  C2  I4B d   1       1.518  -4.603  -1.643  0.00  0.00     0.003 A 
ATOM      3  C3  I4B d   1       1.473  -4.785  -3.047  0.00  0.00     0.002 A 
ATOM      4  C4  I4B d   1       1.269  -3.695  -3.867  0.00  0.00    -0.004 A 
ATOM      5  C5  I4B d   1       1.182  -2.417  -3.322  0.00  0.00     0.002 A 
ATOM      6  C6  I4B d   1       1.265  -2.239  -1.933  0.00  0.00     0.003 A 
ENDROOT
BRANCH   1   7
ATOM      7  C1' I4B d   1       1.428  -3.193   0.382  0.00  0.00     0.060 C 
BRANCH   7   8
ATOM      8  C2' I4B d   1       2.168  -1.912   0.711  0.00  0.00    -0.013 C 
ATOM      9  C4' I4B d   1       1.229  -0.735   0.753  0.00  0.00     0.013 C 
ATOM     10  C3' I4B d   1       2.858  -2.101   2.029  0.00  0.00     0.013 C 
ENDBRANCH   7   8
ENDBRANCH   1   7
TORSDOF 2
ENDMDL
