MODEL 1
REMARK minimizedAffinity 12.4433222
REMARK minimizedRMSD -1
REMARK  2 active torsions:
REMARK  status: ('A' for Active; 'I' for Inactive)
REMARK    1  A    between atoms: C2'_3  and  C1'_4 
REMARK    2  A    between atoms: C1'_4  and  C1_5 
ROOT
ATOM      1  C1  I4B d   1       1.642  -2.712  -2.737  0.00  0.00    -0.075 A 
ATOM      2  C2  I4B d   1       1.518  -1.558  -2.004  0.00  0.00     0.003 A 
ATOM      3  C3  I4B d   1       1.692  -1.584  -0.599  0.00  0.00     0.002 A 
ATOM      4  C4  I4B d   1       1.938  -2.786   0.033  0.00  0.00    -0.004 A 
ATOM      5  C5  I4B d   1       2.087  -3.951  -0.715  0.00  0.00     0.002 A 
ATOM      6  C6  I4B d   1       1.950  -3.912  -2.110  0.00  0.00     0.003 A 
ENDROOT
BRANCH   1   7
ATOM      7  C1' I4B d   1       1.419  -2.654  -4.215  0.00  0.00     0.060 C 
BRANCH   7   8
ATOM      8  C2' I4B d   1       2.458  -1.723  -4.808  0.00  0.00    -0.013 C 
ATOM      9  C4' I4B d   1       3.662  -2.487  -5.292  0.00  0.00     0.013 C 
ATOM     10  C3' I4B d   1       1.813  -0.963  -5.928  0.00  0.00     0.013 C 
ENDBRANCH   7   8
ENDBRANCH   1   7
TORSDOF 2
ENDMDL
