MODEL 1
REMARK minimizedAffinity 11.2759857
REMARK minimizedRMSD -1
REMARK  2 active torsions:
REMARK  status: ('A' for Active; 'I' for Inactive)
REMARK    1  A    between atoms: C2'_3  and  C1'_4 
REMARK    2  A    between atoms: C1'_4  and  C1_5 
ROOT
ATOM      1  C1  I4B d   1      -1.299   2.281  -0.365  0.00  0.00    -0.075 A 
ATOM      2  C2  I4B d   1      -0.035   2.148   0.152  0.00  0.00     0.003 A 
ATOM      3  C3  I4B d   1       1.002   3.017  -0.265  0.00  0.00     0.002 A 
ATOM      4  C4  I4B d   1       0.744   3.967  -1.232  0.00  0.00    -0.004 A 
ATOM      5  C5  I4B d   1      -0.543   4.116  -1.739  0.00  0.00     0.002 A 
ATOM      6  C6  I4B d   1      -1.575   3.276  -1.294  0.00  0.00     0.003 A 
ENDROOT
BRANCH   1   7
ATOM      7  C1' I4B d   1      -2.362   1.325   0.073  0.00  0.00     0.060 C 
BRANCH   7   8
ATOM      8  C2' I4B d   1      -2.577   0.323  -1.043  0.00  0.00    -0.013 C 
ATOM      9  C4' I4B d   1      -3.478  -0.801  -0.600  0.00  0.00     0.013 C 
ATOM     10  C3' I4B d   1      -3.160   1.054  -2.215  0.00  0.00     0.013 C 
ENDBRANCH   7   8
ENDBRANCH   1   7
TORSDOF 2
ENDMDL
