MODEL 1
REMARK minimizedAffinity 6.45379877
REMARK minimizedRMSD -1
REMARK  2 active torsions:
REMARK  status: ('A' for Active; 'I' for Inactive)
REMARK    1  A    between atoms: C2'_3  and  C1'_4 
REMARK    2  A    between atoms: C1'_4  and  C1_5 
ROOT
ATOM      1  C1  I4B d   1      -0.662   2.002   1.445  0.00  0.00    -0.075 A 
ATOM      2  C2  I4B d   1      -0.201   0.937   2.179  0.00  0.00     0.003 A 
ATOM      3  C3  I4B d   1      -1.081   0.223   3.028  0.00  0.00     0.002 A 
ATOM      4  C4  I4B d   1      -2.392   0.636   3.151  0.00  0.00    -0.004 A 
ATOM      5  C5  I4B d   1      -2.863   1.702   2.389  0.00  0.00     0.002 A 
ATOM      6  C6  I4B d   1      -1.995   2.382   1.521  0.00  0.00     0.003 A 
ENDROOT
BRANCH   1   7
ATOM      7  C1' I4B d   1       0.302   2.754   0.584  0.00  0.00     0.060 C 
BRANCH   7   8
ATOM      8  C2' I4B d   1      -0.479   3.794  -0.193  0.00  0.00    -0.013 C 
ATOM      9  C4' I4B d   1      -0.402   5.143   0.473  0.00  0.00     0.013 C 
ATOM     10  C3' I4B d   1       0.076   3.845  -1.585  0.00  0.00     0.013 C 
ENDBRANCH   7   8
ENDBRANCH   1   7
TORSDOF 2
ENDMDL
