MODEL 1
REMARK minimizedAffinity 18.1695919
REMARK minimizedRMSD -1
REMARK  2 active torsions:
REMARK  status: ('A' for Active; 'I' for Inactive)
REMARK    1  A    between atoms: C2'_3  and  C1'_4 
REMARK    2  A    between atoms: C1'_4  and  C1_5 
ROOT
ATOM      1  C1  I4B d   1      -0.021   4.088  -1.676  0.00  0.00    -0.075 A 
ATOM      2  C2  I4B d   1      -1.123   3.269  -1.698  0.00  0.00     0.003 A 
ATOM      3  C3  I4B d   1      -1.825   3.050  -2.908  0.00  0.00     0.002 A 
ATOM      4  C4  I4B d   1      -1.423   3.705  -4.054  0.00  0.00    -0.004 A 
ATOM      5  C5  I4B d   1      -0.292   4.516  -4.036  0.00  0.00     0.002 A 
ATOM      6  C6  I4B d   1       0.421   4.700  -2.842  0.00  0.00     0.003 A 
ENDROOT
BRANCH   1   7
ATOM      7  C1' I4B d   1       0.677   4.323  -0.374  0.00  0.00     0.060 C 
BRANCH   7   8
ATOM      8  C2' I4B d   1       0.403   5.751   0.051  0.00  0.00    -0.013 C 
ATOM      9  C4' I4B d   1      -1.074   6.000   0.208  0.00  0.00     0.013 C 
ATOM     10  C3' I4B d   1       1.134   6.000   1.336  0.00  0.00     0.013 C 
ENDBRANCH   7   8
ENDBRANCH   1   7
TORSDOF 2
ENDMDL
