MODEL 1
REMARK minimizedAffinity 15.2701368
REMARK minimizedRMSD -1
REMARK  2 active torsions:
REMARK  status: ('A' for Active; 'I' for Inactive)
REMARK    1  A    between atoms: C2'_3  and  C1'_4 
REMARK    2  A    between atoms: C1'_4  and  C1_5 
ROOT
ATOM      1  C1  I4B d   1       1.161  -2.869  -3.583  0.00  0.00    -0.075 A 
ATOM      2  C2  I4B d   1       0.605  -3.283  -4.768  0.00  0.00     0.003 A 
ATOM      3  C3  I4B d   1       1.124  -2.818  -6.000  0.00  0.00     0.002 A 
ATOM      4  C4  I4B d   1       2.161  -1.907  -6.000  0.00  0.00    -0.004 A 
ATOM      5  C5  I4B d   1       2.738  -1.506  -4.798  0.00  0.00     0.002 A 
ATOM      6  C6  I4B d   1       2.243  -1.999  -3.582  0.00  0.00     0.003 A 
ENDROOT
BRANCH   1   7
ATOM      7  C1' I4B d   1       0.566  -3.355  -2.299  0.00  0.00     0.060 C 
BRANCH   7   8
ATOM      8  C2' I4B d   1       1.697  -3.574  -1.314  0.00  0.00    -0.013 C 
ATOM      9  C4' I4B d   1       1.424  -2.876  -0.007  0.00  0.00     0.013 C 
ATOM     10  C3' I4B d   1       1.858  -5.051  -1.116  0.00  0.00     0.013 C 
ENDBRANCH   7   8
ENDBRANCH   1   7
TORSDOF 2
ENDMDL
