MODEL 1
REMARK minimizedAffinity 5.73496675
REMARK minimizedRMSD -1
REMARK  1 active torsions:
REMARK  status: ('A' for Active; 'I' for Inactive)
REMARK    1  A    between atoms: C1_2  and  C2_3 
ROOT
ATOM      1  C2  UNL d   1       1.369   2.239  -2.418  0.00  0.00    -0.077 A 
ATOM      2  C3  UNL d   1       1.099   0.863  -2.451  0.00  0.00     0.002 A 
ATOM      3  C4  UNL d   1       1.729  -0.001  -1.554  0.00  0.00     0.002 A 
ATOM      4  C5  UNL d   1       2.628   0.500  -0.615  0.00  0.00    -0.004 A 
ATOM      5  C6  UNL d   1       2.905   1.866  -0.576  0.00  0.00     0.002 A 
ATOM      6  C7  UNL d   1       2.278   2.731  -1.473  0.00  0.00     0.002 A 
ENDROOT
BRANCH   1   7
ATOM      7  C1  UNL d   1       0.654   3.180  -3.352  0.00  0.00     0.055 C 
ATOM      8  C   UNL d   1      -0.844   3.195  -3.084  0.00  0.00     0.019 C 
ENDBRANCH   1   7
TORSDOF 1
ENDMDL
