MODEL 1
REMARK minimizedAffinity 5.90407562
REMARK minimizedRMSD -1
REMARK  1 active torsions:
REMARK  status: ('A' for Active; 'I' for Inactive)
REMARK    1  A    between atoms: C1_2  and  C2_3 
ROOT
ATOM      1  C2  UNL d   1       1.553   2.003  -2.324  0.00  0.00    -0.077 A 
ATOM      2  C3  UNL d   1       1.142   0.787  -1.762  0.00  0.00     0.002 A 
ATOM      3  C4  UNL d   1       1.701   0.337  -0.564  0.00  0.00     0.002 A 
ATOM      4  C5  UNL d   1       2.672   1.099   0.083  0.00  0.00    -0.004 A 
ATOM      5  C6  UNL d   1       3.090   2.309  -0.470  0.00  0.00     0.002 A 
ATOM      6  C7  UNL d   1       2.532   2.760  -1.667  0.00  0.00     0.002 A 
ENDROOT
BRANCH   1   7
ATOM      7  C1  UNL d   1       0.916   2.514  -3.590  0.00  0.00     0.055 C 
ATOM      8  C   UNL d   1      -0.373   3.268  -3.295  0.00  0.00     0.019 C 
ENDBRANCH   1   7
TORSDOF 1
ENDMDL
