MODEL 1
REMARK minimizedAffinity 0.199358404
REMARK minimizedRMSD -1
REMARK  1 active torsions:
REMARK  status: ('A' for Active; 'I' for Inactive)
REMARK    1  A    between atoms: C1_2  and  C2_3 
ROOT
ATOM      1  C2  UNL d   1       0.510  -1.334   2.201  0.00  0.00    -0.077 A 
ATOM      2  C3  UNL d   1       1.744  -1.188   2.852  0.00  0.00     0.002 A 
ATOM      3  C4  UNL d   1       2.935  -1.240   2.126  0.00  0.00     0.002 A 
ATOM      4  C5  UNL d   1       2.906  -1.434   0.747  0.00  0.00    -0.004 A 
ATOM      5  C6  UNL d   1       1.684  -1.582   0.091  0.00  0.00     0.002 A 
ATOM      6  C7  UNL d   1       0.492  -1.531   0.814  0.00  0.00     0.002 A 
ENDROOT
BRANCH   1   7
ATOM      7  C1  UNL d   1      -0.778  -1.229   2.974  0.00  0.00     0.055 C 
ATOM      8  C   UNL d   1      -1.652  -0.102   2.444  0.00  0.00     0.019 C 
ENDBRANCH   1   7
TORSDOF 1
ENDMDL
