MODEL 1
REMARK minimizedAffinity 2.59017944
REMARK minimizedRMSD -1
REMARK  1 active torsions:
REMARK  status: ('A' for Active; 'I' for Inactive)
REMARK    1  A    between atoms: C1_2  and  C2_3 
ROOT
ATOM      1  C2  UNL d   1       1.148   1.970  -2.152  0.00  0.00    -0.077 A 
ATOM      2  C3  UNL d   1       1.975   2.399  -1.104  0.00  0.00     0.002 A 
ATOM      3  C4  UNL d   1       2.489   1.479  -0.188  0.00  0.00     0.002 A 
ATOM      4  C5  UNL d   1       2.185   0.125  -0.313  0.00  0.00    -0.004 A 
ATOM      5  C6  UNL d   1       1.363  -0.312  -1.351  0.00  0.00     0.002 A 
ATOM      6  C7  UNL d   1       0.847   0.607  -2.267  0.00  0.00     0.002 A 
ENDROOT
BRANCH   1   7
ATOM      7  C1  UNL d   1       0.633   2.954  -3.170  0.00  0.00     0.055 C 
ATOM      8  C   UNL d   1      -0.839   3.265  -2.943  0.00  0.00     0.019 C 
ENDBRANCH   1   7
TORSDOF 1
ENDMDL
