MODEL 1
REMARK minimizedAffinity 1.47076869
REMARK minimizedRMSD -1
REMARK  1 active torsions:
REMARK  status: ('A' for Active; 'I' for Inactive)
REMARK    1  A    between atoms: C1_2  and  C2_3 
ROOT
ATOM      1  C2  UNL d   1       1.295  -0.273  -0.547  0.00  0.00    -0.077 A 
ATOM      2  C3  UNL d   1       2.253   0.693  -0.886  0.00  0.00     0.002 A 
ATOM      3  C4  UNL d   1       1.858   1.941  -1.371  0.00  0.00     0.002 A 
ATOM      4  C5  UNL d   1       0.504   2.236  -1.517  0.00  0.00    -0.004 A 
ATOM      5  C6  UNL d   1      -0.457   1.282  -1.185  0.00  0.00     0.002 A 
ATOM      6  C7  UNL d   1      -0.063   0.034  -0.701  0.00  0.00     0.002 A 
ENDROOT
BRANCH   1   7
ATOM      7  C1  UNL d   1       1.718  -1.602   0.022  0.00  0.00     0.055 C 
ATOM      8  C   UNL d   1       1.311  -1.733   1.483  0.00  0.00     0.019 C 
ENDBRANCH   1   7
TORSDOF 1
ENDMDL
