MODEL 1
REMARK minimizedAffinity -0.964153469
REMARK minimizedRMSD -1
REMARK  1 active torsions:
REMARK  status: ('A' for Active; 'I' for Inactive)
REMARK    1  A    between atoms: C1_2  and  C2_3 
ROOT
ATOM      1  C2  UNL d   1       4.905  -4.471   3.278  0.00  0.00    -0.077 A 
ATOM      2  C3  UNL d   1       4.734  -5.487   4.229  0.00  0.00     0.002 A 
ATOM      3  C4  UNL d   1       4.956  -5.231   5.583  0.00  0.00     0.002 A 
ATOM      4  C5  UNL d   1       5.345  -3.959   5.999  0.00  0.00    -0.004 A 
ATOM      5  C6  UNL d   1       5.520  -2.943   5.060  0.00  0.00     0.002 A 
ATOM      6  C7  UNL d   1       5.299  -3.197   3.706  0.00  0.00     0.002 A 
ENDROOT
BRANCH   1   7
ATOM      7  C1  UNL d   1       4.618  -4.732   1.822  0.00  0.00     0.055 C 
ATOM      8  C   UNL d   1       3.318  -4.072   1.387  0.00  0.00     0.019 C 
ENDBRANCH   1   7
TORSDOF 1
ENDMDL
