MODEL 1
REMARK minimizedAffinity -2.38544703
REMARK minimizedRMSD -1
REMARK  1 active torsions:
REMARK  status: ('A' for Active; 'I' for Inactive)
REMARK    1  A    between atoms: C1_2  and  C2_3 
ROOT
ATOM      1  C2  UNL d   1      -3.251   0.977  -4.571  0.00  0.00    -0.077 A 
ATOM      2  C3  UNL d   1      -2.885   0.147  -5.640  0.00  0.00     0.002 A 
ATOM      3  C4  UNL d   1      -3.329  -1.176  -5.691  0.00  0.00     0.002 A 
ATOM      4  C5  UNL d   1      -4.145  -1.678  -4.680  0.00  0.00    -0.004 A 
ATOM      5  C6  UNL d   1      -4.514  -0.861  -3.612  0.00  0.00     0.002 A 
ATOM      6  C7  UNL d   1      -4.069   0.461  -3.558  0.00  0.00     0.002 A 
ENDROOT
BRANCH   1   7
ATOM      7  C1  UNL d   1      -2.813   2.418  -4.539  0.00  0.00     0.055 C 
ATOM      8  C   UNL d   1      -3.027   3.031  -3.162  0.00  0.00     0.019 C 
ENDBRANCH   1   7
TORSDOF 1
ENDMDL
