MODEL 1
REMARK minimizedAffinity -1.84387577
REMARK minimizedRMSD -1
REMARK  1 active torsions:
REMARK  status: ('A' for Active; 'I' for Inactive)
REMARK    1  A    between atoms: C1_2  and  C2_3 
ROOT
ATOM      1  C2  UNL d   1      -3.324  -0.520  -4.112  0.00  0.00    -0.077 A 
ATOM      2  C3  UNL d   1      -4.681  -0.861  -4.030  0.00  0.00     0.002 A 
ATOM      3  C4  UNL d   1      -5.603  -0.310  -4.923  0.00  0.00     0.002 A 
ATOM      4  C5  UNL d   1      -5.176   0.581  -5.906  0.00  0.00    -0.004 A 
ATOM      5  C6  UNL d   1      -3.829   0.928  -5.994  0.00  0.00     0.002 A 
ATOM      6  C7  UNL d   1      -2.907   0.379  -5.102  0.00  0.00     0.002 A 
ENDROOT
BRANCH   1   7
ATOM      7  C1  UNL d   1      -2.321  -1.151  -3.182  0.00  0.00     0.055 C 
ATOM      8  C   UNL d   1      -2.285  -0.436  -1.839  0.00  0.00     0.019 C 
ENDBRANCH   1   7
TORSDOF 1
ENDMDL
