MODEL 1
REMARK minimizedAffinity 3.21191812
REMARK minimizedRMSD -1
REMARK  1 active torsions:
REMARK  status: ('A' for Active; 'I' for Inactive)
REMARK    1  A    between atoms: C1_2  and  C2_3 
ROOT
ATOM      1  C2  UNL d   1       3.718  -3.076   1.046  0.00  0.00    -0.077 A 
ATOM      2  C3  UNL d   1       4.083  -1.906   0.365  0.00  0.00     0.002 A 
ATOM      3  C4  UNL d   1       3.118  -0.957   0.023  0.00  0.00     0.002 A 
ATOM      4  C5  UNL d   1       1.783  -1.166   0.362  0.00  0.00    -0.004 A 
ATOM      5  C6  UNL d   1       1.409  -2.327   1.037  0.00  0.00     0.002 A 
ATOM      6  C7  UNL d   1       2.372  -3.277   1.379  0.00  0.00     0.002 A 
ENDROOT
BRANCH   1   7
ATOM      7  C1  UNL d   1       4.764  -4.078   1.459  0.00  0.00     0.055 C 
ATOM      8  C   UNL d   1       5.835  -4.232   0.389  0.00  0.00     0.019 C 
ENDBRANCH   1   7
TORSDOF 1
ENDMDL
