MODEL 1
REMARK minimizedAffinity -0.789606094
REMARK minimizedRMSD -1
REMARK  1 active torsions:
REMARK  status: ('A' for Active; 'I' for Inactive)
REMARK    1  A    between atoms: C1_2  and  C2_3 
ROOT
ATOM      1  C2  UNL d   1       4.591  -2.082   0.500  0.00  0.00    -0.077 A 
ATOM      2  C3  UNL d   1       3.498  -2.951   0.621  0.00  0.00     0.002 A 
ATOM      3  C4  UNL d   1       2.202  -2.495   0.375  0.00  0.00     0.002 A 
ATOM      4  C5  UNL d   1       1.987  -1.170   0.001  0.00  0.00    -0.004 A 
ATOM      5  C6  UNL d   1       3.067  -0.297  -0.120  0.00  0.00     0.002 A 
ATOM      6  C7  UNL d   1       4.364  -0.751   0.127  0.00  0.00     0.002 A 
ENDROOT
BRANCH   1   7
ATOM      7  C1  UNL d   1       5.994  -2.585   0.718  0.00  0.00     0.055 C 
ATOM      8  C   UNL d   1       6.000  -4.051   1.125  0.00  0.00     0.019 C 
ENDBRANCH   1   7
TORSDOF 1
ENDMDL
