MODEL 1
REMARK minimizedAffinity 0.331368476
REMARK minimizedRMSD -1
REMARK  1 active torsions:
REMARK  status: ('A' for Active; 'I' for Inactive)
REMARK    1  A    between atoms: C1_2  and  C2_3 
ROOT
ATOM      1  C2  UNL d   1      -3.277  -0.633  -4.423  0.00  0.00    -0.077 A 
ATOM      2  C3  UNL d   1      -4.607  -1.055  -4.297  0.00  0.00     0.002 A 
ATOM      3  C4  UNL d   1      -5.648  -0.270  -4.798  0.00  0.00     0.002 A 
ATOM      4  C5  UNL d   1      -5.368   0.939  -5.432  0.00  0.00    -0.004 A 
ATOM      5  C6  UNL d   1      -4.048   1.369  -5.560  0.00  0.00     0.002 A 
ATOM      6  C7  UNL d   1      -3.007   0.586  -5.059  0.00  0.00     0.002 A 
ENDROOT
BRANCH   1   7
ATOM      7  C1  UNL d   1      -2.150  -1.501  -3.928  0.00  0.00     0.055 C 
ATOM      8  C   UNL d   1      -1.733  -2.519  -4.979  0.00  0.00     0.019 C 
ENDBRANCH   1   7
TORSDOF 1
ENDMDL
