MODEL 1
REMARK minimizedAffinity -2.47797585
REMARK minimizedRMSD -1
REMARK  0 active torsions:
REMARK  status: ('A' for Active; 'I' for Inactive)
ROOT
ATOM      1  C4' PXY d   1      -2.791   0.673   1.920  0.00  0.00     0.077 C 
ATOM      2  C1' PXY d   1       1.451  -2.722  -0.053  0.00  0.00     0.077 C 
ATOM      3  C1  PXY d   1       0.332  -1.843   0.469  0.00  0.00    -0.082 A 
ATOM      4  C2  PXY d   1       0.140  -0.645  -0.061  0.00  0.00     0.003 A 
ATOM      5  C3  PXY d   1      -0.847   0.176   0.420  0.00  0.00     0.003 A 
ATOM      6  C4  PXY d   1      -1.680  -0.253   1.418  0.00  0.00    -0.082 A 
ATOM      7  C5  PXY d   1      -1.497  -1.478   1.957  0.00  0.00     0.003 A 
ATOM      8  C6  PXY d   1      -0.463  -2.280   1.482  0.00  0.00     0.003 A 
ENDROOT
TORSDOF 0
ENDMDL
