MODEL 1
REMARK minimizedAffinity -5.19342613
REMARK minimizedRMSD -1
REMARK  0 active torsions:
REMARK  status: ('A' for Active; 'I' for Inactive)
ROOT
ATOM      1  C4' PXY d   1      -1.911  -2.637   0.778  0.00  0.00     0.077 C 
ATOM      2  C1' PXY d   1       0.455   2.634   0.587  0.00  0.00     0.077 C 
ATOM      3  C1  PXY d   1      -0.172   1.255   0.648  0.00  0.00    -0.082 A 
ATOM      4  C2  PXY d   1       0.451   0.228   0.092  0.00  0.00     0.003 A 
ATOM      5  C3  PXY d   1      -0.118  -1.019   0.110  0.00  0.00     0.003 A 
ATOM      6  C4  PXY d   1      -1.310  -1.229   0.749  0.00  0.00    -0.082 A 
ATOM      7  C5  PXY d   1      -1.947  -0.188   1.327  0.00  0.00     0.003 A 
ATOM      8  C6  PXY d   1      -1.373   1.078   1.263  0.00  0.00     0.003 A 
ENDROOT
TORSDOF 0
ENDMDL
