MODEL 1
REMARK minimizedAffinity -4.92008495
REMARK minimizedRMSD -1
REMARK  0 active torsions:
REMARK  status: ('A' for Active; 'I' for Inactive)
ROOT
ATOM      1  C4' PXY d   1      -2.962  -3.319   2.067  0.00  0.00     0.077 C 
ATOM      2  C1' PXY d   1       1.067   0.265  -0.014  0.00  0.00     0.077 C 
ATOM      3  C1  PXY d   1       0.016  -0.685   0.525  0.00  0.00    -0.082 A 
ATOM      4  C2  PXY d   1      -1.146  -0.207   0.941  0.00  0.00     0.003 A 
ATOM      5  C3  PXY d   1      -2.096  -1.048   1.461  0.00  0.00     0.003 A 
ATOM      6  C4  PXY d   1      -1.875  -2.398   1.507  0.00  0.00    -0.082 A 
ATOM      7  C5  PXY d   1      -0.696  -2.895   1.075  0.00  0.00     0.003 A 
ATOM      8  C6  PXY d   1       0.271  -2.020   0.589  0.00  0.00     0.003 A 
ENDROOT
TORSDOF 0
ENDMDL
