MODEL 1
REMARK minimizedAffinity -4.67684841
REMARK minimizedRMSD -1
REMARK  0 active torsions:
REMARK  status: ('A' for Active; 'I' for Inactive)
ROOT
ATOM      1  C4' PXY d   1       1.794  -2.245   0.726  0.00  0.00     0.077 C 
ATOM      2  C1' PXY d   1      -3.658  -0.339   0.961  0.00  0.00     0.077 C 
ATOM      3  C1  PXY d   1      -2.228  -0.840   0.912  0.00  0.00    -0.082 A 
ATOM      4  C2  PXY d   1      -1.449  -0.499  -0.102  0.00  0.00     0.003 A 
ATOM      5  C3  PXY d   1      -0.164  -0.970  -0.178  0.00  0.00     0.003 A 
ATOM      6  C4  PXY d   1       0.347  -1.755   0.821  0.00  0.00    -0.082 A 
ATOM      7  C5  PXY d   1      -0.438  -2.099   1.864  0.00  0.00     0.003 A 
ATOM      8  C6  PXY d   1      -1.753  -1.644   1.902  0.00  0.00     0.003 A 
ENDROOT
TORSDOF 0
ENDMDL
