MODEL 1
REMARK minimizedAffinity -4.69620228
REMARK minimizedRMSD -1
REMARK  0 active torsions:
REMARK  status: ('A' for Active; 'I' for Inactive)
ROOT
ATOM      1  C4' PXY d   1      -1.498  -2.802   0.475  0.00  0.00     0.077 C 
ATOM      2  C1' PXY d   1       1.450   2.102  -0.345  0.00  0.00     0.077 C 
ATOM      3  C1  PXY d   1       0.687   0.809  -0.134  0.00  0.00    -0.082 A 
ATOM      4  C2  PXY d   1      -0.635   0.817  -0.167  0.00  0.00     0.003 A 
ATOM      5  C3  PXY d   1      -1.342  -0.337   0.054  0.00  0.00     0.003 A 
ATOM      6  C4  PXY d   1      -0.686  -1.522   0.258  0.00  0.00    -0.082 A 
ATOM      7  C5  PXY d   1       0.663  -1.540   0.282  0.00  0.00     0.003 A 
ATOM      8  C6  PXY d   1       1.361  -0.350   0.097  0.00  0.00     0.003 A 
ENDROOT
TORSDOF 0
ENDMDL
