MODEL 1
REMARK minimizedAffinity -4.25166798
REMARK minimizedRMSD -1
REMARK  0 active torsions:
REMARK  status: ('A' for Active; 'I' for Inactive)
ROOT
ATOM      1  C4' PXY d   1       1.742   1.704  -1.441  0.00  0.00     0.077 C 
ATOM      2  C1' PXY d   1      -1.514  -2.270   1.208  0.00  0.00     0.077 C 
ATOM      3  C1  PXY d   1      -0.671  -1.224   0.507  0.00  0.00    -0.082 A 
ATOM      4  C2  PXY d   1       0.629  -1.422   0.360  0.00  0.00     0.003 A 
ATOM      5  C3  PXY d   1       1.412  -0.472  -0.242  0.00  0.00     0.003 A 
ATOM      6  C4  PXY d   1       0.850   0.670  -0.748  0.00  0.00    -0.082 A 
ATOM      7  C5  PXY d   1      -0.477   0.875  -0.612  0.00  0.00     0.003 A 
ATOM      8  C6  PXY d   1      -1.248  -0.084   0.039  0.00  0.00     0.003 A 
ENDROOT
TORSDOF 0
ENDMDL
