MODEL 1
REMARK minimizedAffinity -5.01993275
REMARK minimizedRMSD -1
REMARK  0 active torsions:
REMARK  status: ('A' for Active; 'I' for Inactive)
ROOT
ATOM      1  C4' PXY d   1       1.052   1.391  -0.464  0.00  0.00     0.077 C 
ATOM      2  C1' PXY d   1      -1.994  -3.046   1.646  0.00  0.00     0.077 C 
ATOM      3  C1  PXY d   1      -1.185  -1.888   1.097  0.00  0.00    -0.082 A 
ATOM      4  C2  PXY d   1      -1.776  -0.727   0.868  0.00  0.00     0.003 A 
ATOM      5  C3  PXY d   1      -1.066   0.322   0.342  0.00  0.00     0.003 A 
ATOM      6  C4  PXY d   1       0.275   0.197   0.098  0.00  0.00    -0.082 A 
ATOM      7  C5  PXY d   1       0.889  -0.981   0.340  0.00  0.00     0.003 A 
ATOM      8  C6  PXY d   1       0.141  -2.046   0.835  0.00  0.00     0.003 A 
ENDROOT
TORSDOF 0
ENDMDL
