MODEL 1
REMARK minimizedAffinity -2.66911936
REMARK minimizedRMSD -1
REMARK  0 active torsions:
REMARK  status: ('A' for Active; 'I' for Inactive)
ROOT
ATOM      1  C4' PXY d   1       0.569   2.018  -1.042  0.00  0.00     0.077 C 
ATOM      2  C1' PXY d   1      -1.711  -2.849   1.087  0.00  0.00     0.077 C 
ATOM      3  C1  PXY d   1      -1.125  -1.569   0.525  0.00  0.00    -0.082 A 
ATOM      4  C2  PXY d   1       0.163  -1.516   0.224  0.00  0.00     0.003 A 
ATOM      5  C3  PXY d   1       0.716  -0.356  -0.255  0.00  0.00     0.003 A 
ATOM      6  C4  PXY d   1      -0.068   0.744  -0.480  0.00  0.00    -0.082 A 
ATOM      7  C5  PXY d   1      -1.384   0.694  -0.186  0.00  0.00     0.003 A 
ATOM      8  C6  PXY d   1      -1.918  -0.480   0.338  0.00  0.00     0.003 A 
ENDROOT
TORSDOF 0
ENDMDL
