MODEL 1
REMARK minimizedAffinity -3.15928721
REMARK minimizedRMSD -1
REMARK  0 active torsions:
REMARK  status: ('A' for Active; 'I' for Inactive)
ROOT
ATOM      1  C4' PXY d   1       5.480   2.976  -2.724  0.00  0.00     0.077 C 
ATOM      2  C1' PXY d   1      -0.114   2.365  -4.044  0.00  0.00     0.077 C 
ATOM      3  C1  PXY d   1       1.356   2.526  -3.711  0.00  0.00    -0.082 A 
ATOM      4  C2  PXY d   1       1.830   2.023  -2.583  0.00  0.00     0.003 A 
ATOM      5  C3  PXY d   1       3.150   2.188  -2.250  0.00  0.00     0.003 A 
ATOM      6  C4  PXY d   1       4.005   2.828  -3.106  0.00  0.00    -0.082 A 
ATOM      7  C5  PXY d   1       3.531   3.335  -4.264  0.00  0.00     0.003 A 
ATOM      8  C6  PXY d   1       2.179   3.193  -4.564  0.00  0.00     0.003 A 
ENDROOT
TORSDOF 0
ENDMDL
