MODEL 1
REMARK minimizedAffinity -3.77418613
REMARK minimizedRMSD -1
REMARK  0 active torsions:
REMARK  status: ('A' for Active; 'I' for Inactive)
ROOT
ATOM      1  C4' PXY d   1       1.143   1.410  -1.017  0.00  0.00     0.077 C 
ATOM      2  C1' PXY d   1      -1.798  -2.958   1.368  0.00  0.00     0.077 C 
ATOM      3  C1  PXY d   1      -1.015  -1.816   0.749  0.00  0.00    -0.082 A 
ATOM      4  C2  PXY d   1      -1.653  -0.729   0.346  0.00  0.00     0.003 A 
ATOM      5  C3  PXY d   1      -0.966   0.299  -0.245  0.00  0.00     0.003 A 
ATOM      6  C4  PXY d   1       0.396   0.237  -0.377  0.00  0.00    -0.082 A 
ATOM      7  C5  PXY d   1       1.055  -0.864   0.041  0.00  0.00     0.003 A 
ATOM      8  C6  PXY d   1       0.334  -1.915   0.601  0.00  0.00     0.003 A 
ENDROOT
TORSDOF 0
ENDMDL
