MODEL 1
REMARK minimizedAffinity -5.23136139
REMARK minimizedRMSD -1
REMARK  0 active torsions:
REMARK  status: ('A' for Active; 'I' for Inactive)
ROOT
ATOM      1  C4' PXY d   1      -2.582  -2.884   1.997  0.00  0.00     0.077 C 
ATOM      2  C1' PXY d   1       0.810   1.132  -0.408  0.00  0.00     0.077 C 
ATOM      3  C1  PXY d   1      -0.072   0.069   0.218  0.00  0.00    -0.082 A 
ATOM      4  C2  PXY d   1      -1.346   0.335   0.459  0.00  0.00     0.003 A 
ATOM      5  C3  PXY d   1      -2.149  -0.603   1.055  0.00  0.00     0.003 A 
ATOM      6  C4  PXY d   1      -1.657  -1.845   1.357  0.00  0.00    -0.082 A 
ATOM      7  C5  PXY d   1      -0.362  -2.127   1.104  0.00  0.00     0.003 A 
ATOM      8  C6  PXY d   1       0.448  -1.147   0.538  0.00  0.00     0.003 A 
ENDROOT
TORSDOF 0
ENDMDL
