MODEL 1
REMARK minimizedAffinity -3.78217602
REMARK minimizedRMSD -1
REMARK  0 active torsions:
REMARK  status: ('A' for Active; 'I' for Inactive)
ROOT
ATOM      1  C4' PXY d   1       6.000   2.013  -2.250  0.00  0.00     0.077 C 
ATOM      2  C1' PXY d   1       0.331   2.141  -3.373  0.00  0.00     0.077 C 
ATOM      3  C1  PXY d   1       1.820   2.100  -3.089  0.00  0.00    -0.082 A 
ATOM      4  C2  PXY d   1       2.253   2.249  -1.848  0.00  0.00     0.003 A 
ATOM      5  C3  PXY d   1       3.598   2.247  -1.578  0.00  0.00     0.003 A 
ATOM      6  C4  PXY d   1       4.505   2.037  -2.582  0.00  0.00    -0.082 A 
ATOM      7  C5  PXY d   1       4.070   1.874  -3.849  0.00  0.00     0.003 A 
ATOM      8  C6  PXY d   1       2.703   1.921  -4.108  0.00  0.00     0.003 A 
ENDROOT
TORSDOF 0
ENDMDL
