MODEL 1
REMARK minimizedAffinity -4.18504906
REMARK minimizedRMSD -1
REMARK  0 active torsions:
REMARK  status: ('A' for Active; 'I' for Inactive)
ROOT
ATOM      1  C4' PXY d   1       1.394   1.666  -1.437  0.00  0.00     0.077 C 
ATOM      2  C1' PXY d   1      -1.440  -2.614   1.222  0.00  0.00     0.077 C 
ATOM      3  C1  PXY d   1      -0.708  -1.486   0.522  0.00  0.00    -0.082 A 
ATOM      4  C2  PXY d   1       0.514  -1.688   0.056  0.00  0.00     0.003 A 
ATOM      5  C3  PXY d   1       1.202  -0.670  -0.551  0.00  0.00     0.003 A 
ATOM      6  C4  PXY d   1       0.614   0.553  -0.731  0.00  0.00    -0.082 A 
ATOM      7  C5  PXY d   1      -0.636   0.765  -0.269  0.00  0.00     0.003 A 
ATOM      8  C6  PXY d   1      -1.303  -0.270   0.382  0.00  0.00     0.003 A 
ENDROOT
TORSDOF 0
ENDMDL
