MODEL 1
REMARK minimizedAffinity -3.38634467
REMARK minimizedRMSD -1
REMARK  0 active torsions:
REMARK  status: ('A' for Active; 'I' for Inactive)
ROOT
ATOM      1  C4' PXY d   1       1.278   2.419  -3.435  0.00  0.00     0.077 C 
ATOM      2  C1' PXY d   1      -0.013  -1.419   0.690  0.00  0.00     0.077 C 
ATOM      3  C1  PXY d   1       0.323  -0.403  -0.384  0.00  0.00    -0.082 A 
ATOM      4  C2  PXY d   1       0.259  -0.752  -1.658  0.00  0.00     0.003 A 
ATOM      5  C3  PXY d   1       0.590   0.145  -2.641  0.00  0.00     0.003 A 
ATOM      6  C4  PXY d   1       0.939   1.429  -2.318  0.00  0.00    -0.082 A 
ATOM      7  C5  PXY d   1       0.996   1.796  -1.020  0.00  0.00     0.003 A 
ATOM      8  C6  PXY d   1       0.696   0.859  -0.036  0.00  0.00     0.003 A 
ENDROOT
TORSDOF 0
ENDMDL
