MODEL 1
REMARK minimizedAffinity -3.05762553
REMARK minimizedRMSD -1
REMARK  0 active torsions:
REMARK  status: ('A' for Active; 'I' for Inactive)
ROOT
ATOM      1  C4' PXY d   1      -2.883   0.088   2.730  0.00  0.00     0.077 C 
ATOM      2  C1' PXY d   1       1.647  -1.711  -0.379  0.00  0.00     0.077 C 
ATOM      3  C1  PXY d   1       0.463  -1.227   0.436  0.00  0.00    -0.082 A 
ATOM      4  C2  PXY d   1      -0.185  -2.076   1.216  0.00  0.00     0.003 A 
ATOM      5  C3  PXY d   1      -1.276  -1.663   1.936  0.00  0.00     0.003 A 
ATOM      6  C4  PXY d   1      -1.677  -0.354   1.897  0.00  0.00    -0.082 A 
ATOM      7  C5  PXY d   1      -1.014   0.521   1.111  0.00  0.00     0.003 A 
ATOM      8  C6  PXY d   1       0.067   0.072   0.357  0.00  0.00     0.003 A 
ENDROOT
TORSDOF 0
ENDMDL
