MODEL 1
REMARK minimizedAffinity -5.69587326
REMARK minimizedRMSD -1
REMARK  0 active torsions:
REMARK  status: ('A' for Active; 'I' for Inactive)
ROOT
ATOM      1  C4' PXY d   1       0.925   1.542  -0.492  0.00  0.00     0.077 C 
ATOM      2  C1' PXY d   1      -2.035  -2.804   1.909  0.00  0.00     0.077 C 
ATOM      3  C1  PXY d   1      -1.247  -1.670   1.283  0.00  0.00    -0.082 A 
ATOM      4  C2  PXY d   1      -1.841  -0.510   1.054  0.00  0.00     0.003 A 
ATOM      5  C3  PXY d   1      -1.153   0.516   0.460  0.00  0.00     0.003 A 
ATOM      6  C4  PXY d   1       0.172   0.371   0.146  0.00  0.00    -0.082 A 
ATOM      7  C5  PXY d   1       0.788  -0.806   0.386  0.00  0.00     0.003 A 
ATOM      8  C6  PXY d   1       0.060  -1.848   0.952  0.00  0.00     0.003 A 
ENDROOT
TORSDOF 0
ENDMDL
