MODEL 1
REMARK minimizedAffinity -4.91631603
REMARK minimizedRMSD -1
REMARK  0 active torsions:
REMARK  status: ('A' for Active; 'I' for Inactive)
ROOT
ATOM      1  C4' PXY d   1       0.590   1.797  -0.350  0.00  0.00     0.077 C 
ATOM      2  C1' PXY d   1      -2.468  -2.590   1.847  0.00  0.00     0.077 C 
ATOM      3  C1  PXY d   1      -1.655  -1.446   1.273  0.00  0.00    -0.082 A 
ATOM      4  C2  PXY d   1      -2.152  -0.220   1.284  0.00  0.00     0.003 A 
ATOM      5  C3  PXY d   1      -1.444   0.821   0.740  0.00  0.00     0.003 A 
ATOM      6  C4  PXY d   1      -0.192   0.613   0.227  0.00  0.00    -0.082 A 
ATOM      7  C5  PXY d   1       0.327  -0.633   0.222  0.00  0.00     0.003 A 
ATOM      8  C6  PXY d   1      -0.425  -1.683   0.742  0.00  0.00     0.003 A 
ENDROOT
TORSDOF 0
ENDMDL
