MODEL 1
REMARK minimizedAffinity -4.5787096
REMARK minimizedRMSD -1
REMARK  0 active torsions:
REMARK  status: ('A' for Active; 'I' for Inactive)
ROOT
ATOM      1  C4' PXY d   1      -1.601  -2.852   0.976  0.00  0.00     0.077 C 
ATOM      2  C1' PXY d   1       1.246   1.888  -0.709  0.00  0.00     0.077 C 
ATOM      3  C1  PXY d   1       0.509   0.637  -0.272  0.00  0.00    -0.082 A 
ATOM      4  C2  PXY d   1      -0.807   0.666  -0.141  0.00  0.00     0.003 A 
ATOM      5  C3  PXY d   1      -1.486  -0.447   0.285  0.00  0.00     0.003 A 
ATOM      6  C4  PXY d   1      -0.817  -1.616   0.528  0.00  0.00    -0.082 A 
ATOM      7  C5  PXY d   1       0.525  -1.656   0.386  0.00  0.00     0.003 A 
ATOM      8  C6  PXY d   1       1.200  -0.505  -0.007  0.00  0.00     0.003 A 
ENDROOT
TORSDOF 0
ENDMDL
