MODEL 1
REMARK minimizedAffinity -3.81155467
REMARK minimizedRMSD -1
REMARK  0 active torsions:
REMARK  status: ('A' for Active; 'I' for Inactive)
ROOT
ATOM      1  C4' PXY d   1      -1.360  -2.483   0.831  0.00  0.00     0.077 C 
ATOM      2  C1' PXY d   1       1.881   2.052  -0.702  0.00  0.00     0.077 C 
ATOM      3  C1  PXY d   1       1.041   0.855  -0.301  0.00  0.00    -0.082 A 
ATOM      4  C2  PXY d   1      -0.268   0.882  -0.489  0.00  0.00     0.003 A 
ATOM      5  C3  PXY d   1      -1.046  -0.179  -0.103  0.00  0.00     0.003 A 
ATOM      6  C4  PXY d   1      -0.472  -1.301   0.432  0.00  0.00    -0.082 A 
ATOM      7  C5  PXY d   1       0.865  -1.340   0.618  0.00  0.00     0.003 A 
ATOM      8  C6  PXY d   1       1.632  -0.236   0.257  0.00  0.00     0.003 A 
ENDROOT
TORSDOF 0
ENDMDL
