MODEL 1
REMARK minimizedAffinity -3.5375874
REMARK minimizedRMSD -1
REMARK  1 active torsions:
REMARK  status: ('A' for Active; 'I' for Inactive)
REMARK    1  A    between atoms: C1_2  and  C2_3 
ROOT
ATOM      1  C2  UNL d   1       3.805  -0.283  -3.637  0.00  0.00    -0.081 A 
ATOM      2  C3  UNL d   1       2.906   0.782  -3.495  0.00  0.00     0.006 A 
ATOM      3  C4  UNL d   1       1.543   0.538  -3.313  0.00  0.00     0.002 A 
ATOM      4  C5  UNL d   1       1.056  -0.772  -3.262  0.00  0.00    -0.080 A 
ATOM      5  C6  UNL d   1      -0.401  -1.048  -3.036  0.00  0.00     0.076 C 
ATOM      6  C7  UNL d   1       1.951  -1.836  -3.421  0.00  0.00     0.002 A 
ATOM      7  C8  UNL d   1       3.314  -1.593  -3.603  0.00  0.00     0.006 A 
ENDROOT
BRANCH   1   8
ATOM      8  C1  UNL d   1       5.284  -0.026  -3.769  0.00  0.00     0.054 C 
ATOM      9  C   UNL d   1       5.603   1.456  -3.623  0.00  0.00     0.018 C 
ENDBRANCH   1   8
TORSDOF 1
ENDMDL
