MODEL 1
REMARK minimizedAffinity -4.67720318
REMARK minimizedRMSD -1
REMARK  1 active torsions:
REMARK  status: ('A' for Active; 'I' for Inactive)
REMARK    1  A    between atoms: C1_2  and  C2_3 
ROOT
ATOM      1  C2  UNL d   1      -1.654   0.539   3.116  0.00  0.00    -0.081 A 
ATOM      2  C3  UNL d   1      -1.941   1.750   3.756  0.00  0.00     0.006 A 
ATOM      3  C4  UNL d   1      -0.907   2.596   4.167  0.00  0.00     0.002 A 
ATOM      4  C5  UNL d   1       0.428   2.248   3.938  0.00  0.00    -0.080 A 
ATOM      5  C6  UNL d   1       1.546   3.161   4.346  0.00  0.00     0.076 C 
ATOM      6  C7  UNL d   1       0.715   1.030   3.313  0.00  0.00     0.002 A 
ATOM      7  C8  UNL d   1      -0.317   0.184   2.903  0.00  0.00     0.006 A 
ENDROOT
BRANCH   1   8
ATOM      8  C1  UNL d   1      -2.767  -0.345   2.614  0.00  0.00     0.054 C 
ATOM      9  C   UNL d   1      -3.195   0.049   1.207  0.00  0.00     0.018 C 
ENDBRANCH   1   8
TORSDOF 1
ENDMDL
