MODEL 1
REMARK minimizedAffinity 0.0583364442
REMARK minimizedRMSD -1
REMARK  1 active torsions:
REMARK  status: ('A' for Active; 'I' for Inactive)
REMARK    1  A    between atoms: C1_2  and  C2_3 
ROOT
ATOM      1  C2  UNL d   1      -1.119  -0.397   0.842  0.00  0.00    -0.081 A 
ATOM      2  C3  UNL d   1       0.256  -0.657   0.878  0.00  0.00     0.006 A 
ATOM      3  C4  UNL d   1       1.054  -0.407  -0.241  0.00  0.00     0.002 A 
ATOM      4  C5  UNL d   1       0.491   0.115  -1.411  0.00  0.00    -0.080 A 
ATOM      5  C6  UNL d   1       1.342   0.417  -2.609  0.00  0.00     0.076 C 
ATOM      6  C7  UNL d   1      -0.886   0.359  -1.453  0.00  0.00     0.002 A 
ATOM      7  C8  UNL d   1      -1.684   0.108  -0.335  0.00  0.00     0.006 A 
ENDROOT
BRANCH   1   8
ATOM      8  C1  UNL d   1      -1.971  -0.605   2.068  0.00  0.00     0.054 C 
ATOM      9  C   UNL d   1      -1.169  -0.387   3.343  0.00  0.00     0.018 C 
ENDBRANCH   1   8
TORSDOF 1
ENDMDL
