MODEL 1
REMARK minimizedAffinity -4.43980932
REMARK minimizedRMSD -1
REMARK  1 active torsions:
REMARK  status: ('A' for Active; 'I' for Inactive)
REMARK    1  A    between atoms: C1_2  and  C2_3 
ROOT
ATOM      1  C2  UNL d   1       0.535   0.405  -0.872  0.00  0.00    -0.081 A 
ATOM      2  C3  UNL d   1       1.394   0.473   0.232  0.00  0.00     0.006 A 
ATOM      3  C4  UNL d   1       0.921   0.189   1.516  0.00  0.00     0.002 A 
ATOM      4  C5  UNL d   1      -0.415  -0.174   1.716  0.00  0.00    -0.080 A 
ATOM      5  C6  UNL d   1      -0.928  -0.510   3.085  0.00  0.00     0.076 C 
ATOM      6  C7  UNL d   1      -1.277  -0.225   0.615  0.00  0.00     0.002 A 
ATOM      7  C8  UNL d   1      -0.805   0.059  -0.668  0.00  0.00     0.006 A 
ENDROOT
BRANCH   1   8
ATOM      8  C1  UNL d   1       1.057   0.646  -2.265  0.00  0.00     0.054 C 
ATOM      9  C   UNL d   1       1.153  -0.652  -3.053  0.00  0.00     0.018 C 
ENDBRANCH   1   8
TORSDOF 1
ENDMDL
