MODEL 1
REMARK minimizedAffinity 4.49805593
REMARK minimizedRMSD -1
REMARK  1 active torsions:
REMARK  status: ('A' for Active; 'I' for Inactive)
REMARK    1  A    between atoms: C1_2  and  C2_3 
ROOT
ATOM      1  C2  UNL d   1      -0.648  -0.388   2.045  0.00  0.00    -0.081 A 
ATOM      2  C3  UNL d   1       0.275   0.664   2.002  0.00  0.00     0.006 A 
ATOM      3  C4  UNL d   1       1.622   0.437   2.293  0.00  0.00     0.002 A 
ATOM      4  C5  UNL d   1       2.070  -0.846   2.624  0.00  0.00    -0.080 A 
ATOM      5  C6  UNL d   1       3.519  -1.110   2.910  0.00  0.00     0.076 C 
ATOM      6  C7  UNL d   1       1.145  -1.894   2.684  0.00  0.00     0.002 A 
ATOM      7  C8  UNL d   1      -0.202  -1.667   2.394  0.00  0.00     0.006 A 
ENDROOT
BRANCH   1   8
ATOM      8  C1  UNL d   1      -2.089  -0.159   1.668  0.00  0.00     0.054 C 
ATOM      9  C   UNL d   1      -2.264  -0.099   0.157  0.00  0.00     0.018 C 
ENDBRANCH   1   8
TORSDOF 1
ENDMDL
