MODEL 1
REMARK minimizedAffinity 0.902848363
REMARK minimizedRMSD -1
REMARK  1 active torsions:
REMARK  status: ('A' for Active; 'I' for Inactive)
REMARK    1  A    between atoms: C1_2  and  C2_3 
ROOT
ATOM      1  C2  UNL d   1       0.192  -0.106   2.562  0.00  0.00    -0.081 A 
ATOM      2  C3  UNL d   1       0.454   0.977   1.714  0.00  0.00     0.006 A 
ATOM      3  C4  UNL d   1       1.744   1.197   1.225  0.00  0.00     0.002 A 
ATOM      4  C5  UNL d   1       2.791   0.335   1.569  0.00  0.00    -0.080 A 
ATOM      5  C6  UNL d   1       4.174   0.543   1.027  0.00  0.00     0.076 C 
ATOM      6  C7  UNL d   1       2.533  -0.737   2.430  0.00  0.00     0.002 A 
ATOM      7  C8  UNL d   1       1.243  -0.957   2.920  0.00  0.00     0.006 A 
ENDROOT
BRANCH   1   8
ATOM      8  C1  UNL d   1      -1.210  -0.384   3.039  0.00  0.00     0.054 C 
ATOM      9  C   UNL d   1      -2.235  -0.069   1.959  0.00  0.00     0.018 C 
ENDBRANCH   1   8
TORSDOF 1
ENDMDL
