MODEL 1
REMARK minimizedAffinity 2.31326079
REMARK minimizedRMSD -1
REMARK  1 active torsions:
REMARK  status: ('A' for Active; 'I' for Inactive)
REMARK    1  A    between atoms: C1_2  and  C2_3 
ROOT
ATOM      1  C2  UNL d   1      -0.181   0.463   0.544  0.00  0.00    -0.081 A 
ATOM      2  C3  UNL d   1      -0.662   0.047   1.792  0.00  0.00     0.006 A 
ATOM      3  C4  UNL d   1      -0.143   0.593   2.968  0.00  0.00     0.002 A 
ATOM      4  C5  UNL d   1       0.858   1.569   2.916  0.00  0.00    -0.080 A 
ATOM      5  C6  UNL d   1       1.402   2.185   4.171  0.00  0.00     0.076 C 
ATOM      6  C7  UNL d   1       1.351   1.971   1.671  0.00  0.00     0.002 A 
ATOM      7  C8  UNL d   1       0.834   1.425   0.494  0.00  0.00     0.006 A 
ENDROOT
BRANCH   1   8
ATOM      8  C1  UNL d   1      -0.784  -0.077  -0.728  0.00  0.00     0.054 C 
ATOM      9  C   UNL d   1      -0.413   0.786  -1.926  0.00  0.00     0.018 C 
ENDBRANCH   1   8
TORSDOF 1
ENDMDL
