MODEL 1
REMARK minimizedAffinity 1.01367104
REMARK minimizedRMSD -1
REMARK  1 active torsions:
REMARK  status: ('A' for Active; 'I' for Inactive)
REMARK    1  A    between atoms: C1_2  and  C2_3 
ROOT
ATOM      1  C2  UNL d   1      -2.359   0.262   1.778  0.00  0.00    -0.081 A 
ATOM      2  C3  UNL d   1      -1.574   1.005   2.668  0.00  0.00     0.006 A 
ATOM      3  C4  UNL d   1      -0.217   0.714   2.827  0.00  0.00     0.002 A 
ATOM      4  C5  UNL d   1       0.379  -0.317   2.093  0.00  0.00    -0.080 A 
ATOM      5  C6  UNL d   1       1.841  -0.619   2.232  0.00  0.00     0.076 C 
ATOM      6  C7  UNL d   1      -0.409  -1.070   1.216  0.00  0.00     0.002 A 
ATOM      7  C8  UNL d   1      -1.766  -0.781   1.058  0.00  0.00     0.006 A 
ENDROOT
BRANCH   1   8
ATOM      8  C1  UNL d   1      -3.808   0.615   1.556  0.00  0.00     0.054 C 
ATOM      9  C   UNL d   1      -4.134   1.992   2.116  0.00  0.00     0.018 C 
ENDBRANCH   1   8
TORSDOF 1
ENDMDL
