MODEL 1
REMARK minimizedAffinity 3.75505209
REMARK minimizedRMSD -1
REMARK  1 active torsions:
REMARK  status: ('A' for Active; 'I' for Inactive)
REMARK    1  A    between atoms: C1_2  and  C2_3 
ROOT
ATOM      1  C2  UNL d   1      -2.241   0.465   1.644  0.00  0.00    -0.081 A 
ATOM      2  C3  UNL d   1      -1.378   0.278   0.557  0.00  0.00     0.006 A 
ATOM      3  C4  UNL d   1      -0.037  -0.054   0.767  0.00  0.00     0.002 A 
ATOM      4  C5  UNL d   1       0.460  -0.211   2.066  0.00  0.00    -0.080 A 
ATOM      5  C6  UNL d   1       1.890  -0.597   2.304  0.00  0.00     0.076 C 
ATOM      6  C7  UNL d   1      -0.398  -0.007   3.151  0.00  0.00     0.002 A 
ATOM      7  C8  UNL d   1      -1.739   0.325   2.942  0.00  0.00     0.006 A 
ENDROOT
BRANCH   1   8
ATOM      8  C1  UNL d   1      -3.703   0.759   1.419  0.00  0.00     0.054 C 
ATOM      9  C   UNL d   1      -4.150   1.979   2.212  0.00  0.00     0.018 C 
ENDBRANCH   1   8
TORSDOF 1
ENDMDL
