MODEL 1
REMARK minimizedAffinity 3.41096258
REMARK minimizedRMSD -1
REMARK  1 active torsions:
REMARK  status: ('A' for Active; 'I' for Inactive)
REMARK    1  A    between atoms: C1_2  and  C2_3 
ROOT
ATOM      1  C2  UNL d   1      -0.771  -0.389   0.298  0.00  0.00    -0.081 A 
ATOM      2  C3  UNL d   1      -0.894  -1.611  -0.374  0.00  0.00     0.006 A 
ATOM      3  C4  UNL d   1      -0.503  -1.727  -1.710  0.00  0.00     0.002 A 
ATOM      4  C5  UNL d   1       0.024  -0.626  -2.394  0.00  0.00    -0.080 A 
ATOM      5  C6  UNL d   1       0.476  -0.745  -3.819  0.00  0.00     0.076 C 
ATOM      6  C7  UNL d   1       0.131   0.600  -1.728  0.00  0.00     0.002 A 
ATOM      7  C8  UNL d   1      -0.260   0.716  -0.392  0.00  0.00     0.006 A 
ENDROOT
BRANCH   1   8
ATOM      8  C1  UNL d   1      -1.131  -0.277   1.757  0.00  0.00     0.054 C 
ATOM      9  C   UNL d   1      -2.497   0.369   1.942  0.00  0.00     0.018 C 
ENDBRANCH   1   8
TORSDOF 1
ENDMDL
