MODEL 1
REMARK minimizedAffinity -1.28712344
REMARK minimizedRMSD -1
REMARK  1 active torsions:
REMARK  status: ('A' for Active; 'I' for Inactive)
REMARK    1  A    between atoms: N_2  and  C1_3 
ROOT
ATOM      1  C1  UNL d   1      -2.172  -5.966  -3.615  0.00  0.00     0.143 A 
ATOM      2  C2  UNL d   1      -2.018  -5.923  -5.004  0.00  0.00    -0.057 A 
ATOM      3  C3  UNL d   1      -0.754  -5.788  -5.591  0.00  0.00     0.033 A 
ATOM      4  C4  UNL d   1       0.380  -5.665  -4.794  0.00  0.00    -0.042 A 
ATOM      5  C5  UNL d   1       0.247  -5.680  -3.410  0.00  0.00     0.033 A 
ATOM      6  C6  UNL d   1      -1.017  -5.821  -2.830  0.00  0.00    -0.057 A 
ENDROOT
BRANCH   1   7
ATOM      7  N   UNL d   1      -3.411  -6.000  -2.970  0.00  0.00    -0.732 N 
ATOM      8  C   UNL d   1      -3.491  -5.981  -1.525  0.00  0.00     0.284 C 
ATOM      9  H3  UNL d   1      -4.105  -5.417  -3.433  0.00  0.00     0.395 HD
ENDBRANCH   1   7
TORSDOF 1
ENDMDL
