MODEL 1
REMARK minimizedAffinity 5.67792463
REMARK minimizedRMSD -1
REMARK  1 active torsions:
REMARK  status: ('A' for Active; 'I' for Inactive)
REMARK    1  A    between atoms: N_2  and  C1_3 
ROOT
ATOM      1  C1  UNL d   1       0.761  -1.469   0.109  0.00  0.00     0.143 A 
ATOM      2  C2  UNL d   1       1.630  -0.792   0.972  0.00  0.00    -0.057 A 
ATOM      3  C3  UNL d   1       2.407   0.283   0.523  0.00  0.00     0.033 A 
ATOM      4  C4  UNL d   1       2.350   0.683  -0.808  0.00  0.00    -0.042 A 
ATOM      5  C5  UNL d   1       1.511   0.009  -1.689  0.00  0.00     0.033 A 
ATOM      6  C6  UNL d   1       0.733  -1.060  -1.233  0.00  0.00    -0.057 A 
ENDROOT
BRANCH   1   7
ATOM      7  N   UNL d   1       0.037  -2.607   0.471  0.00  0.00    -0.732 N 
ATOM      8  C   UNL d   1       0.709  -3.763   1.024  0.00  0.00     0.284 C 
ATOM      9  H3  UNL d   1      -0.842  -2.378   0.929  0.00  0.00     0.395 HD
ENDBRANCH   1   7
TORSDOF 1
ENDMDL
