MODEL 1
REMARK minimizedAffinity 0.374479204
REMARK minimizedRMSD -1
REMARK  1 active torsions:
REMARK  status: ('A' for Active; 'I' for Inactive)
REMARK    1  A    between atoms: N_2  and  C1_3 
ROOT
ATOM      1  C1  UNL d   1      -0.394  -5.601  -4.272  0.00  0.00     0.143 A 
ATOM      2  C2  UNL d   1      -0.021  -5.669  -5.619  0.00  0.00    -0.057 A 
ATOM      3  C3  UNL d   1       1.311  -5.880  -5.995  0.00  0.00     0.033 A 
ATOM      4  C4  UNL d   1       2.302  -5.999  -5.027  0.00  0.00    -0.042 A 
ATOM      5  C5  UNL d   1       1.959  -5.910  -3.682  0.00  0.00     0.033 A 
ATOM      6  C6  UNL d   1       0.626  -5.705  -3.313  0.00  0.00    -0.057 A 
ENDROOT
BRANCH   1   7
ATOM      7  N   UNL d   1      -1.685  -5.294  -3.837  0.00  0.00    -0.732 N 
ATOM      8  C   UNL d   1      -2.272  -5.999  -2.717  0.00  0.00     0.284 C 
ATOM      9  H3  UNL d   1      -1.869  -4.294  -3.841  0.00  0.00     0.395 HD
ENDBRANCH   1   7
TORSDOF 1
ENDMDL
