MODEL 1
REMARK minimizedAffinity 1.64518297
REMARK minimizedRMSD -1
REMARK  1 active torsions:
REMARK  status: ('A' for Active; 'I' for Inactive)
REMARK    1  A    between atoms: N_2  and  C1_3 
ROOT
ATOM      1  C1  UNL d   1      -0.053  -5.982  -3.529  0.00  0.00     0.143 A 
ATOM      2  C2  UNL d   1      -0.724  -5.839  -4.749  0.00  0.00    -0.057 A 
ATOM      3  C3  UNL d   1      -0.022  -5.760  -5.958  0.00  0.00     0.033 A 
ATOM      4  C4  UNL d   1       1.368  -5.793  -5.966  0.00  0.00    -0.042 A 
ATOM      5  C5  UNL d   1       2.056  -5.910  -4.763  0.00  0.00     0.033 A 
ATOM      6  C6  UNL d   1       1.350  -5.995  -3.560  0.00  0.00    -0.057 A 
ENDROOT
BRANCH   1   7
ATOM      7  N   UNL d   1      -0.690  -5.968  -2.286  0.00  0.00    -0.732 N 
ATOM      8  C   UNL d   1      -2.134  -6.000  -2.196  0.00  0.00     0.284 C 
ATOM      9  H3  UNL d   1      -0.217  -6.554  -1.601  0.00  0.00     0.395 HD
ENDBRANCH   1   7
TORSDOF 1
ENDMDL
