MODEL 1
REMARK minimizedAffinity 5.34114838
REMARK minimizedRMSD -1
REMARK  1 active torsions:
REMARK  status: ('A' for Active; 'I' for Inactive)
REMARK    1  A    between atoms: N_2  and  C1_3 
ROOT
ATOM      1  C1  UNL d   1       0.374  -1.469   3.001  0.00  0.00     0.143 A 
ATOM      2  C2  UNL d   1      -0.207  -2.591   2.401  0.00  0.00    -0.057 A 
ATOM      3  C3  UNL d   1      -0.043  -2.851   1.035  0.00  0.00     0.033 A 
ATOM      4  C4  UNL d   1       0.686  -1.975   0.237  0.00  0.00    -0.042 A 
ATOM      5  C5  UNL d   1       1.252  -0.840   0.807  0.00  0.00     0.033 A 
ATOM      6  C6  UNL d   1       1.090  -0.590   2.173  0.00  0.00    -0.057 A 
ENDROOT
BRANCH   1   7
ATOM      7  N   UNL d   1       0.165  -1.103   4.333  0.00  0.00    -0.732 N 
ATOM      8  C   UNL d   1      -0.466  -2.019   5.259  0.00  0.00     0.284 C 
ATOM      9  H3  UNL d   1       0.954  -0.594   4.725  0.00  0.00     0.395 HD
ENDBRANCH   1   7
TORSDOF 1
ENDMDL
