MODEL 1
REMARK minimizedAffinity -1.77483845
REMARK minimizedRMSD -1
REMARK  1 active torsions:
REMARK  status: ('A' for Active; 'I' for Inactive)
REMARK    1  A    between atoms: N_2  and  C1_3 
ROOT
ATOM      1  C1  UNL d   1      -0.195  -5.502  -4.359  0.00  0.00     0.143 A 
ATOM      2  C2  UNL d   1      -0.571  -5.281  -3.029  0.00  0.00    -0.057 A 
ATOM      3  C3  UNL d   1      -1.899  -5.442  -2.614  0.00  0.00     0.033 A 
ATOM      4  C4  UNL d   1      -2.882  -5.800  -3.531  0.00  0.00    -0.042 A 
ATOM      5  C5  UNL d   1      -2.535  -6.000  -4.863  0.00  0.00     0.033 A 
ATOM      6  C6  UNL d   1      -1.207  -5.844  -5.269  0.00  0.00    -0.057 A 
ENDROOT
BRANCH   1   7
ATOM      7  N   UNL d   1       1.089  -5.263  -4.853  0.00  0.00    -0.732 N 
ATOM      8  C   UNL d   1       1.585  -5.993  -6.000  0.00  0.00     0.284 C 
ATOM      9  H3  UNL d   1       1.327  -4.274  -4.856  0.00  0.00     0.395 HD
ENDBRANCH   1   7
TORSDOF 1
ENDMDL
