MODEL 1
REMARK minimizedAffinity -0.294599324
REMARK minimizedRMSD -1
REMARK  1 active torsions:
REMARK  status: ('A' for Active; 'I' for Inactive)
REMARK    1  A    between atoms: N_2  and  C1_3 
ROOT
ATOM      1  C1  UNL d   1      -0.614  -5.956  -3.177  0.00  0.00     0.143 A 
ATOM      2  C2  UNL d   1      -1.849  -5.966  -3.834  0.00  0.00    -0.057 A 
ATOM      3  C3  UNL d   1      -1.928  -6.000  -5.232  0.00  0.00     0.033 A 
ATOM      4  C4  UNL d   1      -0.769  -5.995  -6.000  0.00  0.00    -0.042 A 
ATOM      5  C5  UNL d   1       0.470  -5.960  -5.369  0.00  0.00     0.033 A 
ATOM      6  C6  UNL d   1       0.542  -5.933  -3.973  0.00  0.00    -0.057 A 
ENDROOT
BRANCH   1   7
ATOM      7  N   UNL d   1      -0.470  -5.822  -1.794  0.00  0.00    -0.732 N 
ATOM      8  C   UNL d   1      -0.351  -4.514  -1.188  0.00  0.00     0.284 C 
ATOM      9  H3  UNL d   1      -1.064  -6.467  -1.278  0.00  0.00     0.395 HD
ENDBRANCH   1   7
TORSDOF 1
ENDMDL
