MODEL 1
REMARK minimizedAffinity -2.75698495
REMARK minimizedRMSD -1
REMARK  1 active torsions:
REMARK  status: ('A' for Active; 'I' for Inactive)
REMARK    1  A    between atoms: N_2  and  C1_3 
ROOT
ATOM      1  C1  UNL d   1      -2.021  -5.964  -3.719  0.00  0.00     0.143 A 
ATOM      2  C2  UNL d   1      -2.256  -5.754  -5.082  0.00  0.00    -0.057 A 
ATOM      3  C3  UNL d   1      -1.198  -5.628  -5.990  0.00  0.00     0.033 A 
ATOM      4  C4  UNL d   1       0.119  -5.680  -5.545  0.00  0.00    -0.042 A 
ATOM      5  C5  UNL d   1       0.376  -5.863  -4.191  0.00  0.00     0.033 A 
ATOM      6  C6  UNL d   1      -0.685  -5.995  -3.290  0.00  0.00    -0.057 A 
ENDROOT
BRANCH   1   7
ATOM      7  N   UNL d   1      -3.029  -5.999  -2.752  0.00  0.00    -0.732 N 
ATOM      8  C   UNL d   1      -4.423  -6.000  -3.141  0.00  0.00     0.284 C 
ATOM      9  H3  UNL d   1      -2.811  -6.632  -1.986  0.00  0.00     0.395 HD
ENDBRANCH   1   7
TORSDOF 1
ENDMDL
