MODEL 1
REMARK minimizedAffinity 6.69809771
REMARK minimizedRMSD -1
REMARK  1 active torsions:
REMARK  status: ('A' for Active; 'I' for Inactive)
REMARK    1  A    between atoms: N_2  and  C1_3 
ROOT
ATOM      1  C1  UNL d   1      -0.014  -2.114   0.805  0.00  0.00     0.143 A 
ATOM      2  C2  UNL d   1      -1.000  -1.181   0.467  0.00  0.00    -0.057 A 
ATOM      3  C3  UNL d   1      -0.677   0.157   0.214  0.00  0.00     0.033 A 
ATOM      4  C4  UNL d   1       0.639   0.594   0.322  0.00  0.00    -0.042 A 
ATOM      5  C5  UNL d   1       1.632  -0.311   0.681  0.00  0.00     0.033 A 
ATOM      6  C6  UNL d   1       1.304  -1.647   0.926  0.00  0.00    -0.057 A 
ENDROOT
BRANCH   1   7
ATOM      7  N   UNL d   1      -0.285  -3.437   1.165  0.00  0.00    -0.732 N 
ATOM      8  C   UNL d   1      -1.051  -3.735   2.356  0.00  0.00     0.284 C 
ATOM      9  H3  UNL d   1      -0.521  -4.017   0.363  0.00  0.00     0.395 HD
ENDBRANCH   1   7
TORSDOF 1
ENDMDL
