MODEL 1
REMARK minimizedAffinity 6.11695814
REMARK minimizedRMSD -1
REMARK  1 active torsions:
REMARK  status: ('A' for Active; 'I' for Inactive)
REMARK    1  A    between atoms: N_2  and  C1_3 
ROOT
ATOM      1  C1  UNL d   1      -0.437  -5.890  -4.591  0.00  0.00     0.143 A 
ATOM      2  C2  UNL d   1       0.379  -5.962  -3.456  0.00  0.00    -0.057 A 
ATOM      3  C3  UNL d   1       1.774  -5.988  -3.565  0.00  0.00     0.033 A 
ATOM      4  C4  UNL d   1       2.380  -5.971  -4.817  0.00  0.00    -0.042 A 
ATOM      5  C5  UNL d   1       1.589  -5.925  -5.959  0.00  0.00     0.033 A 
ATOM      6  C6  UNL d   1       0.196  -5.893  -5.844  0.00  0.00    -0.057 A 
ENDROOT
BRANCH   1   7
ATOM      7  N   UNL d   1      -1.831  -5.961  -4.552  0.00  0.00    -0.732 N 
ATOM      8  C   UNL d   1      -2.602  -5.992  -5.777  0.00  0.00     0.284 C 
ATOM      9  H3  UNL d   1      -2.168  -6.597  -3.833  0.00  0.00     0.395 HD
ENDBRANCH   1   7
TORSDOF 1
ENDMDL
