MODEL 1
REMARK minimizedAffinity -0.181898355
REMARK minimizedRMSD -1
REMARK  1 active torsions:
REMARK  status: ('A' for Active; 'I' for Inactive)
REMARK    1  A    between atoms: N_2  and  C1_3 
ROOT
ATOM      1  C1  UNL d   1      -0.293  -5.877  -3.561  0.00  0.00     0.143 A 
ATOM      2  C2  UNL d   1       1.105  -5.914  -3.519  0.00  0.00    -0.057 A 
ATOM      3  C3  UNL d   1       1.866  -5.961  -4.693  0.00  0.00     0.033 A 
ATOM      4  C4  UNL d   1       1.239  -6.000  -5.934  0.00  0.00    -0.042 A 
ATOM      5  C5  UNL d   1      -0.149  -5.988  -6.000  0.00  0.00     0.033 A 
ATOM      6  C6  UNL d   1      -0.904  -5.935  -4.824  0.00  0.00    -0.057 A 
ENDROOT
BRANCH   1   7
ATOM      7  N   UNL d   1      -1.108  -5.930  -2.428  0.00  0.00    -0.732 N 
ATOM      8  C   UNL d   1      -2.547  -6.000  -2.557  0.00  0.00     0.284 C 
ATOM      9  H3  UNL d   1      -0.725  -6.533  -1.703  0.00  0.00     0.395 HD
ENDBRANCH   1   7
TORSDOF 1
ENDMDL
