MODEL 1
REMARK minimizedAffinity 5.83863306
REMARK minimizedRMSD -1
REMARK  1 active torsions:
REMARK  status: ('A' for Active; 'I' for Inactive)
REMARK    1  A    between atoms: N_2  and  C1_3 
ROOT
ATOM      1  C1  UNL d   1       1.244  -1.029   1.130  0.00  0.00     0.143 A 
ATOM      2  C2  UNL d   1       2.638  -0.930   1.185  0.00  0.00    -0.057 A 
ATOM      3  C3  UNL d   1       3.326   0.055   0.467  0.00  0.00     0.033 A 
ATOM      4  C4  UNL d   1       2.630   0.945  -0.345  0.00  0.00    -0.042 A 
ATOM      5  C5  UNL d   1       1.246   0.850  -0.435  0.00  0.00     0.033 A 
ATOM      6  C6  UNL d   1       0.565  -0.132   0.290  0.00  0.00    -0.057 A 
ENDROOT
BRANCH   1   7
ATOM      7  N   UNL d   1       0.511  -2.048   1.742  0.00  0.00    -0.732 N 
ATOM      8  C   UNL d   1       0.445  -3.367   1.150  0.00  0.00     0.284 C 
ATOM      9  H3  UNL d   1       0.621  -2.052   2.754  0.00  0.00     0.395 HD
ENDBRANCH   1   7
TORSDOF 1
ENDMDL
