MODEL 1
REMARK minimizedAffinity 0.459672213
REMARK minimizedRMSD -1
REMARK  1 active torsions:
REMARK  status: ('A' for Active; 'I' for Inactive)
REMARK    1  A    between atoms: N_2  and  C1_3 
ROOT
ATOM      1  C1  UNL d   1      -1.700  -5.874  -4.212  0.00  0.00     0.143 A 
ATOM      2  C2  UNL d   1      -0.677  -6.000  -3.267  0.00  0.00    -0.057 A 
ATOM      3  C3  UNL d   1       0.671  -5.967  -3.647  0.00  0.00     0.033 A 
ATOM      4  C4  UNL d   1       1.019  -5.836  -4.987  0.00  0.00    -0.042 A 
ATOM      5  C5  UNL d   1       0.018  -5.734  -5.947  0.00  0.00     0.033 A 
ATOM      6  C6  UNL d   1      -1.326  -5.761  -5.560  0.00  0.00    -0.057 A 
ENDROOT
BRANCH   1   7
ATOM      7  N   UNL d   1      -3.058  -5.998  -3.909  0.00  0.00    -0.732 N 
ATOM      8  C   UNL d   1      -3.510  -5.995  -2.535  0.00  0.00     0.284 C 
ATOM      9  H3  UNL d   1      -3.648  -5.463  -4.542  0.00  0.00     0.395 HD
ENDBRANCH   1   7
TORSDOF 1
ENDMDL
