MODEL 1
REMARK minimizedAffinity 11.5696287
REMARK minimizedRMSD -1
REMARK  2 active torsions:
REMARK  status: ('A' for Active; 'I' for Inactive)
REMARK    1  A    between atoms: C2'_3  and  C1'_4 
REMARK    2  A    between atoms: C1'_4  and  C1_5 
ROOT
ATOM      1  C1  I4B d   1       2.367  -0.469   3.554  0.00  0.00    -0.075 A 
ATOM      2  C2  I4B d   1       2.232   0.604   4.399  0.00  0.00     0.003 A 
ATOM      3  C3  I4B d   1       2.477   1.917   3.928  0.00  0.00     0.002 A 
ATOM      4  C4  I4B d   1       2.901   2.105   2.628  0.00  0.00    -0.004 A 
ATOM      5  C5  I4B d   1       3.015   1.018   1.767  0.00  0.00     0.002 A 
ATOM      6  C6  I4B d   1       2.734  -0.277   2.228  0.00  0.00     0.003 A 
ENDROOT
BRANCH   1   7
ATOM      7  C1' I4B d   1       2.132  -1.845   4.093  0.00  0.00     0.060 C 
BRANCH   7   8
ATOM      8  C2' I4B d   1       3.288  -2.721   3.656  0.00  0.00    -0.013 C 
ATOM      9  C4' I4B d   1       4.593  -2.222   4.218  0.00  0.00     0.013 C 
ATOM     10  C3' I4B d   1       3.004  -4.122   4.108  0.00  0.00     0.013 C 
ENDBRANCH   7   8
ENDBRANCH   1   7
TORSDOF 2
ENDMDL
