MODEL 1
REMARK minimizedAffinity 8.60024357
REMARK minimizedRMSD -1
REMARK  2 active torsions:
REMARK  status: ('A' for Active; 'I' for Inactive)
REMARK    1  A    between atoms: C2'_3  and  C1'_4 
REMARK    2  A    between atoms: C1'_4  and  C1_5 
ROOT
ATOM      1  C1  I4B d   1       2.250  -1.291   3.041  0.00  0.00    -0.075 A 
ATOM      2  C2  I4B d   1       2.764  -2.435   2.484  0.00  0.00     0.003 A 
ATOM      3  C3  I4B d   1       3.249  -3.476   3.313  0.00  0.00     0.002 A 
ATOM      4  C4  I4B d   1       3.247  -3.310   4.683  0.00  0.00    -0.004 A 
ATOM      5  C5  I4B d   1       2.705  -2.159   5.247  0.00  0.00     0.002 A 
ATOM      6  C6  I4B d   1       2.192  -1.148   4.422  0.00  0.00     0.003 A 
ENDROOT
BRANCH   1   7
ATOM      7  C1' I4B d   1       1.778  -0.198   2.136  0.00  0.00     0.060 C 
BRANCH   7   8
ATOM      8  C2' I4B d   1       2.961   0.696   1.826  0.00  0.00    -0.013 C 
ATOM      9  C4' I4B d   1       3.464   0.468   0.424  0.00  0.00     0.013 C 
ATOM     10  C3' I4B d   1       2.531   2.119   2.021  0.00  0.00     0.013 C 
ENDBRANCH   7   8
ENDBRANCH   1   7
TORSDOF 2
ENDMDL
