MODEL 1
REMARK minimizedAffinity 15.2709484
REMARK minimizedRMSD -1
REMARK  2 active torsions:
REMARK  status: ('A' for Active; 'I' for Inactive)
REMARK    1  A    between atoms: C2'_3  and  C1'_4 
REMARK    2  A    between atoms: C1'_4  and  C1_5 
ROOT
ATOM      1  C1  I4B d   1      -3.585  -1.884  -3.151  0.00  0.00    -0.075 A 
ATOM      2  C2  I4B d   1      -2.489  -1.067  -3.027  0.00  0.00     0.003 A 
ATOM      3  C3  I4B d   1      -1.596  -1.232  -1.941  0.00  0.00     0.002 A 
ATOM      4  C4  I4B d   1      -1.863  -2.187  -0.982  0.00  0.00    -0.004 A 
ATOM      5  C5  I4B d   1      -2.961  -3.030  -1.121  0.00  0.00     0.002 A 
ATOM      6  C6  I4B d   1      -3.822  -2.886  -2.220  0.00  0.00     0.003 A 
ENDROOT
BRANCH   1   7
ATOM      7  C1' I4B d   1      -4.526  -1.660  -4.293  0.00  0.00     0.060 C 
BRANCH   7   8
ATOM      8  C2' I4B d   1      -4.638  -2.957  -5.067  0.00  0.00    -0.013 C 
ATOM      9  C4' I4B d   1      -5.939  -3.032  -5.820  0.00  0.00     0.013 C 
ATOM     10  C3' I4B d   1      -3.466  -3.043  -6.000  0.00  0.00     0.013 C 
ENDBRANCH   7   8
ENDBRANCH   1   7
TORSDOF 2
ENDMDL
