MODEL 1
REMARK minimizedAffinity 20.6184635
REMARK minimizedRMSD -1
REMARK  2 active torsions:
REMARK  status: ('A' for Active; 'I' for Inactive)
REMARK    1  A    between atoms: C1_2  and  C2_3 
REMARK    2  A    between atoms: C2_3  and  C3_4 
ROOT
ATOM      1  C3  UNL d   1      -3.306  -2.409   5.001  0.00  0.00    -0.075 A 
ATOM      2  C4  UNL d   1      -3.121  -2.442   3.611  0.00  0.00     0.002 A 
ATOM      3  C5  UNL d   1      -2.280  -1.520   2.987  0.00  0.00     0.002 A 
ATOM      4  C6  UNL d   1      -1.623  -0.550   3.741  0.00  0.00    -0.004 A 
ATOM      5  C7  UNL d   1      -1.813  -0.498   5.120  0.00  0.00     0.002 A 
ATOM      6  C8  UNL d   1      -2.650  -1.422   5.748  0.00  0.00     0.002 A 
ENDROOT
BRANCH   1   7
ATOM      7  C2  UNL d   1      -4.192  -3.422   5.686  0.00  0.00     0.056 C 
BRANCH   7   8
ATOM      8  C1  UNL d   1      -5.686  -3.091   5.620  0.00  0.00     0.007 C 
ATOM      9  C   UNL d   1      -5.999  -1.650   6.000  0.00  0.00     0.009 C 
ENDBRANCH   7   8
ENDBRANCH   1   7
TORSDOF 2
ENDMDL
