MODEL 1
REMARK minimizedAffinity 10.4144173
REMARK minimizedRMSD -1
REMARK  2 active torsions:
REMARK  status: ('A' for Active; 'I' for Inactive)
REMARK    1  A    between atoms: C1_2  and  C2_3 
REMARK    2  A    between atoms: C2_3  and  C3_4 
ROOT
ATOM      1  C3  UNL d   1       2.526  -3.680  -4.897  0.00  0.00    -0.075 A 
ATOM      2  C4  UNL d   1       1.323  -3.784  -4.184  0.00  0.00     0.002 A 
ATOM      3  C5  UNL d   1       0.486  -4.886  -4.364  0.00  0.00     0.002 A 
ATOM      4  C6  UNL d   1       0.835  -5.890  -5.264  0.00  0.00    -0.004 A 
ATOM      5  C7  UNL d   1       2.020  -5.789  -5.989  0.00  0.00     0.002 A 
ATOM      6  C8  UNL d   1       2.862  -4.690  -5.808  0.00  0.00     0.002 A 
ENDROOT
BRANCH   1   7
ATOM      7  C2  UNL d   1       3.451  -2.505  -4.685  0.00  0.00     0.056 C 
BRANCH   7   8
ATOM      8  C1  UNL d   1       3.812  -2.252  -3.217  0.00  0.00     0.007 C 
ATOM      9  C   UNL d   1       4.632  -0.986  -3.010  0.00  0.00     0.009 C 
ENDBRANCH   7   8
ENDBRANCH   1   7
TORSDOF 2
ENDMDL
