MODEL 1
REMARK minimizedAffinity 8.29885101
REMARK minimizedRMSD -1
REMARK  2 active torsions:
REMARK  status: ('A' for Active; 'I' for Inactive)
REMARK    1  A    between atoms: C1_2  and  C2_3 
REMARK    2  A    between atoms: C2_3  and  C3_4 
ROOT
ATOM      1  C3  UNL d   1       2.993  -3.529  -4.989  0.00  0.00    -0.075 A 
ATOM      2  C4  UNL d   1       1.746  -3.756  -4.388  0.00  0.00     0.002 A 
ATOM      3  C5  UNL d   1       1.076  -4.964  -4.581  0.00  0.00     0.002 A 
ATOM      4  C6  UNL d   1       1.637  -5.954  -5.385  0.00  0.00    -0.004 A 
ATOM      5  C7  UNL d   1       2.867  -5.733  -6.000  0.00  0.00     0.002 A 
ATOM      6  C8  UNL d   1       3.542  -4.527  -5.804  0.00  0.00     0.002 A 
ENDROOT
BRANCH   1   7
ATOM      7  C2  UNL d   1       3.737  -2.235  -4.759  0.00  0.00     0.056 C 
BRANCH   7   8
ATOM      8  C1  UNL d   1       3.739  -1.767  -3.300  0.00  0.00     0.007 C 
ATOM      9  C   UNL d   1       4.808  -0.723  -3.006  0.00  0.00     0.009 C 
ENDBRANCH   7   8
ENDBRANCH   1   7
TORSDOF 2
ENDMDL
