MODEL 1
REMARK minimizedAffinity 1.24542463
REMARK minimizedRMSD -1
REMARK  2 active torsions:
REMARK  status: ('A' for Active; 'I' for Inactive)
REMARK    1  A    between atoms: C1_2  and  C2_3 
REMARK    2  A    between atoms: C2_3  and  C3_4 
ROOT
ATOM      1  C3  UNL d   1       2.025  -5.070  -5.214  0.00  0.00    -0.075 A 
ATOM      2  C4  UNL d   1       1.833  -4.077  -4.242  0.00  0.00     0.002 A 
ATOM      3  C5  UNL d   1       0.652  -4.031  -3.501  0.00  0.00     0.002 A 
ATOM      4  C6  UNL d   1      -0.354  -4.967  -3.729  0.00  0.00    -0.004 A 
ATOM      5  C7  UNL d   1      -0.181  -5.947  -4.704  0.00  0.00     0.002 A 
ATOM      6  C8  UNL d   1       1.001  -5.999  -5.444  0.00  0.00     0.002 A 
ENDROOT
BRANCH   1   7
ATOM      7  C2  UNL d   1       3.313  -5.143  -5.999  0.00  0.00     0.056 C 
BRANCH   7   8
ATOM      8  C1  UNL d   1       4.147  -3.859  -5.951  0.00  0.00     0.007 C 
ATOM      9  C   UNL d   1       5.647  -4.115  -5.997  0.00  0.00     0.009 C 
ENDBRANCH   7   8
ENDBRANCH   1   7
TORSDOF 2
ENDMDL
