MODEL 1
REMARK minimizedAffinity 18.3455048
REMARK minimizedRMSD -1
REMARK  2 active torsions:
REMARK  status: ('A' for Active; 'I' for Inactive)
REMARK    1  A    between atoms: C1_2  and  C2_3 
REMARK    2  A    between atoms: C2_3  and  C3_4 
ROOT
ATOM      1  C3  UNL d   1       1.660   1.351   0.355  0.00  0.00    -0.075 A 
ATOM      2  C4  UNL d   1       0.672   0.376   0.556  0.00  0.00     0.002 A 
ATOM      3  C5  UNL d   1       0.995  -0.851   1.135  0.00  0.00     0.002 A 
ATOM      4  C6  UNL d   1       2.309  -1.124   1.509  0.00  0.00    -0.004 A 
ATOM      5  C7  UNL d   1       3.302  -0.169   1.298  0.00  0.00     0.002 A 
ATOM      6  C8  UNL d   1       2.980   1.062   0.723  0.00  0.00     0.002 A 
ENDROOT
BRANCH   1   7
ATOM      7  C2  UNL d   1       1.311   2.693  -0.244  0.00  0.00     0.056 C 
BRANCH   7   8
ATOM      8  C1  UNL d   1       1.213   2.687  -1.773  0.00  0.00     0.007 C 
ATOM      9  C   UNL d   1      -0.195   2.411  -2.283  0.00  0.00     0.009 C 
ENDBRANCH   7   8
ENDBRANCH   1   7
TORSDOF 2
ENDMDL
