MODEL 1
REMARK minimizedAffinity 18.589695
REMARK minimizedRMSD -1
REMARK  2 active torsions:
REMARK  status: ('A' for Active; 'I' for Inactive)
REMARK    1  A    between atoms: C1_2  and  C2_3 
REMARK    2  A    between atoms: C2_3  and  C3_4 
ROOT
ATOM      1  C3  UNL d   1       5.309  -1.385  -2.982  0.00  0.00    -0.075 A 
ATOM      2  C4  UNL d   1       5.215  -0.031  -3.336  0.00  0.00     0.002 A 
ATOM      3  C5  UNL d   1       4.720   0.906  -2.428  0.00  0.00     0.002 A 
ATOM      4  C6  UNL d   1       4.304   0.501  -1.162  0.00  0.00    -0.004 A 
ATOM      5  C7  UNL d   1       4.377  -0.844  -0.805  0.00  0.00     0.002 A 
ATOM      6  C8  UNL d   1       4.876  -1.783  -1.710  0.00  0.00     0.002 A 
ENDROOT
BRANCH   1   7
ATOM      7  C2  UNL d   1       5.871  -2.399  -3.950  0.00  0.00     0.056 C 
BRANCH   7   8
ATOM      8  C1  UNL d   1       4.940  -2.724  -5.123  0.00  0.00     0.007 C 
ATOM      9  C   UNL d   1       5.452  -3.861  -5.997  0.00  0.00     0.009 C 
ENDBRANCH   7   8
ENDBRANCH   1   7
TORSDOF 2
ENDMDL
