MODEL 1
REMARK minimizedAffinity 8.20266247
REMARK minimizedRMSD -1
REMARK  2 active torsions:
REMARK  status: ('A' for Active; 'I' for Inactive)
REMARK    1  A    between atoms: C1_2  and  C2_3 
REMARK    2  A    between atoms: C2_3  and  C3_4 
ROOT
ATOM      1  C3  UNL d   1      -3.604  -2.789   3.248  0.00  0.00    -0.075 A 
ATOM      2  C4  UNL d   1      -4.724  -2.923   2.415  0.00  0.00     0.002 A 
ATOM      3  C5  UNL d   1      -4.567  -3.188   1.054  0.00  0.00     0.002 A 
ATOM      4  C6  UNL d   1      -3.291  -3.312   0.508  0.00  0.00    -0.004 A 
ATOM      5  C7  UNL d   1      -2.171  -3.164   1.324  0.00  0.00     0.002 A 
ATOM      6  C8  UNL d   1      -2.326  -2.903   2.686  0.00  0.00     0.002 A 
ENDROOT
BRANCH   1   7
ATOM      7  C2  UNL d   1      -3.768  -2.531   4.727  0.00  0.00     0.056 C 
BRANCH   7   8
ATOM      8  C1  UNL d   1      -4.990  -3.216   5.348  0.00  0.00     0.007 C 
ATOM      9  C   UNL d   1      -5.975  -2.237   5.972  0.00  0.00     0.009 C 
ENDBRANCH   7   8
ENDBRANCH   1   7
TORSDOF 2
ENDMDL
