MODEL 1
REMARK minimizedAffinity 12.1331587
REMARK minimizedRMSD -1
REMARK  2 active torsions:
REMARK  status: ('A' for Active; 'I' for Inactive)
REMARK    1  A    between atoms: C1_2  and  C2_3 
REMARK    2  A    between atoms: C2_3  and  C3_4 
ROOT
ATOM      1  C3  UNL d   1       2.100  -0.503   1.482  0.00  0.00    -0.075 A 
ATOM      2  C4  UNL d   1       3.336  -0.751   2.096  0.00  0.00     0.002 A 
ATOM      3  C5  UNL d   1       4.361   0.193   2.034  0.00  0.00     0.002 A 
ATOM      4  C6  UNL d   1       4.168   1.391   1.349  0.00  0.00    -0.004 A 
ATOM      5  C7  UNL d   1       2.949   1.641   0.721  0.00  0.00     0.002 A 
ATOM      6  C8  UNL d   1       1.921   0.700   0.786  0.00  0.00     0.002 A 
ENDROOT
BRANCH   1   7
ATOM      7  C2  UNL d   1       0.977  -1.508   1.571  0.00  0.00     0.056 C 
BRANCH   7   8
ATOM      8  C1  UNL d   1       1.369  -2.922   1.129  0.00  0.00     0.007 C 
ATOM      9  C   UNL d   1       1.108  -3.978   2.194  0.00  0.00     0.009 C 
ENDBRANCH   7   8
ENDBRANCH   1   7
TORSDOF 2
ENDMDL
