MODEL 1
REMARK minimizedAffinity 17.874712
REMARK minimizedRMSD -1
REMARK  2 active torsions:
REMARK  status: ('A' for Active; 'I' for Inactive)
REMARK    1  A    between atoms: C1_2  and  C2_3 
REMARK    2  A    between atoms: C2_3  and  C3_4 
ROOT
ATOM      1  C3  UNL d   1       1.904  -1.327   1.783  0.00  0.00    -0.075 A 
ATOM      2  C4  UNL d   1       1.432  -2.595   1.413  0.00  0.00     0.002 A 
ATOM      3  C5  UNL d   1       0.120  -2.974   1.702  0.00  0.00     0.002 A 
ATOM      4  C6  UNL d   1      -0.730  -2.097   2.371  0.00  0.00    -0.004 A 
ATOM      5  C7  UNL d   1      -0.267  -0.842   2.758  0.00  0.00     0.002 A 
ATOM      6  C8  UNL d   1       1.044  -0.458   2.467  0.00  0.00     0.002 A 
ENDROOT
BRANCH   1   7
ATOM      7  C2  UNL d   1       3.313  -0.900   1.447  0.00  0.00     0.056 C 
BRANCH   7   8
ATOM      8  C1  UNL d   1       3.737   0.418   2.103  0.00  0.00     0.007 C 
ATOM      9  C   UNL d   1       4.333   1.415   1.118  0.00  0.00     0.009 C 
ENDBRANCH   7   8
ENDBRANCH   1   7
TORSDOF 2
ENDMDL
