MODEL 1
REMARK minimizedAffinity 13.9058647
REMARK minimizedRMSD -1
REMARK  2 active torsions:
REMARK  status: ('A' for Active; 'I' for Inactive)
REMARK    1  A    between atoms: C1_2  and  C2_3 
REMARK    2  A    between atoms: C2_3  and  C3_4 
ROOT
ATOM      1  C3  UNL d   1      -0.675   3.862  -2.992  0.00  0.00    -0.075 A 
ATOM      2  C4  UNL d   1      -1.596   3.289  -3.881  0.00  0.00     0.002 A 
ATOM      3  C5  UNL d   1      -2.195   4.061  -4.876  0.00  0.00     0.002 A 
ATOM      4  C6  UNL d   1      -1.891   5.416  -4.989  0.00  0.00    -0.004 A 
ATOM      5  C7  UNL d   1      -0.990   6.000  -4.101  0.00  0.00     0.002 A 
ATOM      6  C8  UNL d   1      -0.386   5.228  -3.107  0.00  0.00     0.002 A 
ENDROOT
BRANCH   1   7
ATOM      7  C2  UNL d   1      -0.001   3.025  -1.932  0.00  0.00     0.056 C 
BRANCH   7   8
ATOM      8  C1  UNL d   1       1.242   3.678  -1.318  0.00  0.00     0.007 C 
ATOM      9  C   UNL d   1       1.651   3.059   0.012  0.00  0.00     0.009 C 
ENDBRANCH   7   8
ENDBRANCH   1   7
TORSDOF 2
ENDMDL
