MODEL 1
REMARK minimizedAffinity 10.2951431
REMARK minimizedRMSD -1
REMARK  2 active torsions:
REMARK  status: ('A' for Active; 'I' for Inactive)
REMARK    1  A    between atoms: C1_2  and  C2_3 
REMARK    2  A    between atoms: C2_3  and  C3_4 
ROOT
ATOM      1  C3  UNL d   1      -1.095   2.591  -2.129  0.00  0.00    -0.075 A 
ATOM      2  C4  UNL d   1      -1.009   2.561  -0.730  0.00  0.00     0.002 A 
ATOM      3  C5  UNL d   1       0.230   2.449  -0.098  0.00  0.00     0.002 A 
ATOM      4  C6  UNL d   1       1.395   2.355  -0.856  0.00  0.00    -0.004 A 
ATOM      5  C7  UNL d   1       1.321   2.367  -2.247  0.00  0.00     0.002 A 
ATOM      6  C8  UNL d   1       0.083   2.484  -2.881  0.00  0.00     0.002 A 
ENDROOT
BRANCH   1   7
ATOM      7  C2  UNL d   1      -2.430   2.741  -2.819  0.00  0.00     0.056 C 
BRANCH   7   8
ATOM      8  C1  UNL d   1      -3.603   2.975  -1.861  0.00  0.00     0.007 C 
ATOM      9  C   UNL d   1      -4.780   2.042  -2.115  0.00  0.00     0.009 C 
ENDBRANCH   7   8
ENDBRANCH   1   7
TORSDOF 2
ENDMDL
