MODEL 1
REMARK minimizedAffinity 13.8069143
REMARK minimizedRMSD -1
REMARK  2 active torsions:
REMARK  status: ('A' for Active; 'I' for Inactive)
REMARK    1  A    between atoms: C1_2  and  C2_3 
REMARK    2  A    between atoms: C2_3  and  C3_4 
ROOT
ATOM      1  C3  UNL d   1      -0.451  -4.136  -2.132  0.00  0.00    -0.075 A 
ATOM      2  C4  UNL d   1      -0.155  -5.507  -2.158  0.00  0.00     0.002 A 
ATOM      3  C5  UNL d   1       0.841  -6.000  -3.001  0.00  0.00     0.002 A 
ATOM      4  C6  UNL d   1       1.545  -5.133  -3.834  0.00  0.00    -0.004 A 
ATOM      5  C7  UNL d   1       1.247  -3.772  -3.829  0.00  0.00     0.002 A 
ATOM      6  C8  UNL d   1       0.254  -3.275  -2.983  0.00  0.00     0.002 A 
ENDROOT
BRANCH   1   7
ATOM      7  C2  UNL d   1      -1.508  -3.592  -1.200  0.00  0.00     0.056 C 
BRANCH   7   8
ATOM      8  C1  UNL d   1      -2.606  -4.600  -0.845  0.00  0.00     0.007 C 
ATOM      9  C   UNL d   1      -3.781  -3.973  -0.106  0.00  0.00     0.009 C 
ENDBRANCH   7   8
ENDBRANCH   1   7
TORSDOF 2
ENDMDL
