MODEL 1
REMARK minimizedAffinity 3.80955505
REMARK minimizedRMSD -1
REMARK  2 active torsions:
REMARK  status: ('A' for Active; 'I' for Inactive)
REMARK    1  A    between atoms: C1_2  and  C2_3 
REMARK    2  A    between atoms: C2_3  and  C3_4 
ROOT
ATOM      1  C3  UNL d   1       0.859  -0.742   2.716  0.00  0.00    -0.075 A 
ATOM      2  C4  UNL d   1       1.822  -0.671   3.732  0.00  0.00     0.002 A 
ATOM      3  C5  UNL d   1       1.437  -0.621   5.072  0.00  0.00     0.002 A 
ATOM      4  C6  UNL d   1       0.086  -0.631   5.412  0.00  0.00    -0.004 A 
ATOM      5  C7  UNL d   1      -0.881  -0.684   4.410  0.00  0.00     0.002 A 
ATOM      6  C8  UNL d   1      -0.497  -0.739   3.069  0.00  0.00     0.002 A 
ENDROOT
BRANCH   1   7
ATOM      7  C2  UNL d   1       1.270  -0.826   1.266  0.00  0.00     0.056 C 
BRANCH   7   8
ATOM      8  C1  UNL d   1       2.106  -2.064   0.925  0.00  0.00     0.007 C 
ATOM      9  C   UNL d   1       1.262  -3.301   0.650  0.00  0.00     0.009 C 
ENDBRANCH   7   8
ENDBRANCH   1   7
TORSDOF 2
ENDMDL
