MODEL 1
REMARK minimizedAffinity 11.3146734
REMARK minimizedRMSD -1
REMARK  2 active torsions:
REMARK  status: ('A' for Active; 'I' for Inactive)
REMARK    1  A    between atoms: C1_2  and  C2_3 
REMARK    2  A    between atoms: C2_3  and  C3_4 
ROOT
ATOM      1  C3  UNL d   1      -3.754  -4.043   1.165  0.00  0.00    -0.075 A 
ATOM      2  C4  UNL d   1      -4.511  -4.859   2.018  0.00  0.00     0.002 A 
ATOM      3  C5  UNL d   1      -5.361  -5.835   1.496  0.00  0.00     0.002 A 
ATOM      4  C6  UNL d   1      -5.472  -6.000   0.117  0.00  0.00    -0.004 A 
ATOM      5  C7  UNL d   1      -4.738  -5.184  -0.740  0.00  0.00     0.002 A 
ATOM      6  C8  UNL d   1      -3.884  -4.210  -0.221  0.00  0.00     0.002 A 
ENDROOT
BRANCH   1   7
ATOM      7  C2  UNL d   1      -2.811  -3.006   1.724  0.00  0.00     0.056 C 
BRANCH   7   8
ATOM      8  C1  UNL d   1      -1.665  -2.630   0.778  0.00  0.00     0.007 C 
ATOM      9  C   UNL d   1      -0.388  -2.238   1.508  0.00  0.00     0.009 C 
ENDBRANCH   7   8
ENDBRANCH   1   7
TORSDOF 2
ENDMDL
