MODEL 1
REMARK minimizedAffinity -0.173253819
REMARK minimizedRMSD -1
REMARK  2 active torsions:
REMARK  status: ('A' for Active; 'I' for Inactive)
REMARK    1  A    between atoms: C1_2  and  C2_3 
REMARK    2  A    between atoms: C2_3  and  C3_4 
ROOT
ATOM      1  C3  UNL d   1      -5.550  -5.299   3.565  0.00  0.00    -0.075 A 
ATOM      2  C4  UNL d   1      -4.841  -4.089   3.585  0.00  0.00     0.002 A 
ATOM      3  C5  UNL d   1      -4.521  -3.476   4.796  0.00  0.00     0.002 A 
ATOM      4  C6  UNL d   1      -4.913  -4.057   6.000  0.00  0.00    -0.004 A 
ATOM      5  C7  UNL d   1      -5.632  -5.251   5.991  0.00  0.00     0.002 A 
ATOM      6  C8  UNL d   1      -5.949  -5.869   4.781  0.00  0.00     0.002 A 
ENDROOT
BRANCH   1   7
ATOM      7  C2  UNL d   1      -5.874  -5.983   2.258  0.00  0.00     0.056 C 
BRANCH   7   8
ATOM      8  C1  UNL d   1      -5.313  -5.268   1.024  0.00  0.00     0.007 C 
ATOM      9  C   UNL d   1      -5.611  -5.997  -0.280  0.00  0.00     0.009 C 
ENDBRANCH   7   8
ENDBRANCH   1   7
TORSDOF 2
ENDMDL
