MODEL 1
REMARK minimizedAffinity 16.3470898
REMARK minimizedRMSD -1
REMARK  1 active torsions:
REMARK  status: ('A' for Active; 'I' for Inactive)
REMARK    1  A    between atoms: C3_4  and  O_7 
ROOT
ATOM      1  C   UNL d   1       2.876  -2.473   0.041  0.00  0.00    -0.033 A 
ATOM      2  C1  UNL d   1       4.013  -2.276   0.828  0.00  0.00     0.039 A 
ATOM      3  C2  UNL d   1       3.942  -1.482   1.974  0.00  0.00    -0.080 A 
ATOM      4  C3  UNL d   1       2.731  -0.891   2.322  0.00  0.00     0.150 A 
ATOM      5  C4  UNL d   1       1.593  -1.086   1.545  0.00  0.00    -0.007 A 
ATOM      6  C5  UNL d   1       1.666  -1.879   0.401  0.00  0.00     0.039 A 
ENDROOT
BRANCH   4   7
ATOM      7  O   UNL d   1       2.614  -0.104   3.429  0.00  0.00    -0.526 OA
ATOM      8  H5  UNL d   1       3.486  -0.036   3.852  0.00  0.00     0.418 HD
ENDBRANCH   4   7
TORSDOF 1
ENDMDL
