MODEL 1
REMARK minimizedAffinity 10.7926149
REMARK minimizedRMSD -1
REMARK  1 active torsions:
REMARK  status: ('A' for Active; 'I' for Inactive)
REMARK    1  A    between atoms: C3_4  and  O_7 
ROOT
ATOM      1  C   UNL d   1       3.399  -1.885   1.095  0.00  0.00    -0.033 A 
ATOM      2  C1  UNL d   1       3.822  -3.162   0.721  0.00  0.00     0.039 A 
ATOM      3  C2  UNL d   1       3.066  -3.913  -0.181  0.00  0.00    -0.080 A 
ATOM      4  C3  UNL d   1       1.892  -3.377  -0.701  0.00  0.00     0.150 A 
ATOM      5  C4  UNL d   1       1.466  -2.104  -0.335  0.00  0.00    -0.007 A 
ATOM      6  C5  UNL d   1       2.222  -1.356   0.566  0.00  0.00     0.039 A 
ENDROOT
BRANCH   4   7
ATOM      7  O   UNL d   1       1.118  -4.074  -1.581  0.00  0.00    -0.526 OA
ATOM      8  H5  UNL d   1       1.521  -4.948  -1.719  0.00  0.00     0.418 HD
ENDBRANCH   4   7
TORSDOF 1
ENDMDL
