MODEL 1
REMARK minimizedAffinity 7.37973642
REMARK minimizedRMSD -1
REMARK  1 active torsions:
REMARK  status: ('A' for Active; 'I' for Inactive)
REMARK    1  A    between atoms: C3_4  and  O_7 
ROOT
ATOM      1  C   UNL d   1       5.999  -3.663   1.111  0.00  0.00    -0.033 A 
ATOM      2  C1  UNL d   1       4.829  -4.322   0.728  0.00  0.00     0.039 A 
ATOM      3  C2  UNL d   1       3.657  -3.596   0.506  0.00  0.00    -0.080 A 
ATOM      4  C3  UNL d   1       3.668  -2.214   0.670  0.00  0.00     0.150 A 
ATOM      5  C4  UNL d   1       4.831  -1.550   1.048  0.00  0.00    -0.007 A 
ATOM      6  C5  UNL d   1       6.000  -2.277   1.270  0.00  0.00     0.039 A 
ENDROOT
BRANCH   4   7
ATOM      7  O   UNL d   1       2.548  -1.464   0.470  0.00  0.00    -0.526 OA
ATOM      8  H5  UNL d   1       1.815  -2.060   0.242  0.00  0.00     0.418 HD
ENDBRANCH   4   7
TORSDOF 1
ENDMDL
