MODEL 1
REMARK minimizedAffinity 13.478363
REMARK minimizedRMSD -1
REMARK  1 active torsions:
REMARK  status: ('A' for Active; 'I' for Inactive)
REMARK    1  A    between atoms: C3_4  and  O_7 
ROOT
ATOM      1  C   UNL d   1       4.982  -4.345  -3.449  0.00  0.00    -0.033 A 
ATOM      2  C1  UNL d   1       4.020  -3.662  -4.195  0.00  0.00     0.039 A 
ATOM      3  C2  UNL d   1       2.692  -3.628  -3.764  0.00  0.00    -0.080 A 
ATOM      4  C3  UNL d   1       2.340  -4.280  -2.585  0.00  0.00     0.150 A 
ATOM      5  C4  UNL d   1       3.294  -4.959  -1.834  0.00  0.00    -0.007 A 
ATOM      6  C5  UNL d   1       4.619  -4.992  -2.267  0.00  0.00     0.039 A 
ENDROOT
BRANCH   4   7
ATOM      7  O   UNL d   1       1.057  -4.279  -2.126  0.00  0.00    -0.526 OA
ATOM      8  H5  UNL d   1       0.503  -3.796  -2.762  0.00  0.00     0.418 HD
ENDBRANCH   4   7
TORSDOF 1
ENDMDL
