MODEL 1
REMARK minimizedAffinity 9.2764864
REMARK minimizedRMSD -1
REMARK  1 active torsions:
REMARK  status: ('A' for Active; 'I' for Inactive)
REMARK    1  A    between atoms: C3_4  and  O_7 
ROOT
ATOM      1  C   UNL d   1      -3.475   4.191  -3.356  0.00  0.00    -0.033 A 
ATOM      2  C1  UNL d   1      -3.899   5.283  -4.116  0.00  0.00     0.039 A 
ATOM      3  C2  UNL d   1      -3.016   5.904  -5.002  0.00  0.00    -0.080 A 
ATOM      4  C3  UNL d   1      -1.715   5.424  -5.119  0.00  0.00     0.150 A 
ATOM      5  C4  UNL d   1      -1.287   4.334  -4.368  0.00  0.00    -0.007 A 
ATOM      6  C5  UNL d   1      -2.170   3.715  -3.483  0.00  0.00     0.039 A 
ENDROOT
BRANCH   4   7
ATOM      7  O   UNL d   1      -0.816   6.000  -5.966  0.00  0.00    -0.526 OA
ATOM      8  H5  UNL d   1      -1.243   6.759  -6.398  0.00  0.00     0.418 HD
ENDBRANCH   4   7
TORSDOF 1
ENDMDL
