MODEL 1
REMARK minimizedAffinity 8.88138199
REMARK minimizedRMSD -1
REMARK  1 active torsions:
REMARK  status: ('A' for Active; 'I' for Inactive)
REMARK    1  A    between atoms: C3_4  and  O_7 
ROOT
ATOM      1  C   UNL d   1      -4.933   5.999   1.934  0.00  0.00    -0.033 A 
ATOM      2  C1  UNL d   1      -3.619   5.940   1.468  0.00  0.00     0.039 A 
ATOM      3  C2  UNL d   1      -3.366   5.727   0.111  0.00  0.00    -0.080 A 
ATOM      4  C3  UNL d   1      -4.435   5.575  -0.767  0.00  0.00     0.150 A 
ATOM      5  C4  UNL d   1      -5.747   5.636  -0.311  0.00  0.00    -0.007 A 
ATOM      6  C5  UNL d   1      -5.998   5.848   1.044  0.00  0.00     0.039 A 
ENDROOT
BRANCH   4   7
ATOM      7  O   UNL d   1      -4.237   5.360  -2.099  0.00  0.00    -0.526 OA
ATOM      8  H5  UNL d   1      -3.281   5.313  -2.265  0.00  0.00     0.418 HD
ENDBRANCH   4   7
TORSDOF 1
ENDMDL
