MODEL 1
REMARK minimizedAffinity -0.813685417
REMARK minimizedRMSD -1
REMARK  1 active torsions:
REMARK  status: ('A' for Active; 'I' for Inactive)
REMARK    1  A    between atoms: C3_4  and  O_7 
ROOT
ATOM      1  C   UNL d   1      -2.569   5.274  -4.544  0.00  0.00    -0.033 A 
ATOM      2  C1  UNL d   1      -1.833   4.165  -4.120  0.00  0.00     0.039 A 
ATOM      3  C2  UNL d   1      -2.436   2.907  -4.060  0.00  0.00    -0.080 A 
ATOM      4  C3  UNL d   1      -3.772   2.771  -4.427  0.00  0.00     0.150 A 
ATOM      5  C4  UNL d   1      -4.509   3.870  -4.854  0.00  0.00    -0.007 A 
ATOM      6  C5  UNL d   1      -3.906   5.126  -4.913  0.00  0.00     0.039 A 
ENDROOT
BRANCH   4   7
ATOM      7  O   UNL d   1      -4.404   1.564  -4.381  0.00  0.00    -0.526 OA
ATOM      8  H5  UNL d   1      -3.779   0.902  -4.040  0.00  0.00     0.418 HD
ENDBRANCH   4   7
TORSDOF 1
ENDMDL
