MODEL 1
REMARK minimizedAffinity 14.3460188
REMARK minimizedRMSD -1
REMARK  1 active torsions:
REMARK  status: ('A' for Active; 'I' for Inactive)
REMARK    1  A    between atoms: C3_4  and  O_7 
ROOT
ATOM      1  C   UNL d   1       0.094   0.984   2.737  0.00  0.00    -0.033 A 
ATOM      2  C1  UNL d   1       0.983   1.707   3.536  0.00  0.00     0.039 A 
ATOM      3  C2  UNL d   1       1.621   2.839   3.025  0.00  0.00    -0.080 A 
ATOM      4  C3  UNL d   1       1.362   3.237   1.717  0.00  0.00     0.150 A 
ATOM      5  C4  UNL d   1       0.475   2.524   0.917  0.00  0.00    -0.007 A 
ATOM      6  C5  UNL d   1      -0.160   1.394   1.428  0.00  0.00     0.039 A 
ENDROOT
BRANCH   4   7
ATOM      7  O   UNL d   1       1.965   4.332   1.173  0.00  0.00    -0.526 OA
ATOM      8  H5  UNL d   1       2.573   4.708   1.832  0.00  0.00     0.418 HD
ENDBRANCH   4   7
TORSDOF 1
ENDMDL
