MODEL 1
REMARK minimizedAffinity 4.16671515
REMARK minimizedRMSD -1
REMARK  1 active torsions:
REMARK  status: ('A' for Active; 'I' for Inactive)
REMARK    1  A    between atoms: C3_4  and  O_7 
ROOT
ATOM      1  C   UNL d   1       4.409  -1.861   0.733  0.00  0.00    -0.033 A 
ATOM      2  C1  UNL d   1       3.357  -2.777   0.668  0.00  0.00     0.039 A 
ATOM      3  C2  UNL d   1       3.624  -4.147   0.617  0.00  0.00    -0.080 A 
ATOM      4  C3  UNL d   1       4.945  -4.587   0.632  0.00  0.00     0.150 A 
ATOM      5  C4  UNL d   1       5.998  -3.680   0.701  0.00  0.00    -0.007 A 
ATOM      6  C5  UNL d   1       5.729  -2.313   0.751  0.00  0.00     0.039 A 
ENDROOT
BRANCH   4   7
ATOM      7  O   UNL d   1       5.255  -5.913   0.579  0.00  0.00    -0.526 OA
ATOM      8  H5  UNL d   1       4.429  -6.419   0.505  0.00  0.00     0.418 HD
ENDBRANCH   4   7
TORSDOF 1
ENDMDL
