MODEL 1
REMARK minimizedAffinity 9.18574429
REMARK minimizedRMSD -1
REMARK  1 active torsions:
REMARK  status: ('A' for Active; 'I' for Inactive)
REMARK    1  A    between atoms: C3_4  and  O_7 
ROOT
ATOM      1  C   UNL d   1       4.011  -1.629   1.167  0.00  0.00    -0.033 A 
ATOM      2  C1  UNL d   1       3.014  -0.944   0.469  0.00  0.00     0.039 A 
ATOM      3  C2  UNL d   1       2.045  -1.653  -0.243  0.00  0.00    -0.080 A 
ATOM      4  C3  UNL d   1       2.082  -3.045  -0.249  0.00  0.00     0.150 A 
ATOM      5  C4  UNL d   1       3.070  -3.734   0.447  0.00  0.00    -0.007 A 
ATOM      6  C5  UNL d   1       4.038  -3.024   1.157  0.00  0.00     0.039 A 
ENDROOT
BRANCH   4   7
ATOM      7  O   UNL d   1       1.161  -3.780  -0.933  0.00  0.00    -0.526 OA
ATOM      8  H5  UNL d   1       0.557  -3.169  -1.389  0.00  0.00     0.418 HD
ENDBRANCH   4   7
TORSDOF 1
ENDMDL
