MODEL 1
REMARK minimizedAffinity 7.72201347
REMARK minimizedRMSD -1
REMARK  1 active torsions:
REMARK  status: ('A' for Active; 'I' for Inactive)
REMARK    1  A    between atoms: C3_4  and  O_7 
ROOT
ATOM      1  C   UNL d   1      -5.987  -4.097   1.340  0.00  0.00    -0.033 A 
ATOM      2  C1  UNL d   1      -5.997  -5.476   1.558  0.00  0.00     0.039 A 
ATOM      3  C2  UNL d   1      -6.000  -5.979   2.861  0.00  0.00    -0.080 A 
ATOM      4  C3  UNL d   1      -5.993  -5.093   3.935  0.00  0.00     0.150 A 
ATOM      5  C4  UNL d   1      -5.987  -3.718   3.725  0.00  0.00    -0.007 A 
ATOM      6  C5  UNL d   1      -5.983  -3.218   2.423  0.00  0.00     0.039 A 
ENDROOT
BRANCH   4   7
ATOM      7  O   UNL d   1      -5.991  -5.537   5.224  0.00  0.00    -0.526 OA
ATOM      8  H5  UNL d   1      -5.967  -6.508   5.215  0.00  0.00     0.418 HD
ENDBRANCH   4   7
TORSDOF 1
ENDMDL
