MODEL 1
REMARK minimizedAffinity 10.3030939
REMARK minimizedRMSD -1
REMARK  1 active torsions:
REMARK  status: ('A' for Active; 'I' for Inactive)
REMARK    1  A    between atoms: C3_4  and  O_7 
ROOT
ATOM      1  C   UNL d   1      -5.575  -4.965   5.403  0.00  0.00    -0.033 A 
ATOM      2  C1  UNL d   1      -5.925  -5.997   4.531  0.00  0.00     0.039 A 
ATOM      3  C2  UNL d   1      -5.992  -5.760   3.156  0.00  0.00    -0.080 A 
ATOM      4  C3  UNL d   1      -5.705  -4.488   2.668  0.00  0.00     0.150 A 
ATOM      5  C4  UNL d   1      -5.352  -3.456   3.531  0.00  0.00    -0.007 A 
ATOM      6  C5  UNL d   1      -5.287  -3.695   4.903  0.00  0.00     0.039 A 
ENDROOT
BRANCH   4   7
ATOM      7  O   UNL d   1      -5.762  -4.207   1.335  0.00  0.00    -0.526 OA
ATOM      8  H5  UNL d   1      -6.047  -5.007   0.864  0.00  0.00     0.418 HD
ENDBRANCH   4   7
TORSDOF 1
ENDMDL
