MODEL 1
REMARK minimizedAffinity 6.56911135
REMARK minimizedRMSD -1
REMARK  1 active torsions:
REMARK  status: ('A' for Active; 'I' for Inactive)
REMARK    1  A    between atoms: C3_4  and  O_7 
ROOT
ATOM      1  C   UNL d   1       3.525  -2.699   0.453  0.00  0.00    -0.033 A 
ATOM      2  C1  UNL d   1       4.393  -1.933   1.235  0.00  0.00     0.039 A 
ATOM      3  C2  UNL d   1       3.882  -0.991   2.130  0.00  0.00    -0.080 A 
ATOM      4  C3  UNL d   1       2.504  -0.825   2.234  0.00  0.00     0.150 A 
ATOM      5  C4  UNL d   1       1.633  -1.587   1.462  0.00  0.00    -0.007 A 
ATOM      6  C5  UNL d   1       2.145  -2.527   0.568  0.00  0.00     0.039 A 
ENDROOT
BRANCH   4   7
ATOM      7  O   UNL d   1       1.958   0.085   3.090  0.00  0.00    -0.526 OA
ATOM      8  H5  UNL d   1       2.680   0.558   3.537  0.00  0.00     0.418 HD
ENDBRANCH   4   7
TORSDOF 1
ENDMDL
