MODEL 1
REMARK minimizedAffinity 12.0511475
REMARK minimizedRMSD -1
REMARK  1 active torsions:
REMARK  status: ('A' for Active; 'I' for Inactive)
REMARK    1  A    between atoms: C3_4  and  O_7 
ROOT
ATOM      1  C   UNL d   1       0.419   1.992   0.472  0.00  0.00    -0.033 A 
ATOM      2  C1  UNL d   1      -0.040   1.728   1.764  0.00  0.00     0.039 A 
ATOM      3  C2  UNL d   1      -1.342   2.075   2.130  0.00  0.00    -0.080 A 
ATOM      4  C3  UNL d   1      -2.174   2.684   1.195  0.00  0.00     0.150 A 
ATOM      5  C4  UNL d   1      -1.725   2.947  -0.095  0.00  0.00    -0.007 A 
ATOM      6  C5  UNL d   1      -0.424   2.601  -0.458  0.00  0.00     0.039 A 
ENDROOT
BRANCH   4   7
ATOM      7  O   UNL d   1      -3.452   3.045   1.506  0.00  0.00    -0.526 OA
ATOM      8  H5  UNL d   1      -3.614   2.828   2.439  0.00  0.00     0.418 HD
ENDBRANCH   4   7
TORSDOF 1
ENDMDL
