MODEL 1
REMARK minimizedAffinity 17.7281513
REMARK minimizedRMSD -1
REMARK  1 active torsions:
REMARK  status: ('A' for Active; 'I' for Inactive)
REMARK    1  A    between atoms: C3_4  and  O_7 
ROOT
ATOM      1  C   UNL d   1      -0.592   2.066   0.595  0.00  0.00    -0.033 A 
ATOM      2  C1  UNL d   1      -1.789   1.672   1.195  0.00  0.00     0.039 A 
ATOM      3  C2  UNL d   1      -2.884   2.539   1.207  0.00  0.00    -0.080 A 
ATOM      4  C3  UNL d   1      -2.768   3.794   0.618  0.00  0.00     0.150 A 
ATOM      5  C4  UNL d   1      -1.579   4.192   0.016  0.00  0.00    -0.007 A 
ATOM      6  C5  UNL d   1      -0.487   3.326   0.005  0.00  0.00     0.039 A 
ENDROOT
BRANCH   4   7
ATOM      7  O   UNL d   1      -3.808   4.676   0.610  0.00  0.00    -0.526 OA
ATOM      8  H5  UNL d   1      -4.554   4.277   1.087  0.00  0.00     0.418 HD
ENDBRANCH   4   7
TORSDOF 1
ENDMDL
