MODEL 1
REMARK minimizedAffinity -0.0456107147
REMARK minimizedRMSD -1
REMARK  0 active torsions:
REMARK  status: ('A' for Active; 'I' for Inactive)
ROOT
ATOM      1  N1  IND d   1      -0.196   5.248  -5.978  0.00  0.00    -0.196 N 
ATOM      2  C2  IND d   1      -0.873   4.060  -5.978  0.00  0.00     0.054 A 
ATOM      3  C3  IND d   1      -0.005   3.024  -6.000  0.00  0.00    -0.031 A 
ATOM      4  C4  IND d   1       2.568   3.045  -5.935  0.00  0.00     0.051 A 
ATOM      5  C5  IND d   1       3.640   3.892  -5.966  0.00  0.00    -0.031 A 
ATOM      6  C6  IND d   1       3.484   5.263  -6.000  0.00  0.00     0.015 A 
ATOM      7  C7  IND d   1       2.246   5.840  -5.993  0.00  0.00    -0.016 A 
ATOM      8  C8  IND d   1       1.155   4.982  -5.969  0.00  0.00    -0.047 A 
ATOM      9  C9  IND d   1       1.307   3.589  -5.977  0.00  0.00    -0.096 A 
ATOM     10  HN1 IND d   1      -0.555   6.029  -5.982  0.00  0.00     0.298 HD
ENDROOT
TORSDOF 0
ENDMDL
