MODEL 1
REMARK minimizedAffinity 13.1842632
REMARK minimizedRMSD -1
REMARK  0 active torsions:
REMARK  status: ('A' for Active; 'I' for Inactive)
ROOT
ATOM      1  N1  IND d   1      -4.011   2.949  -4.498  0.00  0.00    -0.196 N 
ATOM      2  C2  IND d   1      -4.831   3.672  -5.318  0.00  0.00     0.054 A 
ATOM      3  C3  IND d   1      -4.118   4.598  -5.999  0.00  0.00    -0.031 A 
ATOM      4  C4  IND d   1      -1.581   5.033  -5.997  0.00  0.00     0.051 A 
ATOM      5  C5  IND d   1      -0.422   4.650  -5.382  0.00  0.00    -0.031 A 
ATOM      6  C6  IND d   1      -0.400   3.658  -4.422  0.00  0.00     0.015 A 
ATOM      7  C7  IND d   1      -1.539   3.002  -4.050  0.00  0.00    -0.016 A 
ATOM      8  C8  IND d   1      -2.718   3.393  -4.668  0.00  0.00    -0.047 A 
ATOM      9  C9  IND d   1      -2.754   4.428  -5.611  0.00  0.00    -0.096 A 
ATOM     10  HN1 IND d   1      -4.261   2.322  -3.965  0.00  0.00     0.298 HD
ENDROOT
TORSDOF 0
ENDMDL
