MODEL 1
REMARK minimizedAffinity 1.70581698
REMARK minimizedRMSD -1
REMARK  0 active torsions:
REMARK  status: ('A' for Active; 'I' for Inactive)
ROOT
ATOM      1  N1  IND d   1       0.073   5.962  -5.985  0.00  0.00    -0.196 N 
ATOM      2  C2  IND d   1      -1.152   5.356  -5.983  0.00  0.00     0.054 A 
ATOM      3  C3  IND d   1      -1.012   4.012  -6.000  0.00  0.00    -0.031 A 
ATOM      4  C4  IND d   1       1.133   2.590  -5.930  0.00  0.00     0.051 A 
ATOM      5  C5  IND d   1       2.495   2.693  -5.961  0.00  0.00    -0.031 A 
ATOM      6  C6  IND d   1       3.133   3.916  -6.000  0.00  0.00     0.015 A 
ATOM      7  C7  IND d   1       2.429   5.087  -5.997  0.00  0.00    -0.016 A 
ATOM      8  C8  IND d   1       1.045   4.986  -5.973  0.00  0.00    -0.047 A 
ATOM      9  C9  IND d   1       0.391   3.747  -5.977  0.00  0.00    -0.096 A 
ATOM     10  HN1 IND d   1       0.213   6.811  -5.993  0.00  0.00     0.298 HD
ENDROOT
TORSDOF 0
ENDMDL
