MODEL 1
REMARK minimizedAffinity 5.1177721
REMARK minimizedRMSD -1
REMARK  0 active torsions:
REMARK  status: ('A' for Active; 'I' for Inactive)
ROOT
ATOM      1  N1  IND d   1       4.406   4.891  -0.863  0.00  0.00    -0.196 N 
ATOM      2  C2  IND d   1       3.480   5.756  -0.352  0.00  0.00     0.054 A 
ATOM      3  C3  IND d   1       2.234   5.250  -0.495  0.00  0.00    -0.031 A 
ATOM      4  C4  IND d   1       1.492   2.976  -1.446  0.00  0.00     0.051 A 
ATOM      5  C5  IND d   1       1.975   1.859  -2.068  0.00  0.00    -0.031 A 
ATOM      6  C6  IND d   1       3.321   1.691  -2.323  0.00  0.00     0.015 A 
ATOM      7  C7  IND d   1       4.239   2.633  -1.954  0.00  0.00    -0.016 A 
ATOM      8  C8  IND d   1       3.751   3.771  -1.328  0.00  0.00    -0.047 A 
ATOM      9  C9  IND d   1       2.382   3.967  -1.105  0.00  0.00    -0.096 A 
ATOM     10  HN1 IND d   1       5.256   5.023  -0.890  0.00  0.00     0.298 HD
ENDROOT
TORSDOF 0
ENDMDL
