MODEL 1
REMARK minimizedAffinity 7.76134634
REMARK minimizedRMSD -1
REMARK  0 active torsions:
REMARK  status: ('A' for Active; 'I' for Inactive)
ROOT
ATOM      1  N1  IND d   1       0.217  -1.184   1.472  0.00  0.00    -0.196 N 
ATOM      2  C2  IND d   1       0.469   0.053   0.947  0.00  0.00     0.054 A 
ATOM      3  C3  IND d   1      -0.606   0.858   1.103  0.00  0.00    -0.031 A 
ATOM      4  C4  IND d   1      -2.847   0.385   2.279  0.00  0.00     0.051 A 
ATOM      5  C5  IND d   1      -3.557  -0.615   2.881  0.00  0.00    -0.031 A 
ATOM      6  C6  IND d   1      -3.034  -1.880   3.051  0.00  0.00     0.015 A 
ATOM      7  C7  IND d   1      -1.772  -2.191   2.632  0.00  0.00    -0.016 A 
ATOM      8  C8  IND d   1      -1.050  -1.180   2.014  0.00  0.00    -0.047 A 
ATOM      9  C9  IND d   1      -1.591   0.094   1.801  0.00  0.00    -0.096 A 
ATOM     10  HN1 IND d   1       0.758  -1.851   1.465  0.00  0.00     0.298 HD
ENDROOT
TORSDOF 0
ENDMDL
