MODEL 1
REMARK minimizedAffinity -0.217207238
REMARK minimizedRMSD -1
REMARK  0 active torsions:
REMARK  status: ('A' for Active; 'I' for Inactive)
ROOT
ATOM      1  N1  IND d   1      -2.893   4.734  -5.990  0.00  0.00    -0.196 N 
ATOM      2  C2  IND d   1      -2.363   5.994  -5.965  0.00  0.00     0.054 A 
ATOM      3  C3  IND d   1      -1.013   5.936  -5.927  0.00  0.00    -0.031 A 
ATOM      4  C4  IND d   1       0.539   3.883  -6.000  0.00  0.00     0.051 A 
ATOM      5  C5  IND d   1       0.519   2.517  -5.989  0.00  0.00    -0.031 A 
ATOM      6  C6  IND d   1      -0.663   1.805  -5.980  0.00  0.00     0.015 A 
ATOM      7  C7  IND d   1      -1.875   2.436  -5.994  0.00  0.00    -0.016 A 
ATOM      8  C8  IND d   1      -1.858   3.824  -5.998  0.00  0.00    -0.047 A 
ATOM      9  C9  IND d   1      -0.662   4.552  -5.964  0.00  0.00    -0.096 A 
ATOM     10  HN1 IND d   1      -3.731   4.542  -5.999  0.00  0.00     0.298 HD
ENDROOT
TORSDOF 0
ENDMDL
