MODEL 1
REMARK minimizedAffinity -1.71745133
REMARK minimizedRMSD -1
REMARK  0 active torsions:
REMARK  status: ('A' for Active; 'I' for Inactive)
ROOT
ATOM      1  N1  IND d   1       0.330   5.078  -6.000  0.00  0.00    -0.196 N 
ATOM      2  C2  IND d   1       1.238   4.056  -5.972  0.00  0.00     0.054 A 
ATOM      3  C3  IND d   1       0.602   2.864  -5.924  0.00  0.00    -0.031 A 
ATOM      4  C4  IND d   1      -1.920   2.351  -5.986  0.00  0.00     0.051 A 
ATOM      5  C5  IND d   1      -3.143   2.960  -5.974  0.00  0.00    -0.031 A 
ATOM      6  C6  IND d   1      -3.274   4.334  -5.973  0.00  0.00     0.015 A 
ATOM      7  C7  IND d   1      -2.181   5.153  -5.995  0.00  0.00    -0.016 A 
ATOM      8  C8  IND d   1      -0.937   4.539  -6.000  0.00  0.00    -0.047 A 
ATOM      9  C9  IND d   1      -0.798   3.145  -5.958  0.00  0.00    -0.096 A 
ATOM     10  HN1 IND d   1       0.520   5.916  -6.014  0.00  0.00     0.298 HD
ENDROOT
TORSDOF 0
ENDMDL
