MODEL 1
REMARK minimizedAffinity -2.36406994
REMARK minimizedRMSD -1
REMARK  0 active torsions:
REMARK  status: ('A' for Active; 'I' for Inactive)
ROOT
ATOM      1  N1  IND d   1      -2.532   1.834  -5.988  0.00  0.00    -0.196 N 
ATOM      2  C2  IND d   1      -3.484   2.814  -5.972  0.00  0.00     0.054 A 
ATOM      3  C3  IND d   1      -2.903   4.034  -5.936  0.00  0.00    -0.031 A 
ATOM      4  C4  IND d   1      -0.406   4.658  -6.000  0.00  0.00     0.051 A 
ATOM      5  C5  IND d   1       0.844   4.105  -5.980  0.00  0.00    -0.031 A 
ATOM      6  C6  IND d   1       1.036   2.738  -5.964  0.00  0.00     0.015 A 
ATOM      7  C7  IND d   1      -0.019   1.871  -5.979  0.00  0.00    -0.016 A 
ATOM      8  C8  IND d   1      -1.290   2.429  -5.992  0.00  0.00    -0.047 A 
ATOM      9  C9  IND d   1      -1.491   3.815  -5.965  0.00  0.00    -0.096 A 
ATOM     10  HN1 IND d   1      -2.683   0.987  -5.994  0.00  0.00     0.298 HD
ENDROOT
TORSDOF 0
ENDMDL
