MODEL 1
REMARK minimizedAffinity -1.9178735
REMARK minimizedRMSD -1
REMARK  0 active torsions:
REMARK  status: ('A' for Active; 'I' for Inactive)
ROOT
ATOM      1  N1  IND d   1       0.674   4.991  -5.983  0.00  0.00    -0.196 N 
ATOM      2  C2  IND d   1       1.419   3.845  -5.957  0.00  0.00     0.054 A 
ATOM      3  C3  IND d   1       0.612   2.760  -5.921  0.00  0.00    -0.031 A 
ATOM      4  C4  IND d   1      -1.958   2.630  -6.000  0.00  0.00     0.051 A 
ATOM      5  C5  IND d   1      -3.077   3.415  -5.991  0.00  0.00    -0.031 A 
ATOM      6  C6  IND d   1      -3.001   4.793  -5.981  0.00  0.00     0.015 A 
ATOM      7  C7  IND d   1      -1.798   5.440  -5.992  0.00  0.00    -0.016 A 
ATOM      8  C8  IND d   1      -0.660   4.647  -5.994  0.00  0.00    -0.047 A 
ATOM      9  C9  IND d   1      -0.730   3.248  -5.961  0.00  0.00    -0.096 A 
ATOM     10  HN1 IND d   1       0.986   5.792  -5.991  0.00  0.00     0.298 HD
ENDROOT
TORSDOF 0
ENDMDL
