MODEL 1
REMARK minimizedAffinity 7.37424898
REMARK minimizedRMSD -1
REMARK  0 active torsions:
REMARK  status: ('A' for Active; 'I' for Inactive)
ROOT
ATOM      1  N1  IND d   1       0.544   5.446  -5.793  0.00  0.00    -0.196 N 
ATOM      2  C2  IND d   1       1.238   4.349  -5.363  0.00  0.00     0.054 A 
ATOM      3  C3  IND d   1       0.386   3.401  -4.913  0.00  0.00    -0.031 A 
ATOM      4  C4  IND d   1      -2.189   3.397  -4.884  0.00  0.00     0.051 A 
ATOM      5  C5  IND d   1      -3.270   4.192  -5.140  0.00  0.00    -0.031 A 
ATOM      6  C6  IND d   1      -3.133   5.470  -5.641  0.00  0.00     0.015 A 
ATOM      7  C7  IND d   1      -1.904   6.000  -5.915  0.00  0.00    -0.016 A 
ATOM      8  C8  IND d   1      -0.803   5.198  -5.648  0.00  0.00    -0.047 A 
ATOM      9  C9  IND d   1      -0.934   3.915  -5.101  0.00  0.00    -0.096 A 
ATOM     10  HN1 IND d   1       0.892   6.170  -6.103  0.00  0.00     0.298 HD
ENDROOT
TORSDOF 0
ENDMDL
