MODEL 1
REMARK minimizedAffinity 10.1791677
REMARK minimizedRMSD -1
REMARK  0 active torsions:
REMARK  status: ('A' for Active; 'I' for Inactive)
ROOT
ATOM      1  N1  IND d   1      -1.419   3.842  -5.521  0.00  0.00    -0.196 N 
ATOM      2  C2  IND d   1      -0.901   5.092  -5.716  0.00  0.00     0.054 A 
ATOM      3  C3  IND d   1      -1.891   5.979  -5.965  0.00  0.00    -0.031 A 
ATOM      4  C4  IND d   1      -4.439   5.616  -6.000  0.00  0.00     0.051 A 
ATOM      5  C5  IND d   1      -5.389   4.638  -5.915  0.00  0.00    -0.031 A 
ATOM      6  C6  IND d   1      -5.058   3.318  -5.686  0.00  0.00     0.015 A 
ATOM      7  C7  IND d   1      -3.759   2.927  -5.523  0.00  0.00    -0.016 A 
ATOM      8  C8  IND d   1      -2.791   3.917  -5.616  0.00  0.00    -0.047 A 
ATOM      9  C9  IND d   1      -3.118   5.251  -5.890  0.00  0.00    -0.096 A 
ATOM     10  HN1 IND d   1      -0.964   3.129  -5.366  0.00  0.00     0.298 HD
ENDROOT
TORSDOF 0
ENDMDL
