MODEL 1
REMARK minimizedAffinity -3.26169014
REMARK minimizedRMSD -1
REMARK  0 active torsions:
REMARK  status: ('A' for Active; 'I' for Inactive)
ROOT
ATOM      1  N1  IND d   1       0.982   2.664  -5.985  0.00  0.00    -0.196 N 
ATOM      2  C2  IND d   1      -0.219   3.317  -5.957  0.00  0.00     0.054 A 
ATOM      3  C3  IND d   1      -0.027   4.654  -5.919  0.00  0.00    -0.031 A 
ATOM      4  C4  IND d   1       2.170   5.994  -5.997  0.00  0.00     0.051 A 
ATOM      5  C5  IND d   1       3.528   5.838  -5.989  0.00  0.00    -0.031 A 
ATOM      6  C6  IND d   1       4.118   4.591  -5.981  0.00  0.00     0.015 A 
ATOM      7  C7  IND d   1       3.369   3.448  -5.993  0.00  0.00    -0.016 A 
ATOM      8  C8  IND d   1       1.990   3.603  -5.995  0.00  0.00    -0.047 A 
ATOM      9  C9  IND d   1       1.385   4.866  -5.959  0.00  0.00    -0.096 A 
ATOM     10  HN1 IND d   1       1.089   1.811  -5.994  0.00  0.00     0.298 HD
ENDROOT
TORSDOF 0
ENDMDL
