MODEL 1
REMARK minimizedAffinity -2.67957973
REMARK minimizedRMSD -1
REMARK  0 active torsions:
REMARK  status: ('A' for Active; 'I' for Inactive)
ROOT
ATOM      1  N1  IND d   1      -0.526   5.654  -5.983  0.00  0.00    -0.196 N 
ATOM      2  C2  IND d   1       0.348   4.603  -5.997  0.00  0.00     0.054 A 
ATOM      3  C3  IND d   1      -0.326   3.431  -5.968  0.00  0.00    -0.031 A 
ATOM      4  C4  IND d   1      -2.865   3.003  -6.000  0.00  0.00     0.051 A 
ATOM      5  C5  IND d   1      -4.067   3.652  -5.952  0.00  0.00    -0.031 A 
ATOM      6  C6  IND d   1      -4.152   5.028  -5.913  0.00  0.00     0.015 A 
ATOM      7  C7  IND d   1      -3.033   5.812  -5.934  0.00  0.00    -0.016 A 
ATOM      8  C8  IND d   1      -1.810   5.157  -5.975  0.00  0.00    -0.047 A 
ATOM      9  C9  IND d   1      -1.717   3.759  -5.971  0.00  0.00    -0.096 A 
ATOM     10  HN1 IND d   1      -0.309   6.486  -5.980  0.00  0.00     0.298 HD
ENDROOT
TORSDOF 0
ENDMDL
