MODEL 1
REMARK minimizedAffinity -1.67210567
REMARK minimizedRMSD -1
REMARK  0 active torsions:
REMARK  status: ('A' for Active; 'I' for Inactive)
ROOT
ATOM      1  N1  IND d   1      -0.026   5.102  -5.984  0.00  0.00    -0.196 N 
ATOM      2  C2  IND d   1       0.758   3.982  -5.964  0.00  0.00     0.054 A 
ATOM      3  C3  IND d   1      -0.011   2.870  -5.929  0.00  0.00    -0.031 A 
ATOM      4  C4  IND d   1      -2.575   2.652  -6.000  0.00  0.00     0.051 A 
ATOM      5  C5  IND d   1      -3.721   3.397  -5.985  0.00  0.00    -0.031 A 
ATOM      6  C6  IND d   1      -3.693   4.777  -5.971  0.00  0.00     0.015 A 
ATOM      7  C7  IND d   1      -2.513   5.466  -5.984  0.00  0.00    -0.016 A 
ATOM      8  C8  IND d   1      -1.348   4.712  -5.992  0.00  0.00    -0.047 A 
ATOM      9  C9  IND d   1      -1.369   3.312  -5.963  0.00  0.00    -0.096 A 
ATOM     10  HN1 IND d   1       0.258   5.913  -5.991  0.00  0.00     0.298 HD
ENDROOT
TORSDOF 0
ENDMDL
