MODEL 1
REMARK minimizedAffinity 3.79503059
REMARK minimizedRMSD -1
REMARK  0 active torsions:
REMARK  status: ('A' for Active; 'I' for Inactive)
ROOT
ATOM      1  N1  IND d   1      -1.373   1.872  -6.000  0.00  0.00    -0.196 N 
ATOM      2  C2  IND d   1      -0.031   1.614  -5.996  0.00  0.00     0.054 A 
ATOM      3  C3  IND d   1       0.670   2.770  -6.000  0.00  0.00    -0.031 A 
ATOM      4  C4  IND d   1      -0.179   5.198  -5.911  0.00  0.00     0.051 A 
ATOM      5  C5  IND d   1      -1.327   5.940  -5.939  0.00  0.00    -0.031 A 
ATOM      6  C6  IND d   1      -2.574   5.351  -5.987  0.00  0.00     0.015 A 
ATOM      7  C7  IND d   1      -2.721   3.993  -5.997  0.00  0.00    -0.016 A 
ATOM      8  C8  IND d   1      -1.557   3.237  -5.976  0.00  0.00    -0.047 A 
ATOM      9  C9  IND d   1      -0.288   3.829  -5.970  0.00  0.00    -0.096 A 
ATOM     10  HN1 IND d   1      -1.998   1.281  -6.015  0.00  0.00     0.298 HD
ENDROOT
TORSDOF 0
ENDMDL
