MODEL 1
REMARK minimizedAffinity 6.07564545
REMARK minimizedRMSD -1
REMARK  0 active torsions:
REMARK  status: ('A' for Active; 'I' for Inactive)
ROOT
ATOM      1  C   UNL d   1       0.532  -0.432   0.732  0.00  0.00     0.077 C 
ATOM      2  C1  UNL d   1       1.314  -0.054   1.955  0.00  0.00    -0.074 A 
ATOM      3  C2  UNL d   1       1.533  -0.978   2.982  0.00  0.00    -0.005 A 
ATOM      4  C3  UNL d   1       2.270  -0.615   4.109  0.00  0.00     0.006 A 
ATOM      5  C4  UNL d   1       2.795   0.674   4.220  0.00  0.00    -0.005 A 
ATOM      6  C5  UNL d   1       2.587   1.610   3.202  0.00  0.00    -0.074 A 
ATOM      7  C6  UNL d   1       3.152   2.996   3.301  0.00  0.00     0.077 C 
ATOM      8  C7  UNL d   1       1.851   1.236   2.070  0.00  0.00    -0.001 A 
ENDROOT
TORSDOF 0
ENDMDL
