MODEL 1
REMARK minimizedAffinity -4.22430372
REMARK minimizedRMSD -1
REMARK  0 active torsions:
REMARK  status: ('A' for Active; 'I' for Inactive)
ROOT
ATOM      1  C   UNL d   1      -2.124   0.875  -1.163  0.00  0.00     0.077 C 
ATOM      2  C1  UNL d   1      -0.843   0.364  -0.574  0.00  0.00    -0.074 A 
ATOM      3  C2  UNL d   1      -0.700  -0.981  -0.221  0.00  0.00    -0.005 A 
ATOM      4  C3  UNL d   1       0.501  -1.443   0.318  0.00  0.00     0.006 A 
ATOM      5  C4  UNL d   1       1.569  -0.566   0.508  0.00  0.00    -0.005 A 
ATOM      6  C5  UNL d   1       1.445   0.783   0.160  0.00  0.00    -0.074 A 
ATOM      7  C6  UNL d   1       2.586   1.737   0.350  0.00  0.00     0.077 C 
ATOM      8  C7  UNL d   1       0.237   1.238  -0.386  0.00  0.00    -0.001 A 
ENDROOT
TORSDOF 0
ENDMDL
