MODEL 1
REMARK minimizedAffinity -0.923848689
REMARK minimizedRMSD -1
REMARK  0 active torsions:
REMARK  status: ('A' for Active; 'I' for Inactive)
ROOT
ATOM      1  C   UNL d   1      -3.755   2.976  -3.231  0.00  0.00     0.077 C 
ATOM      2  C1  UNL d   1      -3.145   1.654  -2.871  0.00  0.00    -0.074 A 
ATOM      3  C2  UNL d   1      -2.926   0.674  -3.845  0.00  0.00    -0.005 A 
ATOM      4  C3  UNL d   1      -2.349  -0.547  -3.497  0.00  0.00     0.006 A 
ATOM      5  C4  UNL d   1      -1.986  -0.801  -2.174  0.00  0.00    -0.005 A 
ATOM      6  C5  UNL d   1      -2.196   0.167  -1.187  0.00  0.00    -0.074 A 
ATOM      7  C6  UNL d   1      -1.803  -0.086   0.238  0.00  0.00     0.077 C 
ATOM      8  C7  UNL d   1      -2.770   1.395  -1.546  0.00  0.00    -0.001 A 
ENDROOT
TORSDOF 0
ENDMDL
