MODEL 1
REMARK minimizedAffinity -2.53303361
REMARK minimizedRMSD -1
REMARK  0 active torsions:
REMARK  status: ('A' for Active; 'I' for Inactive)
ROOT
ATOM      1  C   UNL d   1       3.312  -0.074   0.787  0.00  0.00     0.077 C 
ATOM      2  C1  UNL d   1       1.917   0.317   0.399  0.00  0.00    -0.074 A 
ATOM      3  C2  UNL d   1       1.078  -0.581  -0.268  0.00  0.00    -0.005 A 
ATOM      4  C3  UNL d   1      -0.220  -0.206  -0.614  0.00  0.00     0.006 A 
ATOM      5  C4  UNL d   1      -0.692   1.068  -0.297  0.00  0.00    -0.005 A 
ATOM      6  C5  UNL d   1       0.132   1.979   0.372  0.00  0.00    -0.074 A 
ATOM      7  C6  UNL d   1      -0.362   3.349   0.729  0.00  0.00     0.077 C 
ATOM      8  C7  UNL d   1       1.433   1.593   0.722  0.00  0.00    -0.001 A 
ENDROOT
TORSDOF 0
ENDMDL
