MODEL 1
REMARK minimizedAffinity -0.377844512
REMARK minimizedRMSD -1
REMARK  0 active torsions:
REMARK  status: ('A' for Active; 'I' for Inactive)
ROOT
ATOM      1  C   UNL d   1       2.443   1.527   2.089  0.00  0.00     0.077 C 
ATOM      2  C1  UNL d   1       1.379   0.772   1.349  0.00  0.00    -0.074 A 
ATOM      3  C2  UNL d   1       0.924   1.210   0.101  0.00  0.00    -0.005 A 
ATOM      4  C3  UNL d   1      -0.059   0.492  -0.580  0.00  0.00     0.006 A 
ATOM      5  C4  UNL d   1      -0.596  -0.668  -0.022  0.00  0.00    -0.005 A 
ATOM      6  C5  UNL d   1      -0.153  -1.122   1.224  0.00  0.00    -0.074 A 
ATOM      7  C6  UNL d   1      -0.712  -2.373   1.835  0.00  0.00     0.077 C 
ATOM      8  C7  UNL d   1       0.841  -0.399   1.900  0.00  0.00    -0.001 A 
ENDROOT
TORSDOF 0
ENDMDL
