MODEL 1
REMARK minimizedAffinity -1.35365748
REMARK minimizedRMSD -1
REMARK  0 active torsions:
REMARK  status: ('A' for Active; 'I' for Inactive)
ROOT
ATOM      1  C   UNL d   1       0.963   1.147  -0.028  0.00  0.00     0.077 C 
ATOM      2  C1  UNL d   1      -0.367   0.467  -0.168  0.00  0.00    -0.074 A 
ATOM      3  C2  UNL d   1      -1.015  -0.079   0.944  0.00  0.00    -0.005 A 
ATOM      4  C3  UNL d   1      -2.256  -0.700   0.801  0.00  0.00     0.006 A 
ATOM      5  C4  UNL d   1      -2.859  -0.781  -0.455  0.00  0.00    -0.005 A 
ATOM      6  C5  UNL d   1      -2.227  -0.240  -1.578  0.00  0.00    -0.074 A 
ATOM      7  C6  UNL d   1      -2.866  -0.309  -2.933  0.00  0.00     0.077 C 
ATOM      8  C7  UNL d   1      -0.983   0.389  -1.425  0.00  0.00    -0.001 A 
ENDROOT
TORSDOF 0
ENDMDL
