MODEL 1
REMARK minimizedAffinity -5.28962421
REMARK minimizedRMSD -1
REMARK  0 active torsions:
REMARK  status: ('A' for Active; 'I' for Inactive)
ROOT
ATOM      1  C   UNL d   1       1.146  -2.932   1.932  0.00  0.00     0.077 C 
ATOM      2  C1  UNL d   1       1.067  -1.528   1.409  0.00  0.00    -0.074 A 
ATOM      3  C2  UNL d   1       2.147  -0.649   1.543  0.00  0.00    -0.005 A 
ATOM      4  C3  UNL d   1       2.062   0.650   1.043  0.00  0.00     0.006 A 
ATOM      5  C4  UNL d   1       0.898   1.083   0.405  0.00  0.00    -0.005 A 
ATOM      6  C5  UNL d   1      -0.191   0.218   0.261  0.00  0.00    -0.074 A 
ATOM      7  C6  UNL d   1      -1.445   0.663  -0.431  0.00  0.00     0.077 C 
ATOM      8  C7  UNL d   1      -0.095  -1.089   0.760  0.00  0.00    -0.001 A 
ENDROOT
TORSDOF 0
ENDMDL
