MODEL 1
REMARK minimizedAffinity -4.47678375
REMARK minimizedRMSD -1
REMARK  0 active torsions:
REMARK  status: ('A' for Active; 'I' for Inactive)
ROOT
ATOM      1  C   UNL d   1      -0.818   1.179  -0.697  0.00  0.00     0.077 C 
ATOM      2  C1  UNL d   1       0.422   0.488  -0.211  0.00  0.00    -0.074 A 
ATOM      3  C2  UNL d   1       1.674   1.101  -0.315  0.00  0.00    -0.005 A 
ATOM      4  C3  UNL d   1       2.817   0.449   0.150  0.00  0.00     0.006 A 
ATOM      5  C4  UNL d   1       2.718  -0.819   0.723  0.00  0.00    -0.005 A 
ATOM      6  C5  UNL d   1       1.474  -1.447   0.836  0.00  0.00    -0.074 A 
ATOM      7  C6  UNL d   1       1.349  -2.806   1.459  0.00  0.00     0.077 C 
ATOM      8  C7  UNL d   1       0.330  -0.784   0.373  0.00  0.00    -0.001 A 
ENDROOT
TORSDOF 0
ENDMDL
