MODEL 1
REMARK minimizedAffinity -5.40659142
REMARK minimizedRMSD -1
REMARK  0 active torsions:
REMARK  status: ('A' for Active; 'I' for Inactive)
ROOT
ATOM      1  C   UNL d   1      -1.576  -2.215   0.813  0.00  0.00     0.077 C 
ATOM      2  C1  UNL d   1      -0.586  -1.100   0.650  0.00  0.00    -0.074 A 
ATOM      3  C2  UNL d   1      -0.997   0.236   0.683  0.00  0.00    -0.005 A 
ATOM      4  C3  UNL d   1      -0.063   1.263   0.539  0.00  0.00     0.006 A 
ATOM      5  C4  UNL d   1       1.288   0.963   0.362  0.00  0.00    -0.005 A 
ATOM      6  C5  UNL d   1       1.718  -0.367   0.328  0.00  0.00    -0.074 A 
ATOM      7  C6  UNL d   1       3.168  -0.706   0.148  0.00  0.00     0.077 C 
ATOM      8  C7  UNL d   1       0.774  -1.393   0.480  0.00  0.00    -0.001 A 
ENDROOT
TORSDOF 0
ENDMDL
