MODEL 1
REMARK minimizedAffinity -1.45857847
REMARK minimizedRMSD -1
REMARK  0 active torsions:
REMARK  status: ('A' for Active; 'I' for Inactive)
ROOT
ATOM      1  N1  IND d   1       0.901   0.059   1.932  0.00  0.00    -0.196 N 
ATOM      2  C2  IND d   1      -0.112   0.768   1.349  0.00  0.00     0.054 A 
ATOM      3  C3  IND d   1      -1.311   0.295   1.756  0.00  0.00    -0.031 A 
ATOM      4  C4  IND d   1      -1.845  -1.569   3.450  0.00  0.00     0.051 A 
ATOM      5  C5  IND d   1      -1.249  -2.530   4.218  0.00  0.00    -0.031 A 
ATOM      6  C6  IND d   1       0.122  -2.678   4.266  0.00  0.00     0.015 A 
ATOM      7  C7  IND d   1       0.952  -1.860   3.553  0.00  0.00    -0.016 A 
ATOM      8  C8  IND d   1       0.350  -0.888   2.767  0.00  0.00    -0.047 A 
ATOM      9  C9  IND d   1      -1.042  -0.760   2.682  0.00  0.00    -0.096 A 
ATOM     10  HN1 IND d   1       1.742   0.183   1.798  0.00  0.00     0.298 HD
ENDROOT
TORSDOF 0
ENDMDL
