MODEL 1
REMARK minimizedAffinity 3.63351941
REMARK minimizedRMSD -1
REMARK  0 active torsions:
REMARK  status: ('A' for Active; 'I' for Inactive)
ROOT
ATOM      1  N1  IND d   1      -0.051  -2.732   4.127  0.00  0.00    -0.196 N 
ATOM      2  C2  IND d   1       1.242  -2.536   4.525  0.00  0.00     0.054 A 
ATOM      3  C3  IND d   1       1.802  -1.525   3.823  0.00  0.00    -0.031 A 
ATOM      4  C4  IND d   1       0.750   0.010   2.044  0.00  0.00     0.051 A 
ATOM      5  C5  IND d   1      -0.395   0.194   1.321  0.00  0.00    -0.031 A 
ATOM      6  C6  IND d   1      -1.508  -0.602   1.502  0.00  0.00     0.015 A 
ATOM      7  C7  IND d   1      -1.520  -1.610   2.425  0.00  0.00    -0.016 A 
ATOM      8  C8  IND d   1      -0.356  -1.804   3.156  0.00  0.00    -0.047 A 
ATOM      9  C9  IND d   1       0.790  -1.026   2.947  0.00  0.00    -0.096 A 
ATOM     10  HN1 IND d   1      -0.584  -3.334   4.432  0.00  0.00     0.298 HD
ENDROOT
TORSDOF 0
ENDMDL
