MODEL 1
REMARK minimizedAffinity 1.97141302
REMARK minimizedRMSD -1
REMARK  0 active torsions:
REMARK  status: ('A' for Active; 'I' for Inactive)
ROOT
ATOM      1  N1  IND d   1      -2.066  -2.271   4.371  0.00  0.00    -0.196 N 
ATOM      2  C2  IND d   1      -2.862  -1.820   3.355  0.00  0.00     0.054 A 
ATOM      3  C3  IND d   1      -2.125  -1.143   2.446  0.00  0.00    -0.031 A 
ATOM      4  C4  IND d   1       0.417  -0.740   2.374  0.00  0.00     0.051 A 
ATOM      5  C5  IND d   1       1.558  -0.928   3.102  0.00  0.00    -0.031 A 
ATOM      6  C6  IND d   1       1.550  -1.589   4.313  0.00  0.00     0.015 A 
ATOM      7  C7  IND d   1       0.397  -2.099   4.838  0.00  0.00    -0.016 A 
ATOM      8  C8  IND d   1      -0.766  -1.903   4.106  0.00  0.00    -0.047 A 
ATOM      9  C9  IND d   1      -0.770  -1.196   2.896  0.00  0.00    -0.096 A 
ATOM     10  HN1 IND d   1      -2.334  -2.710   5.061  0.00  0.00     0.298 HD
ENDROOT
TORSDOF 0
ENDMDL
