MODEL 1
REMARK minimizedAffinity 1.29170048
REMARK minimizedRMSD -1
REMARK  0 active torsions:
REMARK  status: ('A' for Active; 'I' for Inactive)
ROOT
ATOM      1  N1  IND d   1      -2.137  -2.783   3.671  0.00  0.00    -0.196 N 
ATOM      2  C2  IND d   1      -3.111  -2.063   3.036  0.00  0.00     0.054 A 
ATOM      3  C3  IND d   1      -2.588  -0.938   2.499  0.00  0.00    -0.031 A 
ATOM      4  C4  IND d   1      -0.143  -0.131   2.451  0.00  0.00     0.051 A 
ATOM      5  C5  IND d   1       1.101  -0.434   2.929  0.00  0.00    -0.031 A 
ATOM      6  C6  IND d   1       1.334  -1.560   3.692  0.00  0.00     0.015 A 
ATOM      7  C7  IND d   1       0.330  -2.435   3.997  0.00  0.00    -0.016 A 
ATOM      8  C8  IND d   1      -0.936  -2.126   3.519  0.00  0.00    -0.047 A 
ATOM      9  C9  IND d   1      -1.187  -0.963   2.780  0.00  0.00    -0.096 A 
ATOM     10  HN1 IND d   1      -2.256  -3.523   4.094  0.00  0.00     0.298 HD
ENDROOT
TORSDOF 0
ENDMDL
