MODEL 1
REMARK minimizedAffinity 1.06535077
REMARK minimizedRMSD -1
REMARK  0 active torsions:
REMARK  status: ('A' for Active; 'I' for Inactive)
ROOT
ATOM      1  N1  IND d   1      -1.856  -0.816   2.657  0.00  0.00    -0.196 N 
ATOM      2  C2  IND d   1      -1.779  -0.123   1.481  0.00  0.00     0.054 A 
ATOM      3  C3  IND d   1      -0.488   0.029   1.109  0.00  0.00    -0.031 A 
ATOM      4  C4  IND d   1       1.652  -0.867   2.226  0.00  0.00     0.051 A 
ATOM      5  C5  IND d   1       2.091  -1.525   3.340  0.00  0.00    -0.031 A 
ATOM      6  C6  IND d   1       1.219  -1.992   4.302  0.00  0.00     0.015 A 
ATOM      7  C7  IND d   1      -0.132  -1.828   4.179  0.00  0.00    -0.016 A 
ATOM      8  C8  IND d   1      -0.581  -1.154   3.052  0.00  0.00    -0.047 A 
ATOM      9  C9  IND d   1       0.303  -0.640   2.094  0.00  0.00    -0.096 A 
ATOM     10  HN1 IND d   1      -2.581  -1.008   3.079  0.00  0.00     0.298 HD
ENDROOT
TORSDOF 0
ENDMDL
