MODEL 1
REMARK minimizedAffinity 4.5563283
REMARK minimizedRMSD -1
REMARK  0 active torsions:
REMARK  status: ('A' for Active; 'I' for Inactive)
ROOT
ATOM      1  N1  IND d   1       0.304  -2.852   3.923  0.00  0.00    -0.196 N 
ATOM      2  C2  IND d   1       1.510  -2.220   4.044  0.00  0.00     0.054 A 
ATOM      3  C3  IND d   1       1.469  -1.010   3.443  0.00  0.00    -0.031 A 
ATOM      4  C4  IND d   1      -0.502   0.178   2.289  0.00  0.00     0.051 A 
ATOM      5  C5  IND d   1      -1.797  -0.017   1.899  0.00  0.00    -0.031 A 
ATOM      6  C6  IND d   1      -2.473  -1.189   2.171  0.00  0.00     0.015 A 
ATOM      7  C7  IND d   1      -1.879  -2.211   2.857  0.00  0.00    -0.016 A 
ATOM      8  C8  IND d   1      -0.562  -2.019   3.249  0.00  0.00    -0.047 A 
ATOM      9  C9  IND d   1       0.143  -0.849   2.938  0.00  0.00    -0.096 A 
ATOM     10  HN1 IND d   1       0.118  -3.638   4.218  0.00  0.00     0.298 HD
ENDROOT
TORSDOF 0
ENDMDL
