MODEL 1
REMARK minimizedAffinity -0.760545552
REMARK minimizedRMSD -1
REMARK  0 active torsions:
REMARK  status: ('A' for Active; 'I' for Inactive)
ROOT
ATOM      1  N1  IND d   1      -1.544  -0.402   2.772  0.00  0.00    -0.196 N 
ATOM      2  C2  IND d   1      -1.412   0.323   1.620  0.00  0.00     0.054 A 
ATOM      3  C3  IND d   1      -0.117   0.361   1.234  0.00  0.00    -0.031 A 
ATOM      4  C4  IND d   1       1.938  -0.778   2.287  0.00  0.00     0.051 A 
ATOM      5  C5  IND d   1       2.323  -1.516   3.371  0.00  0.00    -0.031 A 
ATOM      6  C6  IND d   1       1.420  -1.931   4.328  0.00  0.00     0.015 A 
ATOM      7  C7  IND d   1       0.091  -1.632   4.231  0.00  0.00    -0.016 A 
ATOM      8  C8  IND d   1      -0.303  -0.876   3.136  0.00  0.00    -0.047 A 
ATOM      9  C9  IND d   1       0.616  -0.417   2.183  0.00  0.00    -0.096 A 
ATOM     10  HN1 IND d   1      -2.278  -0.538   3.198  0.00  0.00     0.298 HD
ENDROOT
TORSDOF 0
ENDMDL
