MODEL 1
REMARK minimizedAffinity -2.74913001
REMARK minimizedRMSD -1
REMARK  0 active torsions:
REMARK  status: ('A' for Active; 'I' for Inactive)
ROOT
ATOM      1  N1  IND d   1       1.774  -1.918   3.826  0.00  0.00    -0.196 N 
ATOM      2  C2  IND d   1       1.020  -2.639   4.709  0.00  0.00     0.054 A 
ATOM      3  C3  IND d   1      -0.296  -2.401   4.507  0.00  0.00    -0.031 A 
ATOM      4  C4  IND d   1      -1.440  -0.945   2.719  0.00  0.00     0.051 A 
ATOM      5  C5  IND d   1      -1.166  -0.064   1.711  0.00  0.00    -0.031 A 
ATOM      6  C6  IND d   1       0.128   0.248   1.347  0.00  0.00     0.015 A 
ATOM      7  C7  IND d   1       1.201  -0.320   1.973  0.00  0.00    -0.016 A 
ATOM      8  C8  IND d   1       0.927  -1.210   3.002  0.00  0.00    -0.047 A 
ATOM      9  C9  IND d   1      -0.384  -1.498   3.404  0.00  0.00    -0.096 A 
ATOM     10  HN1 IND d   1       2.633  -1.908   3.790  0.00  0.00     0.298 HD
ENDROOT
TORSDOF 0
ENDMDL
