MODEL 1
REMARK minimizedAffinity 7.65431356
REMARK minimizedRMSD -1
REMARK  0 active torsions:
REMARK  status: ('A' for Active; 'I' for Inactive)
ROOT
ATOM      1  N1  IND d   1      -0.370  -5.095  -2.254  0.00  0.00    -0.196 N 
ATOM      2  C2  IND d   1       0.689  -4.505  -1.622  0.00  0.00     0.054 A 
ATOM      3  C3  IND d   1       1.725  -4.359  -2.479  0.00  0.00    -0.031 A 
ATOM      4  C4  IND d   1       1.865  -4.923  -4.987  0.00  0.00     0.051 A 
ATOM      5  C5  IND d   1       1.162  -5.512  -5.999  0.00  0.00    -0.031 A 
ATOM      6  C6  IND d   1      -0.115  -6.000  -5.812  0.00  0.00     0.015 A 
ATOM      7  C7  IND d   1      -0.744  -5.906  -4.603  0.00  0.00    -0.016 A 
ATOM      8  C8  IND d   1      -0.029  -5.314  -3.570  0.00  0.00    -0.047 A 
ATOM      9  C9  IND d   1       1.283  -4.856  -3.743  0.00  0.00    -0.096 A 
ATOM     10  HN1 IND d   1      -1.123  -5.295  -1.890  0.00  0.00     0.298 HD
ENDROOT
TORSDOF 0
ENDMDL
