MODEL 1
REMARK minimizedAffinity 2.76535106
REMARK minimizedRMSD -1
REMARK  0 active torsions:
REMARK  status: ('A' for Active; 'I' for Inactive)
ROOT
ATOM      1  N1  IND d   1       1.628  -4.574  -2.527  0.00  0.00    -0.196 N 
ATOM      2  C2  IND d   1       0.488  -4.234  -1.854  0.00  0.00     0.054 A 
ATOM      3  C3  IND d   1      -0.600  -4.487  -2.615  0.00  0.00    -0.031 A 
ATOM      4  C4  IND d   1      -0.750  -5.552  -4.954  0.00  0.00     0.051 A 
ATOM      5  C5  IND d   1       0.027  -5.996  -5.987  0.00  0.00    -0.031 A 
ATOM      6  C6  IND d   1       1.405  -5.992  -5.917  0.00  0.00     0.015 A 
ATOM      7  C7  IND d   1       2.060  -5.551  -4.802  0.00  0.00    -0.016 A 
ATOM      8  C8  IND d   1       1.275  -5.093  -3.754  0.00  0.00    -0.047 A 
ATOM      9  C9  IND d   1      -0.123  -5.055  -3.835  0.00  0.00    -0.096 A 
ATOM     10  HN1 IND d   1       2.431  -4.480  -2.234  0.00  0.00     0.298 HD
ENDROOT
TORSDOF 0
ENDMDL
