MODEL 1
REMARK minimizedAffinity 7.05999613
REMARK minimizedRMSD -1
REMARK  0 active torsions:
REMARK  status: ('A' for Active; 'I' for Inactive)
ROOT
ATOM      1  N1  IND d   1      -2.798   1.616  -0.482  0.00  0.00    -0.196 N 
ATOM      2  C2  IND d   1      -3.337   0.855  -1.481  0.00  0.00     0.054 A 
ATOM      3  C3  IND d   1      -2.944  -0.433  -1.356  0.00  0.00    -0.031 A 
ATOM      4  C4  IND d   1      -1.499  -1.531   0.471  0.00  0.00     0.051 A 
ATOM      5  C5  IND d   1      -0.748  -1.235   1.573  0.00  0.00    -0.031 A 
ATOM      6  C6  IND d   1      -0.642   0.053   2.059  0.00  0.00     0.015 A 
ATOM      7  C7  IND d   1      -1.295   1.095   1.463  0.00  0.00    -0.016 A 
ATOM      8  C8  IND d   1      -2.053   0.799   0.339  0.00  0.00    -0.047 A 
ATOM      9  C9  IND d   1      -2.130  -0.499  -0.183  0.00  0.00    -0.096 A 
ATOM     10  HN1 IND d   1      -2.906   2.464  -0.383  0.00  0.00     0.298 HD
ENDROOT
TORSDOF 0
ENDMDL
