MODEL 1
REMARK minimizedAffinity -1.33912539
REMARK minimizedRMSD -1
REMARK  1 active torsions:
REMARK  status: ('A' for Active; 'I' for Inactive)
REMARK    1  A    between atoms: C1_2  and  C2_3 
ROOT
ATOM      1  C2  UNL d   1       0.662   0.488  -0.859  0.00  0.00    -0.073 A 
ATOM      2  C3  UNL d   1       1.159  -0.817  -0.761  0.00  0.00    -0.002 A 
ATOM      3  C4  UNL d   1       1.567  -1.325   0.473  0.00  0.00     0.004 A 
ATOM      4  C5  UNL d   1       1.475  -0.539   1.621  0.00  0.00    -0.004 A 
ATOM      5  C6  UNL d   1       0.970   0.763   1.546  0.00  0.00    -0.075 A 
ATOM      6  C7  UNL d   1       0.866   1.622   2.772  0.00  0.00     0.076 C 
ATOM      7  C8  UNL d   1       0.565   1.267   0.303  0.00  0.00     0.001 A 
ENDROOT
BRANCH   1   8
ATOM      8  C1  UNL d   1       0.215   1.039  -2.188  0.00  0.00     0.053 C 
ATOM      9  C   UNL d   1       1.391   1.375  -3.090  0.00  0.00     0.018 C 
ENDBRANCH   1   8
TORSDOF 1
ENDMDL
