MODEL 1
REMARK minimizedAffinity -4.63424683
REMARK minimizedRMSD -1
REMARK  1 active torsions:
REMARK  status: ('A' for Active; 'I' for Inactive)
REMARK    1  A    between atoms: C1_2  and  C2_3 
ROOT
ATOM      1  C2  UNL d   1       0.394  -0.320  -2.490  0.00  0.00    -0.073 A 
ATOM      2  C3  UNL d   1       1.588   0.368  -2.734  0.00  0.00    -0.002 A 
ATOM      3  C4  UNL d   1       1.916   0.772  -4.029  0.00  0.00     0.004 A 
ATOM      4  C5  UNL d   1       1.051   0.501  -5.089  0.00  0.00    -0.004 A 
ATOM      5  C6  UNL d   1      -0.152  -0.174  -4.863  0.00  0.00    -0.075 A 
ATOM      6  C7  UNL d   1      -1.092  -0.476  -5.993  0.00  0.00     0.076 C 
ATOM      7  C8  UNL d   1      -0.473  -0.580  -3.560  0.00  0.00     0.001 A 
ENDROOT
BRANCH   1   8
ATOM      8  C1  UNL d   1       0.033  -0.753  -1.092  0.00  0.00     0.053 C 
ATOM      9  C   UNL d   1      -1.411  -0.425  -0.749  0.00  0.00     0.018 C 
ENDBRANCH   1   8
TORSDOF 1
ENDMDL
