MODEL 1
REMARK minimizedAffinity -3.2917707
REMARK minimizedRMSD -1
REMARK  1 active torsions:
REMARK  status: ('A' for Active; 'I' for Inactive)
REMARK    1  A    between atoms: C1_2  and  C2_3 
ROOT
ATOM      1  C2  UNL d   1      -1.345  -0.661   0.002  0.00  0.00    -0.073 A 
ATOM      2  C3  UNL d   1      -0.115  -1.037  -0.551  0.00  0.00    -0.002 A 
ATOM      3  C4  UNL d   1       1.067  -0.435  -0.116  0.00  0.00     0.004 A 
ATOM      4  C5  UNL d   1       1.032   0.542   0.879  0.00  0.00    -0.004 A 
ATOM      5  C6  UNL d   1      -0.186   0.922   1.453  0.00  0.00    -0.075 A 
ATOM      6  C7  UNL d   1      -0.241   1.972   2.523  0.00  0.00     0.076 C 
ATOM      7  C8  UNL d   1      -1.368   0.315   1.008  0.00  0.00     0.001 A 
ENDROOT
BRANCH   1   8
ATOM      8  C1  UNL d   1      -2.622  -1.313  -0.460  0.00  0.00     0.053 C 
ATOM      9  C   UNL d   1      -2.390  -2.728  -0.965  0.00  0.00     0.018 C 
ENDBRANCH   1   8
TORSDOF 1
ENDMDL
