MODEL 1
REMARK minimizedAffinity 0.396249354
REMARK minimizedRMSD -1
REMARK  1 active torsions:
REMARK  status: ('A' for Active; 'I' for Inactive)
REMARK    1  A    between atoms: C1_2  and  C2_3 
ROOT
ATOM      1  C2  UNL d   1      -0.568  -1.108  -0.831  0.00  0.00    -0.073 A 
ATOM      2  C3  UNL d   1      -0.929   0.165  -1.286  0.00  0.00    -0.002 A 
ATOM      3  C4  UNL d   1      -0.392   1.306  -0.688  0.00  0.00     0.004 A 
ATOM      4  C5  UNL d   1       0.514   1.186   0.365  0.00  0.00    -0.004 A 
ATOM      5  C6  UNL d   1       0.896  -0.077   0.827  0.00  0.00    -0.075 A 
ATOM      6  C7  UNL d   1       1.869  -0.223   1.960  0.00  0.00     0.076 C 
ATOM      7  C8  UNL d   1       0.351  -1.218   0.223  0.00  0.00     0.001 A 
ENDROOT
BRANCH   1   8
ATOM      8  C1  UNL d   1      -1.140  -2.343  -1.477  0.00  0.00     0.053 C 
ATOM      9  C   UNL d   1      -2.567  -2.614  -1.026  0.00  0.00     0.018 C 
ENDBRANCH   1   8
TORSDOF 1
ENDMDL
