MODEL 1
REMARK minimizedAffinity -5.42407894
REMARK minimizedRMSD -1
REMARK  1 active torsions:
REMARK  status: ('A' for Active; 'I' for Inactive)
REMARK    1  A    between atoms: N_2  and  C1_3 
ROOT
ATOM      1  C1  UNL d   1       0.707  -0.413   0.463  0.00  0.00     0.143 A 
ATOM      2  C2  UNL d   1       2.074  -0.118   0.500  0.00  0.00    -0.057 A 
ATOM      3  C3  UNL d   1       2.966  -0.900   1.243  0.00  0.00     0.033 A 
ATOM      4  C4  UNL d   1       2.500  -1.978   1.989  0.00  0.00    -0.042 A 
ATOM      5  C5  UNL d   1       1.142  -2.275   1.987  0.00  0.00     0.033 A 
ATOM      6  C6  UNL d   1       0.257  -1.494   1.237  0.00  0.00    -0.057 A 
ENDROOT
BRANCH   1   7
ATOM      7  N   UNL d   1      -0.244   0.384  -0.178  0.00  0.00    -0.732 N 
ATOM      8  C   UNL d   1      -1.616  -0.060  -0.302  0.00  0.00     0.284 C 
ATOM      9  H3  UNL d   1      -0.146   1.370   0.056  0.00  0.00     0.395 HD
ENDBRANCH   1   7
TORSDOF 1
ENDMDL
