MODEL 1
REMARK minimizedAffinity -3.70379043
REMARK minimizedRMSD -1
REMARK  1 active torsions:
REMARK  status: ('A' for Active; 'I' for Inactive)
REMARK    1  A    between atoms: N_2  and  C1_3 
ROOT
ATOM      1  C1  UNL d   1      -0.095   0.139   0.270  0.00  0.00     0.143 A 
ATOM      2  C2  UNL d   1      -0.059  -1.210   0.638  0.00  0.00    -0.057 A 
ATOM      3  C3  UNL d   1       1.123  -1.807   1.093  0.00  0.00     0.033 A 
ATOM      4  C4  UNL d   1       2.301  -1.070   1.160  0.00  0.00    -0.042 A 
ATOM      5  C5  UNL d   1       2.294   0.266   0.776  0.00  0.00     0.033 A 
ATOM      6  C6  UNL d   1       1.109   0.859   0.329  0.00  0.00    -0.057 A 
ENDROOT
BRANCH   1   7
ATOM      7  N   UNL d   1      -1.215   0.765  -0.283  0.00  0.00    -0.732 N 
ATOM      8  C   UNL d   1      -1.979   0.119  -1.329  0.00  0.00     0.284 C 
ATOM      9  H3  UNL d   1      -1.783   1.235   0.418  0.00  0.00     0.395 HD
ENDBRANCH   1   7
TORSDOF 1
ENDMDL
