MODEL 1
REMARK minimizedAffinity -2.54692721
REMARK minimizedRMSD -1
REMARK  1 active torsions:
REMARK  status: ('A' for Active; 'I' for Inactive)
REMARK    1  A    between atoms: N_2  and  C1_3 
ROOT
ATOM      1  C1  UNL d   1      -1.551   0.234  -1.253  0.00  0.00     0.143 A 
ATOM      2  C2  UNL d   1      -2.056   1.397  -1.844  0.00  0.00    -0.057 A 
ATOM      3  C3  UNL d   1      -2.520   1.398  -3.165  0.00  0.00     0.033 A 
ATOM      4  C4  UNL d   1      -2.458   0.238  -3.931  0.00  0.00    -0.042 A 
ATOM      5  C5  UNL d   1      -1.936  -0.923  -3.372  0.00  0.00     0.033 A 
ATOM      6  C6  UNL d   1      -1.481  -0.919  -2.050  0.00  0.00    -0.057 A 
ENDROOT
BRANCH   1   7
ATOM      7  N   UNL d   1      -0.984   0.193   0.023  0.00  0.00    -0.732 N 
ATOM      8  C   UNL d   1       0.406   0.544   0.224  0.00  0.00     0.284 C 
ATOM      9  H3  UNL d   1      -1.611   0.553   0.738  0.00  0.00     0.395 HD
ENDBRANCH   1   7
TORSDOF 1
ENDMDL
