MODEL 1
REMARK minimizedAffinity -2.22942281
REMARK minimizedRMSD -1
REMARK  1 active torsions:
REMARK  status: ('A' for Active; 'I' for Inactive)
REMARK    1  A    between atoms: N_2  and  C1_3 
ROOT
ATOM      1  C1  UNL d   1       1.253  -0.976   0.761  0.00  0.00     0.143 A 
ATOM      2  C2  UNL d   1       2.616  -0.709   0.600  0.00  0.00    -0.057 A 
ATOM      3  C3  UNL d   1       3.060   0.516   0.085  0.00  0.00     0.033 A 
ATOM      4  C4  UNL d   1       2.143   1.486  -0.305  0.00  0.00    -0.042 A 
ATOM      5  C5  UNL d   1       0.783   1.232  -0.177  0.00  0.00     0.033 A 
ATOM      6  C6  UNL d   1       0.346   0.010   0.344  0.00  0.00    -0.057 A 
ENDROOT
BRANCH   1   7
ATOM      7  N   UNL d   1       0.746  -2.211   1.175  0.00  0.00    -0.732 N 
ATOM      8  C   UNL d   1      -0.571  -2.306   1.766  0.00  0.00     0.284 C 
ATOM      9  H3  UNL d   1       0.963  -2.959   0.520  0.00  0.00     0.395 HD
ENDBRANCH   1   7
TORSDOF 1
ENDMDL
