MODEL 1
REMARK minimizedAffinity -4.72759199
REMARK minimizedRMSD -1
REMARK  1 active torsions:
REMARK  status: ('A' for Active; 'I' for Inactive)
REMARK    1  A    between atoms: C1_2  and  C2_3 
ROOT
ATOM      1  C2  UNL d   1       0.183   0.365   0.072  0.00  0.00    -0.073 A 
ATOM      2  C3  UNL d   1       1.458  -0.168   0.295  0.00  0.00    -0.002 A 
ATOM      3  C4  UNL d   1       1.608  -1.506   0.660  0.00  0.00     0.004 A 
ATOM      4  C5  UNL d   1       0.488  -2.326   0.799  0.00  0.00    -0.004 A 
ATOM      5  C6  UNL d   1      -0.793  -1.815   0.569  0.00  0.00    -0.075 A 
ATOM      6  C7  UNL d   1      -2.008  -2.684   0.716  0.00  0.00     0.076 C 
ATOM      7  C8  UNL d   1      -0.936  -0.470   0.205  0.00  0.00     0.001 A 
ENDROOT
BRANCH   1   8
ATOM      8  C1  UNL d   1       0.016   1.808  -0.328  0.00  0.00     0.053 C 
ATOM      9  C   UNL d   1       0.800   2.145  -1.587  0.00  0.00     0.018 C 
ENDBRANCH   1   8
TORSDOF 1
ENDMDL
