MODEL 1
REMARK minimizedAffinity -1.90164781
REMARK minimizedRMSD -1
REMARK  1 active torsions:
REMARK  status: ('A' for Active; 'I' for Inactive)
REMARK    1  A    between atoms: C1_2  and  C2_3 
ROOT
ATOM      1  C2  UNL d   1       0.947   0.915  -0.800  0.00  0.00    -0.073 A 
ATOM      2  C3  UNL d   1       1.404  -0.334  -0.363  0.00  0.00    -0.002 A 
ATOM      3  C4  UNL d   1       0.586  -1.150   0.418  0.00  0.00     0.004 A 
ATOM      4  C5  UNL d   1      -0.699  -0.731   0.764  0.00  0.00    -0.004 A 
ATOM      5  C6  UNL d   1      -1.178   0.508   0.328  0.00  0.00    -0.075 A 
ATOM      6  C7  UNL d   1      -2.557   0.974   0.693  0.00  0.00     0.076 C 
ATOM      7  C8  UNL d   1      -0.349   1.323  -0.454  0.00  0.00     0.001 A 
ENDROOT
BRANCH   1   8
ATOM      8  C1  UNL d   1       1.825   1.797  -1.649  0.00  0.00     0.053 C 
ATOM      9  C   UNL d   1       1.189   2.108  -2.995  0.00  0.00     0.018 C 
ENDBRANCH   1   8
TORSDOF 1
ENDMDL
