MODEL 1
REMARK minimizedAffinity -4.98508787
REMARK minimizedRMSD -1
REMARK  1 active torsions:
REMARK  status: ('A' for Active; 'I' for Inactive)
REMARK    1  A    between atoms: C1_2  and  C2_3 
ROOT
ATOM      1  C2  UNL d   1       0.131  -0.460   0.154  0.00  0.00    -0.073 A 
ATOM      2  C3  UNL d   1      -0.115   0.638   0.986  0.00  0.00    -0.002 A 
ATOM      3  C4  UNL d   1       0.257   1.922   0.587  0.00  0.00     0.004 A 
ATOM      4  C5  UNL d   1       0.871   2.123  -0.649  0.00  0.00    -0.004 A 
ATOM      5  C6  UNL d   1       1.114   1.040  -1.500  0.00  0.00    -0.075 A 
ATOM      6  C7  UNL d   1       1.776   1.239  -2.832  0.00  0.00     0.076 C 
ATOM      7  C8  UNL d   1       0.741  -0.247  -1.091  0.00  0.00     0.001 A 
ENDROOT
BRANCH   1   8
ATOM      8  C1  UNL d   1      -0.274  -1.848   0.578  0.00  0.00     0.053 C 
ATOM      9  C   UNL d   1      -1.648  -2.227   0.049  0.00  0.00     0.018 C 
ENDBRANCH   1   8
TORSDOF 1
ENDMDL
