MODEL 1
REMARK minimizedAffinity -5.68957949
REMARK minimizedRMSD -1
REMARK  1 active torsions:
REMARK  status: ('A' for Active; 'I' for Inactive)
REMARK    1  A    between atoms: C1_2  and  C2_3 
ROOT
ATOM      1  C2  UNL d   1       0.062   1.388  -0.539  0.00  0.00    -0.073 A 
ATOM      2  C3  UNL d   1      -0.877   2.265   0.016  0.00  0.00    -0.002 A 
ATOM      3  C4  UNL d   1      -1.943   1.772   0.769  0.00  0.00     0.004 A 
ATOM      4  C5  UNL d   1      -2.078   0.400   0.980  0.00  0.00    -0.004 A 
ATOM      5  C6  UNL d   1      -1.144  -0.492   0.444  0.00  0.00    -0.075 A 
ATOM      6  C7  UNL d   1      -1.276  -1.971   0.660  0.00  0.00     0.076 C 
ATOM      7  C8  UNL d   1      -0.077   0.011  -0.313  0.00  0.00     0.001 A 
ENDROOT
BRANCH   1   8
ATOM      8  C1  UNL d   1       1.219   1.917  -1.347  0.00  0.00     0.053 C 
ATOM      9  C   UNL d   1       0.890   1.996  -2.829  0.00  0.00     0.018 C 
ENDBRANCH   1   8
TORSDOF 1
ENDMDL
