MODEL 1
REMARK minimizedAffinity -2.36933064
REMARK minimizedRMSD -1
REMARK  1 active torsions:
REMARK  status: ('A' for Active; 'I' for Inactive)
REMARK    1  A    between atoms: C1_2  and  C2_3 
ROOT
ATOM      1  C2  UNL d   1       0.429  -0.268  -0.432  0.00  0.00    -0.073 A 
ATOM      2  C3  UNL d   1       0.174   0.701   0.545  0.00  0.00    -0.002 A 
ATOM      3  C4  UNL d   1       0.240   2.058   0.226  0.00  0.00     0.004 A 
ATOM      4  C5  UNL d   1       0.554   2.460  -1.072  0.00  0.00    -0.004 A 
ATOM      5  C6  UNL d   1       0.801   1.506  -2.065  0.00  0.00    -0.075 A 
ATOM      6  C7  UNL d   1       1.142   1.922  -3.466  0.00  0.00     0.076 C 
ATOM      7  C8  UNL d   1       0.736   0.145  -1.737  0.00  0.00     0.001 A 
ENDROOT
BRANCH   1   8
ATOM      8  C1  UNL d   1       0.353  -1.734  -0.094  0.00  0.00     0.053 C 
ATOM      9  C   UNL d   1      -0.412  -1.983   1.196  0.00  0.00     0.018 C 
ENDBRANCH   1   8
TORSDOF 1
ENDMDL
