MODEL 1
REMARK minimizedAffinity -3.0062387
REMARK minimizedRMSD -1
REMARK  1 active torsions:
REMARK  status: ('A' for Active; 'I' for Inactive)
REMARK    1  A    between atoms: C1_2  and  C2_3 
ROOT
ATOM      1  C2  UNL d   1       0.009   0.098   0.198  0.00  0.00    -0.073 A 
ATOM      2  C3  UNL d   1       1.297  -0.222   0.644  0.00  0.00    -0.002 A 
ATOM      3  C4  UNL d   1       1.521  -1.393   1.369  0.00  0.00     0.004 A 
ATOM      4  C5  UNL d   1       0.464  -2.258   1.649  0.00  0.00    -0.004 A 
ATOM      5  C6  UNL d   1      -0.828  -1.962   1.202  0.00  0.00    -0.075 A 
ATOM      6  C7  UNL d   1      -1.976  -2.882   1.497  0.00  0.00     0.076 C 
ATOM      7  C8  UNL d   1      -1.045  -0.783   0.477  0.00  0.00     0.001 A 
ENDROOT
BRANCH   1   8
ATOM      8  C1  UNL d   1      -0.237   1.358  -0.591  0.00  0.00     0.053 C 
ATOM      9  C   UNL d   1       0.972   1.753  -1.425  0.00  0.00     0.018 C 
ENDBRANCH   1   8
TORSDOF 1
ENDMDL
