MODEL 1
REMARK minimizedAffinity -3.25889373
REMARK minimizedRMSD -1
REMARK  1 active torsions:
REMARK  status: ('A' for Active; 'I' for Inactive)
REMARK    1  A    between atoms: C1_2  and  C2_3 
ROOT
ATOM      1  C2  UNL d   1      -1.116  -1.304   0.432  0.00  0.00    -0.073 A 
ATOM      2  C3  UNL d   1      -1.475   0.042   0.292  0.00  0.00    -0.002 A 
ATOM      3  C4  UNL d   1      -0.494   1.034   0.273  0.00  0.00     0.004 A 
ATOM      4  C5  UNL d   1       0.853   0.693   0.387  0.00  0.00    -0.004 A 
ATOM      5  C6  UNL d   1       1.233  -0.647   0.516  0.00  0.00    -0.075 A 
ATOM      6  C7  UNL d   1       2.678  -1.032   0.642  0.00  0.00     0.076 C 
ATOM      7  C8  UNL d   1       0.242  -1.638   0.537  0.00  0.00     0.001 A 
ENDROOT
BRANCH   1   8
ATOM      8  C1  UNL d   1      -2.170  -2.380   0.447  0.00  0.00     0.053 C 
ATOM      9  C   UNL d   1      -2.036  -3.293   1.655  0.00  0.00     0.018 C 
ENDBRANCH   1   8
TORSDOF 1
ENDMDL
