MODEL 1
REMARK minimizedAffinity -4.33594799
REMARK minimizedRMSD -1
REMARK  1 active torsions:
REMARK  status: ('A' for Active; 'I' for Inactive)
REMARK    1  A    between atoms: C1_2  and  C2_3 
ROOT
ATOM      1  C2  UNL d   1       0.686   0.218  -0.334  0.00  0.00    -0.073 A 
ATOM      2  C3  UNL d   1       1.062  -1.078   0.038  0.00  0.00    -0.002 A 
ATOM      3  C4  UNL d   1       0.175  -1.895   0.740  0.00  0.00     0.004 A 
ATOM      4  C5  UNL d   1      -1.097  -1.429   1.071  0.00  0.00    -0.004 A 
ATOM      5  C6  UNL d   1      -1.496  -0.141   0.698  0.00  0.00    -0.075 A 
ATOM      6  C7  UNL d   1      -2.860   0.377   1.048  0.00  0.00     0.076 C 
ATOM      7  C8  UNL d   1      -0.598   0.675  -0.004  0.00  0.00     0.001 A 
ENDROOT
BRANCH   1   8
ATOM      8  C1  UNL d   1       1.638   1.101  -1.098  0.00  0.00     0.053 C 
ATOM      9  C   UNL d   1       1.198   1.302  -2.539  0.00  0.00     0.018 C 
ENDBRANCH   1   8
TORSDOF 1
ENDMDL
