MODEL 1
REMARK minimizedAffinity -4.5628686
REMARK minimizedRMSD -1
REMARK  1 active torsions:
REMARK  status: ('A' for Active; 'I' for Inactive)
REMARK    1  A    between atoms: C1_2  and  C2_3 
ROOT
ATOM      1  C2  UNL d   1      -3.947  -3.835  -4.799  0.00  0.00    -0.073 A 
ATOM      2  C3  UNL d   1      -4.303  -3.210  -5.999  0.00  0.00    -0.002 A 
ATOM      3  C4  UNL d   1      -5.211  -2.150  -5.999  0.00  0.00     0.004 A 
ATOM      4  C5  UNL d   1      -5.764  -1.699  -4.800  0.00  0.00    -0.004 A 
ATOM      5  C6  UNL d   1      -5.411  -2.303  -3.589  0.00  0.00    -0.075 A 
ATOM      6  C7  UNL d   1      -6.000  -1.833  -2.292  0.00  0.00     0.076 C 
ATOM      7  C8  UNL d   1      -4.501  -3.369  -3.598  0.00  0.00     0.001 A 
ENDROOT
BRANCH   1   8
ATOM      8  C1  UNL d   1      -2.962  -4.976  -4.793  0.00  0.00     0.053 C 
ATOM      9  C   UNL d   1      -1.758  -4.695  -5.678  0.00  0.00     0.018 C 
ENDBRANCH   1   8
TORSDOF 1
ENDMDL
