MODEL 1
REMARK minimizedAffinity -3.181988
REMARK minimizedRMSD -1
REMARK  1 active torsions:
REMARK  status: ('A' for Active; 'I' for Inactive)
REMARK    1  A    between atoms: C1_2  and  C2_3 
ROOT
ATOM      1  C2  UNL d   1       0.386  -0.090  -0.030  0.00  0.00    -0.076 A 
ATOM      2  C3  UNL d   1       0.574  -0.482   1.307  0.00  0.00     0.004 A 
ATOM      3  C4  UNL d   1       0.315   0.398   2.356  0.00  0.00    -0.003 A 
ATOM      4  C5  UNL d   1      -0.135   1.686   2.086  0.00  0.00     0.000 A 
ATOM      5  C6  UNL d   1      -0.343   2.086   0.766  0.00  0.00     0.000 A 
ATOM      6  C7  UNL d   1      -0.103   1.205  -0.302  0.00  0.00    -0.073 A 
ATOM      7  C8  UNL d   1      -0.339   1.692  -1.706  0.00  0.00     0.078 C 
ENDROOT
BRANCH   1   8
ATOM      8  C1  UNL d   1       0.709  -1.079  -1.127  0.00  0.00     0.053 C 
ATOM      9  C   UNL d   1      -0.050  -2.388  -0.972  0.00  0.00     0.018 C 
ENDBRANCH   1   8
TORSDOF 1
ENDMDL
