MODEL 1
REMARK minimizedAffinity -2.72132087
REMARK minimizedRMSD -1
REMARK  1 active torsions:
REMARK  status: ('A' for Active; 'I' for Inactive)
REMARK    1  A    between atoms: C1_2  and  C2_3 
ROOT
ATOM      1  C2  UNL d   1       0.181   0.782  -0.188  0.00  0.00    -0.076 A 
ATOM      2  C3  UNL d   1      -0.020   1.681  -1.250  0.00  0.00     0.004 A 
ATOM      3  C4  UNL d   1      -0.520   2.962  -1.020  0.00  0.00    -0.003 A 
ATOM      4  C5  UNL d   1      -0.825   3.365   0.275  0.00  0.00     0.000 A 
ATOM      5  C6  UNL d   1      -0.615   2.492   1.342  0.00  0.00     0.000 A 
ATOM      6  C7  UNL d   1      -0.097   1.203   1.130  0.00  0.00    -0.073 A 
ATOM      7  C8  UNL d   1       0.104   0.301   2.317  0.00  0.00     0.078 C 
ENDROOT
BRANCH   1   8
ATOM      8  C1  UNL d   1       0.700  -0.604  -0.501  0.00  0.00     0.053 C 
ATOM      9  C   UNL d   1      -0.420  -1.605  -0.741  0.00  0.00     0.018 C 
ENDBRANCH   1   8
TORSDOF 1
ENDMDL
