MODEL 1
REMARK minimizedAffinity -2.16044855
REMARK minimizedRMSD -1
REMARK  1 active torsions:
REMARK  status: ('A' for Active; 'I' for Inactive)
REMARK    1  A    between atoms: C1_2  and  C2_3 
ROOT
ATOM      1  C2  UNL d   1       0.407  -0.362   0.183  0.00  0.00    -0.076 A 
ATOM      2  C3  UNL d   1       0.621  -1.020   1.407  0.00  0.00     0.004 A 
ATOM      3  C4  UNL d   1       0.534  -0.332   2.616  0.00  0.00    -0.003 A 
ATOM      4  C5  UNL d   1       0.232   1.025   2.622  0.00  0.00     0.000 A 
ATOM      5  C6  UNL d   1      -0.001   1.690   1.419  0.00  0.00     0.000 A 
ATOM      6  C7  UNL d   1       0.066   1.008   0.192  0.00  0.00    -0.073 A 
ATOM      7  C8  UNL d   1      -0.188   1.776  -1.076  0.00  0.00     0.078 C 
ENDROOT
BRANCH   1   8
ATOM      8  C1  UNL d   1       0.541  -1.153  -1.098  0.00  0.00     0.053 C 
ATOM      9  C   UNL d   1       0.135  -2.609  -0.929  0.00  0.00     0.018 C 
ENDBRANCH   1   8
TORSDOF 1
ENDMDL
