MODEL 1
REMARK minimizedAffinity -5.14165878
REMARK minimizedRMSD -1
REMARK  1 active torsions:
REMARK  status: ('A' for Active; 'I' for Inactive)
REMARK    1  A    between atoms: C1_2  and  C2_3 
ROOT
ATOM      1  C2  UNL d   1      -0.207   1.068  -0.253  0.00  0.00    -0.076 A 
ATOM      2  C3  UNL d   1      -0.205   0.837   1.133  0.00  0.00     0.004 A 
ATOM      3  C4  UNL d   1      -0.598   1.833   2.027  0.00  0.00    -0.003 A 
ATOM      4  C5  UNL d   1      -0.999   3.075   1.548  0.00  0.00     0.000 A 
ATOM      5  C6  UNL d   1      -1.023   3.316   0.174  0.00  0.00     0.000 A 
ATOM      6  C7  UNL d   1      -0.646   2.318  -0.741  0.00  0.00    -0.073 A 
ATOM      7  C8  UNL d   1      -0.686   2.634  -2.211  0.00  0.00     0.078 C 
ENDROOT
BRANCH   1   8
ATOM      8  C1  UNL d   1       0.255  -0.040  -1.172  0.00  0.00     0.053 C 
ATOM      9  C   UNL d   1       0.081  -1.419  -0.555  0.00  0.00     0.018 C 
ENDBRANCH   1   8
TORSDOF 1
ENDMDL
