MODEL 1
REMARK minimizedAffinity -5.28405857
REMARK minimizedRMSD -1
REMARK  1 active torsions:
REMARK  status: ('A' for Active; 'I' for Inactive)
REMARK    1  A    between atoms: C1_2  and  C2_3 
ROOT
ATOM      1  C2  UNL d   1      -0.053   0.416   0.427  0.00  0.00    -0.076 A 
ATOM      2  C3  UNL d   1      -0.472   1.344  -0.542  0.00  0.00     0.004 A 
ATOM      3  C4  UNL d   1      -1.135   2.514  -0.176  0.00  0.00    -0.003 A 
ATOM      4  C5  UNL d   1      -1.388   2.776   1.166  0.00  0.00     0.000 A 
ATOM      5  C6  UNL d   1      -0.964   1.875   2.142  0.00  0.00     0.000 A 
ATOM      6  C7  UNL d   1      -0.280   0.698   1.791  0.00  0.00    -0.073 A 
ATOM      7  C8  UNL d   1       0.149  -0.241   2.885  0.00  0.00     0.078 C 
ENDROOT
BRANCH   1   8
ATOM      8  C1  UNL d   1       0.638  -0.848  -0.032  0.00  0.00     0.053 C 
ATOM      9  C   UNL d   1      -0.168  -1.606  -1.076  0.00  0.00     0.018 C 
ENDBRANCH   1   8
TORSDOF 1
ENDMDL
