MODEL 1
REMARK minimizedAffinity -4.31420326
REMARK minimizedRMSD -1
REMARK  1 active torsions:
REMARK  status: ('A' for Active; 'I' for Inactive)
REMARK    1  A    between atoms: C1_2  and  C2_3 
ROOT
ATOM      1  C2  UNL d   1      -0.505   1.898  -0.526  0.00  0.00    -0.076 A 
ATOM      2  C3  UNL d   1       0.016   0.640  -0.877  0.00  0.00     0.004 A 
ATOM      3  C4  UNL d   1       0.356  -0.293   0.101  0.00  0.00    -0.003 A 
ATOM      4  C5  UNL d   1       0.181   0.016   1.445  0.00  0.00     0.000 A 
ATOM      5  C6  UNL d   1      -0.351   1.253   1.810  0.00  0.00     0.000 A 
ATOM      6  C7  UNL d   1      -0.714   2.199   0.837  0.00  0.00    -0.073 A 
ATOM      7  C8  UNL d   1      -1.277   3.519   1.287  0.00  0.00     0.078 C 
ENDROOT
BRANCH   1   8
ATOM      8  C1  UNL d   1      -0.830   2.880  -1.629  0.00  0.00     0.053 C 
ATOM      9  C   UNL d   1      -2.324   3.130  -1.765  0.00  0.00     0.018 C 
ENDBRANCH   1   8
TORSDOF 1
ENDMDL
