MODEL 1
REMARK minimizedAffinity 4.65817404
REMARK minimizedRMSD -1
REMARK  1 active torsions:
REMARK  status: ('A' for Active; 'I' for Inactive)
REMARK    1  A    between atoms: C1_2  and  C2_3 
ROOT
ATOM      1  C2  UNL d   1      -1.743  -3.312  -2.627  0.00  0.00    -0.076 A 
ATOM      2  C3  UNL d   1      -2.392  -2.123  -2.252  0.00  0.00     0.004 A 
ATOM      3  C4  UNL d   1      -2.620  -1.106  -3.178  0.00  0.00    -0.003 A 
ATOM      4  C5  UNL d   1      -2.204  -1.263  -4.495  0.00  0.00     0.000 A 
ATOM      5  C6  UNL d   1      -1.574  -2.443  -4.889  0.00  0.00     0.000 A 
ATOM      6  C7  UNL d   1      -1.351  -3.484  -3.972  0.00  0.00    -0.073 A 
ATOM      7  C8  UNL d   1      -0.662  -4.732  -4.451  0.00  0.00     0.078 C 
ENDROOT
BRANCH   1   8
ATOM      8  C1  UNL d   1      -1.499  -4.368  -1.573  0.00  0.00     0.053 C 
ATOM      9  C   UNL d   1      -0.283  -4.061  -0.712  0.00  0.00     0.018 C 
ENDBRANCH   1   8
TORSDOF 1
ENDMDL
