MODEL 1
REMARK minimizedAffinity -4.23646021
REMARK minimizedRMSD -1
REMARK  2 active torsions:
REMARK  status: ('A' for Active; 'I' for Inactive)
REMARK    1  A    between atoms: C1_2  and  C2_3 
REMARK    2  A    between atoms: C2_3  and  C3_4 
ROOT
ATOM      1  C3  UNL d   1       0.675  -0.173  -1.586  0.00  0.00    -0.075 A 
ATOM      2  C4  UNL d   1      -0.064  -1.286  -1.161  0.00  0.00     0.002 A 
ATOM      3  C5  UNL d   1      -1.159  -1.128  -0.312  0.00  0.00     0.002 A 
ATOM      4  C6  UNL d   1      -1.524   0.142   0.130  0.00  0.00    -0.004 A 
ATOM      5  C7  UNL d   1      -0.787   1.254  -0.272  0.00  0.00     0.002 A 
ATOM      6  C8  UNL d   1       0.307   1.099  -1.125  0.00  0.00     0.002 A 
ENDROOT
BRANCH   1   7
ATOM      7  C2  UNL d   1       1.844  -0.334  -2.528  0.00  0.00     0.056 C 
BRANCH   7   8
ATOM      8  C1  UNL d   1       1.809   0.611  -3.733  0.00  0.00     0.007 C 
ATOM      9  C   UNL d   1       0.464   0.624  -4.447  0.00  0.00     0.009 C 
ENDBRANCH   7   8
ENDBRANCH   1   7
TORSDOF 2
ENDMDL
