MODEL 1
REMARK minimizedAffinity -3.53404474
REMARK minimizedRMSD -1
REMARK  2 active torsions:
REMARK  status: ('A' for Active; 'I' for Inactive)
REMARK    1  A    between atoms: C1_2  and  C2_3 
REMARK    2  A    between atoms: C2_3  and  C3_4 
ROOT
ATOM      1  C3  UNL d   1       0.533  -0.142  -0.212  0.00  0.00    -0.075 A 
ATOM      2  C4  UNL d   1      -0.079   0.867   0.545  0.00  0.00     0.002 A 
ATOM      3  C5  UNL d   1       0.400   1.190   1.815  0.00  0.00     0.002 A 
ATOM      4  C6  UNL d   1       1.488   0.502   2.348  0.00  0.00    -0.004 A 
ATOM      5  C7  UNL d   1       2.094  -0.514   1.611  0.00  0.00     0.002 A 
ATOM      6  C8  UNL d   1       1.619  -0.835   0.338  0.00  0.00     0.002 A 
ENDROOT
BRANCH   1   7
ATOM      7  C2  UNL d   1       0.038  -0.475  -1.599  0.00  0.00     0.056 C 
BRANCH   7   8
ATOM      8  C1  UNL d   1       0.750   0.293  -2.717  0.00  0.00     0.007 C 
ATOM      9  C   UNL d   1       0.231  -0.050  -4.107  0.00  0.00     0.009 C 
ENDBRANCH   7   8
ENDBRANCH   1   7
TORSDOF 2
ENDMDL
