MODEL 1
REMARK minimizedAffinity -5.81593084
REMARK minimizedRMSD -1
REMARK  2 active torsions:
REMARK  status: ('A' for Active; 'I' for Inactive)
REMARK    1  A    between atoms: C1_2  and  C2_3 
REMARK    2  A    between atoms: C2_3  and  C3_4 
ROOT
ATOM      1  C3  UNL d   1      -0.241   0.588   1.274  0.00  0.00    -0.075 A 
ATOM      2  C4  UNL d   1       1.022  -0.014   1.184  0.00  0.00     0.002 A 
ATOM      3  C5  UNL d   1       1.280  -0.976   0.206  0.00  0.00     0.002 A 
ATOM      4  C6  UNL d   1       0.278  -1.354  -0.685  0.00  0.00    -0.004 A 
ATOM      5  C7  UNL d   1      -0.985  -0.775  -0.593  0.00  0.00     0.002 A 
ATOM      6  C8  UNL d   1      -1.245   0.191   0.381  0.00  0.00     0.002 A 
ENDROOT
BRANCH   1   7
ATOM      7  C2  UNL d   1      -0.518   1.650   2.311  0.00  0.00     0.056 C 
BRANCH   7   8
ATOM      8  C1  UNL d   1      -0.243   1.204   3.751  0.00  0.00     0.007 C 
ATOM      9  C   UNL d   1      -0.730  -0.209   4.044  0.00  0.00     0.009 C 
ENDBRANCH   7   8
ENDBRANCH   1   7
TORSDOF 2
ENDMDL
