MODEL 1
REMARK minimizedAffinity -4.38184404
REMARK minimizedRMSD -1
REMARK  2 active torsions:
REMARK  status: ('A' for Active; 'I' for Inactive)
REMARK    1  A    between atoms: C1_2  and  C2_3 
REMARK    2  A    between atoms: C2_3  and  C3_4 
ROOT
ATOM      1  C3  UNL d   1       0.061  -0.170  -0.084  0.00  0.00    -0.075 A 
ATOM      2  C4  UNL d   1      -1.244   0.333  -0.187  0.00  0.00     0.002 A 
ATOM      3  C5  UNL d   1      -1.963   0.676   0.958  0.00  0.00     0.002 A 
ATOM      4  C6  UNL d   1      -1.392   0.513   2.219  0.00  0.00    -0.004 A 
ATOM      5  C7  UNL d   1      -0.102  -0.001   2.333  0.00  0.00     0.002 A 
ATOM      6  C8  UNL d   1       0.621  -0.341   1.189  0.00  0.00     0.002 A 
ENDROOT
BRANCH   1   7
ATOM      7  C2  UNL d   1       0.856  -0.516  -1.320  0.00  0.00     0.056 C 
BRANCH   7   8
ATOM      8  C1  UNL d   1       1.219   0.695  -2.187  0.00  0.00     0.007 C 
ATOM      9  C   UNL d   1       1.488   0.332  -3.642  0.00  0.00     0.009 C 
ENDBRANCH   7   8
ENDBRANCH   1   7
TORSDOF 2
ENDMDL
