MODEL 1
REMARK minimizedAffinity -4.5890131
REMARK minimizedRMSD -1
REMARK  2 active torsions:
REMARK  status: ('A' for Active; 'I' for Inactive)
REMARK    1  A    between atoms: C1_2  and  C2_3 
REMARK    2  A    between atoms: C2_3  and  C3_4 
ROOT
ATOM      1  C3  UNL d   1      -0.839   0.723   0.327  0.00  0.00    -0.075 A 
ATOM      2  C4  UNL d   1      -0.206   1.592   1.227  0.00  0.00     0.002 A 
ATOM      3  C5  UNL d   1      -0.600   1.636   2.565  0.00  0.00     0.002 A 
ATOM      4  C6  UNL d   1      -1.637   0.822   3.016  0.00  0.00    -0.004 A 
ATOM      5  C7  UNL d   1      -2.284  -0.033   2.126  0.00  0.00     0.002 A 
ATOM      6  C8  UNL d   1      -1.888  -0.083   0.788  0.00  0.00     0.002 A 
ENDROOT
BRANCH   1   7
ATOM      7  C2  UNL d   1      -0.397   0.649  -1.115  0.00  0.00     0.056 C 
BRANCH   7   8
ATOM      8  C1  UNL d   1       0.348  -0.641  -1.474  0.00  0.00     0.007 C 
ATOM      9  C   UNL d   1       0.621  -0.781  -2.966  0.00  0.00     0.009 C 
ENDBRANCH   7   8
ENDBRANCH   1   7
TORSDOF 2
ENDMDL
