MODEL 1
REMARK minimizedAffinity -3.9512217
REMARK minimizedRMSD -1
REMARK  2 active torsions:
REMARK  status: ('A' for Active; 'I' for Inactive)
REMARK    1  A    between atoms: C1_2  and  C2_3 
REMARK    2  A    between atoms: C2_3  and  C3_4 
ROOT
ATOM      1  C3  UNL d   1       0.112  -0.340   0.506  0.00  0.00    -0.075 A 
ATOM      2  C4  UNL d   1       1.070  -0.312   1.531  0.00  0.00     0.002 A 
ATOM      3  C5  UNL d   1       0.691  -0.048   2.847  0.00  0.00     0.002 A 
ATOM      4  C6  UNL d   1      -0.645   0.202   3.154  0.00  0.00    -0.004 A 
ATOM      5  C7  UNL d   1      -1.602   0.194   2.142  0.00  0.00     0.002 A 
ATOM      6  C8  UNL d   1      -1.227  -0.075   0.824  0.00  0.00     0.002 A 
ENDROOT
BRANCH   1   7
ATOM      7  C2  UNL d   1       0.511  -0.655  -0.916  0.00  0.00     0.056 C 
BRANCH   7   8
ATOM      8  C1  UNL d   1       0.754   0.584  -1.784  0.00  0.00     0.007 C 
ATOM      9  C   UNL d   1       0.480   0.343  -3.263  0.00  0.00     0.009 C 
ENDBRANCH   7   8
ENDBRANCH   1   7
TORSDOF 2
ENDMDL
