MODEL 1
REMARK minimizedAffinity -3.65588927
REMARK minimizedRMSD -1
REMARK  2 active torsions:
REMARK  status: ('A' for Active; 'I' for Inactive)
REMARK    1  A    between atoms: C1_2  and  C2_3 
REMARK    2  A    between atoms: C2_3  and  C3_4 
ROOT
ATOM      1  C3  UNL d   1      -0.203   0.102   2.232  0.00  0.00    -0.075 A 
ATOM      2  C4  UNL d   1      -1.408   0.795   2.418  0.00  0.00     0.002 A 
ATOM      3  C5  UNL d   1      -2.308   0.947   1.363  0.00  0.00     0.002 A 
ATOM      4  C6  UNL d   1      -2.011   0.419   0.109  0.00  0.00    -0.004 A 
ATOM      5  C7  UNL d   1      -0.810  -0.257  -0.092  0.00  0.00     0.002 A 
ATOM      6  C8  UNL d   1       0.090  -0.415   0.963  0.00  0.00     0.002 A 
ENDROOT
BRANCH   1   7
ATOM      7  C2  UNL d   1       0.761  -0.092   3.377  0.00  0.00     0.056 C 
BRANCH   7   8
ATOM      8  C1  UNL d   1       2.036  -0.852   2.997  0.00  0.00     0.007 C 
ATOM      9  C   UNL d   1       3.309  -0.053   3.248  0.00  0.00     0.009 C 
ENDBRANCH   7   8
ENDBRANCH   1   7
TORSDOF 2
ENDMDL
