MODEL 1
REMARK minimizedAffinity 2.32133842
REMARK minimizedRMSD -1
REMARK  1 active torsions:
REMARK  status: ('A' for Active; 'I' for Inactive)
REMARK    1  A    between atoms: C1_2  and  C2_3 
ROOT
ATOM      1  C2  UNL d   1      -2.595   1.270  -4.323  0.00  0.00    -0.076 A 
ATOM      2  C3  UNL d   1      -1.572   1.392  -5.279  0.00  0.00     0.004 A 
ATOM      3  C4  UNL d   1      -0.582   2.364  -5.151  0.00  0.00    -0.003 A 
ATOM      4  C5  UNL d   1      -0.597   3.230  -4.063  0.00  0.00     0.000 A 
ATOM      5  C6  UNL d   1      -1.594   3.112  -3.095  0.00  0.00     0.000 A 
ATOM      6  C7  UNL d   1      -2.591   2.127  -3.201  0.00  0.00    -0.073 A 
ATOM      7  C8  UNL d   1      -3.646   2.049  -2.131  0.00  0.00     0.078 C 
ENDROOT
BRANCH   1   8
ATOM      8  C1  UNL d   1      -3.658   0.215  -4.529  0.00  0.00     0.053 C 
ATOM      9  C   UNL d   1      -3.974  -0.014  -5.999  0.00  0.00     0.018 C 
ENDBRANCH   1   8
TORSDOF 1
ENDMDL
