MODEL 1
REMARK minimizedAffinity 8.3683672
REMARK minimizedRMSD -1
REMARK  1 active torsions:
REMARK  status: ('A' for Active; 'I' for Inactive)
REMARK    1  A    between atoms: C1_2  and  C2_3 
ROOT
ATOM      1  C2  UNL d   1       0.050  -0.749   0.959  0.00  0.00    -0.076 A 
ATOM      2  C3  UNL d   1      -0.811   0.362   0.981  0.00  0.00     0.004 A 
ATOM      3  C4  UNL d   1      -1.722   0.543   2.020  0.00  0.00    -0.003 A 
ATOM      4  C5  UNL d   1      -1.786  -0.383   3.055  0.00  0.00     0.000 A 
ATOM      5  C6  UNL d   1      -0.927  -1.482   3.058  0.00  0.00     0.000 A 
ATOM      6  C7  UNL d   1       0.008  -1.671   2.027  0.00  0.00    -0.073 A 
ATOM      7  C8  UNL d   1       0.906  -2.877   2.077  0.00  0.00     0.078 C 
ENDROOT
BRANCH   1   8
ATOM      8  C1  UNL d   1       0.998  -0.907  -0.208  0.00  0.00     0.053 C 
ATOM      9  C   UNL d   1       1.727   0.385  -0.546  0.00  0.00     0.018 C 
ENDBRANCH   1   8
TORSDOF 1
ENDMDL
