MODEL 1
REMARK minimizedAffinity 8.85430813
REMARK minimizedRMSD -1
REMARK  1 active torsions:
REMARK  status: ('A' for Active; 'I' for Inactive)
REMARK    1  A    between atoms: C1_2  and  C2_3 
ROOT
ATOM      1  C2  UNL d   1       0.035  -1.755   3.004  0.00  0.00    -0.076 A 
ATOM      2  C3  UNL d   1       0.538  -0.469   2.739  0.00  0.00     0.004 A 
ATOM      3  C4  UNL d   1      -0.320   0.616   2.570  0.00  0.00    -0.003 A 
ATOM      4  C5  UNL d   1      -1.695   0.434   2.664  0.00  0.00     0.000 A 
ATOM      5  C6  UNL d   1      -2.211  -0.831   2.944  0.00  0.00     0.000 A 
ATOM      6  C7  UNL d   1      -1.359  -1.933   3.133  0.00  0.00    -0.073 A 
ATOM      7  C8  UNL d   1      -1.970  -3.275   3.427  0.00  0.00     0.078 C 
ENDROOT
BRANCH   1   8
ATOM      8  C1  UNL d   1       1.013  -2.899   3.150  0.00  0.00     0.053 C 
ATOM      9  C   UNL d   1       1.275  -3.613   1.834  0.00  0.00     0.018 C 
ENDBRANCH   1   8
TORSDOF 1
ENDMDL
