MODEL 1
REMARK minimizedAffinity -1.29317176
REMARK minimizedRMSD -1
REMARK  1 active torsions:
REMARK  status: ('A' for Active; 'I' for Inactive)
REMARK    1  A    between atoms: C1_2  and  C2_3 
ROOT
ATOM      1  C2  UNL d   1      -0.184  -1.417   1.868  0.00  0.00    -0.076 A 
ATOM      2  C3  UNL d   1      -1.450  -1.500   2.472  0.00  0.00     0.004 A 
ATOM      3  C4  UNL d   1      -2.562  -0.890   1.894  0.00  0.00    -0.003 A 
ATOM      4  C5  UNL d   1      -2.426  -0.188   0.702  0.00  0.00     0.000 A 
ATOM      5  C6  UNL d   1      -1.181  -0.110   0.080  0.00  0.00     0.000 A 
ATOM      6  C7  UNL d   1      -0.052  -0.732   0.641  0.00  0.00    -0.073 A 
ATOM      7  C8  UNL d   1       1.268  -0.611  -0.070  0.00  0.00     0.078 C 
ENDROOT
BRANCH   1   8
ATOM      8  C1  UNL d   1       0.991  -2.075   2.556  0.00  0.00     0.053 C 
ATOM      9  C   UNL d   1       1.331  -3.431   1.957  0.00  0.00     0.018 C 
ENDBRANCH   1   8
TORSDOF 1
ENDMDL
