MODEL 1
REMARK minimizedAffinity -1.7996279
REMARK minimizedRMSD -1
REMARK  1 active torsions:
REMARK  status: ('A' for Active; 'I' for Inactive)
REMARK    1  A    between atoms: C1_2  and  C2_3 
ROOT
ATOM      1  C2  UNL d   1       0.728  -2.335   1.200  0.00  0.00    -0.076 A 
ATOM      2  C3  UNL d   1       1.222  -1.651   0.075  0.00  0.00     0.004 A 
ATOM      3  C4  UNL d   1       0.779  -0.366  -0.234  0.00  0.00    -0.003 A 
ATOM      4  C5  UNL d   1      -0.164   0.257   0.576  0.00  0.00     0.000 A 
ATOM      5  C6  UNL d   1      -0.651  -0.400   1.706  0.00  0.00     0.000 A 
ATOM      6  C7  UNL d   1      -0.204  -1.689   2.041  0.00  0.00    -0.073 A 
ATOM      7  C8  UNL d   1      -0.768  -2.353   3.268  0.00  0.00     0.078 C 
ENDROOT
BRANCH   1   8
ATOM      8  C1  UNL d   1       1.224  -3.737   1.471  0.00  0.00     0.053 C 
ATOM      9  C   UNL d   1       2.506  -4.057   0.717  0.00  0.00     0.018 C 
ENDBRANCH   1   8
TORSDOF 1
ENDMDL
