MODEL 1
REMARK minimizedAffinity 1.04003119
REMARK minimizedRMSD -1
REMARK  1 active torsions:
REMARK  status: ('A' for Active; 'I' for Inactive)
REMARK    1  A    between atoms: C1_2  and  C2_3 
ROOT
ATOM      1  C2  UNL d   1      -0.817  -0.919   1.957  0.00  0.00    -0.076 A 
ATOM      2  C3  UNL d   1      -0.835  -1.419   3.271  0.00  0.00     0.004 A 
ATOM      3  C4  UNL d   1      -0.030  -2.495   3.640  0.00  0.00    -0.003 A 
ATOM      4  C5  UNL d   1       0.807  -3.089   2.701  0.00  0.00     0.000 A 
ATOM      5  C6  UNL d   1       0.850  -2.596   1.398  0.00  0.00     0.000 A 
ATOM      6  C7  UNL d   1       0.057  -1.501   1.013  0.00  0.00    -0.073 A 
ATOM      7  C8  UNL d   1       0.139  -1.014  -0.407  0.00  0.00     0.078 C 
ENDROOT
BRANCH   1   8
ATOM      8  C1  UNL d   1      -1.732   0.233   1.607  0.00  0.00     0.053 C 
ATOM      9  C   UNL d   1      -3.095  -0.233   1.119  0.00  0.00     0.018 C 
ENDBRANCH   1   8
TORSDOF 1
ENDMDL
