MODEL 1
REMARK minimizedAffinity 1.15340269
REMARK minimizedRMSD -1
REMARK  0 active torsions:
REMARK  status: ('A' for Active; 'I' for Inactive)
ROOT
ATOM      1  C   UNL d   1       3.379   2.991  -4.135  0.00  0.00     0.172 C 
ATOM      2  N   UNL d   1       2.816   4.086  -4.889  0.00  0.00    -0.070 N 
ATOM      3  C1  UNL d   1       3.498   5.193  -5.318  0.00  0.00    -0.004 A 
ATOM      4  C2  UNL d   1       2.611   5.998  -6.000  0.00  0.00    -0.047 A 
ATOM      5  C3  UNL d   1       1.352   5.352  -5.979  0.00  0.00    -0.047 A 
ATOM      6  C4  UNL d   1       1.507   4.171  -5.285  0.00  0.00    -0.004 A 
ENDROOT
TORSDOF 0
ENDMDL
