MODEL 1
REMARK minimizedAffinity 2.7166388
REMARK minimizedRMSD -1
REMARK  0 active torsions:
REMARK  status: ('A' for Active; 'I' for Inactive)
ROOT
ATOM      1  C   UNL d   1      -6.000  -0.004   5.845  0.00  0.00     0.172 C 
ATOM      2  N   UNL d   1      -5.525   1.239   5.284  0.00  0.00    -0.070 N 
ATOM      3  C1  UNL d   1      -5.216   1.454   3.967  0.00  0.00    -0.004 A 
ATOM      4  C2  UNL d   1      -4.802   2.762   3.839  0.00  0.00    -0.047 A 
ATOM      5  C3  UNL d   1      -4.864   3.354   5.123  0.00  0.00    -0.047 A 
ATOM      6  C4  UNL d   1      -5.315   2.389   5.999  0.00  0.00    -0.004 A 
ENDROOT
TORSDOF 0
ENDMDL
