MODEL 1
REMARK minimizedAffinity 7.81530905
REMARK minimizedRMSD -1
REMARK  0 active torsions:
REMARK  status: ('A' for Active; 'I' for Inactive)
ROOT
ATOM      1  C   UNL d   1      -1.187  -5.931   2.133  0.00  0.00     0.172 C 
ATOM      2  N   UNL d   1      -1.342  -4.620   1.549  0.00  0.00    -0.070 N 
ATOM      3  C1  UNL d   1      -2.533  -3.988   1.311  0.00  0.00    -0.004 A 
ATOM      4  C2  UNL d   1      -2.254  -2.761   0.748  0.00  0.00    -0.047 A 
ATOM      5  C3  UNL d   1      -0.847  -2.653   0.643  0.00  0.00    -0.047 A 
ATOM      6  C4  UNL d   1      -0.307  -3.818   1.146  0.00  0.00    -0.004 A 
ENDROOT
TORSDOF 0
ENDMDL
