MODEL 1
REMARK minimizedAffinity 4.04075003
REMARK minimizedRMSD -1
REMARK  0 active torsions:
REMARK  status: ('A' for Active; 'I' for Inactive)
ROOT
ATOM      1  C   UNL d   1       4.716   5.887  -5.908  0.00  0.00     0.172 C 
ATOM      2  N   UNL d   1       3.403   5.446  -5.499  0.00  0.00    -0.070 N 
ATOM      3  C1  UNL d   1       2.215   5.907  -5.999  0.00  0.00    -0.004 A 
ATOM      4  C2  UNL d   1       1.197   5.239  -5.353  0.00  0.00    -0.047 A 
ATOM      5  C3  UNL d   1       1.795   4.347  -4.432  0.00  0.00    -0.047 A 
ATOM      6  C4  UNL d   1       3.161   4.496  -4.543  0.00  0.00    -0.004 A 
ENDROOT
TORSDOF 0
ENDMDL
