MODEL 1
REMARK minimizedAffinity -1.0247643
REMARK minimizedRMSD -1
REMARK  0 active torsions:
REMARK  status: ('A' for Active; 'I' for Inactive)
ROOT
ATOM      1  C   UNL d   1      -5.794   3.749   5.635  0.00  0.00     0.172 C 
ATOM      2  N   UNL d   1      -5.566   2.534   4.889  0.00  0.00    -0.070 N 
ATOM      3  C1  UNL d   1      -4.892   2.442   3.700  0.00  0.00    -0.004 A 
ATOM      4  C2  UNL d   1      -4.893   1.119   3.316  0.00  0.00    -0.047 A 
ATOM      5  C3  UNL d   1      -5.592   0.390   4.308  0.00  0.00    -0.047 A 
ATOM      6  C4  UNL d   1      -5.998   1.291   5.269  0.00  0.00    -0.004 A 
ENDROOT
TORSDOF 0
ENDMDL
