MODEL 1
REMARK minimizedAffinity 11.8727112
REMARK minimizedRMSD -1
REMARK  0 active torsions:
REMARK  status: ('A' for Active; 'I' for Inactive)
ROOT
ATOM      1  C   UNL d   1      -5.658   0.222   6.000  0.00  0.00     0.172 C 
ATOM      2  N   UNL d   1      -4.816   0.714   4.935  0.00  0.00    -0.070 N 
ATOM      3  C1  UNL d   1      -4.128   1.898   4.944  0.00  0.00    -0.004 A 
ATOM      4  C2  UNL d   1      -3.447   1.999   3.750  0.00  0.00    -0.047 A 
ATOM      5  C3  UNL d   1      -3.737   0.837   2.997  0.00  0.00    -0.047 A 
ATOM      6  C4  UNL d   1      -4.587   0.058   3.754  0.00  0.00    -0.004 A 
ENDROOT
TORSDOF 0
ENDMDL
