MODEL 1
REMARK minimizedAffinity 10.2750235
REMARK minimizedRMSD -1
REMARK  0 active torsions:
REMARK  status: ('A' for Active; 'I' for Inactive)
ROOT
ATOM      1  C   UNL d   1      -4.949  -0.007   2.647  0.00  0.00     0.172 C 
ATOM      2  N   UNL d   1      -4.177   1.164   2.991  0.00  0.00    -0.070 N 
ATOM      3  C1  UNL d   1      -3.149   1.205   3.895  0.00  0.00    -0.004 A 
ATOM      4  C2  UNL d   1      -2.675   2.498   3.936  0.00  0.00    -0.047 A 
ATOM      5  C3  UNL d   1      -3.445   3.261   3.026  0.00  0.00    -0.047 A 
ATOM      6  C4  UNL d   1      -4.367   2.410   2.455  0.00  0.00    -0.004 A 
ENDROOT
TORSDOF 0
ENDMDL
