MODEL 1
REMARK minimizedAffinity 11.979291
REMARK minimizedRMSD -1
REMARK  0 active torsions:
REMARK  status: ('A' for Active; 'I' for Inactive)
ROOT
ATOM      1  C   UNL d   1      -4.176  -5.680  -1.653  0.00  0.00     0.172 C 
ATOM      2  N   UNL d   1      -4.129  -5.766  -0.213  0.00  0.00    -0.070 N 
ATOM      3  C1  UNL d   1      -3.006  -5.989   0.538  0.00  0.00    -0.004 A 
ATOM      4  C2  UNL d   1      -3.379  -6.000   1.864  0.00  0.00    -0.047 A 
ATOM      5  C3  UNL d   1      -4.776  -5.777   1.912  0.00  0.00    -0.047 A 
ATOM      6  C4  UNL d   1      -5.214  -5.636   0.613  0.00  0.00    -0.004 A 
ENDROOT
TORSDOF 0
ENDMDL
