MODEL 1
REMARK minimizedAffinity 13.1866379
REMARK minimizedRMSD -1
REMARK  0 active torsions:
REMARK  status: ('A' for Active; 'I' for Inactive)
ROOT
ATOM      1  C   UNL d   1      -3.684  -5.138   1.322  0.00  0.00     0.172 C 
ATOM      2  N   UNL d   1      -2.683  -4.114   1.139  0.00  0.00    -0.070 N 
ATOM      3  C1  UNL d   1      -2.917  -2.839   0.697  0.00  0.00    -0.004 A 
ATOM      4  C2  UNL d   1      -1.709  -2.176   0.661  0.00  0.00    -0.047 A 
ATOM      5  C3  UNL d   1      -0.715  -3.084   1.095  0.00  0.00    -0.047 A 
ATOM      6  C4  UNL d   1      -1.345  -4.276   1.385  0.00  0.00    -0.004 A 
ENDROOT
TORSDOF 0
ENDMDL
