MODEL 1
REMARK minimizedAffinity 2.11002779
REMARK minimizedRMSD -1
REMARK  0 active torsions:
REMARK  status: ('A' for Active; 'I' for Inactive)
ROOT
ATOM      1  C   UNL d   1      -5.903   5.633   2.281  0.00  0.00     0.172 C 
ATOM      2  N   UNL d   1      -5.502   5.359   3.641  0.00  0.00    -0.070 N 
ATOM      3  C1  UNL d   1      -4.575   4.428   4.028  0.00  0.00    -0.004 A 
ATOM      4  C2  UNL d   1      -4.478   4.475   5.402  0.00  0.00    -0.047 A 
ATOM      5  C3  UNL d   1      -5.379   5.468   5.856  0.00  0.00    -0.047 A 
ATOM      6  C4  UNL d   1      -5.999   5.999   4.745  0.00  0.00    -0.004 A 
ENDROOT
TORSDOF 0
ENDMDL
