MODEL 1
REMARK minimizedAffinity 9.00807953
REMARK minimizedRMSD -1
REMARK  0 active torsions:
REMARK  status: ('A' for Active; 'I' for Inactive)
ROOT
ATOM      1  C   UNL d   1      -4.306  -5.957   1.345  0.00  0.00     0.172 C 
ATOM      2  N   UNL d   1      -3.140  -5.117   1.482  0.00  0.00    -0.070 N 
ATOM      3  C1  UNL d   1      -3.062  -3.796   1.131  0.00  0.00    -0.004 A 
ATOM      4  C2  UNL d   1      -1.788  -3.356   1.418  0.00  0.00    -0.047 A 
ATOM      5  C3  UNL d   1      -1.075  -4.452   1.960  0.00  0.00    -0.047 A 
ATOM      6  C4  UNL d   1      -1.935  -5.529   1.989  0.00  0.00    -0.004 A 
ENDROOT
TORSDOF 0
ENDMDL
