MODEL 1
REMARK minimizedAffinity 14.0415363
REMARK minimizedRMSD -1
REMARK  0 active torsions:
REMARK  status: ('A' for Active; 'I' for Inactive)
ROOT
ATOM      1  C   UNL d   1      -5.755  -5.694  -2.498  0.00  0.00     0.172 C 
ATOM      2  N   UNL d   1      -4.865  -4.595  -2.794  0.00  0.00    -0.070 N 
ATOM      3  C1  UNL d   1      -5.203  -3.456  -3.475  0.00  0.00    -0.004 A 
ATOM      4  C2  UNL d   1      -4.081  -2.659  -3.547  0.00  0.00    -0.047 A 
ATOM      5  C3  UNL d   1      -3.032  -3.344  -2.887  0.00  0.00    -0.047 A 
ATOM      6  C4  UNL d   1      -3.546  -4.539  -2.431  0.00  0.00    -0.004 A 
ENDROOT
TORSDOF 0
ENDMDL
