MODEL 1
REMARK minimizedAffinity 14.6178102
REMARK minimizedRMSD -1
REMARK  0 active torsions:
REMARK  status: ('A' for Active; 'I' for Inactive)
ROOT
ATOM      1  C   UNL d   1      -1.383  -5.402   2.136  0.00  0.00     0.172 C 
ATOM      2  N   UNL d   1      -1.582  -4.112   1.518  0.00  0.00    -0.070 N 
ATOM      3  C1  UNL d   1      -0.599  -3.202   1.236  0.00  0.00    -0.004 A 
ATOM      4  C2  UNL d   1      -1.195  -2.105   0.652  0.00  0.00    -0.047 A 
ATOM      5  C3  UNL d   1      -2.584  -2.364   0.582  0.00  0.00    -0.047 A 
ATOM      6  C4  UNL d   1      -2.796  -3.614   1.126  0.00  0.00    -0.004 A 
ENDROOT
TORSDOF 0
ENDMDL
