MODEL 1
REMARK minimizedAffinity 11.6029854
REMARK minimizedRMSD -1
REMARK  0 active torsions:
REMARK  status: ('A' for Active; 'I' for Inactive)
ROOT
ATOM      1  C   UNL d   1      -1.836  -2.551   1.437  0.00  0.00     0.172 C 
ATOM      2  N   UNL d   1      -1.944  -3.953   1.764  0.00  0.00    -0.070 N 
ATOM      3  C1  UNL d   1      -3.067  -4.723   1.620  0.00  0.00    -0.004 A 
ATOM      4  C2  UNL d   1      -2.761  -5.999   2.040  0.00  0.00    -0.047 A 
ATOM      5  C3  UNL d   1      -1.407  -5.997   2.452  0.00  0.00    -0.047 A 
ATOM      6  C4  UNL d   1      -0.926  -4.717   2.271  0.00  0.00    -0.004 A 
ENDROOT
TORSDOF 0
ENDMDL
