MODEL 1
REMARK minimizedAffinity 13.7451878
REMARK minimizedRMSD -1
REMARK  0 active torsions:
REMARK  status: ('A' for Active; 'I' for Inactive)
ROOT
ATOM      1  C   UNL d   1       1.447   0.057   2.139  0.00  0.00     0.172 C 
ATOM      2  N   UNL d   1       0.767  -0.109   3.402  0.00  0.00    -0.070 N 
ATOM      3  C1  UNL d   1       1.014   0.608   4.542  0.00  0.00    -0.004 A 
ATOM      4  C2  UNL d   1       0.160   0.151   5.521  0.00  0.00    -0.047 A 
ATOM      5  C3  UNL d   1      -0.628  -0.878   4.951  0.00  0.00    -0.047 A 
ATOM      6  C4  UNL d   1      -0.231  -1.018   3.638  0.00  0.00    -0.004 A 
ENDROOT
TORSDOF 0
ENDMDL
