MODEL 1
REMARK minimizedAffinity 8.67625999
REMARK minimizedRMSD -1
REMARK  0 active torsions:
REMARK  status: ('A' for Active; 'I' for Inactive)
ROOT
ATOM      1  C   UNL d   1      -1.137   4.525   1.496  0.00  0.00     0.172 C 
ATOM      2  N   UNL d   1      -1.788   4.871   0.254  0.00  0.00    -0.070 N 
ATOM      3  C1  UNL d   1      -1.753   4.132  -0.898  0.00  0.00    -0.004 A 
ATOM      4  C2  UNL d   1      -2.494   4.799  -1.850  0.00  0.00    -0.047 A 
ATOM      5  C3  UNL d   1      -2.991   5.980  -1.249  0.00  0.00    -0.047 A 
ATOM      6  C4  UNL d   1      -2.538   6.000   0.054  0.00  0.00    -0.004 A 
ENDROOT
TORSDOF 0
ENDMDL
