MODEL 1
REMARK minimizedAffinity 9.50578976
REMARK minimizedRMSD -1
REMARK  0 active torsions:
REMARK  status: ('A' for Active; 'I' for Inactive)
ROOT
ATOM      1  C   UNL d   1      -5.441  -3.364  -3.374  0.00  0.00     0.172 C 
ATOM      2  N   UNL d   1      -4.154  -2.889  -2.922  0.00  0.00    -0.070 N 
ATOM      3  C1  UNL d   1      -3.030  -2.771  -3.695  0.00  0.00    -0.004 A 
ATOM      4  C2  UNL d   1      -2.018  -2.284  -2.896  0.00  0.00    -0.047 A 
ATOM      5  C3  UNL d   1      -2.552  -2.105  -1.598  0.00  0.00    -0.047 A 
ATOM      6  C4  UNL d   1      -3.876  -2.487  -1.642  0.00  0.00    -0.004 A 
ENDROOT
TORSDOF 0
ENDMDL
