MODEL 1
REMARK minimizedAffinity 4.59821749
REMARK minimizedRMSD -1
REMARK  0 active torsions:
REMARK  status: ('A' for Active; 'I' for Inactive)
ROOT
ATOM      1  C   UNL d   1      -5.472  -2.810  -4.997  0.00  0.00     0.172 C 
ATOM      2  N   UNL d   1      -4.776  -3.512  -3.945  0.00  0.00    -0.070 N 
ATOM      3  C1  UNL d   1      -3.563  -3.159  -3.416  0.00  0.00    -0.004 A 
ATOM      4  C2  UNL d   1      -3.245  -4.078  -2.439  0.00  0.00    -0.047 A 
ATOM      5  C3  UNL d   1      -4.302  -5.016  -2.379  0.00  0.00    -0.047 A 
ATOM      6  C4  UNL d   1      -5.237  -4.642  -3.322  0.00  0.00    -0.004 A 
ENDROOT
TORSDOF 0
ENDMDL
