MODEL 1
REMARK minimizedAffinity -4.70242119
REMARK minimizedRMSD -1
REMARK  0 active torsions:
REMARK  status: ('A' for Active; 'I' for Inactive)
ROOT
ATOM      1  C   UNL d   1       0.048  -2.389   2.224  0.00  0.00     0.020 A 
ATOM      2  C1  UNL d   1       1.281  -2.769   1.695  0.00  0.00     0.020 A 
ATOM      3  C2  UNL d   1       1.856  -2.025   0.662  0.00  0.00     0.034 A 
ATOM      4  C3  UNL d   1       1.199  -0.899   0.155  0.00  0.00     0.017 A 
ATOM      5  C4  UNL d   1      -0.038  -0.518   0.686  0.00  0.00     0.017 A 
ATOM      6  C5  UNL d   1      -0.610  -1.266   1.720  0.00  0.00     0.034 A 
ATOM      7 Cl   UNL d   1      -0.909   0.860   0.112  0.00  0.00    -0.070 Cl
ATOM      8 Cl1  UNL d   1       1.970  -0.026  -1.122  0.00  0.00    -0.070 Cl
ENDROOT
TORSDOF 0
ENDMDL
