MODEL 1
REMARK minimizedAffinity -5.29571867
REMARK minimizedRMSD -1
REMARK  0 active torsions:
REMARK  status: ('A' for Active; 'I' for Inactive)
ROOT
ATOM      1  C   UNL d   1       1.163  -2.420   2.006  0.00  0.00     0.020 A 
ATOM      2  C1  UNL d   1      -0.174  -2.121   2.265  0.00  0.00     0.020 A 
ATOM      3  C2  UNL d   1      -0.829  -1.142   1.514  0.00  0.00     0.034 A 
ATOM      4  C3  UNL d   1      -0.147  -0.460   0.500  0.00  0.00     0.017 A 
ATOM      5  C4  UNL d   1       1.194  -0.762   0.240  0.00  0.00     0.017 A 
ATOM      6  C5  UNL d   1       1.845  -1.742   0.995  0.00  0.00     0.034 A 
ATOM      7 Cl   UNL d   1       2.102   0.038  -0.995  0.00  0.00    -0.070 Cl
ATOM      8 Cl1  UNL d   1      -1.020   0.737  -0.390  0.00  0.00    -0.070 Cl
ENDROOT
TORSDOF 0
ENDMDL
