MODEL 1
REMARK minimizedAffinity -4.8057127
REMARK minimizedRMSD -1
REMARK  0 active torsions:
REMARK  status: ('A' for Active; 'I' for Inactive)
ROOT
ATOM      1  C   UNL d   1       0.426   0.394  -0.347  0.00  0.00     0.020 A 
ATOM      2  C1  UNL d   1      -0.764   0.576   0.355  0.00  0.00     0.020 A 
ATOM      3  C2  UNL d   1      -1.123  -0.320   1.365  0.00  0.00     0.034 A 
ATOM      4  C3  UNL d   1      -0.290  -1.402   1.674  0.00  0.00     0.017 A 
ATOM      5  C4  UNL d   1       0.904  -1.583   0.969  0.00  0.00     0.017 A 
ATOM      6  C5  UNL d   1       1.259  -0.683  -0.041  0.00  0.00     0.034 A 
ATOM      7 Cl   UNL d   1       1.983  -2.894   1.294  0.00  0.00    -0.070 Cl
ATOM      8 Cl1  UNL d   1      -0.796  -2.470   2.935  0.00  0.00    -0.070 Cl
ENDROOT
TORSDOF 0
ENDMDL
