MODEL 1
REMARK minimizedAffinity -5.20326185
REMARK minimizedRMSD -1
REMARK  0 active torsions:
REMARK  status: ('A' for Active; 'I' for Inactive)
ROOT
ATOM      1  C   UNL d   1       1.349  -2.746   1.830  0.00  0.00     0.020 A 
ATOM      2  C1  UNL d   1       0.016  -2.517   2.170  0.00  0.00     0.020 A 
ATOM      3  C2  UNL d   1      -0.672  -1.439   1.610  0.00  0.00     0.034 A 
ATOM      4  C3  UNL d   1      -0.027  -0.585   0.707  0.00  0.00     0.017 A 
ATOM      5  C4  UNL d   1       1.311  -0.815   0.367  0.00  0.00     0.017 A 
ATOM      6  C5  UNL d   1       1.995  -1.897   0.931  0.00  0.00     0.034 A 
ATOM      7 Cl   UNL d   1       2.173   0.195  -0.739  0.00  0.00    -0.070 Cl
ATOM      8 Cl1  UNL d   1      -0.939   0.729   0.053  0.00  0.00    -0.070 Cl
ENDROOT
TORSDOF 0
ENDMDL
