MODEL 1
REMARK minimizedAffinity -3.94851565
REMARK minimizedRMSD -1
REMARK  0 active torsions:
REMARK  status: ('A' for Active; 'I' for Inactive)
ROOT
ATOM      1  C   UNL d   1      -0.788   0.604  -0.154  0.00  0.00     0.020 A 
ATOM      2  C1  UNL d   1       0.447   0.112  -0.573  0.00  0.00     0.020 A 
ATOM      3  C2  UNL d   1       1.042  -0.953   0.108  0.00  0.00     0.034 A 
ATOM      4  C3  UNL d   1       0.401  -1.529   1.211  0.00  0.00     0.017 A 
ATOM      5  C4  UNL d   1      -0.839  -1.034   1.631  0.00  0.00     0.017 A 
ATOM      6  C5  UNL d   1      -1.430   0.033   0.946  0.00  0.00     0.034 A 
ATOM      7 Cl   UNL d   1      -1.690  -1.692   2.983  0.00  0.00    -0.070 Cl
ATOM      8 Cl1  UNL d   1       1.194  -2.843   2.005  0.00  0.00    -0.070 Cl
ENDROOT
TORSDOF 0
ENDMDL
