MODEL 1
REMARK minimizedAffinity -5.38236046
REMARK minimizedRMSD -1
REMARK  0 active torsions:
REMARK  status: ('A' for Active; 'I' for Inactive)
ROOT
ATOM      1  C   UNL d   1      -0.533  -2.145   2.057  0.00  0.00     0.020 A 
ATOM      2  C1  UNL d   1       0.792  -2.565   1.955  0.00  0.00     0.020 A 
ATOM      3  C2  UNL d   1       1.683  -1.872   1.133  0.00  0.00     0.034 A 
ATOM      4  C3  UNL d   1       1.250  -0.755   0.410  0.00  0.00     0.017 A 
ATOM      5  C4  UNL d   1      -0.081  -0.334   0.513  0.00  0.00     0.017 A 
ATOM      6  C5  UNL d   1      -0.969  -1.032   1.337  0.00  0.00     0.034 A 
ATOM      7 Cl   UNL d   1      -0.689   1.036  -0.348  0.00  0.00    -0.070 Cl
ATOM      8 Cl1  UNL d   1       2.406   0.056  -0.586  0.00  0.00    -0.070 Cl
ENDROOT
TORSDOF 0
ENDMDL
