MODEL 1
REMARK minimizedAffinity -2.52322149
REMARK minimizedRMSD -1
REMARK  0 active torsions:
REMARK  status: ('A' for Active; 'I' for Inactive)
ROOT
ATOM      1  C   UNL d   1       0.264  -2.687   2.256  0.00  0.00     0.020 A 
ATOM      2  C1  UNL d   1      -0.567  -2.085   1.311  0.00  0.00     0.020 A 
ATOM      3  C2  UNL d   1      -0.081  -1.046   0.515  0.00  0.00     0.034 A 
ATOM      4  C3  UNL d   1       1.240  -0.605   0.662  0.00  0.00     0.017 A 
ATOM      5  C4  UNL d   1       2.073  -1.210   1.610  0.00  0.00     0.017 A 
ATOM      6  C5  UNL d   1       1.581  -2.250   2.405  0.00  0.00     0.034 A 
ATOM      7 Cl   UNL d   1       3.713  -0.721   1.849  0.00  0.00    -0.070 Cl
ATOM      8 Cl1  UNL d   1       1.774   0.685  -0.356  0.00  0.00    -0.070 Cl
ENDROOT
TORSDOF 0
ENDMDL
