MODEL 1
REMARK minimizedAffinity -5.07963705
REMARK minimizedRMSD -1
REMARK  0 active torsions:
REMARK  status: ('A' for Active; 'I' for Inactive)
ROOT
ATOM      1  C   UNL d   1       1.129   0.052  -0.661  0.00  0.00     0.020 A 
ATOM      2  C1  UNL d   1       0.046   0.803  -0.207  0.00  0.00     0.020 A 
ATOM      3  C2  UNL d   1      -0.752   0.321   0.833  0.00  0.00     0.034 A 
ATOM      4  C3  UNL d   1      -0.467  -0.917   1.422  0.00  0.00     0.017 A 
ATOM      5  C4  UNL d   1       0.621  -1.670   0.966  0.00  0.00     0.017 A 
ATOM      6  C5  UNL d   1       1.416  -1.181  -0.075  0.00  0.00     0.034 A 
ATOM      7 Cl   UNL d   1       1.034  -3.205   1.643  0.00  0.00    -0.070 Cl
ATOM      8 Cl1  UNL d   1      -1.495  -1.452   2.703  0.00  0.00    -0.070 Cl
ENDROOT
TORSDOF 0
ENDMDL
