MODEL 1
REMARK minimizedAffinity -4.02391195
REMARK minimizedRMSD -1
REMARK  0 active torsions:
REMARK  status: ('A' for Active; 'I' for Inactive)
ROOT
ATOM      1  C   UNL d   1       1.207  -2.510   0.892  0.00  0.00     0.020 A 
ATOM      2  C1  UNL d   1      -0.129  -2.221   1.169  0.00  0.00     0.020 A 
ATOM      3  C2  UNL d   1      -0.664  -0.983   0.807  0.00  0.00     0.034 A 
ATOM      4  C3  UNL d   1       0.136  -0.030   0.166  0.00  0.00     0.017 A 
ATOM      5  C4  UNL d   1       1.476  -0.322  -0.112  0.00  0.00     0.017 A 
ATOM      6  C5  UNL d   1       2.007  -1.563   0.253  0.00  0.00     0.034 A 
ATOM      7 Cl   UNL d   1       2.525   0.803  -0.900  0.00  0.00    -0.070 Cl
ATOM      8 Cl1  UNL d   1      -0.593   1.479  -0.254  0.00  0.00    -0.070 Cl
ENDROOT
TORSDOF 0
ENDMDL
