MODEL 1
REMARK minimizedAffinity -5.20063066
REMARK minimizedRMSD -1
REMARK  0 active torsions:
REMARK  status: ('A' for Active; 'I' for Inactive)
ROOT
ATOM      1  C   UNL d   1       2.136  -0.780  -0.986  0.00  0.00     0.020 A 
ATOM      2  C1  UNL d   1       2.283  -1.948  -0.240  0.00  0.00     0.020 A 
ATOM      3  C2  UNL d   1       1.366  -2.253   0.769  0.00  0.00     0.034 A 
ATOM      4  C3  UNL d   1       0.298  -1.389   1.033  0.00  0.00     0.017 A 
ATOM      5  C4  UNL d   1       0.151  -0.216   0.284  0.00  0.00     0.017 A 
ATOM      6  C5  UNL d   1       1.072   0.084  -0.725  0.00  0.00     0.034 A 
ATOM      7 Cl   UNL d   1      -1.142   0.899   0.552  0.00  0.00    -0.070 Cl
ATOM      8 Cl1  UNL d   1      -0.798  -1.829   2.295  0.00  0.00    -0.070 Cl
ENDROOT
TORSDOF 0
ENDMDL
