MODEL 1
REMARK minimizedAffinity -5.92830849
REMARK minimizedRMSD -1
REMARK  0 active torsions:
REMARK  status: ('A' for Active; 'I' for Inactive)
ROOT
ATOM      1  C   UNL d   1      -0.166  -2.418   2.592  0.00  0.00     0.020 A 
ATOM      2  C1  UNL d   1       0.986  -2.913   1.982  0.00  0.00     0.020 A 
ATOM      3  C2  UNL d   1       1.551  -2.233   0.902  0.00  0.00     0.034 A 
ATOM      4  C3  UNL d   1       0.965  -1.054   0.428  0.00  0.00     0.017 A 
ATOM      5  C4  UNL d   1      -0.192  -0.558   1.041  0.00  0.00     0.017 A 
ATOM      6  C5  UNL d   1      -0.753  -1.243   2.122  0.00  0.00     0.034 A 
ATOM      7 Cl   UNL d   1      -0.972   0.891   0.512  0.00  0.00    -0.070 Cl
ATOM      8 Cl1  UNL d   1       1.718  -0.264  -0.912  0.00  0.00    -0.070 Cl
ENDROOT
TORSDOF 0
ENDMDL
