MODEL 1
REMARK minimizedAffinity -3.88234377
REMARK minimizedRMSD -1
REMARK  0 active torsions:
REMARK  status: ('A' for Active; 'I' for Inactive)
ROOT
ATOM      1  C   UNL d   1       1.372  -2.568   1.628  0.00  0.00     0.020 A 
ATOM      2  C1  UNL d   1      -0.020  -2.593   1.702  0.00  0.00     0.020 A 
ATOM      3  C2  UNL d   1      -0.769  -1.572   1.113  0.00  0.00     0.034 A 
ATOM      4  C3  UNL d   1      -0.126  -0.522   0.446  0.00  0.00     0.017 A 
ATOM      5  C4  UNL d   1       1.271  -0.498   0.373  0.00  0.00     0.017 A 
ATOM      6  C5  UNL d   1       2.016  -1.523   0.965  0.00  0.00     0.034 A 
ATOM      7 Cl   UNL d   1       2.135   0.764  -0.432  0.00  0.00    -0.070 Cl
ATOM      8 Cl1  UNL d   1      -1.115   0.706  -0.260  0.00  0.00    -0.070 Cl
ENDROOT
TORSDOF 0
ENDMDL
