MODEL 1
REMARK minimizedAffinity -4.33889198
REMARK minimizedRMSD -1
REMARK  0 active torsions:
REMARK  status: ('A' for Active; 'I' for Inactive)
ROOT
ATOM      1  C   UNL d   1       0.421   0.364  -0.607  0.00  0.00     0.020 A 
ATOM      2  C1  UNL d   1      -0.724   0.834   0.034  0.00  0.00     0.020 A 
ATOM      3  C2  UNL d   1      -1.203   0.183   1.173  0.00  0.00     0.034 A 
ATOM      4  C3  UNL d   1      -0.537  -0.942   1.674  0.00  0.00     0.017 A 
ATOM      5  C4  UNL d   1       0.613  -1.412   1.029  0.00  0.00     0.017 A 
ATOM      6  C5  UNL d   1       1.088  -0.756  -0.111  0.00  0.00     0.034 A 
ATOM      7 Cl   UNL d   1       1.489  -2.793   1.587  0.00  0.00    -0.070 Cl
ATOM      8 Cl1  UNL d   1      -1.185  -1.697   3.086  0.00  0.00    -0.070 Cl
ENDROOT
TORSDOF 0
ENDMDL
