MODEL 1
REMARK minimizedAffinity -5.67963219
REMARK minimizedRMSD -1
REMARK  0 active torsions:
REMARK  status: ('A' for Active; 'I' for Inactive)
ROOT
ATOM      1  C   UNL d   1       0.261  -2.588   2.388  0.00  0.00     0.020 A 
ATOM      2  C1  UNL d   1       1.374  -3.064   1.696  0.00  0.00     0.020 A 
ATOM      3  C2  UNL d   1       1.837  -2.384   0.568  0.00  0.00     0.034 A 
ATOM      4  C3  UNL d   1       1.188  -1.225   0.128  0.00  0.00     0.017 A 
ATOM      5  C4  UNL d   1       0.071  -0.749   0.823  0.00  0.00     0.017 A 
ATOM      6  C5  UNL d   1      -0.389  -1.433   1.952  0.00  0.00     0.034 A 
ATOM      7 Cl   UNL d   1      -0.783   0.675   0.341  0.00  0.00    -0.070 Cl
ATOM      8 Cl1  UNL d   1       1.816  -0.435  -1.275  0.00  0.00    -0.070 Cl
ENDROOT
TORSDOF 0
ENDMDL
