MODEL 1
REMARK minimizedAffinity -4.72125673
REMARK minimizedRMSD -1
REMARK  0 active torsions:
REMARK  status: ('A' for Active; 'I' for Inactive)
ROOT
ATOM      1  C   UNL d   1       0.148  -2.261   2.059  0.00  0.00     0.020 A 
ATOM      2  C1  UNL d   1       1.399  -2.606   1.547  0.00  0.00     0.020 A 
ATOM      3  C2  UNL d   1       1.964  -1.851   0.517  0.00  0.00     0.034 A 
ATOM      4  C3  UNL d   1       1.278  -0.749  -0.006  0.00  0.00     0.017 A 
ATOM      5  C4  UNL d   1       0.023  -0.404   0.508  0.00  0.00     0.017 A 
ATOM      6  C5  UNL d   1      -0.538  -1.162   1.540  0.00  0.00     0.034 A 
ATOM      7 Cl   UNL d   1      -0.883   0.943  -0.086  0.00  0.00    -0.070 Cl
ATOM      8 Cl1  UNL d   1       2.037   0.139  -1.280  0.00  0.00    -0.070 Cl
ENDROOT
TORSDOF 0
ENDMDL
