MODEL 1
REMARK minimizedAffinity -5.69503021
REMARK minimizedRMSD -1
REMARK  0 active torsions:
REMARK  status: ('A' for Active; 'I' for Inactive)
ROOT
ATOM      1  C   UNL d   1       1.475  -2.855   1.863  0.00  0.00     0.020 A 
ATOM      2  C1  UNL d   1       1.970  -2.179   0.748  0.00  0.00     0.020 A 
ATOM      3  C2  UNL d   1       1.288  -1.069   0.245  0.00  0.00     0.034 A 
ATOM      4  C3  UNL d   1       0.107  -0.632   0.857  0.00  0.00     0.017 A 
ATOM      5  C4  UNL d   1      -0.388  -1.310   1.976  0.00  0.00     0.017 A 
ATOM      6  C5  UNL d   1       0.298  -2.421   2.475  0.00  0.00     0.034 A 
ATOM      7 Cl   UNL d   1      -1.839  -0.830   2.784  0.00  0.00    -0.070 Cl
ATOM      8 Cl1  UNL d   1      -0.684   0.748   0.181  0.00  0.00    -0.070 Cl
ENDROOT
TORSDOF 0
ENDMDL
