MODEL 1
REMARK minimizedAffinity -5.82209826
REMARK minimizedRMSD -1
REMARK  0 active torsions:
REMARK  status: ('A' for Active; 'I' for Inactive)
ROOT
ATOM      1  C   UNL d   1      -0.028  -2.276   2.240  0.00  0.00     0.020 A 
ATOM      2  C1  UNL d   1       1.159  -2.706   1.647  0.00  0.00     0.020 A 
ATOM      3  C2  UNL d   1       1.780  -1.917   0.677  0.00  0.00     0.034 A 
ATOM      4  C3  UNL d   1       1.215  -0.695   0.296  0.00  0.00     0.017 A 
ATOM      5  C4  UNL d   1       0.024  -0.264   0.891  0.00  0.00     0.017 A 
ATOM      6  C5  UNL d   1      -0.594  -1.058   1.862  0.00  0.00     0.034 A 
ATOM      7 Cl   UNL d   1      -0.734   1.232   0.473  0.00  0.00    -0.070 Cl
ATOM      8 Cl1  UNL d   1       2.037   0.230  -0.910  0.00  0.00    -0.070 Cl
ENDROOT
TORSDOF 0
ENDMDL
