MODEL 1
REMARK minimizedAffinity -5.20186043
REMARK minimizedRMSD -1
REMARK  0 active torsions:
REMARK  status: ('A' for Active; 'I' for Inactive)
ROOT
ATOM      1  C   UNL d   1       0.019  -2.345   2.096  0.00  0.00     0.020 A 
ATOM      2  C1  UNL d   1       1.309  -2.663   1.673  0.00  0.00     0.020 A 
ATOM      3  C2  UNL d   1       1.890  -1.961   0.615  0.00  0.00     0.034 A 
ATOM      4  C3  UNL d   1       1.182  -0.936  -0.023  0.00  0.00     0.017 A 
ATOM      5  C4  UNL d   1      -0.113  -0.617   0.403  0.00  0.00     0.017 A 
ATOM      6  C5  UNL d   1      -0.690  -1.323   1.463  0.00  0.00     0.034 A 
ATOM      7 Cl   UNL d   1      -1.049   0.635  -0.335  0.00  0.00    -0.070 Cl
ATOM      8 Cl1  UNL d   1       1.962  -0.109  -1.324  0.00  0.00    -0.070 Cl
ENDROOT
TORSDOF 0
ENDMDL
