MODEL 1
REMARK minimizedAffinity -3.29342246
REMARK minimizedRMSD -1
REMARK  0 active torsions:
REMARK  status: ('A' for Active; 'I' for Inactive)
ROOT
ATOM      1  C   UNL d   1       1.402  -2.944   1.935  0.00  0.00     0.020 A 
ATOM      2  C1  UNL d   1       1.808  -2.380   0.726  0.00  0.00     0.020 A 
ATOM      3  C2  UNL d   1       1.039  -1.378   0.131  0.00  0.00     0.034 A 
ATOM      4  C3  UNL d   1      -0.140  -0.937   0.743  0.00  0.00     0.017 A 
ATOM      5  C4  UNL d   1      -0.547  -1.505   1.956  0.00  0.00     0.017 A 
ATOM      6  C5  UNL d   1       0.227  -2.508   2.548  0.00  0.00     0.034 A 
ATOM      7 Cl   UNL d   1      -1.989  -1.013   2.772  0.00  0.00    -0.070 Cl
ATOM      8 Cl1  UNL d   1      -1.041   0.306  -0.049  0.00  0.00    -0.070 Cl
ENDROOT
TORSDOF 0
ENDMDL
