MODEL 1
REMARK minimizedAffinity -4.76842976
REMARK minimizedRMSD -1
REMARK  0 active torsions:
REMARK  status: ('A' for Active; 'I' for Inactive)
ROOT
ATOM      1  C   UNL d   1      -0.098  -2.290   2.428  0.00  0.00     0.020 A 
ATOM      2  C1  UNL d   1       1.163  -2.824   2.164  0.00  0.00     0.020 A 
ATOM      3  C2  UNL d   1       1.951  -2.282   1.147  0.00  0.00     0.034 A 
ATOM      4  C3  UNL d   1       1.479  -1.203   0.389  0.00  0.00     0.017 A 
ATOM      5  C4  UNL d   1       0.213  -0.669   0.655  0.00  0.00     0.017 A 
ATOM      6  C5  UNL d   1      -0.572  -1.215   1.675  0.00  0.00     0.034 A 
ATOM      7 Cl   UNL d   1      -0.438   0.661  -0.237  0.00  0.00    -0.070 Cl
ATOM      8 Cl1  UNL d   1       2.507  -0.583  -0.853  0.00  0.00    -0.070 Cl
ENDROOT
TORSDOF 0
ENDMDL
