MODEL 1
REMARK minimizedAffinity 7.85630894
REMARK minimizedRMSD -1
REMARK  0 active torsions:
REMARK  status: ('A' for Active; 'I' for Inactive)
ROOT
ATOM      1  C4' PXY d   1       1.848   3.374   3.401  0.00  0.00     0.077 C 
ATOM      2  C1' PXY d   1      -1.015   0.626  -0.802  0.00  0.00     0.077 C 
ATOM      3  C1  PXY d   1      -0.262   1.357   0.292  0.00  0.00    -0.082 A 
ATOM      4  C2  PXY d   1       0.316   0.667   1.262  0.00  0.00     0.003 A 
ATOM      5  C3  PXY d   1       0.973   1.313   2.277  0.00  0.00     0.003 A 
ATOM      6  C4  PXY d   1       1.086   2.678   2.271  0.00  0.00    -0.082 A 
ATOM      7  C5  PXY d   1       0.509   3.388   1.279  0.00  0.00     0.003 A 
ATOM      8  C6  PXY d   1      -0.189   2.715   0.280  0.00  0.00     0.003 A 
ENDROOT
TORSDOF 0
ENDMDL
