MODEL 1
REMARK minimizedAffinity 1.3620224
REMARK minimizedRMSD -1
REMARK  0 active torsions:
REMARK  status: ('A' for Active; 'I' for Inactive)
ROOT
ATOM      1  C4' PXY d   1      -1.158   0.412  -1.915  0.00  0.00     0.077 C 
ATOM      2  C1' PXY d   1       0.089   5.992  -1.060  0.00  0.00     0.077 C 
ATOM      3  C1  PXY d   1      -0.229   4.525  -1.275  0.00  0.00    -0.082 A 
ATOM      4  C2  PXY d   1      -0.689   4.121  -2.448  0.00  0.00     0.003 A 
ATOM      5  C3  PXY d   1      -1.012   2.803  -2.649  0.00  0.00     0.003 A 
ATOM      6  C4  PXY d   1      -0.814   1.882  -1.656  0.00  0.00    -0.082 A 
ATOM      7  C5  PXY d   1      -0.335   2.285  -0.460  0.00  0.00     0.003 A 
ATOM      8  C6  PXY d   1      -0.052   3.633  -0.263  0.00  0.00     0.003 A 
ENDROOT
TORSDOF 0
ENDMDL
