MODEL 1
REMARK minimizedAffinity 3.63347173
REMARK minimizedRMSD -1
REMARK  0 active torsions:
REMARK  status: ('A' for Active; 'I' for Inactive)
ROOT
ATOM      1  C4' PXY d   1      -0.065   5.390  -1.143  0.00  0.00     0.077 C 
ATOM      2  C1' PXY d   1      -1.022  -0.268  -1.836  0.00  0.00     0.077 C 
ATOM      3  C1  PXY d   1      -0.767   1.213  -1.642  0.00  0.00    -0.082 A 
ATOM      4  C2  PXY d   1      -1.407   2.092  -2.398  0.00  0.00     0.003 A 
ATOM      5  C3  PXY d   1      -1.165   3.434  -2.257  0.00  0.00     0.003 A 
ATOM      6  C4  PXY d   1      -0.298   3.885  -1.298  0.00  0.00    -0.082 A 
ATOM      7  C5  PXY d   1       0.350   2.996  -0.516  0.00  0.00     0.003 A 
ATOM      8  C6  PXY d   1       0.121   1.636  -0.702  0.00  0.00     0.003 A 
ENDROOT
TORSDOF 0
ENDMDL
