MODEL 1
REMARK minimizedAffinity 14.0537424
REMARK minimizedRMSD -1
REMARK  0 active torsions:
REMARK  status: ('A' for Active; 'I' for Inactive)
ROOT
ATOM      1  C4' PXY d   1      -0.340   2.572   0.960  0.00  0.00     0.077 C 
ATOM      2  C1' PXY d   1      -3.483  -0.265  -2.976  0.00  0.00     0.077 C 
ATOM      3  C1  PXY d   1      -2.649   0.481  -1.953  0.00  0.00    -0.082 A 
ATOM      4  C2  PXY d   1      -2.867   0.284  -0.663  0.00  0.00     0.003 A 
ATOM      5  C3  PXY d   1      -2.144   0.973   0.276  0.00  0.00     0.003 A 
ATOM      6  C4  PXY d   1      -1.151   1.834  -0.109  0.00  0.00    -0.082 A 
ATOM      7  C5  PXY d   1      -0.916   2.033  -1.423  0.00  0.00     0.003 A 
ATOM      8  C6  PXY d   1      -1.688   1.354  -2.361  0.00  0.00     0.003 A 
ENDROOT
TORSDOF 0
ENDMDL
