MODEL 1
REMARK minimizedAffinity 2.07009602
REMARK minimizedRMSD -1
REMARK  0 active torsions:
REMARK  status: ('A' for Active; 'I' for Inactive)
ROOT
ATOM      1  C4' PXY d   1       1.078  -0.158   3.479  0.00  0.00     0.077 C 
ATOM      2  C1' PXY d   1       0.375   0.613  -2.206  0.00  0.00     0.077 C 
ATOM      3  C1  PXY d   1       0.557   0.424  -0.713  0.00  0.00    -0.082 A 
ATOM      4  C2  PXY d   1       1.253  -0.609  -0.265  0.00  0.00     0.003 A 
ATOM      5  C3  PXY d   1       1.401  -0.813   1.082  0.00  0.00     0.003 A 
ATOM      6  C4  PXY d   1       0.876   0.078   1.980  0.00  0.00    -0.082 A 
ATOM      7  C5  PXY d   1       0.173   1.139   1.530  0.00  0.00     0.003 A 
ATOM      8  C6  PXY d   1      -0.000   1.306   0.159  0.00  0.00     0.003 A 
ENDROOT
TORSDOF 0
ENDMDL
