MODEL 1
REMARK minimizedAffinity 2.85496879
REMARK minimizedRMSD -1
REMARK  0 active torsions:
REMARK  status: ('A' for Active; 'I' for Inactive)
ROOT
ATOM      1  C4' PXY d   1       0.052   0.098   1.662  0.00  0.00     0.077 C 
ATOM      2  C1' PXY d   1       0.093   4.758  -1.758  0.00  0.00     0.077 C 
ATOM      3  C1  PXY d   1       0.072   3.531  -0.868  0.00  0.00    -0.082 A 
ATOM      4  C2  PXY d   1       0.546   3.609   0.365  0.00  0.00     0.003 A 
ATOM      5  C3  PXY d   1       0.565   2.501   1.172  0.00  0.00     0.003 A 
ATOM      6  C4  PXY d   1       0.044   1.314   0.732  0.00  0.00    -0.082 A 
ATOM      7  C5  PXY d   1      -0.451   1.228  -0.521  0.00  0.00     0.003 A 
ATOM      8  C6  PXY d   1      -0.423   2.354  -1.339  0.00  0.00     0.003 A 
ENDROOT
TORSDOF 0
ENDMDL
