MODEL 1
REMARK minimizedAffinity -3.92681408
REMARK minimizedRMSD -1
REMARK  0 active torsions:
REMARK  status: ('A' for Active; 'I' for Inactive)
ROOT
ATOM      1  C4' PXY d   1       0.093  -0.418   1.519  0.00  0.00     0.077 C 
ATOM      2  C1' PXY d   1       0.385   5.221   0.282  0.00  0.00     0.077 C 
ATOM      3  C1  PXY d   1       0.303   3.740   0.595  0.00  0.00    -0.082 A 
ATOM      4  C2  PXY d   1       0.338   3.334   1.854  0.00  0.00     0.003 A 
ATOM      5  C3  PXY d   1       0.296   1.997   2.153  0.00  0.00     0.003 A 
ATOM      6  C4  PXY d   1       0.164   1.068   1.157  0.00  0.00    -0.082 A 
ATOM      7  C5  PXY d   1       0.117   1.474  -0.130  0.00  0.00     0.003 A 
ATOM      8  C6  PXY d   1       0.202   2.833  -0.415  0.00  0.00     0.003 A 
ENDROOT
TORSDOF 0
ENDMDL
