MODEL 1
REMARK minimizedAffinity 1.74307299
REMARK minimizedRMSD -1
REMARK  1 active torsions:
REMARK  status: ('A' for Active; 'I' for Inactive)
REMARK    1  A    between atoms: C3_4  and  O_7 
ROOT
ATOM      1  C   UNL d   1       1.133   0.163  -2.133  0.00  0.00    -0.033 A 
ATOM      2  C1  UNL d   1       1.189   1.558  -2.173  0.00  0.00     0.039 A 
ATOM      3  C2  UNL d   1       1.267   2.289  -0.986  0.00  0.00    -0.080 A 
ATOM      4  C3  UNL d   1       1.291   1.615   0.232  0.00  0.00     0.150 A 
ATOM      5  C4  UNL d   1       1.239   0.226   0.279  0.00  0.00    -0.007 A 
ATOM      6  C5  UNL d   1       1.159  -0.503  -0.907  0.00  0.00     0.039 A 
ENDROOT
BRANCH   4   7
ATOM      7  O   UNL d   1       1.362   2.286   1.416  0.00  0.00    -0.526 OA
ATOM      8  H5  UNL d   1       1.362   3.240   1.230  0.00  0.00     0.418 HD
ENDBRANCH   4   7
TORSDOF 1
ENDMDL
