MODEL 1
REMARK minimizedAffinity -0.640434682
REMARK minimizedRMSD -1
REMARK  1 active torsions:
REMARK  status: ('A' for Active; 'I' for Inactive)
REMARK    1  A    between atoms: C3_4  and  O_7 
ROOT
ATOM      1  C   UNL d   1       0.763  -0.090   0.059  0.00  0.00    -0.033 A 
ATOM      2  C1  UNL d   1       1.012  -0.099  -1.315  0.00  0.00     0.039 A 
ATOM      3  C2  UNL d   1       1.523   1.039  -1.942  0.00  0.00    -0.080 A 
ATOM      4  C3  UNL d   1       1.782   2.178  -1.184  0.00  0.00     0.150 A 
ATOM      5  C4  UNL d   1       1.540   2.193   0.185  0.00  0.00    -0.007 A 
ATOM      6  C5  UNL d   1       1.029   1.056   0.809  0.00  0.00     0.039 A 
ENDROOT
BRANCH   4   7
ATOM      7  O   UNL d   1       2.276   3.314  -1.752  0.00  0.00    -0.526 OA
ATOM      8  H5  UNL d   1       2.366   3.166  -2.709  0.00  0.00     0.418 HD
ENDBRANCH   4   7
TORSDOF 1
ENDMDL
