MODEL 1
REMARK minimizedAffinity 4.24842215
REMARK minimizedRMSD -1
REMARK  1 active torsions:
REMARK  status: ('A' for Active; 'I' for Inactive)
REMARK    1  A    between atoms: C3_4  and  O_7 
ROOT
ATOM      1  C   UNL d   1       0.898  -0.341  -0.466  0.00  0.00    -0.033 A 
ATOM      2  C1  UNL d   1       1.421   0.538   0.484  0.00  0.00     0.039 A 
ATOM      3  C2  UNL d   1       1.720   1.855   0.129  0.00  0.00    -0.080 A 
ATOM      4  C3  UNL d   1       1.490   2.280  -1.176  0.00  0.00     0.150 A 
ATOM      5  C4  UNL d   1       0.965   1.411  -2.127  0.00  0.00    -0.007 A 
ATOM      6  C5  UNL d   1       0.669   0.096  -1.771  0.00  0.00     0.039 A 
ENDROOT
BRANCH   4   7
ATOM      7  O   UNL d   1       1.770   3.555  -1.570  0.00  0.00    -0.526 OA
ATOM      8  H5  UNL d   1       2.153   4.033  -0.816  0.00  0.00     0.418 HD
ENDBRANCH   4   7
TORSDOF 1
ENDMDL
