MODEL 1
REMARK minimizedAffinity 3.5504117
REMARK minimizedRMSD -1
REMARK  1 active torsions:
REMARK  status: ('A' for Active; 'I' for Inactive)
REMARK    1  A    between atoms: C3_4  and  O_7 
ROOT
ATOM      1  C   UNL d   1       1.161   0.197   0.357  0.00  0.00    -0.033 A 
ATOM      2  C1  UNL d   1       1.800   1.372  -0.044  0.00  0.00     0.039 A 
ATOM      3  C2  UNL d   1       1.694   1.810  -1.365  0.00  0.00    -0.080 A 
ATOM      4  C3  UNL d   1       0.948   1.065  -2.274  0.00  0.00     0.150 A 
ATOM      5  C4  UNL d   1       0.305  -0.104  -1.881  0.00  0.00    -0.007 A 
ATOM      6  C5  UNL d   1       0.413  -0.540  -0.561  0.00  0.00     0.039 A 
ENDROOT
BRANCH   4   7
ATOM      7  O   UNL d   1       0.820   1.450  -3.576  0.00  0.00    -0.526 OA
ATOM      8  H5  UNL d   1       1.340   2.260  -3.710  0.00  0.00     0.418 HD
ENDBRANCH   4   7
TORSDOF 1
ENDMDL
