MODEL 1
REMARK minimizedAffinity 0.491102189
REMARK minimizedRMSD -1
REMARK  1 active torsions:
REMARK  status: ('A' for Active; 'I' for Inactive)
REMARK    1  A    between atoms: C3_4  and  O_7 
ROOT
ATOM      1  C   UNL d   1       1.098   0.264  -2.338  0.00  0.00    -0.033 A 
ATOM      2  C1  UNL d   1       0.468  -0.625  -1.464  0.00  0.00     0.039 A 
ATOM      3  C2  UNL d   1       0.391  -0.331  -0.102  0.00  0.00    -0.080 A 
ATOM      4  C3  UNL d   1       0.946   0.854   0.374  0.00  0.00     0.150 A 
ATOM      5  C4  UNL d   1       1.571   1.746  -0.491  0.00  0.00    -0.007 A 
ATOM      6  C5  UNL d   1       1.648   1.450  -1.851  0.00  0.00     0.039 A 
ENDROOT
BRANCH   4   7
ATOM      7  O   UNL d   1       0.899   1.181   1.697  0.00  0.00    -0.526 OA
ATOM      8  H5  UNL d   1       0.463   0.458   2.178  0.00  0.00     0.418 HD
ENDBRANCH   4   7
TORSDOF 1
ENDMDL
