MODEL 1
REMARK minimizedAffinity -1.70154977
REMARK minimizedRMSD -1
REMARK  1 active torsions:
REMARK  status: ('A' for Active; 'I' for Inactive)
REMARK    1  A    between atoms: C3_4  and  O_7 
ROOT
ATOM      1  C   UNL d   1       0.965  -0.775   0.006  0.00  0.00    -0.033 A 
ATOM      2  C1  UNL d   1       1.201   0.467   0.600  0.00  0.00     0.039 A 
ATOM      3  C2  UNL d   1       1.345   1.606  -0.193  0.00  0.00    -0.080 A 
ATOM      4  C3  UNL d   1       1.250   1.492  -1.577  0.00  0.00     0.150 A 
ATOM      5  C4  UNL d   1       1.012   0.259  -2.176  0.00  0.00    -0.007 A 
ATOM      6  C5  UNL d   1       0.870  -0.878  -1.382  0.00  0.00     0.039 A 
ENDROOT
BRANCH   4   7
ATOM      7  O   UNL d   1       1.388   2.575  -2.393  0.00  0.00    -0.526 OA
ATOM      8  H5  UNL d   1       1.577   3.353  -1.842  0.00  0.00     0.418 HD
ENDBRANCH   4   7
TORSDOF 1
ENDMDL
