MODEL 1
REMARK minimizedAffinity 0.147952795
REMARK minimizedRMSD -1
REMARK  1 active torsions:
REMARK  status: ('A' for Active; 'I' for Inactive)
REMARK    1  A    between atoms: C3_4  and  O_7 
ROOT
ATOM      1  C   UNL d   1      -3.048   1.394   3.891  0.00  0.00    -0.033 A 
ATOM      2  C1  UNL d   1      -4.104   1.023   3.056  0.00  0.00     0.039 A 
ATOM      3  C2  UNL d   1      -4.285   1.663   1.829  0.00  0.00    -0.080 A 
ATOM      4  C3  UNL d   1      -3.403   2.671   1.448  0.00  0.00     0.150 A 
ATOM      5  C4  UNL d   1      -2.347   3.044   2.273  0.00  0.00    -0.007 A 
ATOM      6  C5  UNL d   1      -2.169   2.403   3.499  0.00  0.00     0.039 A 
ENDROOT
BRANCH   4   7
ATOM      7  O   UNL d   1      -3.541   3.329   0.262  0.00  0.00    -0.526 OA
ATOM      8  H5  UNL d   1      -4.330   2.986  -0.190  0.00  0.00     0.418 HD
ENDBRANCH   4   7
TORSDOF 1
ENDMDL
