MODEL 1
REMARK minimizedAffinity 2.8011117
REMARK minimizedRMSD -1
REMARK  1 active torsions:
REMARK  status: ('A' for Active; 'I' for Inactive)
REMARK    1  A    between atoms: C3_4  and  O_7 
ROOT
ATOM      1  C   UNL d   1       0.961   0.060  -2.251  0.00  0.00    -0.033 A 
ATOM      2  C1  UNL d   1       1.150   1.431  -2.067  0.00  0.00     0.039 A 
ATOM      3  C2  UNL d   1       1.242   1.959  -0.778  0.00  0.00    -0.080 A 
ATOM      4  C3  UNL d   1       1.144   1.106   0.318  0.00  0.00     0.150 A 
ATOM      5  C4  UNL d   1       0.959  -0.262   0.143  0.00  0.00    -0.007 A 
ATOM      6  C5  UNL d   1       0.867  -0.786  -1.146  0.00  0.00     0.039 A 
ENDROOT
BRANCH   4   7
ATOM      7  O   UNL d   1       1.222   1.575   1.596  0.00  0.00    -0.526 OA
ATOM      8  H5  UNL d   1       1.321   2.541   1.563  0.00  0.00     0.418 HD
ENDBRANCH   4   7
TORSDOF 1
ENDMDL
