MODEL 1
REMARK minimizedAffinity -1.05054188
REMARK minimizedRMSD -1
REMARK  1 active torsions:
REMARK  status: ('A' for Active; 'I' for Inactive)
REMARK    1  A    between atoms: C3_4  and  O_7 
ROOT
ATOM      1  C   UNL d   1       0.409  -0.171  -1.444  0.00  0.00    -0.033 A 
ATOM      2  C1  UNL d   1       0.188   1.186  -1.200  0.00  0.00     0.039 A 
ATOM      3  C2  UNL d   1       0.536   1.741   0.033  0.00  0.00    -0.080 A 
ATOM      4  C3  UNL d   1       1.104   0.930   1.012  0.00  0.00     0.150 A 
ATOM      5  C4  UNL d   1       1.331  -0.422   0.774  0.00  0.00    -0.007 A 
ATOM      6  C5  UNL d   1       0.982  -0.974  -0.457  0.00  0.00     0.039 A 
ENDROOT
BRANCH   4   7
ATOM      7  O   UNL d   1       1.456   1.426   2.232  0.00  0.00    -0.526 OA
ATOM      8  H5  UNL d   1       1.214   2.367   2.264  0.00  0.00     0.418 HD
ENDBRANCH   4   7
TORSDOF 1
ENDMDL
