MODEL 1
REMARK minimizedAffinity 0.0459074304
REMARK minimizedRMSD -1
REMARK  1 active torsions:
REMARK  status: ('A' for Active; 'I' for Inactive)
REMARK    1  A    between atoms: C3_4  and  O_7 
ROOT
ATOM      1  C   UNL d   1       1.076  -0.162   0.200  0.00  0.00    -0.033 A 
ATOM      2  C1  UNL d   1       1.041   1.055   0.883  0.00  0.00     0.039 A 
ATOM      3  C2  UNL d   1       1.195   2.254   0.185  0.00  0.00    -0.080 A 
ATOM      4  C3  UNL d   1       1.381   2.223  -1.195  0.00  0.00     0.150 A 
ATOM      5  C4  UNL d   1       1.413   1.014  -1.882  0.00  0.00    -0.007 A 
ATOM      6  C5  UNL d   1       1.260  -0.183  -1.183  0.00  0.00     0.039 A 
ENDROOT
BRANCH   4   7
ATOM      7  O   UNL d   1       1.540   3.367  -1.919  0.00  0.00    -0.526 OA
ATOM      8  H5  UNL d   1       1.525   4.122  -1.307  0.00  0.00     0.418 HD
ENDBRANCH   4   7
TORSDOF 1
ENDMDL
