MODEL 1
REMARK minimizedAffinity 2.23615241
REMARK minimizedRMSD -1
REMARK  1 active torsions:
REMARK  status: ('A' for Active; 'I' for Inactive)
REMARK    1  A    between atoms: C3_4  and  O_7 
ROOT
ATOM      1  C   UNL d   1      -3.011   1.950   3.357  0.00  0.00    -0.033 A 
ATOM      2  C1  UNL d   1      -2.281   3.045   2.893  0.00  0.00     0.039 A 
ATOM      3  C2  UNL d   1      -2.370   3.428   1.553  0.00  0.00    -0.080 A 
ATOM      4  C3  UNL d   1      -3.191   2.709   0.690  0.00  0.00     0.150 A 
ATOM      5  C4  UNL d   1      -3.925   1.618   1.147  0.00  0.00    -0.007 A 
ATOM      6  C5  UNL d   1      -3.834   1.237   2.485  0.00  0.00     0.039 A 
ENDROOT
BRANCH   4   7
ATOM      7  O   UNL d   1      -3.306   3.041  -0.627  0.00  0.00    -0.526 OA
ATOM      8  H5  UNL d   1      -2.721   3.796  -0.806  0.00  0.00     0.418 HD
ENDBRANCH   4   7
TORSDOF 1
ENDMDL
