MODEL 1
REMARK minimizedAffinity 1.20989752
REMARK minimizedRMSD -1
REMARK  1 active torsions:
REMARK  status: ('A' for Active; 'I' for Inactive)
REMARK    1  A    between atoms: C3_4  and  O_7 
ROOT
ATOM      1  C   UNL d   1       1.119  -0.672  -0.226  0.00  0.00    -0.033 A 
ATOM      2  C1  UNL d   1       1.402   0.470   0.527  0.00  0.00     0.039 A 
ATOM      3  C2  UNL d   1       1.468   1.719  -0.094  0.00  0.00    -0.080 A 
ATOM      4  C3  UNL d   1       1.249   1.813  -1.466  0.00  0.00     0.150 A 
ATOM      5  C4  UNL d   1       0.963   0.680  -2.221  0.00  0.00    -0.007 A 
ATOM      6  C5  UNL d   1       0.899  -0.566  -1.600  0.00  0.00     0.039 A 
ENDROOT
BRANCH   4   7
ATOM      7  O   UNL d   1       1.308   3.009  -2.117  0.00  0.00    -0.526 OA
ATOM      8  H5  UNL d   1       1.542   3.698  -1.473  0.00  0.00     0.418 HD
ENDBRANCH   4   7
TORSDOF 1
ENDMDL
