MODEL 1
REMARK minimizedAffinity -2.71840906
REMARK minimizedRMSD -1
REMARK  1 active torsions:
REMARK  status: ('A' for Active; 'I' for Inactive)
REMARK    1  A    between atoms: C3_4  and  O_7 
ROOT
ATOM      1  C   UNL d   1       0.405  -0.818  -1.160  0.00  0.00    -0.033 A 
ATOM      2  C1  UNL d   1       1.598  -0.100  -1.252  0.00  0.00     0.039 A 
ATOM      3  C2  UNL d   1       2.797  -0.678  -0.828  0.00  0.00    -0.080 A 
ATOM      4  C3  UNL d   1       2.788  -1.972  -0.316  0.00  0.00     0.150 A 
ATOM      5  C4  UNL d   1       1.603  -2.694  -0.225  0.00  0.00    -0.007 A 
ATOM      6  C5  UNL d   1       0.407  -2.116  -0.647  0.00  0.00     0.039 A 
ENDROOT
BRANCH   4   7
ATOM      7  O   UNL d   1       3.932  -2.576   0.115  0.00  0.00    -0.526 OA
ATOM      8  H5  UNL d   1       4.667  -1.947   0.018  0.00  0.00     0.418 HD
ENDBRANCH   4   7
TORSDOF 1
ENDMDL
