MODEL 1
REMARK minimizedAffinity -3.88959432
REMARK minimizedRMSD -1
REMARK  1 active torsions:
REMARK  status: ('A' for Active; 'I' for Inactive)
REMARK    1  A    between atoms: C3_4  and  O_7 
ROOT
ATOM      1  C   UNL d   1       1.137   0.469  -1.055  0.00  0.00    -0.033 A 
ATOM      2  C1  UNL d   1       0.637   1.342  -0.087  0.00  0.00     0.039 A 
ATOM      3  C2  UNL d   1       1.433   1.714   0.998  0.00  0.00    -0.080 A 
ATOM      4  C3  UNL d   1       2.726   1.208   1.103  0.00  0.00     0.150 A 
ATOM      5  C4  UNL d   1       3.232   0.341   0.140  0.00  0.00    -0.007 A 
ATOM      6  C5  UNL d   1       2.435  -0.030  -0.942  0.00  0.00     0.039 A 
ENDROOT
BRANCH   4   7
ATOM      7  O   UNL d   1       3.539   1.539   2.146  0.00  0.00    -0.526 OA
ATOM      8  H5  UNL d   1       3.046   2.122   2.748  0.00  0.00     0.418 HD
ENDBRANCH   4   7
TORSDOF 1
ENDMDL
