MODEL 1
REMARK minimizedAffinity 1.60682547
REMARK minimizedRMSD -1
REMARK  1 active torsions:
REMARK  status: ('A' for Active; 'I' for Inactive)
REMARK    1  A    between atoms: C3_4  and  O_7 
ROOT
ATOM      1  C   UNL d   1       0.861   1.641   0.570  0.00  0.00    -0.033 A 
ATOM      2  C1  UNL d   1       0.185   1.336  -0.612  0.00  0.00     0.039 A 
ATOM      3  C2  UNL d   1       0.117   0.014  -1.059  0.00  0.00    -0.080 A 
ATOM      4  C3  UNL d   1       0.727  -0.991  -0.314  0.00  0.00     0.150 A 
ATOM      5  C4  UNL d   1       1.399  -0.694   0.868  0.00  0.00    -0.007 A 
ATOM      6  C5  UNL d   1       1.467   0.626   1.311  0.00  0.00     0.039 A 
ENDROOT
BRANCH   4   7
ATOM      7  O   UNL d   1       0.692  -2.294  -0.712  0.00  0.00    -0.526 OA
ATOM      8  H5  UNL d   1       0.218  -2.344  -1.559  0.00  0.00     0.418 HD
ENDBRANCH   4   7
TORSDOF 1
ENDMDL
