MODEL 1
REMARK minimizedAffinity -4.33388567
REMARK minimizedRMSD -1
REMARK  1 active torsions:
REMARK  status: ('A' for Active; 'I' for Inactive)
REMARK    1  A    between atoms: C1_2  and  C2_3 
ROOT
ATOM      1  C2  UNL d   1       0.379   0.315  -1.160  0.00  0.00    -0.081 A 
ATOM      2  C3  UNL d   1       1.285   0.022  -0.133  0.00  0.00     0.006 A 
ATOM      3  C4  UNL d   1       0.894   0.120   1.204  0.00  0.00     0.002 A 
ATOM      4  C5  UNL d   1      -0.410   0.505   1.537  0.00  0.00    -0.080 A 
ATOM      5  C6  UNL d   1      -0.851   0.584   2.968  0.00  0.00     0.076 C 
ATOM      6  C7  UNL d   1      -1.309   0.814   0.511  0.00  0.00     0.002 A 
ATOM      7  C8  UNL d   1      -0.919   0.717  -0.827  0.00  0.00     0.006 A 
ENDROOT
BRANCH   1   8
ATOM      8  C1  UNL d   1       0.779   0.148  -2.604  0.00  0.00     0.054 C 
ATOM      9  C   UNL d   1       0.759  -1.316  -3.018  0.00  0.00     0.018 C 
ENDBRANCH   1   8
TORSDOF 1
ENDMDL
