MODEL 1
REMARK minimizedAffinity -4.74842739
REMARK minimizedRMSD -1
REMARK  1 active torsions:
REMARK  status: ('A' for Active; 'I' for Inactive)
REMARK    1  A    between atoms: C1_2  and  C2_3 
ROOT
ATOM      1  C2  UNL d   1      -0.224  -0.386   2.178  0.00  0.00    -0.081 A 
ATOM      2  C3  UNL d   1      -0.427  -0.265   0.798  0.00  0.00     0.006 A 
ATOM      3  C4  UNL d   1      -1.715  -0.090   0.285  0.00  0.00     0.002 A 
ATOM      4  C5  UNL d   1      -2.818  -0.024   1.142  0.00  0.00    -0.080 A 
ATOM      5  C6  UNL d   1      -4.202   0.194   0.606  0.00  0.00     0.076 C 
ATOM      6  C7  UNL d   1      -2.617  -0.163   2.520  0.00  0.00     0.002 A 
ATOM      7  C8  UNL d   1      -1.330  -0.339   3.034  0.00  0.00     0.006 A 
ENDROOT
BRANCH   1   8
ATOM      8  C1  UNL d   1       1.169  -0.510   2.740  0.00  0.00     0.054 C 
ATOM      9  C   UNL d   1       1.748   0.853   3.091  0.00  0.00     0.018 C 
ENDBRANCH   1   8
TORSDOF 1
ENDMDL
