MODEL 1
REMARK minimizedAffinity -4.50207901
REMARK minimizedRMSD -1
REMARK  1 active torsions:
REMARK  status: ('A' for Active; 'I' for Inactive)
REMARK    1  A    between atoms: C1_2  and  C2_3 
ROOT
ATOM      1  C2  UNL d   1       0.886  -0.117  -1.148  0.00  0.00    -0.081 A 
ATOM      2  C3  UNL d   1       1.843   0.168  -0.167  0.00  0.00     0.006 A 
ATOM      3  C4  UNL d   1       1.475   0.252   1.178  0.00  0.00     0.002 A 
ATOM      4  C5  UNL d   1       0.146   0.044   1.565  0.00  0.00    -0.080 A 
ATOM      5  C6  UNL d   1      -0.256   0.101   3.009  0.00  0.00     0.076 C 
ATOM      6  C7  UNL d   1      -0.813  -0.223   0.583  0.00  0.00     0.002 A 
ATOM      7  C8  UNL d   1      -0.446  -0.306  -0.762  0.00  0.00     0.006 A 
ENDROOT
BRANCH   1   8
ATOM      8  C1  UNL d   1       1.291  -0.272  -2.592  0.00  0.00     0.054 C 
ATOM      9  C   UNL d   1       0.688  -1.528  -3.204  0.00  0.00     0.018 C 
ENDBRANCH   1   8
TORSDOF 1
ENDMDL
