MODEL 1
REMARK minimizedAffinity -3.72592163
REMARK minimizedRMSD -1
REMARK  1 active torsions:
REMARK  status: ('A' for Active; 'I' for Inactive)
REMARK    1  A    between atoms: C1_2  and  C2_3 
ROOT
ATOM      1  C2  UNL d   1       0.091   0.323   0.578  0.00  0.00    -0.081 A 
ATOM      2  C3  UNL d   1      -0.571   0.036   1.778  0.00  0.00     0.006 A 
ATOM      3  C4  UNL d   1      -0.131   0.594   2.981  0.00  0.00     0.002 A 
ATOM      4  C5  UNL d   1       0.973   1.454   3.003  0.00  0.00    -0.080 A 
ATOM      5  C6  UNL d   1       1.437   2.083   4.283  0.00  0.00     0.076 C 
ATOM      6  C7  UNL d   1       1.645   1.727   1.807  0.00  0.00     0.002 A 
ATOM      7  C8  UNL d   1       1.206   1.169   0.604  0.00  0.00     0.006 A 
ENDROOT
BRANCH   1   8
ATOM      8  C1  UNL d   1      -0.420  -0.225  -0.729  0.00  0.00     0.054 C 
ATOM      9  C   UNL d   1       0.522   0.111  -1.876  0.00  0.00     0.018 C 
ENDBRANCH   1   8
TORSDOF 1
ENDMDL
