MODEL 1
REMARK minimizedAffinity -4.46566391
REMARK minimizedRMSD -1
REMARK  1 active torsions:
REMARK  status: ('A' for Active; 'I' for Inactive)
REMARK    1  A    between atoms: C1_2  and  C2_3 
ROOT
ATOM      1  C2  UNL d   1       0.390  -0.019  -0.700  0.00  0.00    -0.081 A 
ATOM      2  C3  UNL d   1       1.349   0.237   0.287  0.00  0.00     0.006 A 
ATOM      3  C4  UNL d   1       1.043   0.050   1.637  0.00  0.00     0.002 A 
ATOM      4  C5  UNL d   1      -0.224  -0.403   2.022  0.00  0.00    -0.080 A 
ATOM      5  C6  UNL d   1      -0.556  -0.637   3.465  0.00  0.00     0.076 C 
ATOM      6  C7  UNL d   1      -1.188  -0.641   1.036  0.00  0.00     0.002 A 
ATOM      7  C8  UNL d   1      -0.883  -0.453  -0.314  0.00  0.00     0.006 A 
ENDROOT
BRANCH   1   8
ATOM      8  C1  UNL d   1       0.737   0.120  -2.161  0.00  0.00     0.054 C 
ATOM      9  C   UNL d   1       0.937  -1.240  -2.813  0.00  0.00     0.018 C 
ENDBRANCH   1   8
TORSDOF 1
ENDMDL
