MODEL 1
REMARK minimizedAffinity -6.24968338
REMARK minimizedRMSD -1
REMARK  1 active torsions:
REMARK  status: ('A' for Active; 'I' for Inactive)
REMARK    1  A    between atoms: C1_2  and  C2_3 
ROOT
ATOM      1  C2  UNL d   1       0.324   0.336   1.486  0.00  0.00    -0.081 A 
ATOM      2  C3  UNL d   1      -0.704   0.159   0.551  0.00  0.00     0.006 A 
ATOM      3  C4  UNL d   1      -0.421   0.130  -0.816  0.00  0.00     0.002 A 
ATOM      4  C5  UNL d   1       0.895   0.270  -1.272  0.00  0.00    -0.080 A 
ATOM      5  C6  UNL d   1       1.216   0.210  -2.735  0.00  0.00     0.076 C 
ATOM      6  C7  UNL d   1       1.920   0.464  -0.339  0.00  0.00     0.002 A 
ATOM      7  C8  UNL d   1       1.637   0.493   1.028  0.00  0.00     0.006 A 
ENDROOT
BRANCH   1   8
ATOM      8  C1  UNL d   1       0.030   0.302   2.964  0.00  0.00     0.054 C 
ATOM      9  C   UNL d   1      -0.622  -1.012   3.369  0.00  0.00     0.018 C 
ENDBRANCH   1   8
TORSDOF 1
ENDMDL
