MODEL 1
REMARK minimizedAffinity -5.09215641
REMARK minimizedRMSD -1
REMARK  1 active torsions:
REMARK  status: ('A' for Active; 'I' for Inactive)
REMARK    1  A    between atoms: C1_2  and  C2_3 
ROOT
ATOM      1  C2  UNL d   1       0.744  -0.039   0.097  0.00  0.00    -0.081 A 
ATOM      2  C3  UNL d   1       1.349  -0.120   1.358  0.00  0.00     0.006 A 
ATOM      3  C4  UNL d   1       0.572  -0.290   2.506  0.00  0.00     0.002 A 
ATOM      4  C5  UNL d   1      -0.820  -0.390   2.413  0.00  0.00    -0.080 A 
ATOM      5  C6  UNL d   1      -1.663  -0.604   3.635  0.00  0.00     0.076 C 
ATOM      6  C7  UNL d   1      -1.425  -0.292   1.156  0.00  0.00     0.002 A 
ATOM      7  C8  UNL d   1      -0.650  -0.121   0.007  0.00  0.00     0.006 A 
ENDROOT
BRANCH   1   8
ATOM      8  C1  UNL d   1       1.584   0.080  -1.149  0.00  0.00     0.054 C 
ATOM      9  C   UNL d   1       0.795  -0.323  -2.387  0.00  0.00     0.018 C 
ENDBRANCH   1   8
TORSDOF 1
ENDMDL
