MODEL 1
REMARK minimizedAffinity -3.14637089
REMARK minimizedRMSD -1
REMARK  1 active torsions:
REMARK  status: ('A' for Active; 'I' for Inactive)
REMARK    1  A    between atoms: C1_2  and  C2_3 
ROOT
ATOM      1  C2  UNL d   1       0.364   0.091  -0.420  0.00  0.00    -0.081 A 
ATOM      2  C3  UNL d   1      -0.583  -0.935  -0.313  0.00  0.00     0.006 A 
ATOM      3  C4  UNL d   1      -1.052  -1.337   0.940  0.00  0.00     0.002 A 
ATOM      4  C5  UNL d   1      -0.589  -0.714   2.105  0.00  0.00    -0.080 A 
ATOM      5  C6  UNL d   1      -1.108  -1.116   3.454  0.00  0.00     0.076 C 
ATOM      6  C7  UNL d   1       0.369   0.299   1.998  0.00  0.00     0.002 A 
ATOM      7  C8  UNL d   1       0.840   0.700   0.746  0.00  0.00     0.006 A 
ENDROOT
BRANCH   1   8
ATOM      8  C1  UNL d   1       0.824   0.571  -1.773  0.00  0.00     0.054 C 
ATOM      9  C   UNL d   1       1.283  -0.590  -2.645  0.00  0.00     0.018 C 
ENDBRANCH   1   8
TORSDOF 1
ENDMDL
