MODEL 1
REMARK minimizedAffinity -4.41888666
REMARK minimizedRMSD -1
REMARK  1 active torsions:
REMARK  status: ('A' for Active; 'I' for Inactive)
REMARK    1  A    between atoms: C1_2  and  C2_3 
ROOT
ATOM      1  C2  UNL d   1      -1.581   0.071   2.086  0.00  0.00    -0.081 A 
ATOM      2  C3  UNL d   1      -0.748   0.322   3.183  0.00  0.00     0.006 A 
ATOM      3  C4  UNL d   1       0.629   0.475   3.006  0.00  0.00     0.002 A 
ATOM      4  C5  UNL d   1       1.195   0.388   1.730  0.00  0.00    -0.080 A 
ATOM      5  C6  UNL d   1       2.668   0.581   1.523  0.00  0.00     0.076 C 
ATOM      6  C7  UNL d   1       0.365   0.120   0.636  0.00  0.00     0.002 A 
ATOM      7  C8  UNL d   1      -1.011  -0.034   0.812  0.00  0.00     0.006 A 
ENDROOT
BRANCH   1   8
ATOM      8  C1  UNL d   1      -3.074  -0.030   2.265  0.00  0.00     0.054 C 
ATOM      9  C   UNL d   1      -3.815   0.557   1.072  0.00  0.00     0.018 C 
ENDBRANCH   1   8
TORSDOF 1
ENDMDL
