MODEL 1
REMARK minimizedAffinity 0.238386363
REMARK minimizedRMSD -1
REMARK  0 active torsions:
REMARK  status: ('A' for Active; 'I' for Inactive)
ROOT
ATOM      1  C   UNL d   1      -5.211   1.936   0.791  0.00  0.00     0.078 C 
ATOM      2  C1  UNL d   1      -3.772   1.946   0.369  0.00  0.00    -0.077 A 
ATOM      3  C2  UNL d   1      -2.777   1.403   1.190  0.00  0.00    -0.001 A 
ATOM      4  C3  UNL d   1      -1.440   1.427   0.789  0.00  0.00     0.003 A 
ATOM      5  C4  UNL d   1      -1.087   1.994  -0.433  0.00  0.00    -0.005 A 
ATOM      6  C5  UNL d   1      -2.070   2.539  -1.256  0.00  0.00     0.003 A 
ATOM      7  C6  UNL d   1      -3.407   2.515  -0.857  0.00  0.00    -0.001 A 
ENDROOT
TORSDOF 0
ENDMDL
