MODEL 1
REMARK minimizedAffinity -3.84005547
REMARK minimizedRMSD -1
REMARK  0 active torsions:
REMARK  status: ('A' for Active; 'I' for Inactive)
ROOT
ATOM      1  C   UNL d   1      -3.690   2.522   0.584  0.00  0.00     0.078 C 
ATOM      2  C1  UNL d   1      -2.351   1.854   0.685  0.00  0.00    -0.077 A 
ATOM      3  C2  UNL d   1      -1.175   2.543   0.361  0.00  0.00    -0.001 A 
ATOM      4  C3  UNL d   1       0.063   1.905   0.450  0.00  0.00     0.003 A 
ATOM      5  C4  UNL d   1       0.138   0.576   0.861  0.00  0.00    -0.005 A 
ATOM      6  C5  UNL d   1      -1.027  -0.118   1.182  0.00  0.00     0.003 A 
ATOM      7  C6  UNL d   1      -2.266   0.518   1.094  0.00  0.00    -0.001 A 
ENDROOT
TORSDOF 0
ENDMDL
