MODEL 1
REMARK minimizedAffinity -1.50885618
REMARK minimizedRMSD -1
REMARK  0 active torsions:
REMARK  status: ('A' for Active; 'I' for Inactive)
ROOT
ATOM      1  C   UNL d   1      -2.587  -4.891  -0.658  0.00  0.00     0.078 C 
ATOM      2  C1  UNL d   1      -1.722  -5.272  -1.822  0.00  0.00    -0.077 A 
ATOM      3  C2  UNL d   1      -2.286  -5.632  -3.052  0.00  0.00    -0.001 A 
ATOM      4  C3  UNL d   1      -1.470  -5.993  -4.125  0.00  0.00     0.003 A 
ATOM      5  C4  UNL d   1      -0.084  -5.999  -3.978  0.00  0.00    -0.005 A 
ATOM      6  C5  UNL d   1       0.486  -5.645  -2.757  0.00  0.00     0.003 A 
ATOM      7  C6  UNL d   1      -0.329  -5.283  -1.683  0.00  0.00    -0.001 A 
ENDROOT
TORSDOF 0
ENDMDL
