MODEL 1
REMARK minimizedAffinity -2.08516979
REMARK minimizedRMSD -1
REMARK  0 active torsions:
REMARK  status: ('A' for Active; 'I' for Inactive)
ROOT
ATOM      1  C   UNL d   1      -5.273   1.889   0.765  0.00  0.00     0.078 C 
ATOM      2  C1  UNL d   1      -3.793   1.671   0.652  0.00  0.00    -0.077 A 
ATOM      3  C2  UNL d   1      -2.980   2.582  -0.033  0.00  0.00    -0.001 A 
ATOM      4  C3  UNL d   1      -1.606   2.361  -0.139  0.00  0.00     0.003 A 
ATOM      5  C4  UNL d   1      -1.033   1.228   0.436  0.00  0.00    -0.005 A 
ATOM      6  C5  UNL d   1      -1.835   0.314   1.117  0.00  0.00     0.003 A 
ATOM      7  C6  UNL d   1      -3.209   0.534   1.224  0.00  0.00    -0.001 A 
ENDROOT
TORSDOF 0
ENDMDL
