MODEL 1
REMARK minimizedAffinity 3.2660439
REMARK minimizedRMSD -1
REMARK  0 active torsions:
REMARK  status: ('A' for Active; 'I' for Inactive)
ROOT
ATOM      1  C   UNL d   1      -3.576   0.139   1.148  0.00  0.00     0.078 C 
ATOM      2  C1  UNL d   1      -2.310   0.927   0.990  0.00  0.00    -0.077 A 
ATOM      3  C2  UNL d   1      -1.190   0.660   1.787  0.00  0.00    -0.001 A 
ATOM      4  C3  UNL d   1      -0.021   1.407   1.636  0.00  0.00     0.003 A 
ATOM      5  C4  UNL d   1       0.039   2.427   0.688  0.00  0.00    -0.005 A 
ATOM      6  C5  UNL d   1      -1.070   2.701  -0.109  0.00  0.00     0.003 A 
ATOM      7  C6  UNL d   1      -2.240   1.955   0.042  0.00  0.00    -0.001 A 
ENDROOT
TORSDOF 0
ENDMDL
