MODEL 1
REMARK minimizedAffinity -3.36037898
REMARK minimizedRMSD -1
REMARK  0 active torsions:
REMARK  status: ('A' for Active; 'I' for Inactive)
ROOT
ATOM      1  C   UNL d   1      -4.566   2.294   0.353  0.00  0.00     0.078 C 
ATOM      2  C1  UNL d   1      -3.151   1.800   0.374  0.00  0.00    -0.077 A 
ATOM      3  C2  UNL d   1      -2.106   2.585  -0.130  0.00  0.00    -0.001 A 
ATOM      4  C3  UNL d   1      -0.794   2.108  -0.113  0.00  0.00     0.003 A 
ATOM      5  C4  UNL d   1      -0.515   0.845   0.406  0.00  0.00    -0.005 A 
ATOM      6  C5  UNL d   1      -1.548   0.056   0.907  0.00  0.00     0.003 A 
ATOM      7  C6  UNL d   1      -2.861   0.531   0.890  0.00  0.00    -0.001 A 
ENDROOT
TORSDOF 0
ENDMDL
