MODEL 1
REMARK minimizedAffinity 0.268746108
REMARK minimizedRMSD -1
REMARK  0 active torsions:
REMARK  status: ('A' for Active; 'I' for Inactive)
ROOT
ATOM      1  C   UNL d   1      -1.134  -0.680   2.775  0.00  0.00     0.078 C 
ATOM      2  C1  UNL d   1      -0.604   0.131   1.630  0.00  0.00    -0.077 A 
ATOM      3  C2  UNL d   1       0.773   0.288   1.433  0.00  0.00    -0.001 A 
ATOM      4  C3  UNL d   1       1.252   1.054   0.369  0.00  0.00     0.003 A 
ATOM      5  C4  UNL d   1       0.360   1.670  -0.506  0.00  0.00    -0.005 A 
ATOM      6  C5  UNL d   1      -1.012   1.522  -0.317  0.00  0.00     0.003 A 
ATOM      7  C6  UNL d   1      -1.493   0.756   0.746  0.00  0.00    -0.001 A 
ENDROOT
TORSDOF 0
ENDMDL
