MODEL 1
REMARK minimizedAffinity 1.14833832
REMARK minimizedRMSD -1
REMARK  0 active torsions:
REMARK  status: ('A' for Active; 'I' for Inactive)
ROOT
ATOM      1  C   UNL d   1       1.848   0.357   0.470  0.00  0.00     0.078 C 
ATOM      2  C1  UNL d   1       0.530   1.046   0.665  0.00  0.00    -0.077 A 
ATOM      3  C2  UNL d   1      -0.676   0.348   0.527  0.00  0.00    -0.001 A 
ATOM      4  C3  UNL d   1      -1.896   1.003   0.702  0.00  0.00     0.003 A 
ATOM      5  C4  UNL d   1      -1.921   2.361   1.014  0.00  0.00    -0.005 A 
ATOM      6  C5  UNL d   1      -0.727   3.065   1.151  0.00  0.00     0.003 A 
ATOM      7  C6  UNL d   1       0.494   2.411   0.977  0.00  0.00    -0.001 A 
ENDROOT
TORSDOF 0
ENDMDL
