MODEL 1
REMARK minimizedAffinity 4.83200979
REMARK minimizedRMSD -1
REMARK  0 active torsions:
REMARK  status: ('A' for Active; 'I' for Inactive)
ROOT
ATOM      1  C   UNL d   1      -3.569   2.601   0.029  0.00  0.00     0.078 C 
ATOM      2  C1  UNL d   1      -2.309   1.930   0.488  0.00  0.00    -0.077 A 
ATOM      3  C2  UNL d   1      -2.353   0.814   1.333  0.00  0.00    -0.001 A 
ATOM      4  C3  UNL d   1      -1.172   0.205   1.760  0.00  0.00     0.003 A 
ATOM      5  C4  UNL d   1       0.062   0.704   1.348  0.00  0.00    -0.005 A 
ATOM      6  C5  UNL d   1       0.115   1.815   0.508  0.00  0.00     0.003 A 
ATOM      7  C6  UNL d   1      -1.064   2.426   0.081  0.00  0.00    -0.001 A 
ENDROOT
TORSDOF 0
ENDMDL
