MODEL 1
REMARK minimizedAffinity -3.0266819
REMARK minimizedRMSD -1
REMARK  0 active torsions:
REMARK  status: ('A' for Active; 'I' for Inactive)
ROOT
ATOM      1  C   UNL d   1       0.039   1.890   0.803  0.00  0.00     0.078 C 
ATOM      2  C1  UNL d   1      -1.415   1.521   0.808  0.00  0.00    -0.077 A 
ATOM      3  C2  UNL d   1      -2.388   2.418   0.350  0.00  0.00    -0.001 A 
ATOM      4  C3  UNL d   1      -3.738   2.065   0.369  0.00  0.00     0.003 A 
ATOM      5  C4  UNL d   1      -4.128   0.815   0.847  0.00  0.00    -0.005 A 
ATOM      6  C5  UNL d   1      -3.167  -0.083   1.307  0.00  0.00     0.003 A 
ATOM      7  C6  UNL d   1      -1.816   0.268   1.288  0.00  0.00    -0.001 A 
ENDROOT
TORSDOF 0
ENDMDL
