MODEL 1
REMARK minimizedAffinity -3.89654732
REMARK minimizedRMSD -1
REMARK  0 active torsions:
REMARK  status: ('A' for Active; 'I' for Inactive)
ROOT
ATOM      1  C   UNL d   1      -4.435   1.510   0.566  0.00  0.00     0.078 C 
ATOM      2  C1  UNL d   1      -2.936   1.542   0.576  0.00  0.00    -0.077 A 
ATOM      3  C2  UNL d   1      -2.239   2.736   0.356  0.00  0.00    -0.001 A 
ATOM      4  C3  UNL d   1      -0.843   2.749   0.359  0.00  0.00     0.003 A 
ATOM      5  C4  UNL d   1      -0.133   1.570   0.581  0.00  0.00    -0.005 A 
ATOM      6  C5  UNL d   1      -0.818   0.377   0.800  0.00  0.00     0.003 A 
ATOM      7  C6  UNL d   1      -2.214   0.362   0.797  0.00  0.00    -0.001 A 
ENDROOT
TORSDOF 0
ENDMDL
