MODEL 1
REMARK minimizedAffinity -3.03377604
REMARK minimizedRMSD -1
REMARK  0 active torsions:
REMARK  status: ('A' for Active; 'I' for Inactive)
ROOT
ATOM      1  C   UNL d   1      -3.698   2.457   0.524  0.00  0.00     0.078 C 
ATOM      2  C1  UNL d   1      -2.381   1.745   0.607  0.00  0.00    -0.077 A 
ATOM      3  C2  UNL d   1      -2.210   0.641   1.452  0.00  0.00    -0.001 A 
ATOM      4  C3  UNL d   1      -0.976  -0.007   1.525  0.00  0.00     0.003 A 
ATOM      5  C4  UNL d   1       0.097   0.442   0.758  0.00  0.00    -0.005 A 
ATOM      6  C5  UNL d   1      -0.063   1.541  -0.084  0.00  0.00     0.003 A 
ATOM      7  C6  UNL d   1      -1.297   2.190  -0.159  0.00  0.00    -0.001 A 
ENDROOT
TORSDOF 0
ENDMDL
