MODEL 1
REMARK minimizedAffinity -5.13246489
REMARK minimizedRMSD -1
REMARK  0 active torsions:
REMARK  status: ('A' for Active; 'I' for Inactive)
ROOT
ATOM      1  C   UNL d   1      -4.332   1.898   0.427  0.00  0.00     0.078 C 
ATOM      2  C1  UNL d   1      -2.846   1.715   0.350  0.00  0.00    -0.077 A 
ATOM      3  C2  UNL d   1      -2.189   0.794   1.175  0.00  0.00    -0.001 A 
ATOM      4  C3  UNL d   1      -0.804   0.642   1.100  0.00  0.00     0.003 A 
ATOM      5  C4  UNL d   1      -0.063   1.408   0.202  0.00  0.00    -0.005 A 
ATOM      6  C5  UNL d   1      -0.708   2.328  -0.622  0.00  0.00     0.003 A 
ATOM      7  C6  UNL d   1      -2.093   2.482  -0.548  0.00  0.00    -0.001 A 
ENDROOT
TORSDOF 0
ENDMDL
