MODEL 1
REMARK minimizedAffinity 0.237687215
REMARK minimizedRMSD -1
REMARK  0 active torsions:
REMARK  status: ('A' for Active; 'I' for Inactive)
ROOT
ATOM      1  C   UNL d   1      -4.755   2.690   0.530  0.00  0.00     0.078 C 
ATOM      2  C1  UNL d   1      -3.333   2.232   0.394  0.00  0.00    -0.077 A 
ATOM      3  C2  UNL d   1      -2.443   2.891  -0.462  0.00  0.00    -0.001 A 
ATOM      4  C3  UNL d   1      -1.125   2.449  -0.587  0.00  0.00     0.003 A 
ATOM      5  C4  UNL d   1      -0.686   1.345   0.142  0.00  0.00    -0.005 A 
ATOM      6  C5  UNL d   1      -1.565   0.682   0.995  0.00  0.00     0.003 A 
ATOM      7  C6  UNL d   1      -2.883   1.123   1.121  0.00  0.00    -0.001 A 
ENDROOT
TORSDOF 0
ENDMDL
