MODEL 1
REMARK minimizedAffinity -3.17477822
REMARK minimizedRMSD -1
REMARK  0 active torsions:
REMARK  status: ('A' for Active; 'I' for Inactive)
ROOT
ATOM      1  C   UNL d   1      -1.855  -0.662   1.494  0.00  0.00     0.078 C 
ATOM      2  C1  UNL d   1      -1.719   0.559   0.633  0.00  0.00    -0.077 A 
ATOM      3  C2  UNL d   1      -2.807   1.413   0.415  0.00  0.00    -0.001 A 
ATOM      4  C3  UNL d   1      -2.668   2.540  -0.396  0.00  0.00     0.003 A 
ATOM      5  C4  UNL d   1      -1.443   2.824  -0.996  0.00  0.00    -0.005 A 
ATOM      6  C5  UNL d   1      -0.355   1.979  -0.787  0.00  0.00     0.003 A 
ATOM      7  C6  UNL d   1      -0.492   0.851   0.024  0.00  0.00    -0.001 A 
ENDROOT
TORSDOF 0
ENDMDL
