MODEL 1
REMARK minimizedAffinity 2.79093194
REMARK minimizedRMSD -1
REMARK  0 active torsions:
REMARK  status: ('A' for Active; 'I' for Inactive)
ROOT
ATOM      1  C   UNL d   1       2.688   1.355   1.564  0.00  0.00     0.078 C 
ATOM      2  C1  UNL d   1       1.247   1.676   1.827  0.00  0.00    -0.077 A 
ATOM      3  C2  UNL d   1       0.711   1.584   3.117  0.00  0.00    -0.001 A 
ATOM      4  C3  UNL d   1      -0.634   1.877   3.346  0.00  0.00     0.003 A 
ATOM      5  C4  UNL d   1      -1.456   2.262   2.288  0.00  0.00    -0.005 A 
ATOM      6  C5  UNL d   1      -0.932   2.355   1.000  0.00  0.00     0.003 A 
ATOM      7  C6  UNL d   1       0.413   2.062   0.770  0.00  0.00    -0.001 A 
ENDROOT
TORSDOF 0
ENDMDL
