MODEL 1
REMARK minimizedAffinity 11.2454119
REMARK minimizedRMSD -1
REMARK  2 active torsions:
REMARK  status: ('A' for Active; 'I' for Inactive)
REMARK    1  A    between atoms: C1_2  and  C2_3 
REMARK    2  A    between atoms: C2_3  and  C3_4 
ROOT
ATOM      1  C3  UNL d   1      -1.332   3.331   1.285  0.00  0.00    -0.075 A 
ATOM      2  C4  UNL d   1      -0.247   2.585   1.768  0.00  0.00     0.002 A 
ATOM      3  C5  UNL d   1      -0.450   1.549   2.680  0.00  0.00     0.002 A 
ATOM      4  C6  UNL d   1      -1.735   1.253   3.128  0.00  0.00    -0.004 A 
ATOM      5  C7  UNL d   1      -2.819   1.998   2.667  0.00  0.00     0.002 A 
ATOM      6  C8  UNL d   1      -2.619   3.032   1.751  0.00  0.00     0.002 A 
ENDROOT
BRANCH   1   7
ATOM      7  C2  UNL d   1      -1.123   4.434   0.275  0.00  0.00     0.056 C 
BRANCH   7   8
ATOM      8  C1  UNL d   1      -2.141   4.432  -0.870  0.00  0.00     0.007 C 
ATOM      9  C   UNL d   1      -2.503   5.831  -1.354  0.00  0.00     0.009 C 
ENDBRANCH   7   8
ENDBRANCH   1   7
TORSDOF 2
ENDMDL
