MODEL 1
REMARK minimizedAffinity 4.23776197
REMARK minimizedRMSD -1
REMARK  2 active torsions:
REMARK  status: ('A' for Active; 'I' for Inactive)
REMARK    1  A    between atoms: C1_2  and  C2_3 
REMARK    2  A    between atoms: C2_3  and  C3_4 
ROOT
ATOM      1  C3  UNL d   1       1.222  -0.015  -0.168  0.00  0.00    -0.075 A 
ATOM      2  C4  UNL d   1       0.616  -0.610   0.949  0.00  0.00     0.002 A 
ATOM      3  C5  UNL d   1       0.550   0.071   2.165  0.00  0.00     0.002 A 
ATOM      4  C6  UNL d   1       1.096   1.348   2.283  0.00  0.00    -0.004 A 
ATOM      5  C7  UNL d   1       1.715   1.941   1.184  0.00  0.00     0.002 A 
ATOM      6  C8  UNL d   1       1.779   1.264  -0.035  0.00  0.00     0.002 A 
ENDROOT
BRANCH   1   7
ATOM      7  C2  UNL d   1       1.271  -0.735  -1.494  0.00  0.00     0.056 C 
BRANCH   7   8
ATOM      8  C1  UNL d   1      -0.031  -0.652  -2.298  0.00  0.00     0.007 C 
ATOM      9  C   UNL d   1      -0.329   0.749  -2.814  0.00  0.00     0.009 C 
ENDBRANCH   7   8
ENDBRANCH   1   7
TORSDOF 2
ENDMDL
