MODEL 1
REMARK minimizedAffinity 7.75925303
REMARK minimizedRMSD -1
REMARK  2 active torsions:
REMARK  status: ('A' for Active; 'I' for Inactive)
REMARK    1  A    between atoms: C1_2  and  C2_3 
REMARK    2  A    between atoms: C2_3  and  C3_4 
ROOT
ATOM      1  C3  UNL d   1       1.274   2.982   1.353  0.00  0.00    -0.075 A 
ATOM      2  C4  UNL d   1      -0.047   3.126   1.800  0.00  0.00     0.002 A 
ATOM      3  C5  UNL d   1      -0.691   2.077   2.458  0.00  0.00     0.002 A 
ATOM      4  C6  UNL d   1      -0.027   0.871   2.667  0.00  0.00    -0.004 A 
ATOM      5  C7  UNL d   1       1.281   0.711   2.212  0.00  0.00     0.002 A 
ATOM      6  C8  UNL d   1       1.928   1.760   1.558  0.00  0.00     0.002 A 
ENDROOT
BRANCH   1   7
ATOM      7  C2  UNL d   1       1.986   4.124   0.667  0.00  0.00     0.056 C 
BRANCH   7   8
ATOM      8  C1  UNL d   1       3.438   4.315   1.120  0.00  0.00     0.007 C 
ATOM      9  C   UNL d   1       3.765   5.755   1.495  0.00  0.00     0.009 C 
ENDBRANCH   7   8
ENDBRANCH   1   7
TORSDOF 2
ENDMDL
