MODEL 1
REMARK minimizedAffinity 3.15397811
REMARK minimizedRMSD -1
REMARK  2 active torsions:
REMARK  status: ('A' for Active; 'I' for Inactive)
REMARK    1  A    between atoms: C1_2  and  C2_3 
REMARK    2  A    between atoms: C2_3  and  C3_4 
ROOT
ATOM      1  C3  UNL d   1       1.052   1.617   1.516  0.00  0.00    -0.075 A 
ATOM      2  C4  UNL d   1       0.046   0.653   1.670  0.00  0.00     0.002 A 
ATOM      3  C5  UNL d   1      -1.189   0.999   2.219  0.00  0.00     0.002 A 
ATOM      4  C6  UNL d   1      -1.430   2.308   2.631  0.00  0.00    -0.004 A 
ATOM      5  C7  UNL d   1      -0.432   3.270   2.499  0.00  0.00     0.002 A 
ATOM      6  C8  UNL d   1       0.803   2.928   1.945  0.00  0.00     0.002 A 
ENDROOT
BRANCH   1   7
ATOM      7  C2  UNL d   1       2.380   1.256   0.895  0.00  0.00     0.056 C 
BRANCH   7   8
ATOM      8  C1  UNL d   1       2.339   1.124  -0.631  0.00  0.00     0.007 C 
ATOM      9  C   UNL d   1       2.280  -0.321  -1.107  0.00  0.00     0.009 C 
ENDBRANCH   7   8
ENDBRANCH   1   7
TORSDOF 2
ENDMDL
