MODEL 1
REMARK minimizedAffinity 8.68379402
REMARK minimizedRMSD -1
REMARK  2 active torsions:
REMARK  status: ('A' for Active; 'I' for Inactive)
REMARK    1  A    between atoms: C1_2  and  C2_3 
REMARK    2  A    between atoms: C2_3  and  C3_4 
ROOT
ATOM      1  C3  UNL d   1       1.558   0.173   0.234  0.00  0.00    -0.075 A 
ATOM      2  C4  UNL d   1       0.780  -0.615   1.095  0.00  0.00     0.002 A 
ATOM      3  C5  UNL d   1       0.328  -0.101   2.310  0.00  0.00     0.002 A 
ATOM      4  C6  UNL d   1       0.656   1.200   2.685  0.00  0.00    -0.004 A 
ATOM      5  C7  UNL d   1       1.442   1.986   1.846  0.00  0.00     0.002 A 
ATOM      6  C8  UNL d   1       1.892   1.476   0.626  0.00  0.00     0.002 A 
ENDROOT
BRANCH   1   7
ATOM      7  C2  UNL d   1       2.026  -0.367  -1.097  0.00  0.00     0.056 C 
BRANCH   7   8
ATOM      8  C1  UNL d   1       0.889  -0.687  -2.074  0.00  0.00     0.007 C 
ATOM      9  C   UNL d   1       0.420   0.525  -2.866  0.00  0.00     0.009 C 
ENDBRANCH   7   8
ENDBRANCH   1   7
TORSDOF 2
ENDMDL
