MODEL 1
REMARK minimizedAffinity 9.2529459
REMARK minimizedRMSD -1
REMARK  2 active torsions:
REMARK  status: ('A' for Active; 'I' for Inactive)
REMARK    1  A    between atoms: C1_2  and  C2_3 
REMARK    2  A    between atoms: C2_3  and  C3_4 
ROOT
ATOM      1  C3  UNL d   1       1.689   0.590  -0.046  0.00  0.00    -0.075 A 
ATOM      2  C4  UNL d   1       0.980   1.429   0.826  0.00  0.00     0.002 A 
ATOM      3  C5  UNL d   1       1.599   2.539   1.402  0.00  0.00     0.002 A 
ATOM      4  C6  UNL d   1       2.935   2.818   1.122  0.00  0.00    -0.004 A 
ATOM      5  C7  UNL d   1       3.654   1.982   0.270  0.00  0.00     0.002 A 
ATOM      6  C8  UNL d   1       3.036   0.874  -0.311  0.00  0.00     0.002 A 
ENDROOT
BRANCH   1   7
ATOM      7  C2  UNL d   1       1.017  -0.596  -0.696  0.00  0.00     0.056 C 
BRANCH   7   8
ATOM      8  C1  UNL d   1       0.650  -0.376  -2.167  0.00  0.00     0.007 C 
ATOM      9  C   UNL d   1       0.087   1.011  -2.445  0.00  0.00     0.009 C 
ENDBRANCH   7   8
ENDBRANCH   1   7
TORSDOF 2
ENDMDL
