MODEL 1
REMARK minimizedAffinity 4.38510942
REMARK minimizedRMSD -1
REMARK  2 active torsions:
REMARK  status: ('A' for Active; 'I' for Inactive)
REMARK    1  A    between atoms: C1_2  and  C2_3 
REMARK    2  A    between atoms: C2_3  and  C3_4 
ROOT
ATOM      1  C3  UNL d   1       1.537   0.872  -0.828  0.00  0.00    -0.075 A 
ATOM      2  C4  UNL d   1       1.122   1.970  -1.596  0.00  0.00     0.002 A 
ATOM      3  C5  UNL d   1       0.447   1.777  -2.801  0.00  0.00     0.002 A 
ATOM      4  C6  UNL d   1       0.187   0.487  -3.259  0.00  0.00    -0.004 A 
ATOM      5  C7  UNL d   1       0.609  -0.611  -2.513  0.00  0.00     0.002 A 
ATOM      6  C8  UNL d   1       1.281  -0.421  -1.304  0.00  0.00     0.002 A 
ENDROOT
BRANCH   1   7
ATOM      7  C2  UNL d   1       2.242   1.074   0.492  0.00  0.00     0.056 C 
BRANCH   7   8
ATOM      8  C1  UNL d   1       1.614   2.157   1.375  0.00  0.00     0.007 C 
ATOM      9  C   UNL d   1       0.993   1.606   2.651  0.00  0.00     0.009 C 
ENDBRANCH   7   8
ENDBRANCH   1   7
TORSDOF 2
ENDMDL
