MODEL 1
REMARK minimizedAffinity 7.31776428
REMARK minimizedRMSD -1
REMARK  2 active torsions:
REMARK  status: ('A' for Active; 'I' for Inactive)
REMARK    1  A    between atoms: C1_2  and  C2_3 
REMARK    2  A    between atoms: C2_3  and  C3_4 
ROOT
ATOM      1  C3  UNL d   1      -1.093   1.969   2.612  0.00  0.00    -0.075 A 
ATOM      2  C4  UNL d   1      -0.193   0.940   2.926  0.00  0.00     0.002 A 
ATOM      3  C5  UNL d   1       1.164   1.072   2.633  0.00  0.00     0.002 A 
ATOM      4  C6  UNL d   1       1.638   2.227   2.015  0.00  0.00    -0.004 A 
ATOM      5  C7  UNL d   1       0.751   3.249   1.684  0.00  0.00     0.002 A 
ATOM      6  C8  UNL d   1      -0.608   3.122   1.980  0.00  0.00     0.002 A 
ENDROOT
BRANCH   1   7
ATOM      7  C2  UNL d   1      -2.559   1.845   2.953  0.00  0.00     0.056 C 
BRANCH   7   8
ATOM      8  C1  UNL d   1      -3.185   0.511   2.536  0.00  0.00     0.007 C 
ATOM      9  C   UNL d   1      -3.924  -0.187   3.671  0.00  0.00     0.009 C 
ENDBRANCH   7   8
ENDBRANCH   1   7
TORSDOF 2
ENDMDL
