MODEL 1
REMARK minimizedAffinity 8.07683849
REMARK minimizedRMSD -1
REMARK  2 active torsions:
REMARK  status: ('A' for Active; 'I' for Inactive)
REMARK    1  A    between atoms: C1_2  and  C2_3 
REMARK    2  A    between atoms: C2_3  and  C3_4 
ROOT
ATOM      1  C3  UNL d   1       0.709   2.015   2.229  0.00  0.00    -0.075 A 
ATOM      2  C4  UNL d   1       1.643   1.021   1.904  0.00  0.00     0.002 A 
ATOM      3  C5  UNL d   1       2.738   1.316   1.092  0.00  0.00     0.002 A 
ATOM      4  C6  UNL d   1       2.907   2.603   0.587  0.00  0.00    -0.004 A 
ATOM      5  C7  UNL d   1       1.976   3.595   0.889  0.00  0.00     0.002 A 
ATOM      6  C8  UNL d   1       0.882   3.303   1.705  0.00  0.00     0.002 A 
ENDROOT
BRANCH   1   7
ATOM      7  C2  UNL d   1      -0.463   1.709   3.132  0.00  0.00     0.056 C 
BRANCH   7   8
ATOM      8  C1  UNL d   1      -1.741   2.475   2.776  0.00  0.00     0.007 C 
ATOM      9  C   UNL d   1      -3.013   1.709   3.112  0.00  0.00     0.009 C 
ENDBRANCH   7   8
ENDBRANCH   1   7
TORSDOF 2
ENDMDL
