MODEL 1
REMARK minimizedAffinity 12.1512508
REMARK minimizedRMSD -1
REMARK  2 active torsions:
REMARK  status: ('A' for Active; 'I' for Inactive)
REMARK    1  A    between atoms: C1_2  and  C2_3 
REMARK    2  A    between atoms: C2_3  and  C3_4 
ROOT
ATOM      1  C3  UNL d   1       1.560   1.380  -0.436  0.00  0.00    -0.075 A 
ATOM      2  C4  UNL d   1       0.853   2.032  -1.457  0.00  0.00     0.002 A 
ATOM      3  C5  UNL d   1       0.556   1.370  -2.648  0.00  0.00     0.002 A 
ATOM      4  C6  UNL d   1       0.970   0.053  -2.838  0.00  0.00    -0.004 A 
ATOM      5  C7  UNL d   1       1.687  -0.599  -1.838  0.00  0.00     0.002 A 
ATOM      6  C8  UNL d   1       1.982   0.060  -0.643  0.00  0.00     0.002 A 
ENDROOT
BRANCH   1   7
ATOM      7  C2  UNL d   1       1.859   2.082   0.867  0.00  0.00     0.056 C 
BRANCH   7   8
ATOM      8  C1  UNL d   1       1.753   3.609   0.792  0.00  0.00     0.007 C 
ATOM      9  C   UNL d   1       0.316   4.107   0.704  0.00  0.00     0.009 C 
ENDBRANCH   7   8
ENDBRANCH   1   7
TORSDOF 2
ENDMDL
