MODEL 1
REMARK minimizedAffinity 1.35429466
REMARK minimizedRMSD -1
REMARK  2 active torsions:
REMARK  status: ('A' for Active; 'I' for Inactive)
REMARK    1  A    between atoms: C1_2  and  C2_3 
REMARK    2  A    between atoms: C2_3  and  C3_4 
ROOT
ATOM      1  C3  UNL d   1      -3.656  -4.953  -2.527  0.00  0.00    -0.075 A 
ATOM      2  C4  UNL d   1      -4.484  -5.929  -3.100  0.00  0.00     0.002 A 
ATOM      3  C5  UNL d   1      -5.640  -5.561  -3.789  0.00  0.00     0.002 A 
ATOM      4  C6  UNL d   1      -5.987  -4.217  -3.905  0.00  0.00    -0.004 A 
ATOM      5  C7  UNL d   1      -5.180  -3.240  -3.326  0.00  0.00     0.002 A 
ATOM      6  C8  UNL d   1      -4.021  -3.605  -2.639  0.00  0.00     0.002 A 
ENDROOT
BRANCH   1   7
ATOM      7  C2  UNL d   1      -2.388  -5.344  -1.806  0.00  0.00     0.056 C 
BRANCH   7   8
ATOM      8  C1  UNL d   1      -2.354  -4.924  -0.333  0.00  0.00     0.007 C 
ATOM      9  C   UNL d   1      -1.323  -3.842  -0.040  0.00  0.00     0.009 C 
ENDBRANCH   7   8
ENDBRANCH   1   7
TORSDOF 2
ENDMDL
