MODEL 1
REMARK minimizedAffinity 13.1704407
REMARK minimizedRMSD -1
REMARK  2 active torsions:
REMARK  status: ('A' for Active; 'I' for Inactive)
REMARK    1  A    between atoms: C1_2  and  C2_3 
REMARK    2  A    between atoms: C2_3  and  C3_4 
ROOT
ATOM      1  C3  UNL d   1      -3.531  -5.294  -3.298  0.00  0.00    -0.075 A 
ATOM      2  C4  UNL d   1      -4.679  -5.946  -3.771  0.00  0.00     0.002 A 
ATOM      3  C5  UNL d   1      -5.904  -5.280  -3.817  0.00  0.00     0.002 A 
ATOM      4  C6  UNL d   1      -5.999  -3.960  -3.383  0.00  0.00    -0.004 A 
ATOM      5  C7  UNL d   1      -4.869  -3.307  -2.895  0.00  0.00     0.002 A 
ATOM      6  C8  UNL d   1      -3.641  -3.970  -2.852  0.00  0.00     0.002 A 
ENDROOT
BRANCH   1   7
ATOM      7  C2  UNL d   1      -2.196  -6.000  -3.272  0.00  0.00     0.056 C 
BRANCH   7   8
ATOM      8  C1  UNL d   1      -0.992  -5.061  -3.395  0.00  0.00     0.007 C 
ATOM      9  C   UNL d   1      -0.517  -4.878  -4.830  0.00  0.00     0.009 C 
ENDBRANCH   7   8
ENDBRANCH   1   7
TORSDOF 2
ENDMDL
