MODEL 1
REMARK minimizedAffinity 8.36998463
REMARK minimizedRMSD -1
REMARK  3 active torsions:
REMARK  status: ('A' for Active; 'I' for Inactive)
REMARK    1  A    between atoms: C3'_2  and  C2'_3 
REMARK    2  A    between atoms: C2'_3  and  C1'_4 
REMARK    3  A    between atoms: C1'_4  and  C1_5 
ROOT
ATOM      1  C1  N4B d   1       3.607   1.228   0.962  0.00  0.00    -0.075 A 
ATOM      2  C2  N4B d   1       4.816   1.956   0.909  0.00  0.00     0.002 A 
ATOM      3  C3  N4B d   1       5.995   1.357   1.279  0.00  0.00     0.002 A 
ATOM      4  C4  N4B d   1       5.987   0.042   1.722  0.00  0.00    -0.004 A 
ATOM      5  C5  N4B d   1       4.819  -0.662   1.746  0.00  0.00     0.002 A 
ATOM      6  C6  N4B d   1       3.627  -0.074   1.373  0.00  0.00     0.002 A 
ENDROOT
BRANCH   1   7
ATOM      7  C1' N4B d   1       2.282   1.866   0.650  0.00  0.00     0.057 C 
BRANCH   7   8
ATOM      8  C2' N4B d   1       1.261   1.441   1.701  0.00  0.00     0.009 C 
BRANCH   8   9
ATOM      9  C3' N4B d   1       0.125   2.442   1.827  0.00  0.00     0.004 C 
ATOM     10  C4' N4B d   1      -0.935   1.999   2.791  0.00  0.00     0.003 C 
ENDBRANCH   8   9
ENDBRANCH   7   8
ENDBRANCH   1   7
TORSDOF 3
ENDMDL
