MODEL 1
REMARK minimizedAffinity 4.1490984
REMARK minimizedRMSD -1
REMARK  3 active torsions:
REMARK  status: ('A' for Active; 'I' for Inactive)
REMARK    1  A    between atoms: C3'_2  and  C2'_3 
REMARK    2  A    between atoms: C2'_3  and  C1'_4 
REMARK    3  A    between atoms: C1'_4  and  C1_5 
ROOT
ATOM      1  C1  N4B d   1       3.399   4.067  -4.072  0.00  0.00    -0.075 A 
ATOM      2  C2  N4B d   1       4.426   4.878  -4.604  0.00  0.00     0.002 A 
ATOM      3  C3  N4B d   1       4.127   5.841  -5.536  0.00  0.00     0.002 A 
ATOM      4  C4  N4B d   1       2.817   5.999  -5.964  0.00  0.00    -0.004 A 
ATOM      5  C5  N4B d   1       1.827   5.229  -5.427  0.00  0.00     0.002 A 
ATOM      6  C6  N4B d   1       2.112   4.260  -4.486  0.00  0.00     0.002 A 
ENDROOT
BRANCH   1   7
ATOM      7  C1' N4B d   1       3.689   2.944  -3.115  0.00  0.00     0.057 C 
BRANCH   7   8
ATOM      8  C2' N4B d   1       5.165   2.572  -3.213  0.00  0.00     0.009 C 
BRANCH   8   9
ATOM      9  C3' N4B d   1       5.382   1.325  -4.053  0.00  0.00     0.004 C 
ATOM     10  C4' N4B d   1       4.114   0.564  -4.302  0.00  0.00     0.003 C 
ENDBRANCH   8   9
ENDBRANCH   7   8
ENDBRANCH   1   7
TORSDOF 3
ENDMDL
