MODEL 1
REMARK minimizedAffinity 14.8276024
REMARK minimizedRMSD -1
REMARK  3 active torsions:
REMARK  status: ('A' for Active; 'I' for Inactive)
REMARK    1  A    between atoms: C3'_2  and  C2'_3 
REMARK    2  A    between atoms: C2'_3  and  C1'_4 
REMARK    3  A    between atoms: C1'_4  and  C1_5 
ROOT
ATOM      1  C1  N4B d   1       3.283   2.946  -4.075  0.00  0.00    -0.075 A 
ATOM      2  C2  N4B d   1       3.667   1.587  -4.074  0.00  0.00     0.002 A 
ATOM      3  C3  N4B d   1       4.516   1.115  -3.103  0.00  0.00     0.002 A 
ATOM      4  C4  N4B d   1       5.005   1.982  -2.138  0.00  0.00    -0.004 A 
ATOM      5  C5  N4B d   1       4.609   3.288  -2.131  0.00  0.00     0.002 A 
ATOM      6  C6  N4B d   1       3.754   3.776  -3.099  0.00  0.00     0.002 A 
ENDROOT
BRANCH   1   7
ATOM      7  C1' N4B d   1       2.427   3.529  -5.166  0.00  0.00     0.057 C 
BRANCH   7   8
ATOM      8  C2' N4B d   1       1.582   4.661  -4.589  0.00  0.00     0.009 C 
BRANCH   8   9
ATOM      9  C3' N4B d   1       1.918   6.000  -5.224  0.00  0.00     0.004 C 
ATOM     10  C4' N4B d   1       3.200   5.970  -6.000  0.00  0.00     0.003 C 
ENDBRANCH   8   9
ENDBRANCH   7   8
ENDBRANCH   1   7
TORSDOF 3
ENDMDL
