MODEL 1
REMARK minimizedAffinity 17.5969906
REMARK minimizedRMSD -1
REMARK  3 active torsions:
REMARK  status: ('A' for Active; 'I' for Inactive)
REMARK    1  A    between atoms: C3'_2  and  C2'_3 
REMARK    2  A    between atoms: C2'_3  and  C1'_4 
REMARK    3  A    between atoms: C1'_4  and  C1_5 
ROOT
ATOM      1  C1  N4B d   1      -1.713  -2.157  -1.418  0.00  0.00    -0.075 A 
ATOM      2  C2  N4B d   1      -2.816  -2.302  -0.548  0.00  0.00     0.002 A 
ATOM      3  C3  N4B d   1      -2.612  -2.631   0.770  0.00  0.00     0.002 A 
ATOM      4  C4  N4B d   1      -1.321  -2.836   1.234  0.00  0.00    -0.004 A 
ATOM      5  C5  N4B d   1      -0.260  -2.668   0.394  0.00  0.00     0.002 A 
ATOM      6  C6  N4B d   1      -0.449  -2.334  -0.932  0.00  0.00     0.002 A 
ENDROOT
BRANCH   1   7
ATOM      7  C1' N4B d   1      -1.890  -1.883  -2.886  0.00  0.00     0.057 C 
BRANCH   7   8
ATOM      8  C2' N4B d   1      -1.368  -3.074  -3.684  0.00  0.00     0.009 C 
BRANCH   8   9
ATOM      9  C3' N4B d   1      -0.293  -2.665  -4.677  0.00  0.00     0.004 C 
ATOM     10  C4' N4B d   1      -0.857  -2.237  -5.999  0.00  0.00     0.003 C 
ENDBRANCH   8   9
ENDBRANCH   7   8
ENDBRANCH   1   7
TORSDOF 3
ENDMDL
