MODEL 1
REMARK minimizedAffinity 6.29093885
REMARK minimizedRMSD -1
REMARK  3 active torsions:
REMARK  status: ('A' for Active; 'I' for Inactive)
REMARK    1  A    between atoms: C3'_2  and  C2'_3 
REMARK    2  A    between atoms: C2'_3  and  C1'_4 
REMARK    3  A    between atoms: C1'_4  and  C1_5 
ROOT
ATOM      1  C1  N4B d   1       3.539   3.467  -4.049  0.00  0.00    -0.075 A 
ATOM      2  C2  N4B d   1       4.456   3.848  -3.045  0.00  0.00     0.002 A 
ATOM      3  C3  N4B d   1       5.635   3.160  -2.895  0.00  0.00     0.002 A 
ATOM      4  C4  N4B d   1       5.909   2.079  -3.720  0.00  0.00    -0.004 A 
ATOM      5  C5  N4B d   1       5.029   1.733  -4.703  0.00  0.00     0.002 A 
ATOM      6  C6  N4B d   1       3.842   2.418  -4.869  0.00  0.00     0.002 A 
ENDROOT
BRANCH   1   7
ATOM      7  C1' N4B d   1       2.200   4.135  -4.196  0.00  0.00     0.057 C 
BRANCH   7   8
ATOM      8  C2' N4B d   1       2.408   5.594  -4.590  0.00  0.00     0.009 C 
BRANCH   8   9
ATOM      9  C3' N4B d   1       1.862   5.892  -5.975  0.00  0.00     0.004 C 
ATOM     10  C4' N4B d   1       0.366   5.999  -5.999  0.00  0.00     0.003 C 
ENDBRANCH   8   9
ENDBRANCH   7   8
ENDBRANCH   1   7
TORSDOF 3
ENDMDL
