MODEL 1
REMARK minimizedAffinity 12.2974968
REMARK minimizedRMSD -1
REMARK  3 active torsions:
REMARK  status: ('A' for Active; 'I' for Inactive)
REMARK    1  A    between atoms: C3'_2  and  C2'_3 
REMARK    2  A    between atoms: C2'_3  and  C1'_4 
REMARK    3  A    between atoms: C1'_4  and  C1_5 
ROOT
ATOM      1  C1  N4B d   1      -4.953   3.759   3.333  0.00  0.00    -0.075 A 
ATOM      2  C2  N4B d   1      -5.782   4.798   2.857  0.00  0.00     0.002 A 
ATOM      3  C3  N4B d   1      -6.000   5.912   3.630  0.00  0.00     0.002 A 
ATOM      4  C4  N4B d   1      -5.417   6.000   4.885  0.00  0.00    -0.004 A 
ATOM      5  C5  N4B d   1      -4.597   5.003   5.328  0.00  0.00     0.002 A 
ATOM      6  C6  N4B d   1      -4.367   3.880   4.559  0.00  0.00     0.002 A 
ENDROOT
BRANCH   1   7
ATOM      7  C1' N4B d   1      -4.755   2.483   2.560  0.00  0.00     0.057 C 
BRANCH   7   8
ATOM      8  C2' N4B d   1      -4.098   1.446   3.466  0.00  0.00     0.009 C 
BRANCH   8   9
ATOM      9  C3' N4B d   1      -2.708   1.069   2.984  0.00  0.00     0.004 C 
ATOM     10  C4' N4B d   1      -1.729   2.200   3.095  0.00  0.00     0.003 C 
ENDBRANCH   8   9
ENDBRANCH   7   8
ENDBRANCH   1   7
TORSDOF 3
ENDMDL
