MODEL 1
REMARK minimizedAffinity 10.4861927
REMARK minimizedRMSD -1
REMARK  3 active torsions:
REMARK  status: ('A' for Active; 'I' for Inactive)
REMARK    1  A    between atoms: C3'_2  and  C2'_3 
REMARK    2  A    between atoms: C2'_3  and  C1'_4 
REMARK    3  A    between atoms: C1'_4  and  C1_5 
ROOT
ATOM      1  C1  N4B d   1       5.066   3.151  -4.764  0.00  0.00    -0.075 A 
ATOM      2  C2  N4B d   1       5.747   3.159  -3.526  0.00  0.00     0.002 A 
ATOM      3  C3  N4B d   1       5.385   2.276  -2.539  0.00  0.00     0.002 A 
ATOM      4  C4  N4B d   1       4.338   1.393  -2.758  0.00  0.00    -0.004 A 
ATOM      5  C5  N4B d   1       3.703   1.375  -3.965  0.00  0.00     0.002 A 
ATOM      6  C6  N4B d   1       4.058   2.254  -4.968  0.00  0.00     0.002 A 
ENDROOT
BRANCH   1   7
ATOM      7  C1' N4B d   1       5.369   4.155  -5.842  0.00  0.00     0.057 C 
BRANCH   7   8
ATOM      8  C2' N4B d   1       4.181   5.101  -5.994  0.00  0.00     0.009 C 
BRANCH   8   9
ATOM      9  C3' N4B d   1       2.857   4.356  -5.979  0.00  0.00     0.004 C 
ATOM     10  C4' N4B d   1       1.673   5.277  -5.988  0.00  0.00     0.003 C 
ENDBRANCH   8   9
ENDBRANCH   7   8
ENDBRANCH   1   7
TORSDOF 3
ENDMDL
