MODEL 1
REMARK minimizedAffinity -3.66665864
REMARK minimizedRMSD -1
REMARK  0 active torsions:
REMARK  status: ('A' for Active; 'I' for Inactive)
ROOT
ATOM      1  C2' OXE d   1       5.297  -2.256   5.250  0.00  0.00     0.078 C 
ATOM      2  C1' OXE d   1       5.263  -5.063   5.267  0.00  0.00     0.078 C 
ATOM      3  C1  OXE d   1       5.542  -4.370   3.956  0.00  0.00    -0.078 A 
ATOM      4  C2  OXE d   1       5.510  -2.996   3.948  0.00  0.00    -0.078 A 
ATOM      5  C3  OXE d   1       5.814  -2.307   2.777  0.00  0.00     0.003 A 
ATOM      6  C4  OXE d   1       6.000  -3.000   1.575  0.00  0.00    -0.002 A 
ATOM      7  C5  OXE d   1       5.997  -4.398   1.553  0.00  0.00    -0.002 A 
ATOM      8  C6  OXE d   1       5.812  -5.098   2.741  0.00  0.00     0.003 A 
ENDROOT
TORSDOF 0
ENDMDL
