MODEL 1
REMARK minimizedAffinity -2.72401667
REMARK minimizedRMSD -1
REMARK  0 active torsions:
REMARK  status: ('A' for Active; 'I' for Inactive)
ROOT
ATOM      1  C2' OXE d   1       5.651  -2.629   5.678  0.00  0.00     0.078 C 
ATOM      2  C1' OXE d   1       5.721  -5.417   6.000  0.00  0.00     0.078 C 
ATOM      3  C1  OXE d   1       5.822  -4.867   4.599  0.00  0.00    -0.078 A 
ATOM      4  C2  OXE d   1       5.740  -3.504   4.447  0.00  0.00    -0.078 A 
ATOM      5  C3  OXE d   1       5.882  -2.942   3.181  0.00  0.00     0.003 A 
ATOM      6  C4  OXE d   1       5.953  -3.759   2.047  0.00  0.00    -0.002 A 
ATOM      7  C5  OXE d   1       5.999  -5.151   2.176  0.00  0.00    -0.002 A 
ATOM      8  C6  OXE d   1       5.977  -5.719   3.445  0.00  0.00     0.003 A 
ENDROOT
TORSDOF 0
ENDMDL
