MODEL 1
REMARK minimizedAffinity -2.84512305
REMARK minimizedRMSD -1
REMARK  0 active torsions:
REMARK  status: ('A' for Active; 'I' for Inactive)
ROOT
ATOM      1  C2' OXE d   1       6.000  -5.610   2.246  0.00  0.00     0.078 C 
ATOM      2  C1' OXE d   1       5.999  -2.816   1.976  0.00  0.00     0.078 C 
ATOM      3  C1  OXE d   1       5.653  -3.392   3.326  0.00  0.00    -0.078 A 
ATOM      4  C2  OXE d   1       5.610  -4.761   3.436  0.00  0.00    -0.078 A 
ATOM      5  C3  OXE d   1       5.349  -5.345   4.673  0.00  0.00     0.003 A 
ATOM      6  C4  OXE d   1       4.979  -4.553   5.767  0.00  0.00    -0.002 A 
ATOM      7  C5  OXE d   1       4.977  -3.158   5.665  0.00  0.00    -0.002 A 
ATOM      8  C6  OXE d   1       5.352  -2.562   4.466  0.00  0.00     0.003 A 
ENDROOT
TORSDOF 0
ENDMDL
