MODEL 1
REMARK minimizedAffinity -3.07302904
REMARK minimizedRMSD -1
REMARK  0 active torsions:
REMARK  status: ('A' for Active; 'I' for Inactive)
ROOT
ATOM      1  C2' OXE d   1       5.998  -5.427   2.299  0.00  0.00     0.078 C 
ATOM      2  C1' OXE d   1       5.999  -5.991   5.048  0.00  0.00     0.078 C 
ATOM      3  C1  OXE d   1       5.847  -4.551   4.626  0.00  0.00    -0.078 A 
ATOM      4  C2  OXE d   1       5.894  -4.279   3.279  0.00  0.00    -0.078 A 
ATOM      5  C3  OXE d   1       5.704  -2.975   2.833  0.00  0.00     0.003 A 
ATOM      6  C4  OXE d   1       5.619  -1.917   3.747  0.00  0.00    -0.002 A 
ATOM      7  C5  OXE d   1       5.608  -2.168   5.123  0.00  0.00    -0.002 A 
ATOM      8  C6  OXE d   1       5.678  -3.480   5.577  0.00  0.00     0.003 A 
ENDROOT
TORSDOF 0
ENDMDL
