MODEL 1
REMARK minimizedAffinity 1.84578609
REMARK minimizedRMSD -1
REMARK  0 active torsions:
REMARK  status: ('A' for Active; 'I' for Inactive)
ROOT
ATOM      1  C2' OXE d   1       4.895  -5.984   5.998  0.00  0.00     0.078 C 
ATOM      2  C1' OXE d   1       2.540  -5.792   4.482  0.00  0.00     0.078 C 
ATOM      3  C1  OXE d   1       3.726  -4.968   4.047  0.00  0.00    -0.078 A 
ATOM      4  C2  OXE d   1       4.859  -5.032   4.822  0.00  0.00    -0.078 A 
ATOM      5  C3  OXE d   1       5.999  -4.334   4.434  0.00  0.00     0.003 A 
ATOM      6  C4  OXE d   1       5.954  -3.448   3.351  0.00  0.00    -0.002 A 
ATOM      7  C5  OXE d   1       4.797  -3.338   2.572  0.00  0.00    -0.002 A 
ATOM      8  C6  OXE d   1       3.691  -4.121   2.881  0.00  0.00     0.003 A 
ENDROOT
TORSDOF 0
ENDMDL
