MODEL 1
REMARK minimizedAffinity -3.70293212
REMARK minimizedRMSD -1
REMARK  0 active torsions:
REMARK  status: ('A' for Active; 'I' for Inactive)
ROOT
ATOM      1  C2' OXE d   1       5.999  -2.484   1.888  0.00  0.00     0.078 C 
ATOM      2  C1' OXE d   1       6.000  -5.275   2.193  0.00  0.00     0.078 C 
ATOM      3  C1  OXE d   1       5.721  -4.433   3.414  0.00  0.00    -0.078 A 
ATOM      4  C2  OXE d   1       5.768  -3.068   3.265  0.00  0.00    -0.078 A 
ATOM      5  C3  OXE d   1       5.465  -2.246   4.346  0.00  0.00     0.003 A 
ATOM      6  C4  OXE d   1       5.263  -2.794   5.619  0.00  0.00    -0.002 A 
ATOM      7  C5  OXE d   1       5.249  -4.181   5.800  0.00  0.00    -0.002 A 
ATOM      8  C6  OXE d   1       5.434  -5.014   4.702  0.00  0.00     0.003 A 
ENDROOT
TORSDOF 0
ENDMDL
