MODEL 1
REMARK minimizedAffinity -3.74431896
REMARK minimizedRMSD -1
REMARK  0 active torsions:
REMARK  status: ('A' for Active; 'I' for Inactive)
ROOT
ATOM      1  C2' OXE d   1       5.996  -4.681   2.213  0.00  0.00     0.078 C 
ATOM      2  C1' OXE d   1       6.000  -1.880   2.389  0.00  0.00     0.078 C 
ATOM      3  C1  OXE d   1       5.619  -2.662   3.621  0.00  0.00    -0.078 A 
ATOM      4  C2  OXE d   1       5.575  -4.031   3.513  0.00  0.00    -0.078 A 
ATOM      5  C3  OXE d   1       5.283  -4.802   4.634  0.00  0.00     0.003 A 
ATOM      6  C4  OXE d   1       4.884  -4.192   5.830  0.00  0.00    -0.002 A 
ATOM      7  C5  OXE d   1       4.884  -2.798   5.950  0.00  0.00    -0.002 A 
ATOM      8  C6  OXE d   1       5.289  -2.021   4.871  0.00  0.00     0.003 A 
ENDROOT
TORSDOF 0
ENDMDL
