MODEL 1
REMARK minimizedAffinity -2.77379322
REMARK minimizedRMSD -1
REMARK  0 active torsions:
REMARK  status: ('A' for Active; 'I' for Inactive)
ROOT
ATOM      1  C2' OXE d   1       5.177  -2.424   5.999  0.00  0.00     0.078 C 
ATOM      2  C1' OXE d   1       5.154  -5.232   6.000  0.00  0.00     0.078 C 
ATOM      3  C1  OXE d   1       5.470  -4.531   4.702  0.00  0.00    -0.078 A 
ATOM      4  C2  OXE d   1       5.433  -3.157   4.700  0.00  0.00    -0.078 A 
ATOM      5  C3  OXE d   1       5.770  -2.460   3.543  0.00  0.00     0.003 A 
ATOM      6  C4  OXE d   1       5.996  -3.146   2.343  0.00  0.00    -0.002 A 
ATOM      7  C5  OXE d   1       5.999  -4.544   2.314  0.00  0.00    -0.002 A 
ATOM      8  C6  OXE d   1       5.780  -5.251   3.492  0.00  0.00     0.003 A 
ENDROOT
TORSDOF 0
ENDMDL
