MODEL 1
REMARK minimizedAffinity -2.94616842
REMARK minimizedRMSD -1
REMARK  0 active torsions:
REMARK  status: ('A' for Active; 'I' for Inactive)
ROOT
ATOM      1  C2' OXE d   1       5.808  -5.920   3.597  0.00  0.00     0.078 C 
ATOM      2  C1' OXE d   1       4.039  -5.996   5.775  0.00  0.00     0.078 C 
ATOM      3  C1  OXE d   1       4.572  -4.651   5.348  0.00  0.00    -0.078 A 
ATOM      4  C2  OXE d   1       5.474  -4.629   4.311  0.00  0.00    -0.078 A 
ATOM      5  C3  OXE d   1       5.954  -3.410   3.842  0.00  0.00     0.003 A 
ATOM      6  C4  OXE d   1       5.648  -2.220   4.514  0.00  0.00    -0.002 A 
ATOM      7  C5  OXE d   1       4.763  -2.225   5.598  0.00  0.00    -0.002 A 
ATOM      8  C6  OXE d   1       4.185  -3.424   6.000  0.00  0.00     0.003 A 
ENDROOT
TORSDOF 0
ENDMDL
