MODEL 1
REMARK minimizedAffinity -3.70605922
REMARK minimizedRMSD -1
REMARK  0 active torsions:
REMARK  status: ('A' for Active; 'I' for Inactive)
ROOT
ATOM      1  C2' OXE d   1       5.956  -5.999   2.362  0.00  0.00     0.078 C 
ATOM      2  C1' OXE d   1       5.997  -3.213   2.021  0.00  0.00     0.078 C 
ATOM      3  C1  OXE d   1       5.589  -3.751   3.370  0.00  0.00    -0.078 A 
ATOM      4  C2  OXE d   1       5.527  -5.116   3.514  0.00  0.00    -0.078 A 
ATOM      5  C3  OXE d   1       5.209  -5.665   4.753  0.00  0.00     0.003 A 
ATOM      6  C4  OXE d   1       4.804  -4.841   5.810  0.00  0.00    -0.002 A 
ATOM      7  C5  OXE d   1       4.822  -3.449   5.673  0.00  0.00    -0.002 A 
ATOM      8  C6  OXE d   1       5.252  -2.888   4.475  0.00  0.00     0.003 A 
ENDROOT
TORSDOF 0
ENDMDL
