MODEL 1
REMARK minimizedAffinity -4.15784502
REMARK minimizedRMSD -1
REMARK  0 active torsions:
REMARK  status: ('A' for Active; 'I' for Inactive)
ROOT
ATOM      1  C2' OXE d   1       5.966  -2.598   1.909  0.00  0.00     0.078 C 
ATOM      2  C1' OXE d   1       5.918  -5.328   2.562  0.00  0.00     0.078 C 
ATOM      3  C1  OXE d   1       5.465  -4.345   3.613  0.00  0.00    -0.078 A 
ATOM      4  C2  OXE d   1       5.536  -3.009   3.301  0.00  0.00    -0.078 A 
ATOM      5  C3  OXE d   1       5.079  -2.063   4.214  0.00  0.00     0.003 A 
ATOM      6  C4  OXE d   1       4.692  -2.451   5.503  0.00  0.00    -0.002 A 
ATOM      7  C5  OXE d   1       4.650  -3.804   5.855  0.00  0.00    -0.002 A 
ATOM      8  C6  OXE d   1       4.992  -4.765   4.909  0.00  0.00     0.003 A 
ENDROOT
TORSDOF 0
ENDMDL
