MODEL 1
REMARK minimizedAffinity -3.71316195
REMARK minimizedRMSD -1
REMARK  0 active torsions:
REMARK  status: ('A' for Active; 'I' for Inactive)
ROOT
ATOM      1  C2' OXE d   1       4.879  -2.821   5.941  0.00  0.00     0.078 C 
ATOM      2  C1' OXE d   1       4.843  -5.627   6.000  0.00  0.00     0.078 C 
ATOM      3  C1  OXE d   1       5.270  -4.956   4.719  0.00  0.00    -0.078 A 
ATOM      4  C2  OXE d   1       5.240  -3.583   4.684  0.00  0.00    -0.078 A 
ATOM      5  C3  OXE d   1       5.676  -2.912   3.545  0.00  0.00     0.003 A 
ATOM      6  C4  OXE d   1       5.999  -3.624   2.383  0.00  0.00    -0.002 A 
ATOM      7  C5  OXE d   1       5.999  -5.023   2.385  0.00  0.00    -0.002 A 
ATOM      8  C6  OXE d   1       5.678  -5.703   3.554  0.00  0.00     0.003 A 
ENDROOT
TORSDOF 0
ENDMDL
