MODEL 1
REMARK minimizedAffinity -3.15400481
REMARK minimizedRMSD -1
REMARK  0 active torsions:
REMARK  status: ('A' for Active; 'I' for Inactive)
ROOT
ATOM      1  C2' OXE d   1       6.000  -5.752   2.698  0.00  0.00     0.078 C 
ATOM      2  C1' OXE d   1       5.198  -5.955   5.380  0.00  0.00     0.078 C 
ATOM      3  C1  OXE d   1       5.407  -4.574   4.811  0.00  0.00    -0.078 A 
ATOM      4  C2  OXE d   1       5.844  -4.485   3.511  0.00  0.00    -0.078 A 
ATOM      5  C3  OXE d   1       6.000  -3.235   2.920  0.00  0.00     0.003 A 
ATOM      6  C4  OXE d   1       5.863  -2.068   3.683  0.00  0.00    -0.002 A 
ATOM      7  C5  OXE d   1       5.457  -2.138   5.020  0.00  0.00    -0.002 A 
ATOM      8  C6  OXE d   1       5.184  -3.378   5.585  0.00  0.00     0.003 A 
ENDROOT
TORSDOF 0
ENDMDL
