MODEL 1
REMARK minimizedAffinity -2.17030883
REMARK minimizedRMSD -1
REMARK  0 active torsions:
REMARK  status: ('A' for Active; 'I' for Inactive)
ROOT
ATOM      1  C2' OXE d   1       5.258  -2.924   5.925  0.00  0.00     0.078 C 
ATOM      2  C1' OXE d   1       5.285  -5.730   5.998  0.00  0.00     0.078 C 
ATOM      3  C1  OXE d   1       5.546  -5.058   4.673  0.00  0.00    -0.078 A 
ATOM      4  C2  OXE d   1       5.485  -3.686   4.637  0.00  0.00    -0.078 A 
ATOM      5  C3  OXE d   1       5.772  -3.013   3.453  0.00  0.00     0.003 A 
ATOM      6  C4  OXE d   1       5.970  -3.726   2.264  0.00  0.00    -0.002 A 
ATOM      7  C5  OXE d   1       5.997  -5.124   2.270  0.00  0.00    -0.002 A 
ATOM      8  C6  OXE d   1       5.830  -5.804   3.472  0.00  0.00     0.003 A 
ENDROOT
TORSDOF 0
ENDMDL
