MODEL 1
REMARK minimizedAffinity -2.85318828
REMARK minimizedRMSD -1
REMARK  0 active torsions:
REMARK  status: ('A' for Active; 'I' for Inactive)
ROOT
ATOM      1  C2' OXE d   1       4.914  -2.345   5.869  0.00  0.00     0.078 C 
ATOM      2  C1' OXE d   1       4.818  -5.082   5.254  0.00  0.00     0.078 C 
ATOM      3  C1  OXE d   1       5.254  -4.132   4.167  0.00  0.00    -0.078 A 
ATOM      4  C2  OXE d   1       5.253  -2.790   4.462  0.00  0.00    -0.078 A 
ATOM      5  C3  OXE d   1       5.698  -1.875   3.513  0.00  0.00     0.003 A 
ATOM      6  C4  OXE d   1       6.000  -2.294   2.211  0.00  0.00    -0.002 A 
ATOM      7  C5  OXE d   1       5.969  -3.652   1.878  0.00  0.00    -0.002 A 
ATOM      8  C6  OXE d   1       5.640  -4.586   2.853  0.00  0.00     0.003 A 
ENDROOT
TORSDOF 0
ENDMDL
