MODEL 1
REMARK minimizedAffinity -1.14742875
REMARK minimizedRMSD -1
REMARK  0 active torsions:
REMARK  status: ('A' for Active; 'I' for Inactive)
ROOT
ATOM      1  C2' OXE d   1       3.807  -5.717   4.819  0.00  0.00     0.078 C 
ATOM      2  C1' OXE d   1       5.218  -4.906   2.532  0.00  0.00     0.078 C 
ATOM      3  C1  OXE d   1       5.254  -4.001   3.738  0.00  0.00    -0.078 A 
ATOM      4  C2  OXE d   1       4.522  -4.383   4.837  0.00  0.00    -0.078 A 
ATOM      5  C3  OXE d   1       4.564  -3.612   5.995  0.00  0.00     0.003 A 
ATOM      6  C4  OXE d   1       5.219  -2.375   6.000  0.00  0.00    -0.002 A 
ATOM      7  C5  OXE d   1       5.938  -1.948   4.878  0.00  0.00    -0.002 A 
ATOM      8  C6  OXE d   1       6.000  -2.768   3.756  0.00  0.00     0.003 A 
ENDROOT
TORSDOF 0
ENDMDL
