MODEL 1
REMARK minimizedAffinity -5.65617561
REMARK minimizedRMSD -1
REMARK  2 active torsions:
REMARK  status: ('A' for Active; 'I' for Inactive)
REMARK    1  A    between atoms: C2'_3  and  C1'_4 
REMARK    2  A    between atoms: C1'_4  and  C1_5 
ROOT
ATOM      1  C1  I4B d   1       0.096  -0.041  -0.024  0.00  0.00    -0.075 A 
ATOM      2  C2  I4B d   1      -1.275   0.010  -0.069  0.00  0.00     0.003 A 
ATOM      3  C3  I4B d   1      -1.999   0.650   0.965  0.00  0.00     0.002 A 
ATOM      4  C4  I4B d   1      -1.320   1.179   2.044  0.00  0.00    -0.004 A 
ATOM      5  C5  I4B d   1       0.071   1.147   2.077  0.00  0.00     0.002 A 
ATOM      6  C6  I4B d   1       0.785   0.545   1.031  0.00  0.00     0.003 A 
ENDROOT
BRANCH   1   7
ATOM      7  C1' I4B d   1       0.828  -0.754  -1.116  0.00  0.00     0.060 C 
BRANCH   7   8
ATOM      8  C2' I4B d   1       0.516  -0.052  -2.422  0.00  0.00    -0.013 C 
ATOM      9  C4' I4B d   1       1.726   0.669  -2.956  0.00  0.00     0.013 C 
ATOM     10  C3' I4B d   1       0.026  -1.082  -3.396  0.00  0.00     0.013 C 
ENDBRANCH   7   8
ENDBRANCH   1   7
TORSDOF 2
ENDMDL
