MODEL 1
REMARK minimizedAffinity -3.26963878
REMARK minimizedRMSD -1
REMARK  2 active torsions:
REMARK  status: ('A' for Active; 'I' for Inactive)
REMARK    1  A    between atoms: C2'_3  and  C1'_4 
REMARK    2  A    between atoms: C1'_4  and  C1_5 
ROOT
ATOM      1  C1  I4B d   1      -0.061  -0.245  -0.807  0.00  0.00    -0.075 A 
ATOM      2  C2  I4B d   1       0.920  -0.102   0.143  0.00  0.00     0.003 A 
ATOM      3  C3  I4B d   1       0.595   0.376   1.436  0.00  0.00     0.002 A 
ATOM      4  C4  I4B d   1      -0.704   0.745   1.718  0.00  0.00    -0.004 A 
ATOM      5  C5  I4B d   1      -1.701   0.578   0.761  0.00  0.00     0.002 A 
ATOM      6  C6  I4B d   1      -1.380   0.068  -0.505  0.00  0.00     0.003 A 
ENDROOT
BRANCH   1   7
ATOM      7  C1' I4B d   1       0.322  -0.721  -2.172  0.00  0.00     0.060 C 
BRANCH   7   8
ATOM      8  C2' I4B d   1       0.575   0.496  -3.037  0.00  0.00    -0.013 C 
ATOM      9  C4' I4B d   1       2.038   0.639  -3.364  0.00  0.00     0.013 C 
ATOM     10  C3' I4B d   1      -0.247   0.356  -4.284  0.00  0.00     0.013 C 
ENDBRANCH   7   8
ENDBRANCH   1   7
TORSDOF 2
ENDMDL
