MODEL 1
REMARK minimizedAffinity -2.69538045
REMARK minimizedRMSD -1
REMARK  2 active torsions:
REMARK  status: ('A' for Active; 'I' for Inactive)
REMARK    1  A    between atoms: C2'_3  and  C1'_4 
REMARK    2  A    between atoms: C1'_4  and  C1_5 
ROOT
ATOM      1  C1  I4B d   1      -0.264  -0.313  -0.852  0.00  0.00    -0.075 A 
ATOM      2  C2  I4B d   1       0.064   0.008   0.442  0.00  0.00     0.003 A 
ATOM      3  C3  I4B d   1      -0.924   0.506   1.325  0.00  0.00     0.002 A 
ATOM      4  C4  I4B d   1      -2.207   0.715   0.862  0.00  0.00    -0.004 A 
ATOM      5  C5  I4B d   1      -2.543   0.368  -0.444  0.00  0.00     0.002 A 
ATOM      6  C6  I4B d   1      -1.569  -0.161  -1.303  0.00  0.00     0.003 A 
ENDROOT
BRANCH   1   7
ATOM      7  C1' I4B d   1       0.811  -0.806  -1.767  0.00  0.00     0.060 C 
BRANCH   7   8
ATOM      8  C2' I4B d   1       0.661  -0.089  -3.094  0.00  0.00    -0.013 C 
ATOM      9  C4' I4B d   1       1.923   0.643  -3.464  0.00  0.00     0.013 C 
ATOM     10  C3' I4B d   1       0.301  -1.108  -4.133  0.00  0.00     0.013 C 
ENDBRANCH   7   8
ENDBRANCH   1   7
TORSDOF 2
ENDMDL
