MODEL 1
REMARK minimizedAffinity -3.5398066
REMARK minimizedRMSD -1
REMARK  2 active torsions:
REMARK  status: ('A' for Active; 'I' for Inactive)
REMARK    1  A    between atoms: C2'_3  and  C1'_4 
REMARK    2  A    between atoms: C1'_4  and  C1_5 
ROOT
ATOM      1  C1  I4B d   1       0.417  -0.155  -0.044  0.00  0.00    -0.075 A 
ATOM      2  C2  I4B d   1       1.172   0.356   0.982  0.00  0.00     0.003 A 
ATOM      3  C3  I4B d   1       0.543   0.961   2.097  0.00  0.00     0.002 A 
ATOM      4  C4  I4B d   1      -0.832   1.079   2.121  0.00  0.00    -0.004 A 
ATOM      5  C5  I4B d   1      -1.597   0.540   1.091  0.00  0.00     0.002 A 
ATOM      6  C6  I4B d   1      -0.970  -0.092   0.007  0.00  0.00     0.003 A 
ENDROOT
BRANCH   1   7
ATOM      7  C1' I4B d   1       1.115  -0.758  -1.221  0.00  0.00     0.060 C 
BRANCH   7   8
ATOM      8  C2' I4B d   1       0.810   0.099  -2.433  0.00  0.00    -0.013 C 
ATOM      9  C4' I4B d   1       2.041   0.824  -2.912  0.00  0.00     0.013 C 
ATOM     10  C3' I4B d   1       0.257  -0.794  -3.504  0.00  0.00     0.013 C 
ENDBRANCH   7   8
ENDBRANCH   1   7
TORSDOF 2
ENDMDL
