MODEL 1
REMARK minimizedAffinity -4.61318159
REMARK minimizedRMSD -1
REMARK  2 active torsions:
REMARK  status: ('A' for Active; 'I' for Inactive)
REMARK    1  A    between atoms: C2'_3  and  C1'_4 
REMARK    2  A    between atoms: C1'_4  and  C1_5 
ROOT
ATOM      1  C1  I4B d   1       0.112  -0.240  -0.246  0.00  0.00    -0.075 A 
ATOM      2  C2  I4B d   1       0.825   0.195   0.843  0.00  0.00     0.003 A 
ATOM      3  C3  I4B d   1       0.159   0.808   1.932  0.00  0.00     0.002 A 
ATOM      4  C4  I4B d   1      -1.205   1.010   1.869  0.00  0.00    -0.004 A 
ATOM      5  C5  I4B d   1      -1.929   0.547   0.774  0.00  0.00     0.002 A 
ATOM      6  C6  I4B d   1      -1.269  -0.093  -0.285  0.00  0.00     0.003 A 
ENDROOT
BRANCH   1   7
ATOM      7  C1' I4B d   1       0.851  -0.854  -1.392  0.00  0.00     0.060 C 
BRANCH   7   8
ATOM      8  C2' I4B d   1       0.829   0.132  -2.543  0.00  0.00    -0.013 C 
ATOM      9  C4' I4B d   1       2.176   0.779  -2.731  0.00  0.00     0.013 C 
ATOM     10  C3' I4B d   1       0.405  -0.606  -3.777  0.00  0.00     0.013 C 
ENDBRANCH   7   8
ENDBRANCH   1   7
TORSDOF 2
ENDMDL
