MODEL 1
REMARK minimizedAffinity -3.09112763
REMARK minimizedRMSD -1
REMARK  2 active torsions:
REMARK  status: ('A' for Active; 'I' for Inactive)
REMARK    1  A    between atoms: C2'_3  and  C1'_4 
REMARK    2  A    between atoms: C1'_4  and  C1_5 
ROOT
ATOM      1  C1  I4B d   1      -0.012  -0.104  -0.227  0.00  0.00    -0.075 A 
ATOM      2  C2  I4B d   1       0.904   0.322   0.703  0.00  0.00     0.003 A 
ATOM      3  C3  I4B d   1       0.475   1.021   1.858  0.00  0.00     0.002 A 
ATOM      4  C4  I4B d   1      -0.864   1.315   2.016  0.00  0.00    -0.004 A 
ATOM      5  C5  I4B d   1      -1.793   0.862   1.083  0.00  0.00     0.002 A 
ATOM      6  C6  I4B d   1      -1.366   0.138  -0.039  0.00  0.00     0.003 A 
ENDROOT
BRANCH   1   7
ATOM      7  C1' I4B d   1       0.479  -0.810  -1.450  0.00  0.00     0.060 C 
BRANCH   7   8
ATOM      8  C2' I4B d   1       0.854   0.239  -2.477  0.00  0.00    -0.013 C 
ATOM      9  C4' I4B d   1       2.348   0.397  -2.575  0.00  0.00     0.013 C 
ATOM     10  C3' I4B d   1       0.265  -0.171  -3.794  0.00  0.00     0.013 C 
ENDBRANCH   7   8
ENDBRANCH   1   7
TORSDOF 2
ENDMDL
