MODEL 1
REMARK minimizedAffinity -6.37705469
REMARK minimizedRMSD -1
REMARK  2 active torsions:
REMARK  status: ('A' for Active; 'I' for Inactive)
REMARK    1  A    between atoms: C2'_3  and  C1'_4 
REMARK    2  A    between atoms: C1'_4  and  C1_5 
ROOT
ATOM      1  C1  I4B d   1       0.375  -0.068  -0.143  0.00  0.00    -0.075 A 
ATOM      2  C2  I4B d   1       1.108   0.337   0.945  0.00  0.00     0.003 A 
ATOM      3  C3  I4B d   1       0.472   0.989   2.029  0.00  0.00     0.002 A 
ATOM      4  C4  I4B d   1      -0.879   1.260   1.961  0.00  0.00    -0.004 A 
ATOM      5  C5  I4B d   1      -1.624   0.829   0.867  0.00  0.00     0.002 A 
ATOM      6  C6  I4B d   1      -0.996   0.150  -0.186  0.00  0.00     0.003 A 
ENDROOT
BRANCH   1   7
ATOM      7  C1' I4B d   1       1.084  -0.725  -1.285  0.00  0.00     0.060 C 
BRANCH   7   8
ATOM      8  C2' I4B d   1       0.879   0.133  -2.517  0.00  0.00    -0.013 C 
ATOM      9  C4' I4B d   1       2.108   0.947  -2.825  0.00  0.00     0.013 C 
ATOM     10  C3' I4B d   1       0.530  -0.774  -3.660  0.00  0.00     0.013 C 
ENDBRANCH   7   8
ENDBRANCH   1   7
TORSDOF 2
ENDMDL
