MODEL 1
REMARK minimizedAffinity -0.622873127
REMARK minimizedRMSD -1
REMARK  2 active torsions:
REMARK  status: ('A' for Active; 'I' for Inactive)
REMARK    1  A    between atoms: C2'_3  and  C1'_4 
REMARK    2  A    between atoms: C1'_4  and  C1_5 
ROOT
ATOM      1  C1  I4B d   1       1.349   0.882  -2.641  0.00  0.00    -0.075 A 
ATOM      2  C2  I4B d   1       0.397   0.625  -3.595  0.00  0.00     0.003 A 
ATOM      3  C3  I4B d   1       0.781   0.341  -4.927  0.00  0.00     0.002 A 
ATOM      4  C4  I4B d   1       2.117   0.374  -5.271  0.00  0.00    -0.004 A 
ATOM      5  C5  I4B d   1       3.083   0.612  -4.298  0.00  0.00     0.002 A 
ATOM      6  C6  I4B d   1       2.698   0.856  -2.971  0.00  0.00     0.003 A 
ENDROOT
BRANCH   1   7
ATOM      7  C1' I4B d   1       0.907   1.212  -1.250  0.00  0.00     0.060 C 
BRANCH   7   8
ATOM      8  C2' I4B d   1       0.486  -0.079  -0.577  0.00  0.00    -0.013 C 
ATOM      9  C4' I4B d   1       1.625  -0.686   0.199  0.00  0.00     0.013 C 
ATOM     10  C3' I4B d   1      -0.678   0.225   0.319  0.00  0.00     0.013 C 
ENDBRANCH   7   8
ENDBRANCH   1   7
TORSDOF 2
ENDMDL
