MODEL 1
REMARK minimizedAffinity -4.02568579
REMARK minimizedRMSD -1
REMARK  2 active torsions:
REMARK  status: ('A' for Active; 'I' for Inactive)
REMARK    1  A    between atoms: C2'_3  and  C1'_4 
REMARK    2  A    between atoms: C1'_4  and  C1_5 
ROOT
ATOM      1  C1  I4B d   1       0.212  -0.381  -0.563  0.00  0.00    -0.075 A 
ATOM      2  C2  I4B d   1      -1.155  -0.281  -0.625  0.00  0.00     0.003 A 
ATOM      3  C3  I4B d   1      -1.868   0.392   0.397  0.00  0.00     0.002 A 
ATOM      4  C4  I4B d   1      -1.182   0.902   1.481  0.00  0.00    -0.004 A 
ATOM      5  C5  I4B d   1       0.206   0.820   1.530  0.00  0.00     0.002 A 
ATOM      6  C6  I4B d   1       0.910   0.185   0.496  0.00  0.00     0.003 A 
ENDROOT
BRANCH   1   7
ATOM      7  C1' I4B d   1       0.930  -1.127  -1.643  0.00  0.00     0.060 C 
BRANCH   7   8
ATOM      8  C2' I4B d   1       0.584  -0.478  -2.968  0.00  0.00    -0.013 C 
ATOM      9  C4' I4B d   1       1.697   0.418  -3.444  0.00  0.00     0.013 C 
ATOM     10  C3' I4B d   1       0.305  -1.569  -3.958  0.00  0.00     0.013 C 
ENDBRANCH   7   8
ENDBRANCH   1   7
TORSDOF 2
ENDMDL
