MODEL 1
REMARK minimizedAffinity 3.25179148
REMARK minimizedRMSD -1
REMARK  0 active torsions:
REMARK  status: ('A' for Active; 'I' for Inactive)
ROOT
ATOM      1  O1  BZF d   1      -4.090  -1.758  -2.418  0.00  0.00    -0.204 OA
ATOM      2  C2  BZF d   1      -3.748  -0.741  -1.548  0.00  0.00     0.174 A 
ATOM      3  C3  BZF d   1      -3.476   0.394  -2.223  0.00  0.00    -0.012 A 
ATOM      4  C3A BZF d   1      -3.749   0.092  -3.595  0.00  0.00    -0.107 A 
ATOM      5  C4  BZF d   1      -3.683   0.820  -4.748  0.00  0.00     0.055 A 
ATOM      6  C5  BZF d   1      -3.946   0.207  -5.932  0.00  0.00    -0.016 A 
ATOM      7  C6  BZF d   1      -4.273  -1.132  -6.000  0.00  0.00     0.022 A 
ATOM      8  C7  BZF d   1      -4.355  -1.894  -4.882  0.00  0.00     0.029 A 
ATOM      9  C7A BZF d   1      -4.122  -1.270  -3.681  0.00  0.00     0.058 A 
ENDROOT
TORSDOF 0
ENDMDL
