MODEL 1
REMARK minimizedAffinity -4.96985817
REMARK minimizedRMSD -1
REMARK  0 active torsions:
REMARK  status: ('A' for Active; 'I' for Inactive)
ROOT
ATOM      1  O1  BZF d   1      -2.400   1.842  -2.514  0.00  0.00    -0.204 OA
ATOM      2  C2  BZF d   1      -1.934   2.505  -3.634  0.00  0.00     0.174 A 
ATOM      3  C3  BZF d   1      -1.960   1.696  -4.713  0.00  0.00    -0.012 A 
ATOM      4  C3A BZF d   1      -2.561   0.480  -4.258  0.00  0.00    -0.107 A 
ATOM      5  C4  BZF d   1      -2.874  -0.699  -4.871  0.00  0.00     0.055 A 
ATOM      6  C5  BZF d   1      -3.386  -1.715  -4.128  0.00  0.00    -0.016 A 
ATOM      7  C6  BZF d   1      -3.591  -1.588  -2.770  0.00  0.00     0.022 A 
ATOM      8  C7  BZF d   1      -3.300  -0.436  -2.118  0.00  0.00     0.029 A 
ATOM      9  C7A BZF d   1      -2.814   0.603  -2.872  0.00  0.00     0.058 A 
ENDROOT
TORSDOF 0
ENDMDL
