MODEL 1
REMARK minimizedAffinity 14.1159687
REMARK minimizedRMSD -1
REMARK  0 active torsions:
REMARK  status: ('A' for Active; 'I' for Inactive)
ROOT
ATOM      1  O1  BZF d   1       5.995  -2.408   4.730  0.00  0.00    -0.204 OA
ATOM      2  C2  BZF d   1       5.576  -2.758   5.999  0.00  0.00     0.174 A 
ATOM      3  C3  BZF d   1       5.027  -3.990   6.000  0.00  0.00    -0.012 A 
ATOM      4  C3A BZF d   1       5.192  -4.476   4.664  0.00  0.00    -0.107 A 
ATOM      5  C4  BZF d   1       4.864  -5.647   4.044  0.00  0.00     0.055 A 
ATOM      6  C5  BZF d   1       5.097  -5.777   2.712  0.00  0.00    -0.016 A 
ATOM      7  C6  BZF d   1       5.650  -4.756   1.969  0.00  0.00     0.022 A 
ATOM      8  C7  BZF d   1       5.997  -3.577   2.540  0.00  0.00     0.029 A 
ATOM      9  C7A BZF d   1       5.794  -3.454   3.893  0.00  0.00     0.058 A 
ENDROOT
TORSDOF 0
ENDMDL
