MODEL 1
REMARK minimizedAffinity 1.87689066
REMARK minimizedRMSD -1
REMARK  0 active torsions:
REMARK  status: ('A' for Active; 'I' for Inactive)
ROOT
ATOM      1  O1  BZF d   1       5.694  -4.983   3.573  0.00  0.00    -0.204 OA
ATOM      2  C2  BZF d   1       5.111  -4.237   4.579  0.00  0.00     0.174 A 
ATOM      3  C3  BZF d   1       4.118  -3.468   4.089  0.00  0.00    -0.012 A 
ATOM      4  C3A BZF d   1       4.016  -3.819   2.706  0.00  0.00    -0.107 A 
ATOM      5  C4  BZF d   1       3.202  -3.407   1.690  0.00  0.00     0.055 A 
ATOM      6  C5  BZF d   1       3.411  -3.894   0.438  0.00  0.00    -0.016 A 
ATOM      7  C6  BZF d   1       4.425  -4.788   0.166  0.00  0.00     0.022 A 
ATOM      8  C7  BZF d   1       5.255  -5.229   1.142  0.00  0.00     0.029 A 
ATOM      9  C7A BZF d   1       5.027  -4.765   2.415  0.00  0.00     0.058 A 
ENDROOT
TORSDOF 0
ENDMDL
