MODEL 1
REMARK minimizedAffinity 5.8467555
REMARK minimizedRMSD -1
REMARK  0 active torsions:
REMARK  status: ('A' for Active; 'I' for Inactive)
ROOT
ATOM      1  O1  BZF d   1      -5.095   0.228  -2.929  0.00  0.00    -0.204 OA
ATOM      2  C2  BZF d   1      -4.226   0.514  -1.894  0.00  0.00     0.174 A 
ATOM      3  C3  BZF d   1      -3.030  -0.076  -2.096  0.00  0.00    -0.012 A 
ATOM      4  C3A BZF d   1      -3.130  -0.699  -3.380  0.00  0.00    -0.107 A 
ATOM      5  C4  BZF d   1      -2.260  -1.427  -4.141  0.00  0.00     0.055 A 
ATOM      6  C5  BZF d   1      -2.693  -1.954  -5.316  0.00  0.00    -0.016 A 
ATOM      7  C6  BZF d   1      -3.987  -1.777  -5.759  0.00  0.00     0.022 A 
ATOM      8  C7  BZF d   1      -4.884  -1.058  -5.042  0.00  0.00     0.029 A 
ATOM      9  C7A BZF d   1      -4.441  -0.496  -3.869  0.00  0.00     0.058 A 
ENDROOT
TORSDOF 0
ENDMDL
