MODEL 1
REMARK minimizedAffinity 3.65131879
REMARK minimizedRMSD -1
REMARK  0 active torsions:
REMARK  status: ('A' for Active; 'I' for Inactive)
ROOT
ATOM      1  O1  BZF d   1      -3.601   2.218  -4.631  0.00  0.00    -0.204 OA
ATOM      2  C2  BZF d   1      -3.783   1.653  -5.878  0.00  0.00     0.174 A 
ATOM      3  C3  BZF d   1      -3.882   0.312  -5.786  0.00  0.00    -0.012 A 
ATOM      4  C3A BZF d   1      -3.846   0.027  -4.384  0.00  0.00    -0.107 A 
ATOM      5  C4  BZF d   1      -3.920  -1.127  -3.659  0.00  0.00     0.055 A 
ATOM      6  C5  BZF d   1      -3.780  -1.069  -2.308  0.00  0.00    -0.016 A 
ATOM      7  C6  BZF d   1      -3.560   0.125  -1.652  0.00  0.00     0.022 A 
ATOM      8  C7  BZF d   1      -3.485   1.297  -2.329  0.00  0.00     0.029 A 
ATOM      9  C7A BZF d   1      -3.659   1.245  -3.691  0.00  0.00     0.058 A 
ENDROOT
TORSDOF 0
ENDMDL
