MODEL 1
REMARK minimizedAffinity 0.952068031
REMARK minimizedRMSD -1
REMARK  0 active torsions:
REMARK  status: ('A' for Active; 'I' for Inactive)
ROOT
ATOM      1  O1  BZF d   1      -5.615   0.271  -3.817  0.00  0.00    -0.204 OA
ATOM      2  C2  BZF d   1      -6.000   1.088  -4.863  0.00  0.00     0.174 A 
ATOM      3  C3  BZF d   1      -5.045   1.128  -5.815  0.00  0.00    -0.012 A 
ATOM      4  C3A BZF d   1      -4.037   0.211  -5.376  0.00  0.00    -0.107 A 
ATOM      5  C4  BZF d   1      -2.846  -0.197  -5.904  0.00  0.00     0.055 A 
ATOM      6  C5  BZF d   1      -2.065  -1.049  -5.189  0.00  0.00    -0.016 A 
ATOM      7  C6  BZF d   1      -2.441  -1.508  -3.944  0.00  0.00     0.022 A 
ATOM      8  C7  BZF d   1      -3.617  -1.135  -3.382  0.00  0.00     0.029 A 
ATOM      9  C7A BZF d   1      -4.423  -0.300  -4.115  0.00  0.00     0.058 A 
ENDROOT
TORSDOF 0
ENDMDL
