MODEL 1
REMARK minimizedAffinity 1.68260753
REMARK minimizedRMSD -1
REMARK  0 active torsions:
REMARK  status: ('A' for Active; 'I' for Inactive)
ROOT
ATOM      1  O1  BZF d   1      -1.606   5.326  -5.762  0.00  0.00    -0.204 OA
ATOM      2  C2  BZF d   1      -0.919   4.151  -6.000  0.00  0.00     0.174 A 
ATOM      3  C3  BZF d   1      -1.744   3.088  -5.913  0.00  0.00    -0.012 A 
ATOM      4  C3A BZF d   1      -3.046   3.639  -5.693  0.00  0.00    -0.107 A 
ATOM      5  C4  BZF d   1      -4.285   3.087  -5.538  0.00  0.00     0.055 A 
ATOM      6  C5  BZF d   1      -5.341   3.898  -5.266  0.00  0.00    -0.016 A 
ATOM      7  C6  BZF d   1      -5.192   5.264  -5.136  0.00  0.00     0.022 A 
ATOM      8  C7  BZF d   1      -3.983   5.858  -5.286  0.00  0.00     0.029 A 
ATOM      9  C7A BZF d   1      -2.920   5.044  -5.594  0.00  0.00     0.058 A 
ENDROOT
TORSDOF 0
ENDMDL
