MODEL 1
REMARK minimizedAffinity -2.06231093
REMARK minimizedRMSD -1
REMARK  0 active torsions:
REMARK  status: ('A' for Active; 'I' for Inactive)
ROOT
ATOM      1  O1  BZF d   1      -2.802  -1.546  -3.406  0.00  0.00    -0.204 OA
ATOM      2  C2  BZF d   1      -1.939  -1.636  -4.481  0.00  0.00     0.174 A 
ATOM      3  C3  BZF d   1      -2.460  -1.027  -5.566  0.00  0.00    -0.012 A 
ATOM      4  C3A BZF d   1      -3.688  -0.445  -5.117  0.00  0.00    -0.107 A 
ATOM      5  C4  BZF d   1      -4.651   0.303  -5.731  0.00  0.00     0.055 A 
ATOM      6  C5  BZF d   1      -5.762   0.652  -5.030  0.00  0.00    -0.016 A 
ATOM      7  C6  BZF d   1      -5.945   0.266  -3.719  0.00  0.00     0.022 A 
ATOM      8  C7  BZF d   1      -5.015  -0.473  -3.066  0.00  0.00     0.029 A 
ATOM      9  C7A BZF d   1      -3.875  -0.799  -3.761  0.00  0.00     0.058 A 
ENDROOT
TORSDOF 0
ENDMDL
