MODEL 1
REMARK minimizedAffinity -4.61538506
REMARK minimizedRMSD -1
REMARK  0 active torsions:
REMARK  status: ('A' for Active; 'I' for Inactive)
ROOT
ATOM      1  C   UNL d   1       3.070  -0.073   1.355  0.00  0.00     0.078 C 
ATOM      2  C1  UNL d   1       1.670   0.004   0.822  0.00  0.00    -0.077 A 
ATOM      3  C2  UNL d   1       1.220   1.140   0.139  0.00  0.00    -0.001 A 
ATOM      4  C3  UNL d   1      -0.088   1.202  -0.343  0.00  0.00     0.003 A 
ATOM      5  C4  UNL d   1      -0.958   0.131  -0.146  0.00  0.00    -0.005 A 
ATOM      6  C5  UNL d   1      -0.520  -1.003   0.535  0.00  0.00     0.003 A 
ATOM      7  C6  UNL d   1       0.788  -1.066   1.018  0.00  0.00    -0.001 A 
ENDROOT
TORSDOF 0
ENDMDL
