MODEL 1
REMARK minimizedAffinity -4.18038893
REMARK minimizedRMSD -1
REMARK  0 active torsions:
REMARK  status: ('A' for Active; 'I' for Inactive)
ROOT
ATOM      1  C   UNL d   1      -1.035   0.523  -0.280  0.00  0.00     0.078 C 
ATOM      2  C1  UNL d   1       0.361   0.118   0.089  0.00  0.00    -0.077 A 
ATOM      3  C2  UNL d   1       0.662  -1.208   0.426  0.00  0.00    -0.001 A 
ATOM      4  C3  UNL d   1       1.963  -1.569   0.777  0.00  0.00     0.003 A 
ATOM      5  C4  UNL d   1       2.974  -0.610   0.797  0.00  0.00    -0.005 A 
ATOM      6  C5  UNL d   1       2.684   0.712   0.466  0.00  0.00     0.003 A 
ATOM      7  C6  UNL d   1       1.383   1.075   0.114  0.00  0.00    -0.001 A 
ENDROOT
TORSDOF 0
ENDMDL
