MODEL 1
REMARK minimizedAffinity -5.72317171
REMARK minimizedRMSD -1
REMARK  0 active torsions:
REMARK  status: ('A' for Active; 'I' for Inactive)
ROOT
ATOM      1  C   UNL d   1       3.291  -0.790   0.783  0.00  0.00     0.078 C 
ATOM      2  C1  UNL d   1       1.892  -0.354   0.466  0.00  0.00    -0.077 A 
ATOM      3  C2  UNL d   1       0.842  -1.278   0.417  0.00  0.00    -0.001 A 
ATOM      4  C3  UNL d   1      -0.454  -0.859   0.111  0.00  0.00     0.003 A 
ATOM      5  C4  UNL d   1      -0.711   0.485  -0.149  0.00  0.00    -0.005 A 
ATOM      6  C5  UNL d   1       0.328   1.413  -0.104  0.00  0.00     0.003 A 
ATOM      7  C6  UNL d   1       1.624   0.995   0.201  0.00  0.00    -0.001 A 
ENDROOT
TORSDOF 0
ENDMDL
