MODEL 1
REMARK minimizedAffinity -5.36418104
REMARK minimizedRMSD -1
REMARK  0 active torsions:
REMARK  status: ('A' for Active; 'I' for Inactive)
ROOT
ATOM      1  C   UNL d   1      -0.530  -0.301   0.071  0.00  0.00     0.078 C 
ATOM      2  C1  UNL d   1       0.873  -0.443   0.580  0.00  0.00    -0.077 A 
ATOM      3  C2  UNL d   1       1.329  -1.656   1.110  0.00  0.00    -0.001 A 
ATOM      4  C3  UNL d   1       2.636  -1.770   1.589  0.00  0.00     0.003 A 
ATOM      5  C4  UNL d   1       3.496  -0.675   1.543  0.00  0.00    -0.005 A 
ATOM      6  C5  UNL d   1       3.050   0.537   1.019  0.00  0.00     0.003 A 
ATOM      7  C6  UNL d   1       1.745   0.653   0.540  0.00  0.00    -0.001 A 
ENDROOT
TORSDOF 0
ENDMDL
