MODEL 1
REMARK minimizedAffinity -4.26570177
REMARK minimizedRMSD -1
REMARK  0 active torsions:
REMARK  status: ('A' for Active; 'I' for Inactive)
ROOT
ATOM      1  C   UNL d   1       1.694  -2.341   2.588  0.00  0.00     0.078 C 
ATOM      2  C1  UNL d   1       1.427  -1.165   1.697  0.00  0.00    -0.077 A 
ATOM      3  C2  UNL d   1       2.373  -0.143   1.548  0.00  0.00    -0.001 A 
ATOM      4  C3  UNL d   1       2.107   0.950   0.722  0.00  0.00     0.003 A 
ATOM      5  C4  UNL d   1       0.895   1.034   0.040  0.00  0.00    -0.005 A 
ATOM      6  C5  UNL d   1      -0.053   0.023   0.184  0.00  0.00     0.003 A 
ATOM      7  C6  UNL d   1       0.211  -1.071   1.009  0.00  0.00    -0.001 A 
ENDROOT
TORSDOF 0
ENDMDL
