MODEL 1
REMARK minimizedAffinity -2.97343946
REMARK minimizedRMSD -1
REMARK  0 active torsions:
REMARK  status: ('A' for Active; 'I' for Inactive)
ROOT
ATOM      1  C   UNL d   1       3.338  -0.765   0.757  0.00  0.00     0.078 C 
ATOM      2  C1  UNL d   1       1.842  -0.804   0.669  0.00  0.00    -0.077 A 
ATOM      3  C2  UNL d   1       1.099   0.368   0.484  0.00  0.00    -0.001 A 
ATOM      4  C3  UNL d   1      -0.294   0.317   0.413  0.00  0.00     0.003 A 
ATOM      5  C4  UNL d   1      -0.956  -0.903   0.527  0.00  0.00    -0.005 A 
ATOM      6  C5  UNL d   1      -0.226  -2.075   0.713  0.00  0.00     0.003 A 
ATOM      7  C6  UNL d   1       1.167  -2.026   0.785  0.00  0.00    -0.001 A 
ENDROOT
TORSDOF 0
ENDMDL
