MODEL 1
REMARK minimizedAffinity -4.81564808
REMARK minimizedRMSD -1
REMARK  0 active torsions:
REMARK  status: ('A' for Active; 'I' for Inactive)
ROOT
ATOM      1  C2' OXE d   1       3.228   0.888  -0.655  0.00  0.00     0.078 C 
ATOM      2  C1' OXE d   1       0.476   1.427  -0.548  0.00  0.00     0.078 C 
ATOM      3  C1  OXE d   1       0.987   0.227   0.208  0.00  0.00    -0.078 A 
ATOM      4  C2  OXE d   1       2.329  -0.056   0.112  0.00  0.00    -0.078 A 
ATOM      5  C3  OXE d   1       2.862  -1.120   0.834  0.00  0.00     0.003 A 
ATOM      6  C4  OXE d   1       2.021  -1.994   1.533  0.00  0.00    -0.002 A 
ATOM      7  C5  OXE d   1       0.647  -1.747   1.612  0.00  0.00    -0.002 A 
ATOM      8  C6  OXE d   1       0.121  -0.619   0.991  0.00  0.00     0.003 A 
ENDROOT
TORSDOF 0
ENDMDL
