MODEL 1
REMARK minimizedAffinity -5.50872517
REMARK minimizedRMSD -1
REMARK  0 active torsions:
REMARK  status: ('A' for Active; 'I' for Inactive)
ROOT
ATOM      1  C2' OXE d   1       2.837  -0.005  -0.553  0.00  0.00     0.078 C 
ATOM      2  C1' OXE d   1       1.790  -2.003   1.118  0.00  0.00     0.078 C 
ATOM      3  C1  OXE d   1       0.930  -0.795   0.841  0.00  0.00    -0.078 A 
ATOM      4  C2  OXE d   1       1.469   0.199   0.061  0.00  0.00    -0.078 A 
ATOM      5  C3  OXE d   1       0.698   1.310  -0.270  0.00  0.00     0.003 A 
ATOM      6  C4  OXE d   1      -0.563   1.495   0.310  0.00  0.00    -0.002 A 
ATOM      7  C5  OXE d   1      -1.114   0.513   1.140  0.00  0.00    -0.002 A 
ATOM      8  C6  OXE d   1      -0.400  -0.655   1.381  0.00  0.00     0.003 A 
ENDROOT
TORSDOF 0
ENDMDL
