MODEL 1
REMARK minimizedAffinity -4.42413092
REMARK minimizedRMSD -1
REMARK  0 active torsions:
REMARK  status: ('A' for Active; 'I' for Inactive)
ROOT
ATOM      1  C2' OXE d   1      -0.975  -0.675   1.405  0.00  0.00     0.078 C 
ATOM      2  C1' OXE d   1      -0.196   1.711   0.147  0.00  0.00     0.078 C 
ATOM      3  C1  OXE d   1       0.826   0.607   0.256  0.00  0.00    -0.078 A 
ATOM      4  C2  OXE d   1       0.450  -0.540   0.914  0.00  0.00    -0.078 A 
ATOM      5  C3  OXE d   1       1.337  -1.610   0.995  0.00  0.00     0.003 A 
ATOM      6  C4  OXE d   1       2.656  -1.473   0.547  0.00  0.00    -0.002 A 
ATOM      7  C5  OXE d   1       3.071  -0.299  -0.090  0.00  0.00    -0.002 A 
ATOM      8  C6  OXE d   1       2.158   0.732  -0.282  0.00  0.00     0.003 A 
ENDROOT
TORSDOF 0
ENDMDL
