MODEL 1
REMARK minimizedAffinity -6.01824331
REMARK minimizedRMSD -1
REMARK  0 active torsions:
REMARK  status: ('A' for Active; 'I' for Inactive)
ROOT
ATOM      1  C2' OXE d   1       2.328  -0.298  -0.752  0.00  0.00     0.078 C 
ATOM      2  C1' OXE d   1       1.590  -2.312   1.059  0.00  0.00     0.078 C 
ATOM      3  C1  OXE d   1       0.702  -1.097   0.959  0.00  0.00    -0.078 A 
ATOM      4  C2  OXE d   1       1.097  -0.095   0.104  0.00  0.00    -0.078 A 
ATOM      5  C3  OXE d   1       0.286   1.024  -0.067  0.00  0.00     0.003 A 
ATOM      6  C4  OXE d   1      -0.846   1.208   0.736  0.00  0.00    -0.002 A 
ATOM      7  C5  OXE d   1      -1.244   0.218   1.641  0.00  0.00    -0.002 A 
ATOM      8  C6  OXE d   1      -0.505  -0.957   1.734  0.00  0.00     0.003 A 
ENDROOT
TORSDOF 0
ENDMDL
