MODEL 1
REMARK minimizedAffinity -0.960426271
REMARK minimizedRMSD -1
REMARK  0 active torsions:
REMARK  status: ('A' for Active; 'I' for Inactive)
ROOT
ATOM      1  C2' OXE d   1       1.669  -2.638   1.482  0.00  0.00     0.078 C 
ATOM      2  C1' OXE d   1       3.808  -0.881   1.947  0.00  0.00     0.078 C 
ATOM      3  C1  OXE d   1       2.783  -0.483   0.916  0.00  0.00    -0.078 A 
ATOM      4  C2  OXE d   1       1.765  -1.370   0.661  0.00  0.00    -0.078 A 
ATOM      5  C3  OXE d   1       0.762  -1.028  -0.242  0.00  0.00     0.003 A 
ATOM      6  C4  OXE d   1       0.863   0.142  -1.004  0.00  0.00    -0.002 A 
ATOM      7  C5  OXE d   1       1.914   1.041  -0.789  0.00  0.00    -0.002 A 
ATOM      8  C6  OXE d   1       2.856   0.764   0.195  0.00  0.00     0.003 A 
ENDROOT
TORSDOF 0
ENDMDL
