MODEL 1
REMARK minimizedAffinity -2.86981392
REMARK minimizedRMSD -1
REMARK  0 active torsions:
REMARK  status: ('A' for Active; 'I' for Inactive)
ROOT
ATOM      1  C2' OXE d   1      -1.393  -1.780   1.867  0.00  0.00     0.078 C 
ATOM      2  C1' OXE d   1       1.170  -2.591   1.060  0.00  0.00     0.078 C 
ATOM      3  C1  OXE d   1       0.681  -1.242   0.597  0.00  0.00    -0.078 A 
ATOM      4  C2  OXE d   1      -0.593  -0.873   0.957  0.00  0.00    -0.078 A 
ATOM      5  C3  OXE d   1      -1.073   0.384   0.602  0.00  0.00     0.003 A 
ATOM      6  C4  OXE d   1      -0.330   1.213  -0.247  0.00  0.00    -0.002 A 
ATOM      7  C5  OXE d   1       0.954   0.839  -0.659  0.00  0.00    -0.002 A 
ATOM      8  C6  OXE d   1       1.490  -0.364  -0.212  0.00  0.00     0.003 A 
ENDROOT
TORSDOF 0
ENDMDL
