MODEL 1
REMARK minimizedAffinity -2.16369224
REMARK minimizedRMSD -1
REMARK  0 active torsions:
REMARK  status: ('A' for Active; 'I' for Inactive)
ROOT
ATOM      1  C2' OXE d   1       2.249  -1.550   0.873  0.00  0.00     0.078 C 
ATOM      2  C1' OXE d   1       2.863   0.425  -1.026  0.00  0.00     0.078 C 
ATOM      3  C1  OXE d   1       1.442   0.346  -0.526  0.00  0.00    -0.078 A 
ATOM      4  C2  OXE d   1       1.140  -0.653   0.367  0.00  0.00    -0.078 A 
ATOM      5  C3  OXE d   1      -0.143  -0.736   0.902  0.00  0.00     0.003 A 
ATOM      6  C4  OXE d   1      -1.165   0.091   0.422  0.00  0.00    -0.002 A 
ATOM      7  C5  OXE d   1      -0.888   1.090  -0.518  0.00  0.00    -0.002 A 
ATOM      8  C6  OXE d   1       0.416   1.258  -0.970  0.00  0.00     0.003 A 
ENDROOT
TORSDOF 0
ENDMDL
