MODEL 1
REMARK minimizedAffinity -3.02397728
REMARK minimizedRMSD -1
REMARK  0 active torsions:
REMARK  status: ('A' for Active; 'I' for Inactive)
ROOT
ATOM      1  C2' OXE d   1       2.439   0.800  -0.722  0.00  0.00     0.078 C 
ATOM      2  C1' OXE d   1      -0.345   0.655  -1.054  0.00  0.00     0.078 C 
ATOM      3  C1  OXE d   1       0.331  -0.453  -0.286  0.00  0.00    -0.078 A 
ATOM      4  C2  OXE d   1       1.699  -0.398  -0.168  0.00  0.00    -0.078 A 
ATOM      5  C3  OXE d   1       2.366  -1.366   0.577  0.00  0.00     0.003 A 
ATOM      6  C4  OXE d   1       1.676  -2.477   1.078  0.00  0.00    -0.002 A 
ATOM      7  C5  OXE d   1       0.287  -2.573   0.935  0.00  0.00    -0.002 A 
ATOM      8  C6  OXE d   1      -0.404  -1.550   0.294  0.00  0.00     0.003 A 
ENDROOT
TORSDOF 0
ENDMDL
