MODEL 1
REMARK minimizedAffinity -4.63318872
REMARK minimizedRMSD -1
REMARK  0 active torsions:
REMARK  status: ('A' for Active; 'I' for Inactive)
ROOT
ATOM      1  C2' OXE d   1       1.283  -3.051   0.356  0.00  0.00     0.078 C 
ATOM      2  C1' OXE d   1       3.167  -1.023  -0.112  0.00  0.00     0.078 C 
ATOM      3  C1  OXE d   1       1.713  -0.630  -0.045  0.00  0.00    -0.078 A 
ATOM      4  C2  OXE d   1       0.794  -1.636   0.138  0.00  0.00    -0.078 A 
ATOM      5  C3  OXE d   1      -0.556  -1.321   0.262  0.00  0.00     0.003 A 
ATOM      6  C4  OXE d   1      -1.002  -0.011   0.049  0.00  0.00    -0.002 A 
ATOM      7  C5  OXE d   1      -0.086   1.022  -0.179  0.00  0.00    -0.002 A 
ATOM      8  C6  OXE d   1       1.275   0.737  -0.186  0.00  0.00     0.003 A 
ENDROOT
TORSDOF 0
ENDMDL
