MODEL 1
REMARK minimizedAffinity -4.07736874
REMARK minimizedRMSD -1
REMARK  0 active torsions:
REMARK  status: ('A' for Active; 'I' for Inactive)
ROOT
ATOM      1  C2' OXE d   1      -1.515  -1.461   2.351  0.00  0.00     0.078 C 
ATOM      2  C1' OXE d   1       0.717  -2.424   0.947  0.00  0.00     0.078 C 
ATOM      3  C1  OXE d   1       0.125  -1.108   0.510  0.00  0.00    -0.078 A 
ATOM      4  C2  OXE d   1      -0.996  -0.667   1.172  0.00  0.00    -0.078 A 
ATOM      5  C3  OXE d   1      -1.549   0.567   0.845  0.00  0.00     0.003 A 
ATOM      6  C4  OXE d   1      -1.069   1.291  -0.253  0.00  0.00    -0.002 A 
ATOM      7  C5  OXE d   1       0.047   0.840  -0.967  0.00  0.00    -0.002 A 
ATOM      8  C6  OXE d   1       0.680  -0.333  -0.572  0.00  0.00     0.003 A 
ENDROOT
TORSDOF 0
ENDMDL
