MODEL 1
REMARK minimizedAffinity -4.57972431
REMARK minimizedRMSD -1
REMARK  0 active torsions:
REMARK  status: ('A' for Active; 'I' for Inactive)
ROOT
ATOM      1  C2' OXE d   1       1.576  -2.486   0.638  0.00  0.00     0.078 C 
ATOM      2  C1' OXE d   1       2.696  -0.234  -0.609  0.00  0.00     0.078 C 
ATOM      3  C1  OXE d   1       1.275  -0.130  -0.113  0.00  0.00    -0.078 A 
ATOM      4  C2  OXE d   1       0.720  -1.251   0.454  0.00  0.00    -0.078 A 
ATOM      5  C3  OXE d   1      -0.569  -1.193   0.977  0.00  0.00     0.003 A 
ATOM      6  C4  OXE d   1      -1.357  -0.051   0.794  0.00  0.00    -0.002 A 
ATOM      7  C5  OXE d   1      -0.824   1.090   0.184  0.00  0.00    -0.002 A 
ATOM      8  C6  OXE d   1       0.501   1.081  -0.236  0.00  0.00     0.003 A 
ENDROOT
TORSDOF 0
ENDMDL
