MODEL 1
REMARK minimizedAffinity -1.07219505
REMARK minimizedRMSD -1
REMARK  0 active torsions:
REMARK  status: ('A' for Active; 'I' for Inactive)
ROOT
ATOM      1  C2' OXE d   1      -2.715   1.637  -3.627  0.00  0.00     0.078 C 
ATOM      2  C1' OXE d   1      -0.728   1.616  -1.643  0.00  0.00     0.078 C 
ATOM      3  C1  OXE d   1      -0.586   2.607  -2.771  0.00  0.00    -0.078 A 
ATOM      4  C2  OXE d   1      -1.537   2.579  -3.762  0.00  0.00    -0.078 A 
ATOM      5  C3  OXE d   1      -1.483   3.508  -4.797  0.00  0.00     0.003 A 
ATOM      6  C4  OXE d   1      -0.386   4.369  -4.920  0.00  0.00    -0.002 A 
ATOM      7  C5  OXE d   1       0.615   4.387  -3.943  0.00  0.00    -0.002 A 
ATOM      8  C6  OXE d   1       0.508   3.544  -2.842  0.00  0.00     0.003 A 
ENDROOT
TORSDOF 0
ENDMDL
