MODEL 1
REMARK minimizedAffinity -4.25949907
REMARK minimizedRMSD -1
REMARK  0 active torsions:
REMARK  status: ('A' for Active; 'I' for Inactive)
ROOT
ATOM      1  C2' OXE d   1       1.195  -2.858   1.110  0.00  0.00     0.078 C 
ATOM      2  C1' OXE d   1       3.190  -1.145   0.127  0.00  0.00     0.078 C 
ATOM      3  C1  OXE d   1       1.783  -0.608   0.218  0.00  0.00    -0.078 A 
ATOM      4  C2  OXE d   1       0.805  -1.468   0.656  0.00  0.00    -0.078 A 
ATOM      5  C3  OXE d   1      -0.499  -1.008   0.810  0.00  0.00     0.003 A 
ATOM      6  C4  OXE d   1      -0.854   0.276   0.378  0.00  0.00    -0.002 A 
ATOM      7  C5  OXE d   1       0.120   1.155  -0.109  0.00  0.00    -0.002 A 
ATOM      8  C6  OXE d   1       1.447   0.744  -0.155  0.00  0.00     0.003 A 
ENDROOT
TORSDOF 0
ENDMDL
