MODEL 1
REMARK minimizedAffinity -1.76515973
REMARK minimizedRMSD -1
REMARK  0 active torsions:
REMARK  status: ('A' for Active; 'I' for Inactive)
ROOT
ATOM      1  C2' OXE d   1       3.096  -0.594   0.026  0.00  0.00     0.078 C 
ATOM      2  C1' OXE d   1       0.864   1.107   0.103  0.00  0.00     0.078 C 
ATOM      3  C1  OXE d   1       0.636  -0.364   0.348  0.00  0.00    -0.078 A 
ATOM      4  C2  OXE d   1       1.727  -1.195   0.262  0.00  0.00    -0.078 A 
ATOM      5  C3  OXE d   1       1.582  -2.553   0.533  0.00  0.00     0.003 A 
ATOM      6  C4  OXE d   1       0.312  -3.103   0.740  0.00  0.00    -0.002 A 
ATOM      7  C5  OXE d   1      -0.818  -2.280   0.792  0.00  0.00    -0.002 A 
ATOM      8  C6  OXE d   1      -0.668  -0.906   0.640  0.00  0.00     0.003 A 
ENDROOT
TORSDOF 0
ENDMDL
