MODEL 1
REMARK minimizedAffinity -4.15580654
REMARK minimizedRMSD -1
REMARK  0 active torsions:
REMARK  status: ('A' for Active; 'I' for Inactive)
ROOT
ATOM      1  C2' OXE d   1       2.638   0.447   0.255  0.00  0.00     0.078 C 
ATOM      2  C1' OXE d   1      -0.024   1.330   0.384  0.00  0.00     0.078 C 
ATOM      3  C1  OXE d   1       0.229  -0.154   0.464  0.00  0.00    -0.078 A 
ATOM      4  C2  OXE d   1       1.531  -0.580   0.353  0.00  0.00    -0.078 A 
ATOM      5  C3  OXE d   1       1.826  -1.935   0.475  0.00  0.00     0.003 A 
ATOM      6  C4  OXE d   1       0.795  -2.880   0.555  0.00  0.00    -0.002 A 
ATOM      7  C5  OXE d   1      -0.540  -2.470   0.629  0.00  0.00    -0.002 A 
ATOM      8  C6  OXE d   1      -0.837  -1.112   0.628  0.00  0.00     0.003 A 
ENDROOT
TORSDOF 0
ENDMDL
