MODEL 1
REMARK minimizedAffinity -4.65980911
REMARK minimizedRMSD -1
REMARK  0 active torsions:
REMARK  status: ('A' for Active; 'I' for Inactive)
ROOT
ATOM      1  C2' OXE d   1       1.269  -3.286   0.790  0.00  0.00     0.078 C 
ATOM      2  C1' OXE d   1       3.339  -1.392   0.692  0.00  0.00     0.078 C 
ATOM      3  C1  OXE d   1       1.933  -0.913   0.428  0.00  0.00    -0.078 A 
ATOM      4  C2  OXE d   1       0.933  -1.855   0.432  0.00  0.00    -0.078 A 
ATOM      5  C3  OXE d   1      -0.389  -1.458   0.248  0.00  0.00     0.003 A 
ATOM      6  C4  OXE d   1      -0.690  -0.133  -0.093  0.00  0.00    -0.002 A 
ATOM      7  C5  OXE d   1       0.319   0.834  -0.141  0.00  0.00    -0.002 A 
ATOM      8  C6  OXE d   1       1.627   0.470   0.157  0.00  0.00     0.003 A 
ENDROOT
TORSDOF 0
ENDMDL
