MODEL 1
REMARK minimizedAffinity -4.18238926
REMARK minimizedRMSD -1
REMARK  0 active torsions:
REMARK  status: ('A' for Active; 'I' for Inactive)
ROOT
ATOM      1  C2' OXE d   1       3.348  -1.004   0.496  0.00  0.00     0.078 C 
ATOM      2  C1' OXE d   1       1.316  -2.837   1.121  0.00  0.00     0.078 C 
ATOM      3  C1  OXE d   1       0.907  -1.496   0.565  0.00  0.00    -0.078 A 
ATOM      4  C2  OXE d   1       1.906  -0.588   0.306  0.00  0.00    -0.078 A 
ATOM      5  C3  OXE d   1       1.588   0.644  -0.259  0.00  0.00     0.003 A 
ATOM      6  C4  OXE d   1       0.250   1.025  -0.422  0.00  0.00    -0.002 A 
ATOM      7  C5  OXE d   1      -0.784   0.130  -0.128  0.00  0.00    -0.002 A 
ATOM      8  C6  OXE d   1      -0.471  -1.147   0.326  0.00  0.00     0.003 A 
ENDROOT
TORSDOF 0
ENDMDL
