MODEL 1
REMARK minimizedAffinity -0.45957613
REMARK minimizedRMSD -1
REMARK  0 active torsions:
REMARK  status: ('A' for Active; 'I' for Inactive)
ROOT
ATOM      1  C2' OXE d   1       2.873   1.486  -0.012  0.00  0.00     0.078 C 
ATOM      2  C1' OXE d   1       3.153  -1.009   1.244  0.00  0.00     0.078 C 
ATOM      3  C1  OXE d   1       1.803  -0.658   0.670  0.00  0.00    -0.078 A 
ATOM      4  C2  OXE d   1       1.663   0.584   0.099  0.00  0.00    -0.078 A 
ATOM      5  C3  OXE d   1       0.454   0.938  -0.495  0.00  0.00     0.003 A 
ATOM      6  C4  OXE d   1      -0.663   0.102  -0.379  0.00  0.00    -0.002 A 
ATOM      7  C5  OXE d   1      -0.552  -1.151   0.234  0.00  0.00    -0.002 A 
ATOM      8  C6  OXE d   1       0.682  -1.562   0.725  0.00  0.00     0.003 A 
ENDROOT
TORSDOF 0
ENDMDL
