MODEL 1
REMARK minimizedAffinity 6.77299881
REMARK minimizedRMSD -1
REMARK  2 active torsions:
REMARK  status: ('A' for Active; 'I' for Inactive)
REMARK    1  A    between atoms: C2'_3  and  C1'_4 
REMARK    2  A    between atoms: C1'_4  and  C1_5 
ROOT
ATOM      1  C1  I4B d   1      -2.169   2.510   3.435  0.00  0.00    -0.075 A 
ATOM      2  C2  I4B d   1      -1.430   3.349   4.232  0.00  0.00     0.003 A 
ATOM      3  C3  I4B d   1      -0.656   4.383   3.653  0.00  0.00     0.002 A 
ATOM      4  C4  I4B d   1      -0.610   4.511   2.280  0.00  0.00    -0.004 A 
ATOM      5  C5  I4B d   1      -1.378   3.674   1.475  0.00  0.00     0.002 A 
ATOM      6  C6  I4B d   1      -2.172   2.675   2.056  0.00  0.00     0.003 A 
ENDROOT
BRANCH   1   7
ATOM      7  C1' I4B d   1      -2.950   1.408   4.078  0.00  0.00     0.060 C 
BRANCH   7   8
ATOM      8  C2' I4B d   1      -2.855   0.187   3.185  0.00  0.00    -0.013 C 
ATOM      9  C4' I4B d   1      -1.433  -0.296   3.072  0.00  0.00     0.013 C 
ATOM     10  C3' I4B d   1      -3.744  -0.876   3.759  0.00  0.00     0.013 C 
ENDBRANCH   7   8
ENDBRANCH   1   7
TORSDOF 2
ENDMDL
