MODEL 1
REMARK minimizedAffinity 1.11457372
REMARK minimizedRMSD -1
REMARK  2 active torsions:
REMARK  status: ('A' for Active; 'I' for Inactive)
REMARK    1  A    between atoms: C2'_3  and  C1'_4 
REMARK    2  A    between atoms: C1'_4  and  C1_5 
ROOT
ATOM      1  C1  I4B d   1       5.591   0.869   4.181  0.00  0.00    -0.075 A 
ATOM      2  C2  I4B d   1       4.822   0.000   3.448  0.00  0.00     0.003 A 
ATOM      3  C3  I4B d   1       4.444  -1.251   3.992  0.00  0.00     0.002 A 
ATOM      4  C4  I4B d   1       4.898  -1.612   5.244  0.00  0.00    -0.004 A 
ATOM      5  C5  I4B d   1       5.660  -0.721   5.995  0.00  0.00     0.002 A 
ATOM      6  C6  I4B d   1       5.998   0.532   5.465  0.00  0.00     0.003 A 
ENDROOT
BRANCH   1   7
ATOM      7  C1' I4B d   1       5.999   2.169   3.562  0.00  0.00     0.060 C 
BRANCH   7   8
ATOM      8  C2' I4B d   1       5.122   3.258   4.145  0.00  0.00    -0.013 C 
ATOM      9  C4' I4B d   1       4.039   2.678   5.016  0.00  0.00     0.013 C 
ATOM     10  C3' I4B d   1       6.000   4.193   4.923  0.00  0.00     0.013 C 
ENDBRANCH   7   8
ENDBRANCH   1   7
TORSDOF 2
ENDMDL
