MODEL 1
REMARK minimizedAffinity 1.81334245
REMARK minimizedRMSD -1
REMARK  2 active torsions:
REMARK  status: ('A' for Active; 'I' for Inactive)
REMARK    1  A    between atoms: C2'_3  and  C1'_4 
REMARK    2  A    between atoms: C1'_4  and  C1_5 
ROOT
ATOM      1  C1  I4B d   1       5.852   0.813   4.412  0.00  0.00    -0.075 A 
ATOM      2  C2  I4B d   1       5.638  -0.075   3.387  0.00  0.00     0.003 A 
ATOM      3  C3  I4B d   1       5.532  -1.461   3.656  0.00  0.00     0.002 A 
ATOM      4  C4  I4B d   1       5.696  -1.918   4.947  0.00  0.00    -0.004 A 
ATOM      5  C5  I4B d   1       5.891  -1.014   5.988  0.00  0.00     0.002 A 
ATOM      6  C6  I4B d   1       5.957   0.361   5.721  0.00  0.00     0.003 A 
ENDROOT
BRANCH   1   7
ATOM      7  C1' I4B d   1       5.991   2.267   4.089  0.00  0.00     0.060 C 
BRANCH   7   8
ATOM      8  C2' I4B d   1       5.211   3.052   5.124  0.00  0.00    -0.013 C 
ATOM      9  C4' I4B d   1       5.971   4.275   5.567  0.00  0.00     0.013 C 
ATOM     10  C3' I4B d   1       3.889   3.425   4.522  0.00  0.00     0.013 C 
ENDBRANCH   7   8
ENDBRANCH   1   7
TORSDOF 2
ENDMDL
