MODEL 1
REMARK minimizedAffinity -1.86785209
REMARK minimizedRMSD -1
REMARK  2 active torsions:
REMARK  status: ('A' for Active; 'I' for Inactive)
REMARK    1  A    between atoms: C2'_3  and  C1'_4 
REMARK    2  A    between atoms: C1'_4  and  C1_5 
ROOT
ATOM      1  C1  I4B d   1       5.517   0.273   4.785  0.00  0.00    -0.075 A 
ATOM      2  C2  I4B d   1       5.864  -0.005   3.486  0.00  0.00     0.003 A 
ATOM      3  C3  I4B d   1       5.999   1.043   2.544  0.00  0.00     0.002 A 
ATOM      4  C4  I4B d   1       5.731   2.341   2.929  0.00  0.00    -0.004 A 
ATOM      5  C5  I4B d   1       5.402   2.624   4.251  0.00  0.00     0.002 A 
ATOM      6  C6  I4B d   1       5.307   1.585   5.189  0.00  0.00     0.003 A 
ENDROOT
BRANCH   1   7
ATOM      7  C1' I4B d   1       5.351  -0.861   5.745  0.00  0.00     0.060 C 
BRANCH   7   8
ATOM      8  C2' I4B d   1       5.697  -2.144   5.017  0.00  0.00    -0.013 C 
ATOM      9  C4' I4B d   1       5.998  -3.257   5.986  0.00  0.00     0.013 C 
ATOM     10  C3' I4B d   1       4.542  -2.498   4.128  0.00  0.00     0.013 C 
ENDBRANCH   7   8
ENDBRANCH   1   7
TORSDOF 2
ENDMDL
