MODEL 1
REMARK minimizedAffinity -2.65969777
REMARK minimizedRMSD -1
REMARK  2 active torsions:
REMARK  status: ('A' for Active; 'I' for Inactive)
REMARK    1  A    between atoms: C2'_3  and  C1'_4 
REMARK    2  A    between atoms: C1'_4  and  C1_5 
ROOT
ATOM      1  C1  I4B d   1       5.833   1.048   3.781  0.00  0.00    -0.075 A 
ATOM      2  C2  I4B d   1       5.994   0.791   5.119  0.00  0.00     0.003 A 
ATOM      3  C3  I4B d   1       5.815  -0.522   5.620  0.00  0.00     0.002 A 
ATOM      4  C4  I4B d   1       5.429  -1.530   4.761  0.00  0.00    -0.004 A 
ATOM      5  C5  I4B d   1       5.289  -1.273   3.400  0.00  0.00     0.002 A 
ATOM      6  C6  I4B d   1       5.504   0.022   2.904  0.00  0.00     0.003 A 
ENDROOT
BRANCH   1   7
ATOM      7  C1' I4B d   1       5.998   2.451   3.291  0.00  0.00     0.060 C 
BRANCH   7   8
ATOM      8  C2' I4B d   1       5.633   3.387   4.426  0.00  0.00    -0.013 C 
ATOM      9  C4' I4B d   1       5.995   4.811   4.096  0.00  0.00     0.013 C 
ATOM     10  C3' I4B d   1       4.162   3.249   4.685  0.00  0.00     0.013 C 
ENDBRANCH   7   8
ENDBRANCH   1   7
TORSDOF 2
ENDMDL
