MODEL 1
REMARK minimizedAffinity 0.51624912
REMARK minimizedRMSD -1
REMARK  2 active torsions:
REMARK  status: ('A' for Active; 'I' for Inactive)
REMARK    1  A    between atoms: C2'_3  and  C1'_4 
REMARK    2  A    between atoms: C1'_4  and  C1_5 
ROOT
ATOM      1  C1  I4B d   1       5.905   0.904   3.665  0.00  0.00    -0.075 A 
ATOM      2  C2  I4B d   1       5.984   1.255   4.990  0.00  0.00     0.003 A 
ATOM      3  C3  I4B d   1       6.000   0.255   5.992  0.00  0.00     0.002 A 
ATOM      4  C4  I4B d   1       5.886  -1.071   5.631  0.00  0.00    -0.004 A 
ATOM      5  C5  I4B d   1       5.829  -1.427   4.287  0.00  0.00     0.002 A 
ATOM      6  C6  I4B d   1       5.851  -0.434   3.296  0.00  0.00     0.003 A 
ENDROOT
BRANCH   1   7
ATOM      7  C1' I4B d   1       5.857   1.986   2.634  0.00  0.00     0.060 C 
BRANCH   7   8
ATOM      8  C2' I4B d   1       5.776   3.316   3.356  0.00  0.00    -0.013 C 
ATOM      9  C4' I4B d   1       6.000   4.465   2.410  0.00  0.00     0.013 C 
ATOM     10  C3' I4B d   1       4.428   3.406   4.009  0.00  0.00     0.013 C 
ENDBRANCH   7   8
ENDBRANCH   1   7
TORSDOF 2
ENDMDL
