MODEL 1
REMARK minimizedAffinity 0.708277524
REMARK minimizedRMSD -1
REMARK  2 active torsions:
REMARK  status: ('A' for Active; 'I' for Inactive)
REMARK    1  A    between atoms: C2'_3  and  C1'_4 
REMARK    2  A    between atoms: C1'_4  and  C1_5 
ROOT
ATOM      1  C1  I4B d   1       5.959   1.597   3.454  0.00  0.00    -0.075 A 
ATOM      2  C2  I4B d   1       5.997   2.500   4.487  0.00  0.00     0.003 A 
ATOM      3  C3  I4B d   1       5.992   3.890   4.219  0.00  0.00     0.002 A 
ATOM      4  C4  I4B d   1       5.999   4.330   2.911  0.00  0.00    -0.004 A 
ATOM      5  C5  I4B d   1       5.937   3.414   1.865  0.00  0.00     0.002 A 
ATOM      6  C6  I4B d   1       5.905   2.038   2.138  0.00  0.00     0.003 A 
ENDROOT
BRANCH   1   7
ATOM      7  C1' I4B d   1       5.999   0.136   3.771  0.00  0.00     0.060 C 
BRANCH   7   8
ATOM      8  C2' I4B d   1       5.658  -0.033   5.238  0.00  0.00    -0.013 C 
ATOM      9  C4' I4B d   1       4.212   0.295   5.502  0.00  0.00     0.013 C 
ATOM     10  C3' I4B d   1       5.973  -1.446   5.627  0.00  0.00     0.013 C 
ENDBRANCH   7   8
ENDBRANCH   1   7
TORSDOF 2
ENDMDL
