MODEL 1
REMARK minimizedAffinity 13.2895384
REMARK minimizedRMSD -1
REMARK  2 active torsions:
REMARK  status: ('A' for Active; 'I' for Inactive)
REMARK    1  A    between atoms: C2'_3  and  C1'_4 
REMARK    2  A    between atoms: C1'_4  and  C1_5 
ROOT
ATOM      1  C1  I4B d   1       0.926  -0.674  -1.932  0.00  0.00    -0.075 A 
ATOM      2  C2  I4B d   1       0.976  -2.044  -1.864  0.00  0.00     0.003 A 
ATOM      3  C3  I4B d   1       0.193  -2.740  -0.911  0.00  0.00     0.002 A 
ATOM      4  C4  I4B d   1      -0.582  -2.028  -0.019  0.00  0.00    -0.004 A 
ATOM      5  C5  I4B d   1      -0.650  -0.640  -0.104  0.00  0.00     0.002 A 
ATOM      6  C6  I4B d   1       0.099   0.041  -1.075  0.00  0.00     0.003 A 
ENDROOT
BRANCH   1   7
ATOM      7  C1' I4B d   1       1.791   0.031  -2.929  0.00  0.00     0.060 C 
BRANCH   7   8
ATOM      8  C2' I4B d   1       2.965   0.633  -2.184  0.00  0.00    -0.013 C 
ATOM      9  C4' I4B d   1       2.607   0.934  -0.753  0.00  0.00     0.013 C 
ATOM     10  C3' I4B d   1       4.109  -0.334  -2.264  0.00  0.00     0.013 C 
ENDBRANCH   7   8
ENDBRANCH   1   7
TORSDOF 2
ENDMDL
