MODEL 1
REMARK minimizedAffinity -1.34995699
REMARK minimizedRMSD -1
REMARK  2 active torsions:
REMARK  status: ('A' for Active; 'I' for Inactive)
REMARK    1  A    between atoms: C2'_3  and  C1'_4 
REMARK    2  A    between atoms: C1'_4  and  C1_5 
ROOT
ATOM      1  C1  I4B d   1       5.252   1.558   3.914  0.00  0.00    -0.075 A 
ATOM      2  C2  I4B d   1       5.238   1.464   5.283  0.00  0.00     0.003 A 
ATOM      3  C3  I4B d   1       5.622   0.258   5.919  0.00  0.00     0.002 A 
ATOM      4  C4  I4B d   1       5.962  -0.836   5.151  0.00  0.00    -0.004 A 
ATOM      5  C5  I4B d   1       5.998  -0.732   3.763  0.00  0.00     0.002 A 
ATOM      6  C6  I4B d   1       5.653   0.477   3.141  0.00  0.00     0.003 A 
ENDROOT
BRANCH   1   7
ATOM      7  C1' I4B d   1       4.810   2.836   3.275  0.00  0.00     0.060 C 
BRANCH   7   8
ATOM      8  C2' I4B d   1       6.000   3.773   3.231  0.00  0.00    -0.013 C 
ATOM      9  C4' I4B d   1       5.963   4.644   2.002  0.00  0.00     0.013 C 
ATOM     10  C3' I4B d   1       5.985   4.600   4.481  0.00  0.00     0.013 C 
ENDBRANCH   7   8
ENDBRANCH   1   7
TORSDOF 2
ENDMDL
