MODEL 1
REMARK minimizedAffinity 1.04950833
REMARK minimizedRMSD -1
REMARK  2 active torsions:
REMARK  status: ('A' for Active; 'I' for Inactive)
REMARK    1  A    between atoms: C2'_3  and  C1'_4 
REMARK    2  A    between atoms: C1'_4  and  C1_5 
ROOT
ATOM      1  C1  I4B d   1       5.204   1.441   3.720  0.00  0.00    -0.075 A 
ATOM      2  C2  I4B d   1       5.158   0.961   5.005  0.00  0.00     0.003 A 
ATOM      3  C3  I4B d   1       5.550  -0.371   5.282  0.00  0.00     0.002 A 
ATOM      4  C4  I4B d   1       5.931  -1.198   4.245  0.00  0.00    -0.004 A 
ATOM      5  C5  I4B d   1       6.000  -0.702   2.946  0.00  0.00     0.002 A 
ATOM      6  C6  I4B d   1       5.646   0.629   2.683  0.00  0.00     0.003 A 
ENDROOT
BRANCH   1   7
ATOM      7  C1' I4B d   1       4.752   2.843   3.458  0.00  0.00     0.060 C 
BRANCH   7   8
ATOM      8  C2' I4B d   1       5.984   3.718   3.343  0.00  0.00    -0.013 C 
ATOM      9  C4' I4B d   1       5.999   4.470   2.039  0.00  0.00     0.013 C 
ATOM     10  C3' I4B d   1       5.993   4.658   4.511  0.00  0.00     0.013 C 
ENDBRANCH   7   8
ENDBRANCH   1   7
TORSDOF 2
ENDMDL
