MODEL 1
REMARK minimizedAffinity -1.32421815
REMARK minimizedRMSD -1
REMARK  2 active torsions:
REMARK  status: ('A' for Active; 'I' for Inactive)
REMARK    1  A    between atoms: C2'_3  and  C1'_4 
REMARK    2  A    between atoms: C1'_4  and  C1_5 
ROOT
ATOM      1  C1  I4B d   1       5.267   1.129   5.123  0.00  0.00    -0.075 A 
ATOM      2  C2  I4B d   1       5.280   1.233   3.754  0.00  0.00     0.003 A 
ATOM      3  C3  I4B d   1       5.647   2.452   3.135  0.00  0.00     0.002 A 
ATOM      4  C4  I4B d   1       5.942   3.550   3.917  0.00  0.00    -0.004 A 
ATOM      5  C5  I4B d   1       5.950   3.437   5.305  0.00  0.00     0.002 A 
ATOM      6  C6  I4B d   1       5.622   2.216   5.912  0.00  0.00     0.003 A 
ENDROOT
BRANCH   1   7
ATOM      7  C1' I4B d   1       4.842  -0.164   5.744  0.00  0.00     0.060 C 
BRANCH   7   8
ATOM      8  C2' I4B d   1       5.557  -1.286   5.020  0.00  0.00    -0.013 C 
ATOM      9  C4' I4B d   1       5.985  -2.367   5.977  0.00  0.00     0.013 C 
ATOM     10  C3' I4B d   1       4.629  -1.826   3.973  0.00  0.00     0.013 C 
ENDBRANCH   7   8
ENDBRANCH   1   7
TORSDOF 2
ENDMDL
