MODEL 1
REMARK minimizedAffinity 4.55611849
REMARK minimizedRMSD -1
REMARK  2 active torsions:
REMARK  status: ('A' for Active; 'I' for Inactive)
REMARK    1  A    between atoms: C2'_3  and  C1'_4 
REMARK    2  A    between atoms: C1'_4  and  C1_5 
ROOT
ATOM      1  C1  I4B d   1       5.694   2.199   4.580  0.00  0.00    -0.075 A 
ATOM      2  C2  I4B d   1       5.662   3.509   4.988  0.00  0.00     0.003 A 
ATOM      3  C3  I4B d   1       5.780   4.554   4.040  0.00  0.00     0.002 A 
ATOM      4  C4  I4B d   1       5.979   4.246   2.710  0.00  0.00    -0.004 A 
ATOM      5  C5  I4B d   1       5.988   2.918   2.295  0.00  0.00     0.002 A 
ATOM      6  C6  I4B d   1       5.832   1.887   3.233  0.00  0.00     0.003 A 
ENDROOT
BRANCH   1   7
ATOM      7  C1' I4B d   1       5.599   1.120   5.611  0.00  0.00     0.060 C 
BRANCH   7   8
ATOM      8  C2' I4B d   1       5.960  -0.193   4.948  0.00  0.00    -0.013 C 
ATOM      9  C4' I4B d   1       5.391  -1.363   5.707  0.00  0.00     0.013 C 
ATOM     10  C3' I4B d   1       5.443  -0.159   3.540  0.00  0.00     0.013 C 
ENDBRANCH   7   8
ENDBRANCH   1   7
TORSDOF 2
ENDMDL
