MODEL 1
REMARK minimizedAffinity -1.52354395
REMARK minimizedRMSD -1
REMARK  2 active torsions:
REMARK  status: ('A' for Active; 'I' for Inactive)
REMARK    1  A    between atoms: C2'_3  and  C1'_4 
REMARK    2  A    between atoms: C1'_4  and  C1_5 
ROOT
ATOM      1  C1  I4B d   1       5.179   1.248   4.760  0.00  0.00    -0.075 A 
ATOM      2  C2  I4B d   1       4.959   0.419   5.831  0.00  0.00     0.003 A 
ATOM      3  C3  I4B d   1       5.271  -0.960   5.741  0.00  0.00     0.002 A 
ATOM      4  C4  I4B d   1       5.751  -1.472   4.553  0.00  0.00    -0.004 A 
ATOM      5  C5  I4B d   1       5.994  -0.625   3.476  0.00  0.00     0.002 A 
ATOM      6  C6  I4B d   1       5.719   0.746   3.583  0.00  0.00     0.003 A 
ENDROOT
BRANCH   1   7
ATOM      7  C1' I4B d   1       4.807   2.692   4.879  0.00  0.00     0.060 C 
BRANCH   7   8
ATOM      8  C2' I4B d   1       5.993   3.518   4.423  0.00  0.00    -0.013 C 
ATOM      9  C4' I4B d   1       5.994   3.692   2.927  0.00  0.00     0.013 C 
ATOM     10  C3' I4B d   1       5.929   4.844   5.123  0.00  0.00     0.013 C 
ENDBRANCH   7   8
ENDBRANCH   1   7
TORSDOF 2
ENDMDL
