MODEL 1
REMARK minimizedAffinity 9.08648777
REMARK minimizedRMSD -1
REMARK  2 active torsions:
REMARK  status: ('A' for Active; 'I' for Inactive)
REMARK    1  A    between atoms: C2'_3  and  C1'_4 
REMARK    2  A    between atoms: C1'_4  and  C1_5 
ROOT
ATOM      1  C1  I4B d   1       5.497   1.034   3.631  0.00  0.00    -0.075 A 
ATOM      2  C2  I4B d   1       5.414  -0.318   3.408  0.00  0.00     0.003 A 
ATOM      3  C3  I4B d   1       5.565  -1.228   4.482  0.00  0.00     0.002 A 
ATOM      4  C4  I4B d   1       5.847  -0.747   5.745  0.00  0.00    -0.004 A 
ATOM      5  C5  I4B d   1       5.908   0.624   5.973  0.00  0.00     0.002 A 
ATOM      6  C6  I4B d   1       5.720   1.522   4.912  0.00  0.00     0.003 A 
ENDROOT
BRANCH   1   7
ATOM      7  C1' I4B d   1       5.365   1.966   2.468  0.00  0.00     0.060 C 
BRANCH   7   8
ATOM      8  C2' I4B d   1       4.817   3.281   2.983  0.00  0.00    -0.013 C 
ATOM      9  C4' I4B d   1       5.929   4.243   3.312  0.00  0.00     0.013 C 
ATOM     10  C3' I4B d   1       3.906   3.846   1.935  0.00  0.00     0.013 C 
ENDBRANCH   7   8
ENDBRANCH   1   7
TORSDOF 2
ENDMDL
