MODEL 1
REMARK minimizedAffinity -0.755726457
REMARK minimizedRMSD -1
REMARK  2 active torsions:
REMARK  status: ('A' for Active; 'I' for Inactive)
REMARK    1  A    between atoms: C2'_3  and  C1'_4 
REMARK    2  A    between atoms: C1'_4  and  C1_5 
ROOT
ATOM      1  C1  I4B d   1       5.841   1.656   3.370  0.00  0.00    -0.075 A 
ATOM      2  C2  I4B d   1       5.832   2.178   4.640  0.00  0.00     0.003 A 
ATOM      3  C3  I4B d   1       5.887   3.579   4.835  0.00  0.00     0.002 A 
ATOM      4  C4  I4B d   1       5.999   4.413   3.741  0.00  0.00    -0.004 A 
ATOM      5  C5  I4B d   1       5.985   3.884   2.454  0.00  0.00     0.002 A 
ATOM      6  C6  I4B d   1       5.892   2.497   2.267  0.00  0.00     0.003 A 
ENDROOT
BRANCH   1   7
ATOM      7  C1' I4B d   1       5.815   0.170   3.202  0.00  0.00     0.060 C 
BRANCH   7   8
ATOM      8  C2' I4B d   1       5.997  -0.458   4.569  0.00  0.00    -0.013 C 
ATOM      9  C4' I4B d   1       4.954   0.034   5.538  0.00  0.00     0.013 C 
ATOM     10  C3' I4B d   1       5.925  -1.947   4.407  0.00  0.00     0.013 C 
ENDBRANCH   7   8
ENDBRANCH   1   7
TORSDOF 2
ENDMDL
