MODEL 1
REMARK minimizedAffinity -3.20845723
REMARK minimizedRMSD -1
REMARK  2 active torsions:
REMARK  status: ('A' for Active; 'I' for Inactive)
REMARK    1  A    between atoms: C2'_3  and  C1'_4 
REMARK    2  A    between atoms: C1'_4  and  C1_5 
ROOT
ATOM      1  C1  I4B d   1       5.694   0.902   5.100  0.00  0.00    -0.075 A 
ATOM      2  C2  I4B d   1       5.819   0.926   3.733  0.00  0.00     0.003 A 
ATOM      3  C3  I4B d   1       6.000   2.156   3.056  0.00  0.00     0.002 A 
ATOM      4  C4  I4B d   1       5.999   3.334   3.774  0.00  0.00    -0.004 A 
ATOM      5  C5  I4B d   1       5.895   3.306   5.162  0.00  0.00     0.002 A 
ATOM      6  C6  I4B d   1       5.754   2.081   5.831  0.00  0.00     0.003 A 
ENDROOT
BRANCH   1   7
ATOM      7  C1' I4B d   1       5.470  -0.412   5.780  0.00  0.00     0.060 C 
BRANCH   7   8
ATOM      8  C2' I4B d   1       5.892  -1.509   4.825  0.00  0.00    -0.013 C 
ATOM      9  C4' I4B d   1       5.998  -2.835   5.531  0.00  0.00     0.013 C 
ATOM     10  C3' I4B d   1       4.887  -1.567   3.713  0.00  0.00     0.013 C 
ENDBRANCH   7   8
ENDBRANCH   1   7
TORSDOF 2
ENDMDL
