MODEL 1
REMARK minimizedAffinity -0.431599587
REMARK minimizedRMSD -1
REMARK  2 active torsions:
REMARK  status: ('A' for Active; 'I' for Inactive)
REMARK    1  A    between atoms: C2'_3  and  C1'_4 
REMARK    2  A    between atoms: C1'_4  and  C1_5 
ROOT
ATOM      1  C1  I4B d   1       5.867   1.940   4.858  0.00  0.00    -0.075 A 
ATOM      2  C2  I4B d   1       5.727   1.132   5.959  0.00  0.00     0.003 A 
ATOM      3  C3  I4B d   1       5.590  -0.268   5.803  0.00  0.00     0.002 A 
ATOM      4  C4  I4B d   1       5.549  -0.810   4.535  0.00  0.00    -0.004 A 
ATOM      5  C5  I4B d   1       5.714   0.008   3.421  0.00  0.00     0.002 A 
ATOM      6  C6  I4B d   1       5.887   1.390   3.583  0.00  0.00     0.003 A 
ENDROOT
BRANCH   1   7
ATOM      7  C1' I4B d   1       5.976   3.418   5.058  0.00  0.00     0.060 C 
BRANCH   7   8
ATOM      8  C2' I4B d   1       6.000   4.074   3.692  0.00  0.00    -0.013 C 
ATOM      9  C4' I4B d   1       4.829   3.631   2.855  0.00  0.00     0.013 C 
ATOM     10  C3' I4B d   1       5.992   5.560   3.892  0.00  0.00     0.013 C 
ENDBRANCH   7   8
ENDBRANCH   1   7
TORSDOF 2
ENDMDL
