MODEL 1
REMARK minimizedAffinity 7.09721613
REMARK minimizedRMSD -1
REMARK  2 active torsions:
REMARK  status: ('A' for Active; 'I' for Inactive)
REMARK    1  A    between atoms: C2'_3  and  C1'_4 
REMARK    2  A    between atoms: C1'_4  and  C1_5 
ROOT
ATOM      1  C1  I4B d   1       5.982   2.011   3.852  0.00  0.00    -0.075 A 
ATOM      2  C2  I4B d   1       5.982   3.151   3.087  0.00  0.00     0.003 A 
ATOM      3  C3  I4B d   1       5.954   4.424   3.706  0.00  0.00     0.002 A 
ATOM      4  C4  I4B d   1       5.876   4.510   5.081  0.00  0.00    -0.004 A 
ATOM      5  C5  I4B d   1       5.899   3.353   5.856  0.00  0.00     0.002 A 
ATOM      6  C6  I4B d   1       5.965   2.096   5.238  0.00  0.00     0.003 A 
ENDROOT
BRANCH   1   7
ATOM      7  C1' I4B d   1       5.978   0.682   3.165  0.00  0.00     0.060 C 
BRANCH   7   8
ATOM      8  C2' I4B d   1       5.139  -0.270   3.993  0.00  0.00    -0.013 C 
ATOM      9  C4' I4B d   1       3.877  -0.657   3.268  0.00  0.00     0.013 C 
ATOM     10  C3' I4B d   1       5.977  -1.474   4.304  0.00  0.00     0.013 C 
ENDBRANCH   7   8
ENDBRANCH   1   7
TORSDOF 2
ENDMDL
