MODEL 1
REMARK minimizedAffinity -5.60681868
REMARK minimizedRMSD -1
REMARK  0 active torsions:
REMARK  status: ('A' for Active; 'I' for Inactive)
ROOT
ATOM      1  C   UNL d   1      -3.086   0.569   2.060  0.00  0.00     0.078 C 
ATOM      2  C1  UNL d   1      -2.186  -0.457   1.438  0.00  0.00    -0.077 A 
ATOM      3  C2  UNL d   1      -2.313  -1.815   1.756  0.00  0.00    -0.001 A 
ATOM      4  C3  UNL d   1      -1.462  -2.758   1.177  0.00  0.00     0.003 A 
ATOM      5  C4  UNL d   1      -0.477  -2.353   0.279  0.00  0.00    -0.005 A 
ATOM      6  C5  UNL d   1      -0.341  -1.003  -0.041  0.00  0.00     0.003 A 
ATOM      7  C6  UNL d   1      -1.191  -0.059   0.536  0.00  0.00    -0.001 A 
ENDROOT
TORSDOF 0
ENDMDL
