MODEL 1
REMARK minimizedAffinity -4.81228733
REMARK minimizedRMSD -1
REMARK  0 active torsions:
REMARK  status: ('A' for Active; 'I' for Inactive)
ROOT
ATOM      1  C   UNL d   1       0.730   0.833  -0.324  0.00  0.00     0.078 C 
ATOM      2  C1  UNL d   1       0.085  -0.360   0.315  0.00  0.00    -0.077 A 
ATOM      3  C2  UNL d   1       0.811  -1.533   0.550  0.00  0.00    -0.001 A 
ATOM      4  C3  UNL d   1       0.196  -2.640   1.137  0.00  0.00     0.003 A 
ATOM      5  C4  UNL d   1      -1.150  -2.584   1.494  0.00  0.00    -0.005 A 
ATOM      6  C5  UNL d   1      -1.882  -1.421   1.262  0.00  0.00     0.003 A 
ATOM      7  C6  UNL d   1      -1.268  -0.314   0.675  0.00  0.00    -0.001 A 
ENDROOT
TORSDOF 0
ENDMDL
