MODEL 1
REMARK minimizedAffinity -4.35757875
REMARK minimizedRMSD -1
REMARK  0 active torsions:
REMARK  status: ('A' for Active; 'I' for Inactive)
ROOT
ATOM      1  C   UNL d   1       0.661   1.337  -0.750  0.00  0.00     0.078 C 
ATOM      2  C1  UNL d   1       0.243   0.077  -0.053  0.00  0.00    -0.077 A 
ATOM      3  C2  UNL d   1       1.173  -0.927   0.241  0.00  0.00    -0.001 A 
ATOM      4  C3  UNL d   1       0.767  -2.099   0.882  0.00  0.00     0.003 A 
ATOM      5  C4  UNL d   1      -0.570  -2.278   1.232  0.00  0.00    -0.005 A 
ATOM      6  C5  UNL d   1      -1.503  -1.285   0.941  0.00  0.00     0.003 A 
ATOM      7  C6  UNL d   1      -1.099  -0.113   0.301  0.00  0.00    -0.001 A 
ENDROOT
TORSDOF 0
ENDMDL
