MODEL 1
REMARK minimizedAffinity -2.86579275
REMARK minimizedRMSD -1
REMARK  0 active torsions:
REMARK  status: ('A' for Active; 'I' for Inactive)
ROOT
ATOM      1  C   UNL d   1      -0.911  -2.404   1.173  0.00  0.00     0.078 C 
ATOM      2  C1  UNL d   1      -0.531  -1.037   0.688  0.00  0.00    -0.077 A 
ATOM      3  C2  UNL d   1       0.702  -0.809   0.065  0.00  0.00    -0.001 A 
ATOM      4  C3  UNL d   1       1.046   0.471  -0.373  0.00  0.00     0.003 A 
ATOM      5  C4  UNL d   1       0.164   1.533  -0.190  0.00  0.00    -0.005 A 
ATOM      6  C5  UNL d   1      -1.064   1.317   0.431  0.00  0.00     0.003 A 
ATOM      7  C6  UNL d   1      -1.411   0.038   0.869  0.00  0.00    -0.001 A 
ENDROOT
TORSDOF 0
ENDMDL
