MODEL 1
REMARK minimizedAffinity -3.00248408
REMARK minimizedRMSD -1
REMARK  0 active torsions:
REMARK  status: ('A' for Active; 'I' for Inactive)
ROOT
ATOM      1  C   UNL d   1      -2.301  -2.309   0.725  0.00  0.00     0.078 C 
ATOM      2  C1  UNL d   1      -1.535  -1.023   0.642  0.00  0.00    -0.077 A 
ATOM      3  C2  UNL d   1      -0.164  -1.017   0.358  0.00  0.00    -0.001 A 
ATOM      4  C3  UNL d   1       0.539   0.187   0.293  0.00  0.00     0.003 A 
ATOM      5  C4  UNL d   1      -0.122   1.395   0.511  0.00  0.00    -0.005 A 
ATOM      6  C5  UNL d   1      -1.485   1.399   0.796  0.00  0.00     0.003 A 
ATOM      7  C6  UNL d   1      -2.189   0.195   0.862  0.00  0.00    -0.001 A 
ENDROOT
TORSDOF 0
ENDMDL
