MODEL 1
REMARK minimizedAffinity -5.24053764
REMARK minimizedRMSD -1
REMARK  0 active torsions:
REMARK  status: ('A' for Active; 'I' for Inactive)
ROOT
ATOM      1  C   UNL d   1       0.787   1.293  -0.374  0.00  0.00     0.078 C 
ATOM      2  C1  UNL d   1       0.380  -0.093   0.030  0.00  0.00    -0.077 A 
ATOM      3  C2  UNL d   1      -0.969  -0.428   0.200  0.00  0.00    -0.001 A 
ATOM      4  C3  UNL d   1      -1.332  -1.719   0.586  0.00  0.00     0.003 A 
ATOM      5  C4  UNL d   1      -0.353  -2.685   0.807  0.00  0.00    -0.005 A 
ATOM      6  C5  UNL d   1       0.992  -2.361   0.642  0.00  0.00     0.003 A 
ATOM      7  C6  UNL d   1       1.357  -1.070   0.256  0.00  0.00    -0.001 A 
ENDROOT
TORSDOF 0
ENDMDL
