MODEL 1
REMARK minimizedAffinity -5.52846432
REMARK minimizedRMSD -1
REMARK  0 active torsions:
REMARK  status: ('A' for Active; 'I' for Inactive)
ROOT
ATOM      1  C   UNL d   1       0.660   0.867  -0.100  0.00  0.00     0.078 C 
ATOM      2  C1  UNL d   1      -0.329  -0.121   0.442  0.00  0.00    -0.077 A 
ATOM      3  C2  UNL d   1      -1.431   0.302   1.196  0.00  0.00    -0.001 A 
ATOM      4  C3  UNL d   1      -2.338  -0.630   1.703  0.00  0.00     0.003 A 
ATOM      5  C4  UNL d   1      -2.152  -1.990   1.463  0.00  0.00    -0.005 A 
ATOM      6  C5  UNL d   1      -1.058  -2.420   0.716  0.00  0.00     0.003 A 
ATOM      7  C6  UNL d   1      -0.149  -1.490   0.208  0.00  0.00    -0.001 A 
ENDROOT
TORSDOF 0
ENDMDL
