MODEL 1
REMARK minimizedAffinity -3.91322875
REMARK minimizedRMSD -1
REMARK  0 active torsions:
REMARK  status: ('A' for Active; 'I' for Inactive)
ROOT
ATOM      1  C   UNL d   1       0.754   1.566  -1.087  0.00  0.00     0.078 C 
ATOM      2  C1  UNL d   1      -0.320   0.777  -0.400  0.00  0.00    -0.077 A 
ATOM      3  C2  UNL d   1      -1.381   1.418   0.250  0.00  0.00    -0.001 A 
ATOM      4  C3  UNL d   1      -2.369   0.671   0.894  0.00  0.00     0.003 A 
ATOM      5  C4  UNL d   1      -2.304  -0.721   0.896  0.00  0.00    -0.005 A 
ATOM      6  C5  UNL d   1      -1.250  -1.367   0.253  0.00  0.00     0.003 A 
ATOM      7  C6  UNL d   1      -0.262  -0.622  -0.392  0.00  0.00    -0.001 A 
ENDROOT
TORSDOF 0
ENDMDL
