MODEL 1
REMARK minimizedAffinity -4.06119299
REMARK minimizedRMSD -1
REMARK  0 active torsions:
REMARK  status: ('A' for Active; 'I' for Inactive)
ROOT
ATOM      1  C   UNL d   1       1.663   2.421  -1.034  0.00  0.00     0.078 C 
ATOM      2  C1  UNL d   1       0.494   1.683  -0.453  0.00  0.00    -0.077 A 
ATOM      3  C2  UNL d   1      -0.554   2.370   0.173  0.00  0.00    -0.001 A 
ATOM      4  C3  UNL d   1      -1.631   1.670   0.718  0.00  0.00     0.003 A 
ATOM      5  C4  UNL d   1      -1.671   0.279   0.644  0.00  0.00    -0.005 A 
ATOM      6  C5  UNL d   1      -0.632  -0.413   0.026  0.00  0.00     0.003 A 
ATOM      7  C6  UNL d   1       0.446   0.285  -0.520  0.00  0.00    -0.001 A 
ENDROOT
TORSDOF 0
ENDMDL
