MODEL 1
REMARK minimizedAffinity -3.89156175
REMARK minimizedRMSD -1
REMARK  0 active torsions:
REMARK  status: ('A' for Active; 'I' for Inactive)
ROOT
ATOM      1  C   UNL d   1      -2.997   0.097   2.082  0.00  0.00     0.078 C 
ATOM      2  C1  UNL d   1      -1.865  -0.854   1.831  0.00  0.00    -0.077 A 
ATOM      3  C2  UNL d   1      -1.583  -1.893   2.727  0.00  0.00    -0.001 A 
ATOM      4  C3  UNL d   1      -0.521  -2.765   2.485  0.00  0.00     0.003 A 
ATOM      5  C4  UNL d   1       0.269  -2.608   1.348  0.00  0.00    -0.005 A 
ATOM      6  C5  UNL d   1      -0.003  -1.576   0.452  0.00  0.00     0.003 A 
ATOM      7  C6  UNL d   1      -1.065  -0.703   0.692  0.00  0.00    -0.001 A 
ENDROOT
TORSDOF 0
ENDMDL
