MODEL 1
REMARK minimizedAffinity -1.31261444
REMARK minimizedRMSD -1
REMARK  0 active torsions:
REMARK  status: ('A' for Active; 'I' for Inactive)
ROOT
ATOM      1  C   UNL d   1       0.734   1.363  -0.575  0.00  0.00     0.078 C 
ATOM      2  C1  UNL d   1       0.647  -0.028  -0.022  0.00  0.00    -0.077 A 
ATOM      3  C2  UNL d   1       1.723  -0.916  -0.131  0.00  0.00    -0.001 A 
ATOM      4  C3  UNL d   1       1.625  -2.212   0.380  0.00  0.00     0.003 A 
ATOM      5  C4  UNL d   1       0.450  -2.630   1.003  0.00  0.00    -0.005 A 
ATOM      6  C5  UNL d   1      -0.627  -1.754   1.114  0.00  0.00     0.003 A 
ATOM      7  C6  UNL d   1      -0.530  -0.458   0.604  0.00  0.00    -0.001 A 
ENDROOT
TORSDOF 0
ENDMDL
