MODEL 1
REMARK minimizedAffinity -4.42065096
REMARK minimizedRMSD -1
REMARK  0 active torsions:
REMARK  status: ('A' for Active; 'I' for Inactive)
ROOT
ATOM      1  C   UNL d   1       0.780   0.979  -0.572  0.00  0.00     0.078 C 
ATOM      2  C1  UNL d   1      -0.016   0.161   0.401  0.00  0.00    -0.077 A 
ATOM      3  C2  UNL d   1       0.321  -1.173   0.666  0.00  0.00    -0.001 A 
ATOM      4  C3  UNL d   1      -0.435  -1.925   1.567  0.00  0.00     0.003 A 
ATOM      5  C4  UNL d   1      -1.531  -1.354   2.209  0.00  0.00    -0.005 A 
ATOM      6  C5  UNL d   1      -1.875  -0.029   1.950  0.00  0.00     0.003 A 
ATOM      7  C6  UNL d   1      -1.121   0.726   1.050  0.00  0.00    -0.001 A 
ENDROOT
TORSDOF 0
ENDMDL
