MODEL 1
REMARK minimizedAffinity -3.80941224
REMARK minimizedRMSD -1
REMARK  0 active torsions:
REMARK  status: ('A' for Active; 'I' for Inactive)
ROOT
ATOM      1  C   UNL d   1      -2.649   0.406   1.942  0.00  0.00     0.078 C 
ATOM      2  C1  UNL d   1      -1.468  -0.397   1.484  0.00  0.00    -0.077 A 
ATOM      3  C2  UNL d   1      -1.330  -1.744   1.840  0.00  0.00    -0.001 A 
ATOM      4  C3  UNL d   1      -0.221  -2.477   1.416  0.00  0.00     0.003 A 
ATOM      5  C4  UNL d   1       0.761  -1.870   0.634  0.00  0.00    -0.005 A 
ATOM      6  C5  UNL d   1       0.633  -0.530   0.276  0.00  0.00     0.003 A 
ATOM      7  C6  UNL d   1      -0.475   0.205   0.700  0.00  0.00    -0.001 A 
ENDROOT
TORSDOF 0
ENDMDL
