MODEL 1
REMARK minimizedAffinity -3.08814955
REMARK minimizedRMSD -1
REMARK  0 active torsions:
REMARK  status: ('A' for Active; 'I' for Inactive)
ROOT
ATOM      1  C   UNL d   1      -1.059  -0.086   0.077  0.00  0.00     0.078 C 
ATOM      2  C1  UNL d   1      -0.437   0.713  -1.029  0.00  0.00    -0.077 A 
ATOM      3  C2  UNL d   1      -1.123   0.940  -2.229  0.00  0.00    -0.001 A 
ATOM      4  C3  UNL d   1      -0.528   1.678  -3.253  0.00  0.00     0.003 A 
ATOM      5  C4  UNL d   1       0.756   2.194  -3.089  0.00  0.00    -0.005 A 
ATOM      6  C5  UNL d   1       1.447   1.972  -1.899  0.00  0.00     0.003 A 
ATOM      7  C6  UNL d   1       0.853   1.235  -0.874  0.00  0.00    -0.001 A 
ENDROOT
TORSDOF 0
ENDMDL
