MODEL 1
REMARK minimizedAffinity -3.83518362
REMARK minimizedRMSD -1
REMARK  0 active torsions:
REMARK  status: ('A' for Active; 'I' for Inactive)
ROOT
ATOM      1  C   UNL d   1       0.660   1.988  -0.399  0.00  0.00     0.078 C 
ATOM      2  C1  UNL d   1       0.279   0.600   0.024  0.00  0.00    -0.077 A 
ATOM      3  C2  UNL d   1      -1.065   0.214   0.105  0.00  0.00    -0.001 A 
ATOM      4  C3  UNL d   1      -1.405  -1.078   0.509  0.00  0.00     0.003 A 
ATOM      5  C4  UNL d   1      -0.407  -1.994   0.837  0.00  0.00    -0.005 A 
ATOM      6  C5  UNL d   1       0.932  -1.618   0.762  0.00  0.00     0.003 A 
ATOM      7  C6  UNL d   1       1.274  -0.327   0.358  0.00  0.00    -0.001 A 
ENDROOT
TORSDOF 0
ENDMDL
