MODEL 1
REMARK minimizedAffinity 7.12486029
REMARK minimizedRMSD -1
REMARK  0 active torsions:
REMARK  status: ('A' for Active; 'I' for Inactive)
ROOT
ATOM      1  C   UNL d   1       2.969   0.975  -0.002  0.00  0.00     0.023 A 
ATOM      2  C1  UNL d   1       3.418   1.178  -1.307  0.00  0.00     0.003 A 
ATOM      3  C2  UNL d   1       2.545   1.674  -2.278  0.00  0.00     0.048 A 
ATOM      4  C3  UNL d   1       1.225   1.966  -1.936  0.00  0.00     0.023 A 
ATOM      5  C4  UNL d   1       0.772   1.765  -0.631  0.00  0.00     0.048 A 
ATOM      6  C5  UNL d   1       1.648   1.268   0.335  0.00  0.00     0.003 A 
ATOM      7  I   UNL d   1      -0.076   2.704  -3.379  0.00  0.00    -0.146 I 
ENDROOT
TORSDOF 0
ENDMDL
