MODEL 1
REMARK minimizedAffinity 3.75972629
REMARK minimizedRMSD -1
REMARK  0 active torsions:
REMARK  status: ('A' for Active; 'I' for Inactive)
ROOT
ATOM      1  C   UNL d   1      -6.000   5.248  -4.626  0.00  0.00     0.023 A 
ATOM      2  C1  UNL d   1      -5.109   4.561  -3.802  0.00  0.00     0.003 A 
ATOM      3  C2  UNL d   1      -3.740   4.590  -4.074  0.00  0.00     0.048 A 
ATOM      4  C3  UNL d   1      -3.268   5.308  -5.172  0.00  0.00     0.023 A 
ATOM      5  C4  UNL d   1      -4.155   5.998  -5.999  0.00  0.00     0.048 A 
ATOM      6  C5  UNL d   1      -5.524   5.965  -5.724  0.00  0.00     0.003 A 
ATOM      7  I   UNL d   1      -1.230   5.353  -5.578  0.00  0.00    -0.146 I 
ENDROOT
TORSDOF 0
ENDMDL
