MODEL 1
REMARK minimizedAffinity 12.2967215
REMARK minimizedRMSD -1
REMARK  0 active torsions:
REMARK  status: ('A' for Active; 'I' for Inactive)
ROOT
ATOM      1  C   UNL d   1      -2.161   0.724   4.738  0.00  0.00     0.023 A 
ATOM      2  C1  UNL d   1      -1.503  -0.439   4.336  0.00  0.00     0.003 A 
ATOM      3  C2  UNL d   1      -1.256  -0.670   2.981  0.00  0.00     0.048 A 
ATOM      4  C3  UNL d   1      -1.670   0.266   2.034  0.00  0.00     0.023 A 
ATOM      5  C4  UNL d   1      -2.327   1.431   2.432  0.00  0.00     0.048 A 
ATOM      6  C5  UNL d   1      -2.572   1.658   3.787  0.00  0.00     0.003 A 
ATOM      7  I   UNL d   1      -1.304  -0.076   0.017  0.00  0.00    -0.146 I 
ENDROOT
TORSDOF 0
ENDMDL
