MODEL 1
REMARK minimizedAffinity 15.1764011
REMARK minimizedRMSD -1
REMARK  0 active torsions:
REMARK  status: ('A' for Active; 'I' for Inactive)
ROOT
ATOM      1  C   UNL d   1      -0.784  -0.760   2.657  0.00  0.00     0.023 A 
ATOM      2  C1  UNL d   1      -1.537   0.373   2.968  0.00  0.00     0.003 A 
ATOM      3  C2  UNL d   1      -2.715   0.643   2.270  0.00  0.00     0.048 A 
ATOM      4  C3  UNL d   1      -3.136  -0.224   1.262  0.00  0.00     0.023 A 
ATOM      5  C4  UNL d   1      -2.386  -1.359   0.948  0.00  0.00     0.048 A 
ATOM      6  C5  UNL d   1      -1.208  -1.625   1.648  0.00  0.00     0.003 A 
ATOM      7  I   UNL d   1      -4.890   0.176   0.221  0.00  0.00    -0.146 I 
ENDROOT
TORSDOF 0
ENDMDL
