MODEL 1
REMARK minimizedAffinity 13.4145775
REMARK minimizedRMSD -1
REMARK  0 active torsions:
REMARK  status: ('A' for Active; 'I' for Inactive)
ROOT
ATOM      1  C   UNL d   1       5.851   3.521   2.264  0.00  0.00     0.023 A 
ATOM      2  C1  UNL d   1       6.000   3.728   0.893  0.00  0.00     0.003 A 
ATOM      3  C2  UNL d   1       5.175   3.054  -0.010  0.00  0.00     0.048 A 
ATOM      4  C3  UNL d   1       4.203   2.174   0.465  0.00  0.00     0.023 A 
ATOM      5  C4  UNL d   1       4.050   1.964   1.836  0.00  0.00     0.048 A 
ATOM      6  C5  UNL d   1       4.878   2.640   2.735  0.00  0.00     0.003 A 
ATOM      7  I   UNL d   1       2.975   1.170  -0.877  0.00  0.00    -0.146 I 
ENDROOT
TORSDOF 0
ENDMDL
