MODEL 1
REMARK minimizedAffinity 7.42303848
REMARK minimizedRMSD -1
REMARK  0 active torsions:
REMARK  status: ('A' for Active; 'I' for Inactive)
ROOT
ATOM      1  C   UNL d   1      -1.254   4.781  -1.164  0.00  0.00     0.023 A 
ATOM      2  C1  UNL d   1      -0.144   4.636  -1.996  0.00  0.00     0.003 A 
ATOM      3  C2  UNL d   1      -0.287   4.752  -3.381  0.00  0.00     0.048 A 
ATOM      4  C3  UNL d   1      -1.543   5.014  -3.926  0.00  0.00     0.023 A 
ATOM      5  C4  UNL d   1      -2.657   5.160  -3.098  0.00  0.00     0.048 A 
ATOM      6  C5  UNL d   1      -2.509   5.043  -1.714  0.00  0.00     0.003 A 
ATOM      7  I   UNL d   1      -1.759   5.187  -5.986  0.00  0.00    -0.146 I 
ENDROOT
TORSDOF 0
ENDMDL
