MODEL 1
REMARK minimizedAffinity 14.2100058
REMARK minimizedRMSD -1
REMARK  0 active torsions:
REMARK  status: ('A' for Active; 'I' for Inactive)
ROOT
ATOM      1  C   UNL d   1      -0.394  -1.124   2.577  0.00  0.00     0.023 A 
ATOM      2  C1  UNL d   1      -0.972  -2.119   1.788  0.00  0.00     0.003 A 
ATOM      3  C2  UNL d   1      -2.358  -2.285   1.774  0.00  0.00     0.048 A 
ATOM      4  C3  UNL d   1      -3.161  -1.451   2.551  0.00  0.00     0.023 A 
ATOM      5  C4  UNL d   1      -2.588  -0.453   3.342  0.00  0.00     0.048 A 
ATOM      6  C5  UNL d   1      -1.201  -0.292   3.353  0.00  0.00     0.003 A 
ATOM      7  I   UNL d   1      -5.225  -1.695   2.533  0.00  0.00    -0.146 I 
ENDROOT
TORSDOF 0
ENDMDL
