MODEL 1
REMARK minimizedAffinity 13.4884462
REMARK minimizedRMSD -1
REMARK  0 active torsions:
REMARK  status: ('A' for Active; 'I' for Inactive)
ROOT
ATOM      1  C   UNL d   1       4.132   3.172  -4.980  0.00  0.00     0.023 A 
ATOM      2  C1  UNL d   1       3.366   3.433  -3.845  0.00  0.00     0.003 A 
ATOM      3  C2  UNL d   1       3.875   4.244  -2.828  0.00  0.00     0.048 A 
ATOM      4  C3  UNL d   1       5.151   4.791  -2.954  0.00  0.00     0.023 A 
ATOM      5  C4  UNL d   1       5.922   4.533  -4.089  0.00  0.00     0.048 A 
ATOM      6  C5  UNL d   1       5.409   3.721  -5.103  0.00  0.00     0.003 A 
ATOM      7  I   UNL d   1       5.912   5.998  -1.443  0.00  0.00    -0.146 I 
ENDROOT
TORSDOF 0
ENDMDL
