MODEL 1
REMARK minimizedAffinity 18.1251297
REMARK minimizedRMSD -1
REMARK  0 active torsions:
REMARK  status: ('A' for Active; 'I' for Inactive)
ROOT
ATOM      1  C   UNL d   1       4.302   3.068  -5.019  0.00  0.00     0.023 A 
ATOM      2  C1  UNL d   1       3.575   3.232  -3.840  0.00  0.00     0.003 A 
ATOM      3  C2  UNL d   1       4.059   4.068  -2.831  0.00  0.00     0.048 A 
ATOM      4  C3  UNL d   1       5.270   4.737  -3.009  0.00  0.00     0.023 A 
ATOM      5  C4  UNL d   1       6.000   4.576  -4.188  0.00  0.00     0.048 A 
ATOM      6  C5  UNL d   1       5.512   3.739  -5.193  0.00  0.00     0.003 A 
ATOM      7  I   UNL d   1       5.992   5.981  -1.509  0.00  0.00    -0.146 I 
ENDROOT
TORSDOF 0
ENDMDL
