MODEL 1
REMARK minimizedAffinity 16.3157539
REMARK minimizedRMSD -1
REMARK  0 active torsions:
REMARK  status: ('A' for Active; 'I' for Inactive)
ROOT
ATOM      1  C   UNL d   1       4.064  -4.039  -1.072  0.00  0.00     0.023 A 
ATOM      2  C1  UNL d   1       4.507  -2.817  -0.567  0.00  0.00     0.003 A 
ATOM      3  C2  UNL d   1       3.784  -2.173   0.440  0.00  0.00     0.048 A 
ATOM      4  C3  UNL d   1       2.620  -2.757   0.937  0.00  0.00     0.023 A 
ATOM      5  C4  UNL d   1       2.173  -3.981   0.436  0.00  0.00     0.048 A 
ATOM      6  C5  UNL d   1       2.899  -4.621  -0.572  0.00  0.00     0.003 A 
ATOM      7  I   UNL d   1       1.543  -1.801   2.436  0.00  0.00    -0.146 I 
ENDROOT
TORSDOF 0
ENDMDL
