MODEL 1
REMARK minimizedAffinity 11.2905226
REMARK minimizedRMSD -1
REMARK  0 active torsions:
REMARK  status: ('A' for Active; 'I' for Inactive)
ROOT
ATOM      1  C   UNL d   1       4.161   3.546  -5.161  0.00  0.00     0.023 A 
ATOM      2  C1  UNL d   1       5.464   4.040  -5.204  0.00  0.00     0.003 A 
ATOM      3  C2  UNL d   1       5.992   4.717  -4.103  0.00  0.00     0.048 A 
ATOM      4  C3  UNL d   1       5.212   4.895  -2.961  0.00  0.00     0.023 A 
ATOM      5  C4  UNL d   1       3.907   4.401  -2.913  0.00  0.00     0.048 A 
ATOM      6  C5  UNL d   1       3.383   3.726  -4.017  0.00  0.00     0.003 A 
ATOM      7  I   UNL d   1       5.996   5.902  -1.321  0.00  0.00    -0.146 I 
ENDROOT
TORSDOF 0
ENDMDL
