MODEL 1
REMARK minimizedAffinity 14.9215727
REMARK minimizedRMSD -1
REMARK  0 active torsions:
REMARK  status: ('A' for Active; 'I' for Inactive)
ROOT
ATOM      1  C   UNL d   1       4.874   4.433  -3.679  0.00  0.00     0.023 A 
ATOM      2  C1  UNL d   1       3.936   3.409  -3.549  0.00  0.00     0.003 A 
ATOM      3  C2  UNL d   1       3.544   2.977  -2.280  0.00  0.00     0.048 A 
ATOM      4  C3  UNL d   1       4.094   3.574  -1.146  0.00  0.00     0.023 A 
ATOM      5  C4  UNL d   1       5.033   4.599  -1.272  0.00  0.00     0.048 A 
ATOM      6  C5  UNL d   1       5.422   5.027  -2.542  0.00  0.00     0.003 A 
ATOM      7  I   UNL d   1       3.513   2.933   0.744  0.00  0.00    -0.146 I 
ENDROOT
TORSDOF 0
ENDMDL
