MODEL 1
REMARK minimizedAffinity 12.508173
REMARK minimizedRMSD -1
REMARK  0 active torsions:
REMARK  status: ('A' for Active; 'I' for Inactive)
ROOT
ATOM      1  C   UNL d   1       3.037   2.356   1.501  0.00  0.00     0.023 A 
ATOM      2  C1  UNL d   1       3.548   3.561   1.982  0.00  0.00     0.003 A 
ATOM      3  C2  UNL d   1       4.366   4.349   1.169  0.00  0.00     0.048 A 
ATOM      4  C3  UNL d   1       4.666   3.926  -0.126  0.00  0.00     0.023 A 
ATOM      5  C4  UNL d   1       4.155   2.721  -0.612  0.00  0.00     0.048 A 
ATOM      6  C5  UNL d   1       3.340   1.936   0.205  0.00  0.00     0.003 A 
ATOM      7  I   UNL d   1       5.882   5.096  -1.338  0.00  0.00    -0.146 I 
ENDROOT
TORSDOF 0
ENDMDL
