MODEL 1
REMARK minimizedAffinity 11.3756027
REMARK minimizedRMSD -1
REMARK  0 active torsions:
REMARK  status: ('A' for Active; 'I' for Inactive)
ROOT
ATOM      1  C   UNL d   1      -5.985  -1.351  -5.984  0.00  0.00     0.023 A 
ATOM      2  C1  UNL d   1      -5.996   0.044  -5.985  0.00  0.00     0.003 A 
ATOM      3  C2  UNL d   1      -6.000   0.744  -4.777  0.00  0.00     0.048 A 
ATOM      4  C3  UNL d   1      -5.992   0.044  -3.572  0.00  0.00     0.023 A 
ATOM      5  C4  UNL d   1      -5.980  -1.352  -3.565  0.00  0.00     0.048 A 
ATOM      6  C5  UNL d   1      -5.977  -2.048  -4.776  0.00  0.00     0.003 A 
ATOM      7  I   UNL d   1      -5.998   1.085  -1.773  0.00  0.00    -0.146 I 
ENDROOT
TORSDOF 0
ENDMDL
