MODEL 1
REMARK minimizedAffinity 9.46393299
REMARK minimizedRMSD -1
REMARK  0 active torsions:
REMARK  status: ('A' for Active; 'I' for Inactive)
ROOT
ATOM      1  C   UNL d   1      -5.754   0.819  -1.111  0.00  0.00     0.023 A 
ATOM      2  C1  UNL d   1      -5.661  -0.492  -1.579  0.00  0.00     0.003 A 
ATOM      3  C2  UNL d   1      -5.731  -0.751  -2.949  0.00  0.00     0.048 A 
ATOM      4  C3  UNL d   1      -5.894   0.305  -3.846  0.00  0.00     0.023 A 
ATOM      5  C4  UNL d   1      -5.987   1.618  -3.381  0.00  0.00     0.048 A 
ATOM      6  C5  UNL d   1      -5.917   1.872  -2.010  0.00  0.00     0.003 A 
ATOM      7  I   UNL d   1      -5.999  -0.079  -5.886  0.00  0.00    -0.146 I 
ENDROOT
TORSDOF 0
ENDMDL
