MODEL 1
REMARK minimizedAffinity 11.6385994
REMARK minimizedRMSD -1
REMARK  0 active torsions:
REMARK  status: ('A' for Active; 'I' for Inactive)
ROOT
ATOM      1  C   UNL d   1      -2.855  -0.997   1.715  0.00  0.00     0.023 A 
ATOM      2  C1  UNL d   1      -4.142  -0.474   1.597  0.00  0.00     0.003 A 
ATOM      3  C2  UNL d   1      -4.597   0.479   2.511  0.00  0.00     0.048 A 
ATOM      4  C3  UNL d   1      -3.758   0.905   3.540  0.00  0.00     0.023 A 
ATOM      5  C4  UNL d   1      -2.468   0.385   3.661  0.00  0.00     0.048 A 
ATOM      6  C5  UNL d   1      -2.019  -0.569   2.746  0.00  0.00     0.003 A 
ATOM      7  I   UNL d   1      -4.431   2.324   4.901  0.00  0.00    -0.146 I 
ENDROOT
TORSDOF 0
ENDMDL
