MODEL 1
REMARK minimizedAffinity 6.93102264
REMARK minimizedRMSD -1
REMARK  0 active torsions:
REMARK  status: ('A' for Active; 'I' for Inactive)
ROOT
ATOM      1  C   UNL d   1      -5.989  -5.588   5.598  0.00  0.00     0.023 A 
ATOM      2  C1  UNL d   1      -5.215  -4.497   5.995  0.00  0.00     0.003 A 
ATOM      3  C2  UNL d   1      -4.434  -3.816   5.059  0.00  0.00     0.048 A 
ATOM      4  C3  UNL d   1      -4.432  -4.231   3.727  0.00  0.00     0.023 A 
ATOM      5  C4  UNL d   1      -5.205  -5.322   3.326  0.00  0.00     0.048 A 
ATOM      6  C5  UNL d   1      -5.984  -6.000   4.265  0.00  0.00     0.003 A 
ATOM      7  I   UNL d   1      -3.270  -3.219   2.332  0.00  0.00    -0.146 I 
ENDROOT
TORSDOF 0
ENDMDL
