MODEL 1
REMARK minimizedAffinity -1.35960126
REMARK minimizedRMSD -1
REMARK  0 active torsions:
REMARK  status: ('A' for Active; 'I' for Inactive)
ROOT
ATOM      1  C   UNL d   1       0.279  -0.473  -0.611  0.00  0.00     0.020 A 
ATOM      2  C1  UNL d   1      -0.550  -1.396   0.025  0.00  0.00     0.020 A 
ATOM      3  C2  UNL d   1      -1.661  -1.913  -0.645  0.00  0.00     0.034 A 
ATOM      4  C3  UNL d   1      -1.946  -1.508  -1.954  0.00  0.00     0.017 A 
ATOM      5  C4  UNL d   1      -1.112  -0.582  -2.592  0.00  0.00     0.017 A 
ATOM      6  C5  UNL d   1      -0.001  -0.067  -1.916  0.00  0.00     0.034 A 
ATOM      7 Cl   UNL d   1      -1.398  -0.034  -4.206  0.00  0.00    -0.070 Cl
ATOM      8 Cl1  UNL d   1      -3.336  -2.188  -2.722  0.00  0.00    -0.070 Cl
ENDROOT
TORSDOF 0
ENDMDL
