MODEL 1
REMARK minimizedAffinity -4.99150801
REMARK minimizedRMSD -1
REMARK  0 active torsions:
REMARK  status: ('A' for Active; 'I' for Inactive)
ROOT
ATOM      1  C   UNL d   1       2.562   2.008   1.392  0.00  0.00     0.020 A 
ATOM      2  C1  UNL d   1       3.208   1.103   0.551  0.00  0.00     0.020 A 
ATOM      3  C2  UNL d   1       2.500   0.034  -0.001  0.00  0.00     0.034 A 
ATOM      4  C3  UNL d   1       1.140  -0.133   0.287  0.00  0.00     0.017 A 
ATOM      5  C4  UNL d   1       0.492   0.776   1.131  0.00  0.00     0.017 A 
ATOM      6  C5  UNL d   1       1.207   1.845   1.681  0.00  0.00     0.034 A 
ATOM      7 Cl   UNL d   1      -1.183   0.636   1.533  0.00  0.00    -0.070 Cl
ATOM      8 Cl1  UNL d   1       0.326  -1.477  -0.431  0.00  0.00    -0.070 Cl
ENDROOT
TORSDOF 0
ENDMDL
