MODEL 1
REMARK minimizedAffinity -2.70884156
REMARK minimizedRMSD -1
REMARK  0 active torsions:
REMARK  status: ('A' for Active; 'I' for Inactive)
ROOT
ATOM      1  C   UNL d   1      -1.008   0.980   0.425  0.00  0.00     0.020 A 
ATOM      2  C1  UNL d   1      -0.465   1.866   1.355  0.00  0.00     0.020 A 
ATOM      3  C2  UNL d   1       0.906   1.850   1.616  0.00  0.00     0.034 A 
ATOM      4  C3  UNL d   1       1.740   0.947   0.947  0.00  0.00     0.017 A 
ATOM      5  C4  UNL d   1       1.195   0.058   0.014  0.00  0.00     0.017 A 
ATOM      6  C5  UNL d   1      -0.179   0.078  -0.244  0.00  0.00     0.034 A 
ATOM      7 Cl   UNL d   1       2.160  -1.086  -0.851  0.00  0.00    -0.070 Cl
ATOM      8 Cl1  UNL d   1       3.427   0.983   1.320  0.00  0.00    -0.070 Cl
ENDROOT
TORSDOF 0
ENDMDL
