MODEL 1
REMARK minimizedAffinity -4.62656975
REMARK minimizedRMSD -1
REMARK  0 active torsions:
REMARK  status: ('A' for Active; 'I' for Inactive)
ROOT
ATOM      1  C   UNL d   1       2.225   2.895   1.163  0.00  0.00     0.020 A 
ATOM      2  C1  UNL d   1       2.996   2.293   0.168  0.00  0.00     0.020 A 
ATOM      3  C2  UNL d   1       2.569   1.101  -0.420  0.00  0.00     0.034 A 
ATOM      4  C3  UNL d   1       1.368   0.507  -0.014  0.00  0.00     0.017 A 
ATOM      5  C4  UNL d   1       0.596   1.112   0.984  0.00  0.00     0.017 A 
ATOM      6  C5  UNL d   1       1.028   2.305   1.569  0.00  0.00     0.034 A 
ATOM      7 Cl   UNL d   1      -0.897   0.438   1.536  0.00  0.00    -0.070 Cl
ATOM      8 Cl1  UNL d   1       0.901  -0.968  -0.785  0.00  0.00    -0.070 Cl
ENDROOT
TORSDOF 0
ENDMDL
