MODEL 1
REMARK minimizedAffinity -3.48676777
REMARK minimizedRMSD -1
REMARK  0 active torsions:
REMARK  status: ('A' for Active; 'I' for Inactive)
ROOT
ATOM      1  C   UNL d   1       1.411   2.240   2.470  0.00  0.00     0.020 A 
ATOM      2  C1  UNL d   1       1.145   2.296   1.102  0.00  0.00     0.020 A 
ATOM      3  C2  UNL d   1       2.008   1.674   0.197  0.00  0.00     0.034 A 
ATOM      4  C3  UNL d   1       3.140   0.992   0.659  0.00  0.00     0.017 A 
ATOM      5  C4  UNL d   1       3.405   0.936   2.032  0.00  0.00     0.017 A 
ATOM      6  C5  UNL d   1       2.538   1.562   2.934  0.00  0.00     0.034 A 
ATOM      7 Cl   UNL d   1       4.782   0.114   2.678  0.00  0.00    -0.070 Cl
ATOM      8 Cl1  UNL d   1       4.163   0.245  -0.516  0.00  0.00    -0.070 Cl
ENDROOT
TORSDOF 0
ENDMDL
