MODEL 1
REMARK minimizedAffinity -4.00054693
REMARK minimizedRMSD -1
REMARK  0 active torsions:
REMARK  status: ('A' for Active; 'I' for Inactive)
ROOT
ATOM      1  C   UNL d   1       3.019   1.407   0.390  0.00  0.00     0.020 A 
ATOM      2  C1  UNL d   1       2.240   2.276   1.152  0.00  0.00     0.020 A 
ATOM      3  C2  UNL d   1       0.892   1.990   1.377  0.00  0.00     0.034 A 
ATOM      4  C3  UNL d   1       0.319   0.831   0.840  0.00  0.00     0.017 A 
ATOM      5  C4  UNL d   1       1.102  -0.041   0.075  0.00  0.00     0.017 A 
ATOM      6  C5  UNL d   1       2.451   0.251  -0.148  0.00  0.00     0.034 A 
ATOM      7 Cl   UNL d   1       0.466  -1.489  -0.621  0.00  0.00    -0.070 Cl
ATOM      8 Cl1  UNL d   1      -1.354   0.540   1.159  0.00  0.00    -0.070 Cl
ENDROOT
TORSDOF 0
ENDMDL
