MODEL 1
REMARK minimizedAffinity -3.85648394
REMARK minimizedRMSD -1
REMARK  0 active torsions:
REMARK  status: ('A' for Active; 'I' for Inactive)
ROOT
ATOM      1  C   UNL d   1       2.123   2.479   1.923  0.00  0.00     0.020 A 
ATOM      2  C1  UNL d   1       2.637   2.208   0.655  0.00  0.00     0.020 A 
ATOM      3  C2  UNL d   1       1.978   1.310  -0.188  0.00  0.00     0.034 A 
ATOM      4  C3  UNL d   1       0.803   0.679   0.236  0.00  0.00     0.017 A 
ATOM      5  C4  UNL d   1       0.288   0.952   1.508  0.00  0.00     0.017 A 
ATOM      6  C5  UNL d   1       0.951   1.852   2.348  0.00  0.00     0.034 A 
ATOM      7 Cl   UNL d   1      -1.158   0.213   2.101  0.00  0.00    -0.070 Cl
ATOM      8 Cl1  UNL d   1       0.041  -0.420  -0.858  0.00  0.00    -0.070 Cl
ENDROOT
TORSDOF 0
ENDMDL
