MODEL 1
REMARK minimizedAffinity -3.99293661
REMARK minimizedRMSD -1
REMARK  0 active torsions:
REMARK  status: ('A' for Active; 'I' for Inactive)
ROOT
ATOM      1  C   UNL d   1       2.273   1.372   0.077  0.00  0.00     0.020 A 
ATOM      2  C1  UNL d   1       1.903   1.944   1.294  0.00  0.00     0.020 A 
ATOM      3  C2  UNL d   1       0.679   1.612   1.879  0.00  0.00     0.034 A 
ATOM      4  C3  UNL d   1      -0.180   0.706   1.246  0.00  0.00     0.017 A 
ATOM      5  C4  UNL d   1       0.191   0.133   0.024  0.00  0.00     0.017 A 
ATOM      6  C5  UNL d   1       1.418   0.469  -0.556  0.00  0.00     0.034 A 
ATOM      7 Cl   UNL d   1      -0.816  -0.992  -0.816  0.00  0.00    -0.070 Cl
ATOM      8 Cl1  UNL d   1      -1.679   0.341   2.025  0.00  0.00    -0.070 Cl
ENDROOT
TORSDOF 0
ENDMDL
