MODEL 1
REMARK minimizedAffinity 2.0962801
REMARK minimizedRMSD -1
REMARK  0 active torsions:
REMARK  status: ('A' for Active; 'I' for Inactive)
ROOT
ATOM      1  C   UNL d   1      -0.713   0.708   2.061  0.00  0.00     0.020 A 
ATOM      2  C1  UNL d   1      -1.017   0.041   0.875  0.00  0.00     0.020 A 
ATOM      3  C2  UNL d   1       0.005  -0.314  -0.008  0.00  0.00     0.034 A 
ATOM      4  C3  UNL d   1       1.336  -0.003   0.294  0.00  0.00     0.017 A 
ATOM      5  C4  UNL d   1       1.640   0.666   1.485  0.00  0.00     0.017 A 
ATOM      6  C5  UNL d   1       0.613   1.019   2.365  0.00  0.00     0.034 A 
ATOM      7 Cl   UNL d   1       3.258   1.083   1.926  0.00  0.00    -0.070 Cl
ATOM      8 Cl1  UNL d   1       2.548  -0.473  -0.844  0.00  0.00    -0.070 Cl
ENDROOT
TORSDOF 0
ENDMDL
