MODEL 1
REMARK minimizedAffinity 3.10915947
REMARK minimizedRMSD -1
REMARK  0 active torsions:
REMARK  status: ('A' for Active; 'I' for Inactive)
ROOT
ATOM      1  C   UNL d   1      -1.110   0.823   2.484  0.00  0.00     0.020 A 
ATOM      2  C1  UNL d   1       0.266   0.955   2.668  0.00  0.00     0.020 A 
ATOM      3  C2  UNL d   1       1.150   0.468   1.703  0.00  0.00     0.034 A 
ATOM      4  C3  UNL d   1       0.660  -0.153   0.549  0.00  0.00     0.017 A 
ATOM      5  C4  UNL d   1      -0.721  -0.285   0.364  0.00  0.00     0.017 A 
ATOM      6  C5  UNL d   1      -1.602   0.204   1.334  0.00  0.00     0.034 A 
ATOM      7 Cl   UNL d   1      -1.401  -1.040  -1.034  0.00  0.00    -0.070 Cl
ATOM      8 Cl1  UNL d   1       1.811  -0.731  -0.603  0.00  0.00    -0.070 Cl
ENDROOT
TORSDOF 0
ENDMDL
