MODEL 1
REMARK minimizedAffinity -6.10923672
REMARK minimizedRMSD -1
REMARK  0 active torsions:
REMARK  status: ('A' for Active; 'I' for Inactive)
ROOT
ATOM      1  C   UNL d   1       2.330   1.876   0.086  0.00  0.00     0.020 A 
ATOM      2  C1  UNL d   1       1.630   2.502   1.117  0.00  0.00     0.020 A 
ATOM      3  C2  UNL d   1       0.457   1.929   1.613  0.00  0.00     0.034 A 
ATOM      4  C3  UNL d   1      -0.020   0.727   1.078  0.00  0.00     0.017 A 
ATOM      5  C4  UNL d   1       0.683   0.099   0.043  0.00  0.00     0.017 A 
ATOM      6  C5  UNL d   1       1.857   0.677  -0.449  0.00  0.00     0.034 A 
ATOM      7 Cl   UNL d   1       0.157  -1.386  -0.667  0.00  0.00    -0.070 Cl
ATOM      8 Cl1  UNL d   1      -1.478   0.076   1.739  0.00  0.00    -0.070 Cl
ENDROOT
TORSDOF 0
ENDMDL
