MODEL 1
REMARK minimizedAffinity -1.44149685
REMARK minimizedRMSD -1
REMARK  0 active torsions:
REMARK  status: ('A' for Active; 'I' for Inactive)
ROOT
ATOM      1  C   UNL d   1      -0.144   2.113   1.164  0.00  0.00     0.020 A 
ATOM      2  C1  UNL d   1       1.172   2.544   1.005  0.00  0.00     0.020 A 
ATOM      3  C2  UNL d   1       2.104   1.723   0.366  0.00  0.00     0.034 A 
ATOM      4  C3  UNL d   1       1.720   0.467  -0.117  0.00  0.00     0.017 A 
ATOM      5  C4  UNL d   1       0.398   0.035   0.042  0.00  0.00     0.017 A 
ATOM      6  C5  UNL d   1      -0.530   0.861   0.683  0.00  0.00     0.034 A 
ATOM      7 Cl   UNL d   1      -0.150  -1.502  -0.528  0.00  0.00    -0.070 Cl
ATOM      8 Cl1  UNL d   1       2.924  -0.495  -0.898  0.00  0.00    -0.070 Cl
ENDROOT
TORSDOF 0
ENDMDL
