MODEL 1
REMARK minimizedAffinity -5.20726967
REMARK minimizedRMSD -1
REMARK  0 active torsions:
REMARK  status: ('A' for Active; 'I' for Inactive)
ROOT
ATOM      1  C   UNL d   1       2.040   1.981   1.230  0.00  0.00     0.020 A 
ATOM      2  C1  UNL d   1       0.662   2.044   1.430  0.00  0.00     0.020 A 
ATOM      3  C2  UNL d   1      -0.172   1.084   0.852  0.00  0.00     0.034 A 
ATOM      4  C3  UNL d   1       0.371   0.058   0.072  0.00  0.00     0.017 A 
ATOM      5  C4  UNL d   1       1.755  -0.005  -0.128  0.00  0.00     0.017 A 
ATOM      6  C5  UNL d   1       2.586   0.959   0.453  0.00  0.00     0.034 A 
ATOM      7 Cl   UNL d   1       2.499  -1.242  -1.079  0.00  0.00    -0.070 Cl
ATOM      8 Cl1  UNL d   1      -0.719  -1.095  -0.612  0.00  0.00    -0.070 Cl
ENDROOT
TORSDOF 0
ENDMDL
