MODEL 1
REMARK minimizedAffinity -1.91618502
REMARK minimizedRMSD -1
REMARK  0 active torsions:
REMARK  status: ('A' for Active; 'I' for Inactive)
ROOT
ATOM      1  C   UNL d   1      -0.069   1.245   1.773  0.00  0.00     0.020 A 
ATOM      2  C1  UNL d   1       1.264   0.864   1.924  0.00  0.00     0.020 A 
ATOM      3  C2  UNL d   1       1.873   0.060   0.959  0.00  0.00     0.034 A 
ATOM      4  C3  UNL d   1       1.151  -0.367  -0.161  0.00  0.00     0.017 A 
ATOM      5  C4  UNL d   1      -0.187   0.016  -0.312  0.00  0.00     0.017 A 
ATOM      6  C5  UNL d   1      -0.793   0.822   0.657  0.00  0.00     0.034 A 
ATOM      7 Cl   UNL d   1      -1.143  -0.471  -1.667  0.00  0.00    -0.070 Cl
ATOM      8 Cl1  UNL d   1       1.968  -1.360  -1.315  0.00  0.00    -0.070 Cl
ENDROOT
TORSDOF 0
ENDMDL
