MODEL 1
REMARK minimizedAffinity -1.8143208
REMARK minimizedRMSD -1
REMARK  0 active torsions:
REMARK  status: ('A' for Active; 'I' for Inactive)
ROOT
ATOM      1  C   UNL d   1      -0.228  -1.042  -0.993  0.00  0.00     0.020 A 
ATOM      2  C1  UNL d   1      -1.319  -0.411  -0.396  0.00  0.00     0.020 A 
ATOM      3  C2  UNL d   1      -1.110   0.611   0.533  0.00  0.00     0.034 A 
ATOM      4  C3  UNL d   1       0.191   1.004   0.868  0.00  0.00     0.017 A 
ATOM      5  C4  UNL d   1       1.284   0.369   0.267  0.00  0.00     0.017 A 
ATOM      6  C5  UNL d   1       1.070  -0.653  -0.662  0.00  0.00     0.034 A 
ATOM      7 Cl   UNL d   1       2.919   0.799   0.629  0.00  0.00    -0.070 Cl
ATOM      8 Cl1  UNL d   1       0.374   2.274   2.025  0.00  0.00    -0.070 Cl
ENDROOT
TORSDOF 0
ENDMDL
