MODEL 1
REMARK minimizedAffinity 7.95781136
REMARK minimizedRMSD -1
REMARK  0 active torsions:
REMARK  status: ('A' for Active; 'I' for Inactive)
ROOT
ATOM      1  C   UNL d   1      -1.701  -2.688  -2.058  0.00  0.00     0.020 A 
ATOM      2  C1  UNL d   1      -1.081  -1.665  -1.342  0.00  0.00     0.020 A 
ATOM      3  C2  UNL d   1      -0.161  -0.827  -1.976  0.00  0.00     0.034 A 
ATOM      4  C3  UNL d   1       0.142  -1.012  -3.330  0.00  0.00     0.017 A 
ATOM      5  C4  UNL d   1      -0.481  -2.040  -4.048  0.00  0.00     0.017 A 
ATOM      6  C5  UNL d   1      -1.401  -2.875  -3.408  0.00  0.00     0.034 A 
ATOM      7 Cl   UNL d   1      -0.158  -2.329  -5.721  0.00  0.00    -0.070 Cl
ATOM      8 Cl1  UNL d   1       1.289   0.061  -4.050  0.00  0.00    -0.070 Cl
ENDROOT
TORSDOF 0
ENDMDL
