MODEL 1
REMARK minimizedAffinity 9.71469688
REMARK minimizedRMSD -1
REMARK  0 active torsions:
REMARK  status: ('A' for Active; 'I' for Inactive)
ROOT
ATOM      1  C   UNL d   1      -0.415  -0.862   2.258  0.00  0.00     0.020 A 
ATOM      2  C1  UNL d   1       0.198   0.389   2.192  0.00  0.00     0.020 A 
ATOM      3  C2  UNL d   1       1.363   0.634   2.921  0.00  0.00     0.034 A 
ATOM      4  C3  UNL d   1       1.919  -0.372   3.719  0.00  0.00     0.017 A 
ATOM      5  C4  UNL d   1       1.304  -1.627   3.785  0.00  0.00     0.017 A 
ATOM      6  C5  UNL d   1       0.137  -1.868   3.052  0.00  0.00     0.034 A 
ATOM      7 Cl   UNL d   1       1.931  -2.918   4.747  0.00  0.00    -0.070 Cl
ATOM      8 Cl1  UNL d   1       3.362   0.002   4.594  0.00  0.00    -0.070 Cl
ENDROOT
TORSDOF 0
ENDMDL
