MODEL 1
REMARK minimizedAffinity 3.43121457
REMARK minimizedRMSD -1
REMARK  0 active torsions:
REMARK  status: ('A' for Active; 'I' for Inactive)
ROOT
ATOM      1  C   UNL d   1       0.880  -1.234   3.745  0.00  0.00     0.020 A 
ATOM      2  C1  UNL d   1       1.443  -0.037   4.184  0.00  0.00     0.020 A 
ATOM      3  C2  UNL d   1       0.897   1.182   3.777  0.00  0.00     0.034 A 
ATOM      4  C3  UNL d   1      -0.216   1.207   2.928  0.00  0.00     0.017 A 
ATOM      5  C4  UNL d   1      -0.781   0.004   2.488  0.00  0.00     0.017 A 
ATOM      6  C5  UNL d   1      -0.230  -1.214   2.899  0.00  0.00     0.034 A 
ATOM      7 Cl   UNL d   1      -2.154  -0.046   1.440  0.00  0.00    -0.070 Cl
ATOM      8 Cl1  UNL d   1      -0.839   2.750   2.465  0.00  0.00    -0.070 Cl
ENDROOT
TORSDOF 0
ENDMDL
