MODEL 1
REMARK minimizedAffinity 12.819397
REMARK minimizedRMSD -1
REMARK  0 active torsions:
REMARK  status: ('A' for Active; 'I' for Inactive)
ROOT
ATOM      1  C   UNL d   1      -1.665   1.010   2.214  0.00  0.00     0.020 A 
ATOM      2  C1  UNL d   1      -1.922  -0.165   1.509  0.00  0.00     0.020 A 
ATOM      3  C2  UNL d   1      -0.938  -1.152   1.414  0.00  0.00     0.034 A 
ATOM      4  C3  UNL d   1       0.307  -0.965   2.025  0.00  0.00     0.017 A 
ATOM      5  C4  UNL d   1       0.564   0.214   2.733  0.00  0.00     0.017 A 
ATOM      6  C5  UNL d   1      -0.425   1.199   2.825  0.00  0.00     0.034 A 
ATOM      7 Cl   UNL d   1       2.076   0.516   3.513  0.00  0.00    -0.070 Cl
ATOM      8 Cl1  UNL d   1       1.476  -2.228   1.867  0.00  0.00    -0.070 Cl
ENDROOT
TORSDOF 0
ENDMDL
