MODEL 1
REMARK minimizedAffinity 10.2948227
REMARK minimizedRMSD -1
REMARK  0 active torsions:
REMARK  status: ('A' for Active; 'I' for Inactive)
ROOT
ATOM      1  C   UNL d   1      -0.350  -1.301  -4.150  0.00  0.00     0.020 A 
ATOM      2  C1  UNL d   1      -0.159  -0.017  -4.660  0.00  0.00     0.020 A 
ATOM      3  C2  UNL d   1       1.079   0.344  -5.197  0.00  0.00     0.034 A 
ATOM      4  C3  UNL d   1       2.130  -0.580  -5.226  0.00  0.00     0.017 A 
ATOM      5  C4  UNL d   1       1.937  -1.868  -4.714  0.00  0.00     0.017 A 
ATOM      6  C5  UNL d   1       0.696  -2.224  -4.177  0.00  0.00     0.034 A 
ATOM      7 Cl   UNL d   1       3.187  -3.062  -4.714  0.00  0.00    -0.070 Cl
ATOM      8 Cl1  UNL d   1       3.633  -0.066  -5.905  0.00  0.00    -0.070 Cl
ENDROOT
TORSDOF 0
ENDMDL
