MODEL 1
REMARK minimizedAffinity 1.5688405
REMARK minimizedRMSD -1
REMARK  0 active torsions:
REMARK  status: ('A' for Active; 'I' for Inactive)
ROOT
ATOM      1  C   UNL d   1       0.198  -0.408  -4.041  0.00  0.00     0.020 A 
ATOM      2  C1  UNL d   1       0.224  -0.997  -5.305  0.00  0.00     0.020 A 
ATOM      3  C2  UNL d   1      -0.392  -2.233  -5.512  0.00  0.00     0.034 A 
ATOM      4  C3  UNL d   1      -1.036  -2.884  -4.454  0.00  0.00     0.017 A 
ATOM      5  C4  UNL d   1      -1.062  -2.292  -3.186  0.00  0.00     0.017 A 
ATOM      6  C5  UNL d   1      -0.443  -1.054  -2.984  0.00  0.00     0.034 A 
ATOM      7 Cl   UNL d   1      -1.837  -3.035  -1.831  0.00  0.00    -0.070 Cl
ATOM      8 Cl1  UNL d   1      -1.778  -4.410  -4.781  0.00  0.00    -0.070 Cl
ENDROOT
TORSDOF 0
ENDMDL
