MODEL 1
REMARK minimizedAffinity 9.12913895
REMARK minimizedRMSD -1
REMARK  0 active torsions:
REMARK  status: ('A' for Active; 'I' for Inactive)
ROOT
ATOM      1  C   UNL d   1       1.259  -1.729   2.782  0.00  0.00     0.020 A 
ATOM      2  C1  UNL d   1      -0.054  -1.458   2.398  0.00  0.00     0.020 A 
ATOM      3  C2  UNL d   1      -0.528  -0.145   2.407  0.00  0.00     0.034 A 
ATOM      4  C3  UNL d   1       0.312   0.904   2.801  0.00  0.00     0.017 A 
ATOM      5  C4  UNL d   1       1.629   0.631   3.187  0.00  0.00     0.017 A 
ATOM      6  C5  UNL d   1       2.099  -0.686   3.175  0.00  0.00     0.034 A 
ATOM      7 Cl   UNL d   1       2.725   1.872   3.685  0.00  0.00    -0.070 Cl
ATOM      8 Cl1  UNL d   1      -0.340   2.504   2.788  0.00  0.00    -0.070 Cl
ENDROOT
TORSDOF 0
ENDMDL
