MODEL 1
REMARK minimizedAffinity 10.711628
REMARK minimizedRMSD -1
REMARK  0 active torsions:
REMARK  status: ('A' for Active; 'I' for Inactive)
ROOT
ATOM      1  C   UNL d   1       2.248  -0.849   2.881  0.00  0.00     0.020 A 
ATOM      2  C1  UNL d   1       1.438   0.051   2.190  0.00  0.00     0.020 A 
ATOM      3  C2  UNL d   1       0.068  -0.191   2.071  0.00  0.00     0.034 A 
ATOM      4  C3  UNL d   1      -0.496  -1.337   2.644  0.00  0.00     0.017 A 
ATOM      5  C4  UNL d   1       0.318  -2.241   3.337  0.00  0.00     0.017 A 
ATOM      6  C5  UNL d   1       1.689  -1.992   3.453  0.00  0.00     0.034 A 
ATOM      7 Cl   UNL d   1      -0.305  -3.676   4.070  0.00  0.00    -0.070 Cl
ATOM      8 Cl1  UNL d   1      -2.197  -1.574   2.458  0.00  0.00    -0.070 Cl
ENDROOT
TORSDOF 0
ENDMDL
