MODEL 1
REMARK minimizedAffinity 15.8049021
REMARK minimizedRMSD -1
REMARK  0 active torsions:
REMARK  status: ('A' for Active; 'I' for Inactive)
ROOT
ATOM      1  C   UNL d   1       1.060   0.152  -4.553  0.00  0.00     0.020 A 
ATOM      2  C1  UNL d   1       0.264  -0.287  -5.610  0.00  0.00     0.020 A 
ATOM      3  C2  UNL d   1      -0.734  -1.237  -5.384  0.00  0.00     0.034 A 
ATOM      4  C3  UNL d   1      -0.939  -1.751  -4.099  0.00  0.00     0.017 A 
ATOM      5  C4  UNL d   1      -0.139  -1.310  -3.039  0.00  0.00     0.017 A 
ATOM      6  C5  UNL d   1       0.859  -0.358  -3.270  0.00  0.00     0.034 A 
ATOM      7 Cl   UNL d   1      -0.332  -1.898  -1.425  0.00  0.00    -0.070 Cl
ATOM      8 Cl1  UNL d   1      -2.192  -2.923  -3.892  0.00  0.00    -0.070 Cl
ENDROOT
TORSDOF 0
ENDMDL
