MODEL 1
REMARK minimizedAffinity 1.09280515
REMARK minimizedRMSD -1
REMARK  0 active torsions:
REMARK  status: ('A' for Active; 'I' for Inactive)
ROOT
ATOM      1  C   UNL d   1      -4.080   0.748   0.365  0.00  0.00    -0.002 A 
ATOM      2  C1  UNL d   1      -3.655   1.396   1.516  0.00  0.00     0.010 A 
ATOM      3  C2  UNL d   1      -2.293   1.538   1.790  0.00  0.00     0.041 A 
ATOM      4  C3  UNL d   1      -1.357   1.015   0.877  0.00  0.00    -0.075 A 
ATOM      5  S   UNL d   1       0.362   1.072   1.003  0.00  0.00     0.015 SA
ATOM      6  C4  UNL d   1       0.572   0.239  -0.469  0.00  0.00     0.022 A 
ATOM      7  C5  UNL d   1      -0.629  -0.083  -1.055  0.00  0.00     0.026 A 
ATOM      8  C6  UNL d   1      -1.760   0.359  -0.290  0.00  0.00    -0.082 A 
ATOM      9  C7  UNL d   1      -3.148   0.230  -0.538  0.00  0.00     0.045 A 
ENDROOT
TORSDOF 0
ENDMDL
