MODEL 1
REMARK minimizedAffinity -1.7856977
REMARK minimizedRMSD -1
REMARK  0 active torsions:
REMARK  status: ('A' for Active; 'I' for Inactive)
ROOT
ATOM      1  C   UNL d   1       2.928  -0.330   1.582  0.00  0.00    -0.002 A 
ATOM      2  C1  UNL d   1       2.900  -1.481   0.808  0.00  0.00     0.010 A 
ATOM      3  C2  UNL d   1       1.832  -1.728  -0.058  0.00  0.00     0.041 A 
ATOM      4  C3  UNL d   1       0.785  -0.789  -0.135  0.00  0.00    -0.075 A 
ATOM      5  S   UNL d   1      -0.623  -0.880  -1.125  0.00  0.00     0.015 SA
ATOM      6  C4  UNL d   1      -1.219   0.607  -0.544  0.00  0.00     0.022 A 
ATOM      7  C5  UNL d   1      -0.377   1.173   0.383  0.00  0.00     0.026 A 
ATOM      8  C6  UNL d   1       0.792   0.378   0.634  0.00  0.00    -0.082 A 
ATOM      9  C7  UNL d   1       1.888   0.600   1.503  0.00  0.00     0.045 A 
ENDROOT
TORSDOF 0
ENDMDL
