MODEL 1
REMARK minimizedAffinity -4.19008207
REMARK minimizedRMSD -1
REMARK  0 active torsions:
REMARK  status: ('A' for Active; 'I' for Inactive)
ROOT
ATOM      1  C   UNL d   1       3.346   1.065   0.612  0.00  0.00    -0.002 A 
ATOM      2  C1  UNL d   1       3.521  -0.300   0.433  0.00  0.00     0.010 A 
ATOM      3  C2  UNL d   1       2.442  -1.116   0.088  0.00  0.00     0.041 A 
ATOM      4  C3  UNL d   1       1.171  -0.530  -0.078  0.00  0.00    -0.075 A 
ATOM      5  S   UNL d   1      -0.296  -1.332  -0.500  0.00  0.00     0.015 SA
ATOM      6  C4  UNL d   1      -1.189   0.119  -0.454  0.00  0.00     0.022 A 
ATOM      7  C5  UNL d   1      -0.403   1.198  -0.126  0.00  0.00     0.026 A 
ATOM      8  C6  UNL d   1       0.970   0.842   0.096  0.00  0.00    -0.082 A 
ATOM      9  C7  UNL d   1       2.084   1.642   0.446  0.00  0.00     0.045 A 
ENDROOT
TORSDOF 0
ENDMDL
