MODEL 1
REMARK minimizedAffinity -2.65967584
REMARK minimizedRMSD -1
REMARK  0 active torsions:
REMARK  status: ('A' for Active; 'I' for Inactive)
ROOT
ATOM      1  C   UNL d   1       3.017  -1.202   0.155  0.00  0.00    -0.002 A 
ATOM      2  C1  UNL d   1       2.825  -0.080   0.949  0.00  0.00     0.010 A 
ATOM      3  C2  UNL d   1       1.593   0.577   0.964  0.00  0.00     0.041 A 
ATOM      4  C3  UNL d   1       0.547   0.081   0.162  0.00  0.00    -0.075 A 
ATOM      5  S   UNL d   1      -1.048   0.722   0.020  0.00  0.00     0.015 SA
ATOM      6  C4  UNL d   1      -1.512  -0.479  -1.097  0.00  0.00     0.022 A 
ATOM      7  C5  UNL d   1      -0.488  -1.355  -1.367  0.00  0.00     0.026 A 
ATOM      8  C6  UNL d   1       0.716  -1.047  -0.646  0.00  0.00    -0.082 A 
ATOM      9  C7  UNL d   1       1.977  -1.690  -0.640  0.00  0.00     0.045 A 
ENDROOT
TORSDOF 0
ENDMDL
