MODEL 1
REMARK minimizedAffinity 0.0121674631
REMARK minimizedRMSD -1
REMARK  0 active torsions:
REMARK  status: ('A' for Active; 'I' for Inactive)
ROOT
ATOM      1  C   UNL d   1       1.879  -2.003  -0.414  0.00  0.00    -0.002 A 
ATOM      2  C1  UNL d   1       2.444  -1.175   0.546  0.00  0.00     0.010 A 
ATOM      3  C2  UNL d   1       1.753  -0.057   1.015  0.00  0.00     0.041 A 
ATOM      4  C3  UNL d   1       0.470   0.216   0.500  0.00  0.00    -0.075 A 
ATOM      5  S   UNL d   1      -0.563   1.529   0.928  0.00  0.00     0.015 SA
ATOM      6  C4  UNL d   1      -1.779   1.021  -0.153  0.00  0.00     0.022 A 
ATOM      7  C5  UNL d   1      -1.422  -0.120  -0.832  0.00  0.00     0.026 A 
ATOM      8  C6  UNL d   1      -0.120  -0.603  -0.466  0.00  0.00    -0.082 A 
ATOM      9  C7  UNL d   1       0.607  -1.729  -0.922  0.00  0.00     0.045 A 
ENDROOT
TORSDOF 0
ENDMDL
