MODEL 1
REMARK minimizedAffinity -5.12278652
REMARK minimizedRMSD -1
REMARK  0 active torsions:
REMARK  status: ('A' for Active; 'I' for Inactive)
ROOT
ATOM      1  C   UNL d   1       3.460   0.796   0.706  0.00  0.00    -0.002 A 
ATOM      2  C1  UNL d   1       3.352  -0.587   0.727  0.00  0.00     0.010 A 
ATOM      3  C2  UNL d   1       2.154  -1.211   0.374  0.00  0.00     0.041 A 
ATOM      4  C3  UNL d   1       1.056  -0.414  -0.006  0.00  0.00    -0.075 A 
ATOM      5  S   UNL d   1      -0.510  -0.959  -0.480  0.00  0.00     0.015 SA
ATOM      6  C4  UNL d   1      -1.071   0.632  -0.723  0.00  0.00     0.022 A 
ATOM      7  C5  UNL d   1      -0.101   1.568  -0.453  0.00  0.00     0.026 A 
ATOM      8  C6  UNL d   1       1.141   0.981  -0.036  0.00  0.00    -0.082 A 
ATOM      9  C7  UNL d   1       2.369   1.583   0.328  0.00  0.00     0.045 A 
ENDROOT
TORSDOF 0
ENDMDL
