MODEL 1
REMARK minimizedAffinity -2.16421199
REMARK minimizedRMSD -1
REMARK  0 active torsions:
REMARK  status: ('A' for Active; 'I' for Inactive)
ROOT
ATOM      1  C   UNL d   1       1.934  -1.844  -0.598  0.00  0.00    -0.002 A 
ATOM      2  C1  UNL d   1       2.528  -1.194   0.474  0.00  0.00     0.010 A 
ATOM      3  C2  UNL d   1       1.836  -0.208   1.180  0.00  0.00     0.041 A 
ATOM      4  C3  UNL d   1       0.523   0.116   0.787  0.00  0.00    -0.075 A 
ATOM      5  S   UNL d   1      -0.517   1.289   1.504  0.00  0.00     0.015 SA
ATOM      6  C4  UNL d   1      -1.776   0.955   0.405  0.00  0.00     0.022 A 
ATOM      7  C5  UNL d   1      -1.428  -0.025  -0.494  0.00  0.00     0.026 A 
ATOM      8  C6  UNL d   1      -0.098  -0.525  -0.288  0.00  0.00    -0.082 A 
ATOM      9  C7  UNL d   1       0.630  -1.520  -0.984  0.00  0.00     0.045 A 
ENDROOT
TORSDOF 0
ENDMDL
