MODEL 1
REMARK minimizedAffinity 0.376538068
REMARK minimizedRMSD -1
REMARK  0 active torsions:
REMARK  status: ('A' for Active; 'I' for Inactive)
ROOT
ATOM      1  C   UNL d   1      -0.586  -1.518  -0.989  0.00  0.00    -0.002 A 
ATOM      2  C1  UNL d   1      -1.015  -0.213  -0.795  0.00  0.00     0.010 A 
ATOM      3  C2  UNL d   1      -0.243   0.686  -0.056  0.00  0.00     0.041 A 
ATOM      4  C3  UNL d   1       0.980   0.246   0.488  0.00  0.00    -0.075 A 
ATOM      5  S   UNL d   1       2.092   1.171   1.427  0.00  0.00     0.015 SA
ATOM      6  C4  UNL d   1       3.163  -0.145   1.591  0.00  0.00     0.022 A 
ATOM      7  C5  UNL d   1       2.699  -1.270   0.952  0.00  0.00     0.026 A 
ATOM      8  C6  UNL d   1       1.433  -1.063   0.305  0.00  0.00    -0.082 A 
ATOM      9  C7  UNL d   1       0.627  -1.950  -0.448  0.00  0.00     0.045 A 
ENDROOT
TORSDOF 0
ENDMDL
