MODEL 1
REMARK minimizedAffinity -2.70142007
REMARK minimizedRMSD -1
REMARK  0 active torsions:
REMARK  status: ('A' for Active; 'I' for Inactive)
ROOT
ATOM      1  C1  BNZ d   1      -1.398   0.213   1.336  0.00  0.00     0.000 A 
ATOM      2  C2  BNZ d   1      -0.842   0.565   0.136  0.00  0.00     0.000 A 
ATOM      3  C3  BNZ d   1       0.485   0.348  -0.111  0.00  0.00     0.000 A 
ATOM      4  C4  BNZ d   1       1.261  -0.185   0.855  0.00  0.00     0.000 A 
ATOM      5  C5  BNZ d   1       0.716  -0.538   2.073  0.00  0.00     0.000 A 
ATOM      6  C6  BNZ d   1      -0.628  -0.353   2.305  0.00  0.00     0.000 A 
ENDROOT
TORSDOF 0
ENDMDL
