MODEL 1
REMARK minimizedAffinity -2.24853778
REMARK minimizedRMSD -1
REMARK  0 active torsions:
REMARK  status: ('A' for Active; 'I' for Inactive)
ROOT
ATOM      1  C1  BNZ d   1      -1.952   0.906   1.187  0.00  0.00     0.000 A 
ATOM      2  C2  BNZ d   1      -0.617   0.623   1.300  0.00  0.00     0.000 A 
ATOM      3  C3  BNZ d   1      -0.043  -0.358   0.541  0.00  0.00     0.000 A 
ATOM      4  C4  BNZ d   1      -0.812  -1.082  -0.298  0.00  0.00     0.000 A 
ATOM      5  C5  BNZ d   1      -2.161  -0.815  -0.416  0.00  0.00     0.000 A 
ATOM      6  C6  BNZ d   1      -2.728   0.200   0.320  0.00  0.00     0.000 A 
ENDROOT
TORSDOF 0
ENDMDL
