MODEL 1
REMARK minimizedAffinity -2.71623635
REMARK minimizedRMSD -1
REMARK  0 active torsions:
REMARK  status: ('A' for Active; 'I' for Inactive)
ROOT
ATOM      1  C1  BNZ d   1       0.277  -1.698  -0.036  0.00  0.00     0.000 A 
ATOM      2  C2  BNZ d   1      -1.019  -1.563  -0.456  0.00  0.00     0.000 A 
ATOM      3  C3  BNZ d   1      -1.905  -0.792   0.244  0.00  0.00     0.000 A 
ATOM      4  C4  BNZ d   1      -1.505  -0.191   1.383  0.00  0.00     0.000 A 
ATOM      5  C5  BNZ d   1      -0.204  -0.326   1.825  0.00  0.00     0.000 A 
ATOM      6  C6  BNZ d   1       0.695  -1.071   1.097  0.00  0.00     0.000 A 
ENDROOT
TORSDOF 0
ENDMDL
