MODEL 1
REMARK minimizedAffinity -2.34007883
REMARK minimizedRMSD -1
REMARK  0 active torsions:
REMARK  status: ('A' for Active; 'I' for Inactive)
ROOT
ATOM      1  C1  BNZ d   1       0.090  -0.625   1.625  0.00  0.00     0.000 A 
ATOM      2  C2  BNZ d   1      -0.435  -0.630   2.890  0.00  0.00     0.000 A 
ATOM      3  C3  BNZ d   1      -1.705  -0.180   3.123  0.00  0.00     0.000 A 
ATOM      4  C4  BNZ d   1      -2.432   0.311   2.099  0.00  0.00     0.000 A 
ATOM      5  C5  BNZ d   1      -1.914   0.331   0.819  0.00  0.00     0.000 A 
ATOM      6  C6  BNZ d   1      -0.650  -0.158   0.583  0.00  0.00     0.000 A 
ENDROOT
TORSDOF 0
ENDMDL
