MODEL 1
REMARK minimizedAffinity -4.09502268
REMARK minimizedRMSD -1
REMARK  0 active torsions:
REMARK  status: ('A' for Active; 'I' for Inactive)
ROOT
ATOM      1  C1  BNZ d   1      -1.709  -0.042   3.227  0.00  0.00     0.000 A 
ATOM      2  C2  BNZ d   1      -2.443   0.498   2.206  0.00  0.00     0.000 A 
ATOM      3  C3  BNZ d   1      -1.976   0.480   0.921  0.00  0.00     0.000 A 
ATOM      4  C4  BNZ d   1      -0.758  -0.041   0.666  0.00  0.00     0.000 A 
ATOM      5  C5  BNZ d   1      -0.002  -0.582   1.687  0.00  0.00     0.000 A 
ATOM      6  C6  BNZ d   1      -0.492  -0.597   2.972  0.00  0.00     0.000 A 
ENDROOT
TORSDOF 0
ENDMDL
