MODEL 1
REMARK minimizedAffinity 0.0204440746
REMARK minimizedRMSD -1
REMARK  0 active torsions:
REMARK  status: ('A' for Active; 'I' for Inactive)
ROOT
ATOM      1  C1  BNZ d   1       3.065   1.345  -2.829  0.00  0.00     0.000 A 
ATOM      2  C2  BNZ d   1       4.112   2.158  -2.486  0.00  0.00     0.000 A 
ATOM      3  C3  BNZ d   1       4.610   2.158  -1.213  0.00  0.00     0.000 A 
ATOM      4  C4  BNZ d   1       4.036   1.377  -0.276  0.00  0.00     0.000 A 
ATOM      5  C5  BNZ d   1       2.973   0.559  -0.604  0.00  0.00     0.000 A 
ATOM      6  C6  BNZ d   1       2.500   0.532  -1.896  0.00  0.00     0.000 A 
ENDROOT
TORSDOF 0
ENDMDL
