MODEL 1
REMARK minimizedAffinity -2.43275762
REMARK minimizedRMSD -1
REMARK  0 active torsions:
REMARK  status: ('A' for Active; 'I' for Inactive)
ROOT
ATOM      1  C1  BNZ d   1      -2.262  -0.359   0.380  0.00  0.00     0.000 A 
ATOM      2  C2  BNZ d   1      -2.616   0.015   1.649  0.00  0.00     0.000 A 
ATOM      3  C3  BNZ d   1      -1.664   0.230   2.606  0.00  0.00     0.000 A 
ATOM      4  C4  BNZ d   1      -0.364   0.032   2.305  0.00  0.00     0.000 A 
ATOM      5  C5  BNZ d   1       0.008  -0.353   1.033  0.00  0.00     0.000 A 
ATOM      6  C6  BNZ d   1      -0.950  -0.531   0.061  0.00  0.00     0.000 A 
ENDROOT
TORSDOF 0
ENDMDL
