MODEL 1
REMARK minimizedAffinity 5.87556696
REMARK minimizedRMSD -1
REMARK  2 active torsions:
REMARK  status: ('A' for Active; 'I' for Inactive)
REMARK    1  A    between atoms: C1_2  and  C2_3 
REMARK    2  A    between atoms: C2_3  and  C3_4 
ROOT
ATOM      1  C3  UNL d   1       3.687  -4.649  -1.709  0.00  0.00    -0.075 A 
ATOM      2  C4  UNL d   1       3.257  -3.571  -0.922  0.00  0.00     0.002 A 
ATOM      3  C5  UNL d   1       2.167  -3.712  -0.062  0.00  0.00     0.002 A 
ATOM      4  C6  UNL d   1       1.489  -4.926   0.014  0.00  0.00    -0.004 A 
ATOM      5  C7  UNL d   1       1.897  -5.999  -0.775  0.00  0.00     0.002 A 
ATOM      6  C8  UNL d   1       2.990  -5.862  -1.633  0.00  0.00     0.002 A 
ENDROOT
BRANCH   1   7
ATOM      7  C2  UNL d   1       4.884  -4.512  -2.619  0.00  0.00     0.056 C 
BRANCH   7   8
ATOM      8  C1  UNL d   1       4.548  -4.613  -4.111  0.00  0.00     0.007 C 
ATOM      9  C   UNL d   1       5.319  -5.713  -4.827  0.00  0.00     0.009 C 
ENDBRANCH   7   8
ENDBRANCH   1   7
TORSDOF 2
ENDMDL
