MODEL 1
REMARK minimizedAffinity 5.5058856
REMARK minimizedRMSD -1
REMARK  2 active torsions:
REMARK  status: ('A' for Active; 'I' for Inactive)
REMARK    1  A    between atoms: C1_2  and  C2_3 
REMARK    2  A    between atoms: C2_3  and  C3_4 
ROOT
ATOM      1  C3  UNL d   1      -0.646   1.231  -0.807  0.00  0.00    -0.075 A 
ATOM      2  C4  UNL d   1      -1.987   0.882  -1.019  0.00  0.00     0.002 A 
ATOM      3  C5  UNL d   1      -2.316  -0.331  -1.625  0.00  0.00     0.002 A 
ATOM      4  C6  UNL d   1      -1.311  -1.204  -2.035  0.00  0.00    -0.004 A 
ATOM      5  C7  UNL d   1       0.026  -0.859  -1.844  0.00  0.00     0.002 A 
ATOM      6  C8  UNL d   1       0.358   0.352  -1.235  0.00  0.00     0.002 A 
ENDROOT
BRANCH   1   7
ATOM      7  C2  UNL d   1      -0.284   2.529  -0.126  0.00  0.00     0.056 C 
BRANCH   7   8
ATOM      8  C1  UNL d   1      -0.368   3.758  -1.038  0.00  0.00     0.007 C 
ATOM      9  C   UNL d   1      -0.794   5.022  -0.305  0.00  0.00     0.009 C 
ENDBRANCH   7   8
ENDBRANCH   1   7
TORSDOF 2
ENDMDL
