MODEL 1
REMARK minimizedAffinity 0.833168268
REMARK minimizedRMSD -1
REMARK  2 active torsions:
REMARK  status: ('A' for Active; 'I' for Inactive)
REMARK    1  A    between atoms: C1_2  and  C2_3 
REMARK    2  A    between atoms: C2_3  and  C3_4 
ROOT
ATOM      1  C3  UNL d   1      -0.408   2.600   0.963  0.00  0.00    -0.075 A 
ATOM      2  C4  UNL d   1       0.388   3.753   0.901  0.00  0.00     0.002 A 
ATOM      3  C5  UNL d   1       1.260   4.068   1.945  0.00  0.00     0.002 A 
ATOM      4  C6  UNL d   1       1.338   3.243   3.064  0.00  0.00    -0.004 A 
ATOM      5  C7  UNL d   1       0.539   2.104   3.143  0.00  0.00     0.002 A 
ATOM      6  C8  UNL d   1      -0.330   1.784   2.099  0.00  0.00     0.002 A 
ENDROOT
BRANCH   1   7
ATOM      7  C2  UNL d   1      -1.331   2.238  -0.176  0.00  0.00     0.056 C 
BRANCH   7   8
ATOM      8  C1  UNL d   1      -2.597   1.493   0.260  0.00  0.00     0.007 C 
ATOM      9  C   UNL d   1      -3.822   1.852  -0.570  0.00  0.00     0.009 C 
ENDBRANCH   7   8
ENDBRANCH   1   7
TORSDOF 2
ENDMDL
