MODEL 1
REMARK minimizedAffinity 7.17716646
REMARK minimizedRMSD -1
REMARK  2 active torsions:
REMARK  status: ('A' for Active; 'I' for Inactive)
REMARK    1  A    between atoms: C1_2  and  C2_3 
REMARK    2  A    between atoms: C2_3  and  C3_4 
ROOT
ATOM      1  C3  UNL d   1      -0.096   3.764   0.831  0.00  0.00    -0.075 A 
ATOM      2  C4  UNL d   1       1.052   4.141   1.543  0.00  0.00     0.002 A 
ATOM      3  C5  UNL d   1       1.497   3.380   2.624  0.00  0.00     0.002 A 
ATOM      4  C6  UNL d   1       0.795   2.241   3.014  0.00  0.00    -0.004 A 
ATOM      5  C7  UNL d   1      -0.356   1.866   2.324  0.00  0.00     0.002 A 
ATOM      6  C8  UNL d   1      -0.801   2.623   1.239  0.00  0.00     0.002 A 
ENDROOT
BRANCH   1   7
ATOM      7  C2  UNL d   1      -0.566   4.567  -0.358  0.00  0.00     0.056 C 
BRANCH   7   8
ATOM      8  C1  UNL d   1      -1.039   5.982  -0.008  0.00  0.00     0.007 C 
ATOM      9  C   UNL d   1      -2.231   5.999   0.940  0.00  0.00     0.009 C 
ENDBRANCH   7   8
ENDBRANCH   1   7
TORSDOF 2
ENDMDL
