MODEL 1
REMARK minimizedAffinity 3.01518011
REMARK minimizedRMSD -1
REMARK  2 active torsions:
REMARK  status: ('A' for Active; 'I' for Inactive)
REMARK    1  A    between atoms: C1_2  and  C2_3 
REMARK    2  A    between atoms: C2_3  and  C3_4 
ROOT
ATOM      1  C3  UNL d   1       3.530  -3.221  -1.079  0.00  0.00    -0.075 A 
ATOM      2  C4  UNL d   1       3.493  -2.037  -0.328  0.00  0.00     0.002 A 
ATOM      3  C5  UNL d   1       4.586  -1.171  -0.317  0.00  0.00     0.002 A 
ATOM      4  C6  UNL d   1       5.732  -1.481  -1.045  0.00  0.00    -0.004 A 
ATOM      5  C7  UNL d   1       5.787  -2.663  -1.781  0.00  0.00     0.002 A 
ATOM      6  C8  UNL d   1       4.692  -3.529  -1.798  0.00  0.00     0.002 A 
ENDROOT
BRANCH   1   7
ATOM      7  C2  UNL d   1       2.339  -4.148  -1.119  0.00  0.00     0.056 C 
BRANCH   7   8
ATOM      8  C1  UNL d   1       2.683  -5.590  -1.504  0.00  0.00     0.007 C 
ATOM      9  C   UNL d   1       2.134  -5.996  -2.865  0.00  0.00     0.009 C 
ENDBRANCH   7   8
ENDBRANCH   1   7
TORSDOF 2
ENDMDL
