MODEL 1
REMARK minimizedAffinity -0.148024946
REMARK minimizedRMSD -1
REMARK  2 active torsions:
REMARK  status: ('A' for Active; 'I' for Inactive)
REMARK    1  A    between atoms: C1_2  and  C2_3 
REMARK    2  A    between atoms: C2_3  and  C3_4 
ROOT
ATOM      1  C3  UNL d   1      -1.452   1.131  -0.955  0.00  0.00    -0.075 A 
ATOM      2  C4  UNL d   1      -0.625   0.037  -1.246  0.00  0.00     0.002 A 
ATOM      3  C5  UNL d   1      -1.154  -1.252  -1.317  0.00  0.00     0.002 A 
ATOM      4  C6  UNL d   1      -2.512  -1.465  -1.089  0.00  0.00    -0.004 A 
ATOM      5  C7  UNL d   1      -3.340  -0.387  -0.783  0.00  0.00     0.002 A 
ATOM      6  C8  UNL d   1      -2.814   0.904  -0.716  0.00  0.00     0.002 A 
ENDROOT
BRANCH   1   7
ATOM      7  C2  UNL d   1      -0.891   2.532  -0.906  0.00  0.00     0.056 C 
BRANCH   7   8
ATOM      8  C1  UNL d   1      -0.398   2.958   0.481  0.00  0.00     0.007 C 
ATOM      9  C   UNL d   1      -0.014   4.430   0.555  0.00  0.00     0.009 C 
ENDBRANCH   7   8
ENDBRANCH   1   7
TORSDOF 2
ENDMDL
