MODEL 1
REMARK minimizedAffinity -5.59731579
REMARK minimizedRMSD -1
REMARK  2 active torsions:
REMARK  status: ('A' for Active; 'I' for Inactive)
REMARK    1  A    between atoms: C1_2  and  C2_3 
REMARK    2  A    between atoms: C2_3  and  C3_4 
ROOT
ATOM      1  C3  UNL d   1      -0.353  -1.077   0.788  0.00  0.00    -0.075 A 
ATOM      2  C4  UNL d   1      -0.839  -2.163   1.530  0.00  0.00     0.002 A 
ATOM      3  C5  UNL d   1      -2.154  -2.600   1.367  0.00  0.00     0.002 A 
ATOM      4  C6  UNL d   1      -3.001  -1.952   0.471  0.00  0.00    -0.004 A 
ATOM      5  C7  UNL d   1      -2.533  -0.861  -0.259  0.00  0.00     0.002 A 
ATOM      6  C8  UNL d   1      -1.216  -0.425  -0.102  0.00  0.00     0.002 A 
ENDROOT
BRANCH   1   7
ATOM      7  C2  UNL d   1       1.078  -0.618   0.938  0.00  0.00     0.056 C 
BRANCH   7   8
ATOM      8  C1  UNL d   1       1.388   0.701   0.222  0.00  0.00     0.007 C 
ATOM      9  C   UNL d   1       2.439   1.540   0.937  0.00  0.00     0.009 C 
ENDBRANCH   7   8
ENDBRANCH   1   7
TORSDOF 2
ENDMDL
