MODEL 1
REMARK minimizedAffinity -6.16201496
REMARK minimizedRMSD -1
REMARK  2 active torsions:
REMARK  status: ('A' for Active; 'I' for Inactive)
REMARK    1  A    between atoms: C1_2  and  C2_3 
REMARK    2  A    between atoms: C2_3  and  C3_4 
ROOT
ATOM      1  C3  UNL d   1       0.087  -0.224   0.179  0.00  0.00    -0.075 A 
ATOM      2  C4  UNL d   1      -0.784  -0.587   1.217  0.00  0.00     0.002 A 
ATOM      3  C5  UNL d   1      -2.157  -0.681   0.989  0.00  0.00     0.002 A 
ATOM      4  C6  UNL d   1      -2.678  -0.406  -0.274  0.00  0.00    -0.004 A 
ATOM      5  C7  UNL d   1      -1.824  -0.028  -1.308  0.00  0.00     0.002 A 
ATOM      6  C8  UNL d   1      -0.449   0.063  -1.084  0.00  0.00     0.002 A 
ENDROOT
BRANCH   1   7
ATOM      7  C2  UNL d   1       1.577  -0.148   0.411  0.00  0.00     0.056 C 
BRANCH   7   8
ATOM      8  C1  UNL d   1       2.214   1.168  -0.048  0.00  0.00     0.007 C 
ATOM      9  C   UNL d   1       1.860   2.350   0.844  0.00  0.00     0.009 C 
ENDBRANCH   7   8
ENDBRANCH   1   7
TORSDOF 2
ENDMDL
