MODEL 1
REMARK minimizedAffinity -5.63708258
REMARK minimizedRMSD -1
REMARK  2 active torsions:
REMARK  status: ('A' for Active; 'I' for Inactive)
REMARK    1  A    between atoms: C1_2  and  C2_3 
REMARK    2  A    between atoms: C2_3  and  C3_4 
ROOT
ATOM      1  C3  UNL d   1       0.022   0.152   0.021  0.00  0.00    -0.075 A 
ATOM      2  C4  UNL d   1      -0.792   0.350  -1.104  0.00  0.00     0.002 A 
ATOM      3  C5  UNL d   1      -2.127  -0.057  -1.094  0.00  0.00     0.002 A 
ATOM      4  C6  UNL d   1      -2.661  -0.674   0.035  0.00  0.00    -0.004 A 
ATOM      5  C7  UNL d   1      -1.857  -0.891   1.153  0.00  0.00     0.002 A 
ATOM      6  C8  UNL d   1      -0.523  -0.481   1.146  0.00  0.00     0.002 A 
ENDROOT
BRANCH   1   7
ATOM      7  C2  UNL d   1       1.458   0.617   0.026  0.00  0.00     0.056 C 
BRANCH   7   8
ATOM      8  C1  UNL d   1       1.833   1.471   1.242  0.00  0.00     0.007 C 
ATOM      9  C   UNL d   1       2.159   2.915   0.883  0.00  0.00     0.009 C 
ENDBRANCH   7   8
ENDBRANCH   1   7
TORSDOF 2
ENDMDL
