MODEL 1
REMARK minimizedAffinity -4.4484601
REMARK minimizedRMSD -1
REMARK  2 active torsions:
REMARK  status: ('A' for Active; 'I' for Inactive)
REMARK    1  A    between atoms: C1_2  and  C2_3 
REMARK    2  A    between atoms: C2_3  and  C3_4 
ROOT
ATOM      1  C3  UNL d   1      -0.319   0.265   0.132  0.00  0.00    -0.075 A 
ATOM      2  C4  UNL d   1      -1.255   0.160   1.171  0.00  0.00     0.002 A 
ATOM      3  C5  UNL d   1      -2.494  -0.442   0.950  0.00  0.00     0.002 A 
ATOM      4  C6  UNL d   1      -2.817  -0.936  -0.312  0.00  0.00    -0.004 A 
ATOM      5  C7  UNL d   1      -1.901  -0.822  -1.356  0.00  0.00     0.002 A 
ATOM      6  C8  UNL d   1      -0.659  -0.224  -1.137  0.00  0.00     0.002 A 
ENDROOT
BRANCH   1   7
ATOM      7  C2  UNL d   1       1.035   0.889   0.372  0.00  0.00     0.056 C 
BRANCH   7   8
ATOM      8  C1  UNL d   1       1.048   1.941   1.486  0.00  0.00     0.007 C 
ATOM      9  C   UNL d   1       2.161   2.968   1.327  0.00  0.00     0.009 C 
ENDBRANCH   7   8
ENDBRANCH   1   7
TORSDOF 2
ENDMDL
