MODEL 1
REMARK minimizedAffinity -5.18922997
REMARK minimizedRMSD -1
REMARK  2 active torsions:
REMARK  status: ('A' for Active; 'I' for Inactive)
REMARK    1  A    between atoms: C1_2  and  C2_3 
REMARK    2  A    between atoms: C2_3  and  C3_4 
ROOT
ATOM      1  C3  UNL d   1       1.040   0.332   0.091  0.00  0.00    -0.075 A 
ATOM      2  C4  UNL d   1       0.535   0.343  -1.217  0.00  0.00     0.002 A 
ATOM      3  C5  UNL d   1      -0.711  -0.216  -1.500  0.00  0.00     0.002 A 
ATOM      4  C6  UNL d   1      -1.462  -0.802  -0.484  0.00  0.00    -0.004 A 
ATOM      5  C7  UNL d   1      -0.963  -0.834   0.816  0.00  0.00     0.002 A 
ATOM      6  C8  UNL d   1       0.282  -0.271   1.103  0.00  0.00     0.002 A 
ENDROOT
BRANCH   1   7
ATOM      7  C2  UNL d   1       2.375   0.962   0.409  0.00  0.00     0.056 C 
BRANCH   7   8
ATOM      8  C1  UNL d   1       2.311   2.049   1.488  0.00  0.00     0.007 C 
ATOM      9  C   UNL d   1       2.303   3.461   0.917  0.00  0.00     0.009 C 
ENDBRANCH   7   8
ENDBRANCH   1   7
TORSDOF 2
ENDMDL
