MODEL 1
REMARK minimizedAffinity -5.75508451
REMARK minimizedRMSD -1
REMARK  2 active torsions:
REMARK  status: ('A' for Active; 'I' for Inactive)
REMARK    1  A    between atoms: C1_2  and  C2_3 
REMARK    2  A    between atoms: C2_3  and  C3_4 
ROOT
ATOM      1  C3  UNL d   1      -0.225  -0.264  -0.034  0.00  0.00    -0.075 A 
ATOM      2  C4  UNL d   1      -0.792   0.166  -1.243  0.00  0.00     0.002 A 
ATOM      3  C5  UNL d   1      -2.173   0.112  -1.436  0.00  0.00     0.002 A 
ATOM      4  C6  UNL d   1      -3.001  -0.381  -0.430  0.00  0.00    -0.004 A 
ATOM      5  C7  UNL d   1      -2.447  -0.826   0.768  0.00  0.00     0.002 A 
ATOM      6  C8  UNL d   1      -1.066  -0.769   0.966  0.00  0.00     0.002 A 
ENDROOT
BRANCH   1   7
ATOM      7  C2  UNL d   1       1.266  -0.181   0.192  0.00  0.00     0.056 C 
BRANCH   7   8
ATOM      8  C1  UNL d   1       1.838   1.235   0.062  0.00  0.00     0.007 C 
ATOM      9  C   UNL d   1       1.775   2.030   1.359  0.00  0.00     0.009 C 
ENDBRANCH   7   8
ENDBRANCH   1   7
TORSDOF 2
ENDMDL
