MODEL 1
REMARK minimizedAffinity -4.32373905
REMARK minimizedRMSD -1
REMARK  2 active torsions:
REMARK  status: ('A' for Active; 'I' for Inactive)
REMARK    1  A    between atoms: C1_2  and  C2_3 
REMARK    2  A    between atoms: C2_3  and  C3_4 
ROOT
ATOM      1  C3  UNL d   1      -0.784  -0.841  -0.278  0.00  0.00    -0.075 A 
ATOM      2  C4  UNL d   1      -1.956  -1.097  -1.005  0.00  0.00     0.002 A 
ATOM      3  C5  UNL d   1      -2.767  -2.185  -0.681  0.00  0.00     0.002 A 
ATOM      4  C6  UNL d   1      -2.413  -3.035   0.364  0.00  0.00    -0.004 A 
ATOM      5  C7  UNL d   1      -1.243  -2.800   1.083  0.00  0.00     0.002 A 
ATOM      6  C8  UNL d   1      -0.431  -1.710   0.764  0.00  0.00     0.002 A 
ENDROOT
BRANCH   1   7
ATOM      7  C2  UNL d   1       0.083   0.351  -0.604  0.00  0.00     0.056 C 
BRANCH   7   8
ATOM      8  C1  UNL d   1       1.575   0.132  -0.330  0.00  0.00     0.007 C 
ATOM      9  C   UNL d   1       2.311   1.411   0.043  0.00  0.00     0.009 C 
ENDBRANCH   7   8
ENDBRANCH   1   7
TORSDOF 2
ENDMDL
