MODEL 1
REMARK minimizedAffinity -4.14067316
REMARK minimizedRMSD -1
REMARK  2 active torsions:
REMARK  status: ('A' for Active; 'I' for Inactive)
REMARK    1  A    between atoms: C1_2  and  C2_3 
REMARK    2  A    between atoms: C2_3  and  C3_4 
ROOT
ATOM      1  C3  UNL d   1       2.930   3.499  -0.575  0.00  0.00    -0.075 A 
ATOM      2  C4  UNL d   1       2.877   4.191   0.644  0.00  0.00     0.002 A 
ATOM      3  C5  UNL d   1       2.348   3.582   1.782  0.00  0.00     0.002 A 
ATOM      4  C6  UNL d   1       1.856   2.280   1.714  0.00  0.00    -0.004 A 
ATOM      5  C7  UNL d   1       1.888   1.590   0.505  0.00  0.00     0.002 A 
ATOM      6  C8  UNL d   1       2.421   2.195  -0.635  0.00  0.00     0.002 A 
ENDROOT
BRANCH   1   7
ATOM      7  C2  UNL d   1       3.528   4.142  -1.803  0.00  0.00     0.056 C 
BRANCH   7   8
ATOM      8  C1  UNL d   1       4.052   3.142  -2.838  0.00  0.00     0.007 C 
ATOM      9  C   UNL d   1       5.228   3.674  -3.646  0.00  0.00     0.009 C 
ENDBRANCH   7   8
ENDBRANCH   1   7
TORSDOF 2
ENDMDL
