MODEL 1
REMARK minimizedAffinity -4.62482691
REMARK minimizedRMSD -1
REMARK  2 active torsions:
REMARK  status: ('A' for Active; 'I' for Inactive)
REMARK    1  A    between atoms: C1_2  and  C2_3 
REMARK    2  A    between atoms: C2_3  and  C3_4 
ROOT
ATOM      1  C3  UNL d   1       0.520  -0.627  -0.300  0.00  0.00    -0.075 A 
ATOM      2  C4  UNL d   1      -0.346  -1.646   0.123  0.00  0.00     0.002 A 
ATOM      3  C5  UNL d   1      -1.546  -1.881  -0.549  0.00  0.00     0.002 A 
ATOM      4  C6  UNL d   1      -1.900  -1.095  -1.643  0.00  0.00    -0.004 A 
ATOM      5  C7  UNL d   1      -1.056  -0.069  -2.062  0.00  0.00     0.002 A 
ATOM      6  C8  UNL d   1       0.148   0.165  -1.394  0.00  0.00     0.002 A 
ENDROOT
BRANCH   1   7
ATOM      7  C2  UNL d   1       1.833  -0.387   0.405  0.00  0.00     0.056 C 
BRANCH   7   8
ATOM      8  C1  UNL d   1       2.500   0.945   0.044  0.00  0.00     0.007 C 
ATOM      9  C   UNL d   1       2.948   1.741   1.263  0.00  0.00     0.009 C 
ENDBRANCH   7   8
ENDBRANCH   1   7
TORSDOF 2
ENDMDL
