MODEL 1
REMARK minimizedAffinity -5.50240707
REMARK minimizedRMSD -1
REMARK  2 active torsions:
REMARK  status: ('A' for Active; 'I' for Inactive)
REMARK    1  A    between atoms: C1_2  and  C2_3 
REMARK    2  A    between atoms: C2_3  and  C3_4 
ROOT
ATOM      1  C3  UNL d   1       3.028   3.634  -0.753  0.00  0.00    -0.075 A 
ATOM      2  C4  UNL d   1       2.942   4.320   0.468  0.00  0.00     0.002 A 
ATOM      3  C5  UNL d   1       2.504   3.664   1.619  0.00  0.00     0.002 A 
ATOM      4  C6  UNL d   1       2.138   2.321   1.563  0.00  0.00    -0.004 A 
ATOM      5  C7  UNL d   1       2.203   1.635   0.352  0.00  0.00     0.002 A 
ATOM      6  C8  UNL d   1       2.645   2.287  -0.800  0.00  0.00     0.002 A 
ENDROOT
BRANCH   1   7
ATOM      7  C2  UNL d   1       3.528   4.330  -1.996  0.00  0.00     0.056 C 
BRANCH   7   8
ATOM      8  C1  UNL d   1       4.336   3.427  -2.934  0.00  0.00     0.007 C 
ATOM      9  C   UNL d   1       5.822   3.391  -2.602  0.00  0.00     0.009 C 
ENDBRANCH   7   8
ENDBRANCH   1   7
TORSDOF 2
ENDMDL
