MODEL 1
REMARK minimizedAffinity 2.83899903
REMARK minimizedRMSD -1
REMARK  0 active torsions:
REMARK  status: ('A' for Active; 'I' for Inactive)
ROOT
ATOM      1  C1  DEN d   1       1.695   0.033  -0.067  0.00  0.00     0.130 A 
ATOM      2  C2  DEN d   1       1.006   0.987  -0.932  0.00  0.00    -0.031 A 
ATOM      3  C3  DEN d   1      -0.285   1.326  -0.300  0.00  0.00     0.027 A 
ATOM      4  C4  DEN d   1      -1.276   0.476   1.924  0.00  0.00     0.027 A 
ATOM      5  C5  DEN d   1      -1.064  -0.354   3.003  0.00  0.00    -0.003 A 
ATOM      6  C6  DEN d   1       0.057  -1.132   3.116  0.00  0.00     0.001 A 
ATOM      7  C7  DEN d   1       1.032  -1.063   2.156  0.00  0.00     0.017 A 
ATOM      8  C8  DEN d   1       0.822  -0.234   1.062  0.00  0.00    -0.094 A 
ATOM      9  C9  DEN d   1      -0.313   0.554   0.971  0.00  0.00    -0.072 A 
ENDROOT
TORSDOF 0
ENDMDL
