MODEL 1
REMARK minimizedAffinity 1.29210258
REMARK minimizedRMSD -1
REMARK  0 active torsions:
REMARK  status: ('A' for Active; 'I' for Inactive)
ROOT
ATOM      1  C1  DEN d   1       5.977  -1.282   5.810  0.00  0.00     0.130 A 
ATOM      2  C2  DEN d   1       5.991  -0.340   4.695  0.00  0.00    -0.031 A 
ATOM      3  C3  DEN d   1       5.829  -1.110   3.445  0.00  0.00     0.027 A 
ATOM      4  C4  DEN d   1       5.555  -3.655   3.131  0.00  0.00     0.027 A 
ATOM      5  C5  DEN d   1       5.494  -4.867   3.784  0.00  0.00    -0.003 A 
ATOM      6  C6  DEN d   1       5.623  -4.971   5.143  0.00  0.00     0.001 A 
ATOM      7  C7  DEN d   1       5.774  -3.838   5.900  0.00  0.00     0.017 A 
ATOM      8  C8  DEN d   1       5.844  -2.614   5.248  0.00  0.00    -0.094 A 
ATOM      9  C9  DEN d   1       5.699  -2.529   3.874  0.00  0.00    -0.072 A 
ENDROOT
TORSDOF 0
ENDMDL
