MODEL 1
REMARK minimizedAffinity 8.78653622
REMARK minimizedRMSD -1
REMARK  0 active torsions:
REMARK  status: ('A' for Active; 'I' for Inactive)
ROOT
ATOM      1  C1  DEN d   1      -0.048   0.224  -1.895  0.00  0.00     0.130 A 
ATOM      2  C2  DEN d   1      -1.053  -0.832  -1.799  0.00  0.00    -0.031 A 
ATOM      3  C3  DEN d   1      -1.246  -1.149  -0.370  0.00  0.00     0.027 A 
ATOM      4  C4  DEN d   1      -0.097  -0.112   1.693  0.00  0.00     0.027 A 
ATOM      5  C5  DEN d   1       0.836   0.810   2.113  0.00  0.00    -0.003 A 
ATOM      6  C6  DEN d   1       1.558   1.571   1.232  0.00  0.00     0.001 A 
ATOM      7  C7  DEN d   1       1.327   1.456  -0.113  0.00  0.00     0.017 A 
ATOM      8  C8  DEN d   1       0.393   0.523  -0.545  0.00  0.00    -0.094 A 
ATOM      9  C9  DEN d   1      -0.336  -0.228   0.362  0.00  0.00    -0.072 A 
ENDROOT
TORSDOF 0
ENDMDL
