MODEL 1
REMARK minimizedAffinity -1.51849902
REMARK minimizedRMSD -1
REMARK  0 active torsions:
REMARK  status: ('A' for Active; 'I' for Inactive)
ROOT
ATOM      1  C1  DEN d   1       5.989  -5.357   3.686  0.00  0.00     0.130 A 
ATOM      2  C2  DEN d   1       5.942  -5.920   5.033  0.00  0.00    -0.031 A 
ATOM      3  C3  DEN d   1       5.868  -4.800   5.992  0.00  0.00     0.027 A 
ATOM      4  C4  DEN d   1       5.815  -2.264   5.526  0.00  0.00     0.027 A 
ATOM      5  C5  DEN d   1       5.845  -1.303   4.539  0.00  0.00    -0.003 A 
ATOM      6  C6  DEN d   1       5.958  -1.623   3.212  0.00  0.00     0.001 A 
ATOM      7  C7  DEN d   1       6.000  -2.938   2.832  0.00  0.00     0.017 A 
ATOM      8  C8  DEN d   1       5.978  -3.912   3.821  0.00  0.00    -0.094 A 
ATOM      9  C9  DEN d   1       5.851  -3.569   5.157  0.00  0.00    -0.072 A 
ENDROOT
TORSDOF 0
ENDMDL
