MODEL 1
REMARK minimizedAffinity 8.54297543
REMARK minimizedRMSD -1
REMARK  0 active torsions:
REMARK  status: ('A' for Active; 'I' for Inactive)
ROOT
ATOM      1  C1  DEN d   1      -6.000   2.980   3.797  0.00  0.00     0.130 A 
ATOM      2  C2  DEN d   1      -5.999   2.639   5.217  0.00  0.00    -0.031 A 
ATOM      3  C3  DEN d   1      -5.774   1.184   5.337  0.00  0.00     0.027 A 
ATOM      4  C4  DEN d   1      -5.421  -0.563   3.472  0.00  0.00     0.027 A 
ATOM      5  C5  DEN d   1      -5.351  -0.752   2.110  0.00  0.00    -0.003 A 
ATOM      6  C6  DEN d   1      -5.524   0.275   1.220  0.00  0.00     0.001 A 
ATOM      7  C7  DEN d   1      -5.732   1.548   1.685  0.00  0.00     0.017 A 
ATOM      8  C8  DEN d   1      -5.811   1.745   3.057  0.00  0.00    -0.094 A 
ATOM      9  C9  DEN d   1      -5.621   0.695   3.940  0.00  0.00    -0.072 A 
ENDROOT
TORSDOF 0
ENDMDL
