MODEL 1
REMARK minimizedAffinity 1.84307551
REMARK minimizedRMSD -1
REMARK  0 active torsions:
REMARK  status: ('A' for Active; 'I' for Inactive)
ROOT
ATOM      1  C1  DEN d   1      -2.983  -1.312  -2.661  0.00  0.00     0.130 A 
ATOM      2  C2  DEN d   1      -2.693  -0.241  -3.610  0.00  0.00    -0.031 A 
ATOM      3  C3  DEN d   1      -1.940   0.810  -2.895  0.00  0.00     0.027 A 
ATOM      4  C4  DEN d   1      -1.195   0.879  -0.427  0.00  0.00     0.027 A 
ATOM      5  C5  DEN d   1      -1.221   0.202   0.772  0.00  0.00    -0.003 A 
ATOM      6  C6  DEN d   1      -1.859  -1.001   0.919  0.00  0.00     0.001 A 
ATOM      7  C7  DEN d   1      -2.460  -1.587  -0.164  0.00  0.00     0.017 A 
ATOM      8  C8  DEN d   1      -2.446  -0.907  -1.375  0.00  0.00    -0.094 A 
ATOM      9  C9  DEN d   1      -1.784   0.303  -1.505  0.00  0.00    -0.072 A 
ENDROOT
TORSDOF 0
ENDMDL
