MODEL 1
REMARK minimizedAffinity 0.49966532
REMARK minimizedRMSD -1
REMARK  0 active torsions:
REMARK  status: ('A' for Active; 'I' for Inactive)
ROOT
ATOM      1  C1  DEN d   1       3.842  -5.063   5.968  0.00  0.00     0.130 A 
ATOM      2  C2  DEN d   1       3.537  -6.000   4.891  0.00  0.00    -0.031 A 
ATOM      3  C3  DEN d   1       4.132  -5.473   3.646  0.00  0.00     0.027 A 
ATOM      4  C4  DEN d   1       5.492  -3.312   3.285  0.00  0.00     0.027 A 
ATOM      5  C5  DEN d   1       6.000  -2.189   3.901  0.00  0.00    -0.003 A 
ATOM      6  C6  DEN d   1       5.797  -1.931   5.231  0.00  0.00     0.001 A 
ATOM      7  C7  DEN d   1       5.105  -2.830   5.999  0.00  0.00     0.017 A 
ATOM      8  C8  DEN d   1       4.584  -3.960   5.384  0.00  0.00    -0.094 A 
ATOM      9  C9  DEN d   1       4.811  -4.210   4.041  0.00  0.00    -0.072 A 
ENDROOT
TORSDOF 0
ENDMDL
