MODEL 1
REMARK minimizedAffinity 5.51096201
REMARK minimizedRMSD -1
REMARK  0 active torsions:
REMARK  status: ('A' for Active; 'I' for Inactive)
ROOT
ATOM      1  C1  DEN d   1       1.816   1.572   2.600  0.00  0.00     0.130 A 
ATOM      2  C2  DEN d   1       1.331   2.662   3.442  0.00  0.00    -0.031 A 
ATOM      3  C3  DEN d   1      -0.132   2.756   3.271  0.00  0.00     0.027 A 
ATOM      4  C4  DEN d   1      -1.689   1.321   1.797  0.00  0.00     0.027 A 
ATOM      5  C5  DEN d   1      -1.736   0.282   0.894  0.00  0.00    -0.003 A 
ATOM      6  C6  DEN d   1      -0.608  -0.372   0.474  0.00  0.00     0.001 A 
ATOM      7  C7  DEN d   1       0.611  -0.024   0.992  0.00  0.00     0.017 A 
ATOM      8  C8  DEN d   1       0.668   1.028   1.897  0.00  0.00    -0.094 A 
ATOM      9  C9  DEN d   1      -0.485   1.669   2.319  0.00  0.00    -0.072 A 
ENDROOT
TORSDOF 0
ENDMDL
