MODEL 1
REMARK minimizedAffinity 8.75718212
REMARK minimizedRMSD -1
REMARK  0 active torsions:
REMARK  status: ('A' for Active; 'I' for Inactive)
ROOT
ATOM      1  C1  DEN d   1       3.024  -0.958  -3.768  0.00  0.00     0.130 A 
ATOM      2  C2  DEN d   1       3.396  -1.999  -2.814  0.00  0.00    -0.031 A 
ATOM      3  C3  DEN d   1       3.296  -1.429  -1.455  0.00  0.00     0.027 A 
ATOM      4  C4  DEN d   1       2.600   0.949  -0.739  0.00  0.00     0.027 A 
ATOM      5  C5  DEN d   1       2.206   2.188  -1.195  0.00  0.00    -0.003 A 
ATOM      6  C6  DEN d   1       2.091   2.473  -2.529  0.00  0.00     0.001 A 
ATOM      7  C7  DEN d   1       2.329   1.493  -3.456  0.00  0.00     0.017 A 
ATOM      8  C8  DEN d   1       2.734   0.243  -3.005  0.00  0.00    -0.094 A 
ATOM      9  C9  DEN d   1       2.833  -0.029  -1.651  0.00  0.00    -0.072 A 
ENDROOT
TORSDOF 0
ENDMDL
