MODEL 1
REMARK minimizedAffinity 17.1415901
REMARK minimizedRMSD -1
REMARK  0 active torsions:
REMARK  status: ('A' for Active; 'I' for Inactive)
ROOT
ATOM      1  C1  DEN d   1       3.000   0.764   2.419  0.00  0.00     0.130 A 
ATOM      2  C2  DEN d   1       2.249  -0.197   1.615  0.00  0.00    -0.031 A 
ATOM      3  C3  DEN d   1       2.878  -1.523   1.784  0.00  0.00     0.027 A 
ATOM      4  C4  DEN d   1       4.926  -2.178   3.209  0.00  0.00     0.027 A 
ATOM      5  C5  DEN d   1       5.902  -1.703   4.056  0.00  0.00    -0.003 A 
ATOM      6  C6  DEN d   1       5.999  -0.377   4.388  0.00  0.00     0.001 A 
ATOM      7  C7  DEN d   1       5.076   0.513   3.905  0.00  0.00     0.017 A 
ATOM      8  C8  DEN d   1       4.094   0.042   3.043  0.00  0.00    -0.094 A 
ATOM      9  C9  DEN d   1       4.005  -1.303   2.730  0.00  0.00    -0.072 A 
ENDROOT
TORSDOF 0
ENDMDL
