MODEL 1
REMARK minimizedAffinity 1.33576345
REMARK minimizedRMSD -1
REMARK  0 active torsions:
REMARK  status: ('A' for Active; 'I' for Inactive)
ROOT
ATOM      1  C1  DEN d   1       5.170  -3.950   3.263  0.00  0.00     0.130 A 
ATOM      2  C2  DEN d   1       5.079  -4.917   4.354  0.00  0.00    -0.031 A 
ATOM      3  C3  DEN d   1       5.316  -4.198   5.621  0.00  0.00     0.027 A 
ATOM      4  C4  DEN d   1       5.809  -1.694   6.000  0.00  0.00     0.027 A 
ATOM      5  C5  DEN d   1       5.996  -0.480   5.376  0.00  0.00    -0.003 A 
ATOM      6  C6  DEN d   1       5.954  -0.345   4.014  0.00  0.00     0.001 A 
ATOM      7  C7  DEN d   1       5.675  -1.435   3.232  0.00  0.00     0.017 A 
ATOM      8  C8  DEN d   1       5.494  -2.664   3.852  0.00  0.00    -0.094 A 
ATOM      9  C9  DEN d   1       5.527  -2.777   5.232  0.00  0.00    -0.072 A 
ENDROOT
TORSDOF 0
ENDMDL
