MODEL 1
REMARK minimizedAffinity 5.69090462
REMARK minimizedRMSD -1
REMARK  0 active torsions:
REMARK  status: ('A' for Active; 'I' for Inactive)
ROOT
ATOM      1  C1  DEN d   1      -2.136   1.347   1.103  0.00  0.00     0.130 A 
ATOM      2  C2  DEN d   1      -1.504   0.041   0.942  0.00  0.00    -0.031 A 
ATOM      3  C3  DEN d   1      -2.480  -0.992   1.342  0.00  0.00     0.027 A 
ATOM      4  C4  DEN d   1      -4.900  -0.697   2.186  0.00  0.00     0.027 A 
ATOM      5  C5  DEN d   1      -5.875   0.224   2.500  0.00  0.00    -0.003 A 
ATOM      6  C6  DEN d   1      -5.663   1.573   2.403  0.00  0.00     0.001 A 
ATOM      7  C7  DEN d   1      -4.461   2.040   1.939  0.00  0.00     0.017 A 
ATOM      8  C8  DEN d   1      -3.471   1.118   1.628  0.00  0.00    -0.094 A 
ATOM      9  C9  DEN d   1      -3.709  -0.243   1.720  0.00  0.00    -0.072 A 
ENDROOT
TORSDOF 0
ENDMDL
