MODEL 1
REMARK minimizedAffinity 10.3154421
REMARK minimizedRMSD -1
REMARK  0 active torsions:
REMARK  status: ('A' for Active; 'I' for Inactive)
ROOT
ATOM      1  C   UNL d   1      -2.178   0.906  -4.643  0.00  0.00     0.023 A 
ATOM      2  C1  UNL d   1      -1.702   1.669  -5.710  0.00  0.00     0.003 A 
ATOM      3  C2  UNL d   1      -2.282   2.906  -5.999  0.00  0.00     0.048 A 
ATOM      4  C3  UNL d   1      -3.336   3.375  -5.216  0.00  0.00     0.023 A 
ATOM      5  C4  UNL d   1      -3.814   2.616  -4.146  0.00  0.00     0.048 A 
ATOM      6  C5  UNL d   1      -3.232   1.379  -3.862  0.00  0.00     0.003 A 
ATOM      7  I   UNL d   1      -4.201   5.216  -5.643  0.00  0.00    -0.146 I 
ENDROOT
TORSDOF 0
ENDMDL
