MODEL 1
REMARK minimizedAffinity 5.47728395
REMARK minimizedRMSD -1
REMARK  0 active torsions:
REMARK  status: ('A' for Active; 'I' for Inactive)
ROOT
ATOM      1  C   UNL d   1      -0.990   2.295   0.121  0.00  0.00     0.023 A 
ATOM      2  C1  UNL d   1      -1.633   3.338  -0.546  0.00  0.00     0.003 A 
ATOM      3  C2  UNL d   1      -0.890   4.400  -1.065  0.00  0.00     0.048 A 
ATOM      4  C3  UNL d   1       0.496   4.413  -0.914  0.00  0.00     0.023 A 
ATOM      5  C4  UNL d   1       1.144   3.372  -0.248  0.00  0.00     0.048 A 
ATOM      6  C5  UNL d   1       0.397   2.312   0.270  0.00  0.00     0.003 A 
ATOM      7  I   UNL d   1       1.604   5.993  -1.686  0.00  0.00    -0.146 I 
ENDROOT
TORSDOF 0
ENDMDL
