MODEL 1
REMARK minimizedAffinity 11.7225695
REMARK minimizedRMSD -1
REMARK  0 active torsions:
REMARK  status: ('A' for Active; 'I' for Inactive)
ROOT
ATOM      1  C   UNL d   1      -0.888   3.680   0.638  0.00  0.00     0.023 A 
ATOM      2  C1  UNL d   1       0.478   3.420   0.749  0.00  0.00     0.003 A 
ATOM      3  C2  UNL d   1       1.386   4.085  -0.078  0.00  0.00     0.048 A 
ATOM      4  C3  UNL d   1       0.921   5.009  -1.013  0.00  0.00     0.023 A 
ATOM      5  C4  UNL d   1      -0.445   5.273  -1.127  0.00  0.00     0.048 A 
ATOM      6  C5  UNL d   1      -1.349   4.605  -0.298  0.00  0.00     0.003 A 
ATOM      7  I   UNL d   1       2.270   6.000  -2.245  0.00  0.00    -0.146 I 
ENDROOT
TORSDOF 0
ENDMDL
