MODEL 1
REMARK minimizedAffinity 4.22535276
REMARK minimizedRMSD -1
REMARK  0 active torsions:
REMARK  status: ('A' for Active; 'I' for Inactive)
ROOT
ATOM      1  C   UNL d   1       0.411   1.234  -3.453  0.00  0.00     0.023 A 
ATOM      2  C1  UNL d   1      -0.193   2.288  -2.768  0.00  0.00     0.003 A 
ATOM      3  C2  UNL d   1      -1.190   3.045  -3.387  0.00  0.00     0.048 A 
ATOM      4  C3  UNL d   1      -1.578   2.742  -4.692  0.00  0.00     0.023 A 
ATOM      5  C4  UNL d   1      -0.976   1.687  -5.381  0.00  0.00     0.048 A 
ATOM      6  C5  UNL d   1       0.020   0.934  -4.758  0.00  0.00     0.003 A 
ATOM      7  I   UNL d   1      -3.061   3.867  -5.616  0.00  0.00    -0.146 I 
ENDROOT
TORSDOF 0
ENDMDL
