MODEL 1
REMARK minimizedAffinity 10.0729675
REMARK minimizedRMSD -1
REMARK  0 active torsions:
REMARK  status: ('A' for Active; 'I' for Inactive)
ROOT
ATOM      1  C   UNL d   1      -0.226  -3.754  -1.920  0.00  0.00     0.023 A 
ATOM      2  C1  UNL d   1       0.747  -3.029  -1.232  0.00  0.00     0.003 A 
ATOM      3  C2  UNL d   1       1.578  -3.671  -0.312  0.00  0.00     0.048 A 
ATOM      4  C3  UNL d   1       1.431  -5.039  -0.084  0.00  0.00     0.023 A 
ATOM      5  C4  UNL d   1       0.459  -5.769  -0.771  0.00  0.00     0.048 A 
ATOM      6  C5  UNL d   1      -0.370  -5.122  -1.689  0.00  0.00     0.003 A 
ATOM      7  I   UNL d   1       2.667  -5.997   1.285  0.00  0.00    -0.146 I 
ENDROOT
TORSDOF 0
ENDMDL
