MODEL 1
REMARK minimizedAffinity 11.7918911
REMARK minimizedRMSD -1
REMARK  0 active torsions:
REMARK  status: ('A' for Active; 'I' for Inactive)
ROOT
ATOM      1  C   UNL d   1       0.697   2.531  -1.483  0.00  0.00     0.023 A 
ATOM      2  C1  UNL d   1       0.833   2.901  -0.144  0.00  0.00     0.003 A 
ATOM      3  C2  UNL d   1      -0.302   3.111   0.642  0.00  0.00     0.048 A 
ATOM      4  C3  UNL d   1      -1.569   2.947   0.084  0.00  0.00     0.023 A 
ATOM      5  C4  UNL d   1      -1.710   2.576  -1.254  0.00  0.00     0.048 A 
ATOM      6  C5  UNL d   1      -0.572   2.369  -2.037  0.00  0.00     0.003 A 
ATOM      7  I   UNL d   1      -3.259   3.258   1.253  0.00  0.00    -0.146 I 
ENDROOT
TORSDOF 0
ENDMDL
