MODEL 1
REMARK minimizedAffinity 7.43280602
REMARK minimizedRMSD -1
REMARK  0 active torsions:
REMARK  status: ('A' for Active; 'I' for Inactive)
ROOT
ATOM      1  C   UNL d   1       1.700   5.694  -0.989  0.00  0.00     0.023 A 
ATOM      2  C1  UNL d   1       1.891   4.639  -0.097  0.00  0.00     0.003 A 
ATOM      3  C2  UNL d   1       0.799   3.883   0.336  0.00  0.00     0.048 A 
ATOM      4  C3  UNL d   1      -0.480   4.186  -0.129  0.00  0.00     0.023 A 
ATOM      5  C4  UNL d   1      -0.675   5.240  -1.023  0.00  0.00     0.048 A 
ATOM      6  C5  UNL d   1       0.419   5.994  -1.452  0.00  0.00     0.003 A 
ATOM      7  I   UNL d   1      -2.106   3.062   0.514  0.00  0.00    -0.146 I 
ENDROOT
TORSDOF 0
ENDMDL
