MODEL 1
REMARK minimizedAffinity 6.21788597
REMARK minimizedRMSD -1
REMARK  0 active torsions:
REMARK  status: ('A' for Active; 'I' for Inactive)
ROOT
ATOM      1  C   UNL d   1       1.349  -0.814  -0.555  0.00  0.00     0.023 A 
ATOM      2  C1  UNL d   1       0.741  -0.569   0.676  0.00  0.00     0.003 A 
ATOM      3  C2  UNL d   1      -0.147   0.499   0.818  0.00  0.00     0.048 A 
ATOM      4  C3  UNL d   1      -0.424   1.318  -0.277  0.00  0.00     0.023 A 
ATOM      5  C4  UNL d   1       0.181   1.076  -1.511  0.00  0.00     0.048 A 
ATOM      6  C5  UNL d   1       1.069   0.007  -1.647  0.00  0.00     0.003 A 
ATOM      7  I   UNL d   1      -1.746   2.908  -0.068  0.00  0.00    -0.146 I 
ENDROOT
TORSDOF 0
ENDMDL
