MODEL 1
REMARK minimizedAffinity 10.734211
REMARK minimizedRMSD -1
REMARK  0 active torsions:
REMARK  status: ('A' for Active; 'I' for Inactive)
ROOT
ATOM      1  C   UNL d   1      -1.386  -5.306  -4.134  0.00  0.00     0.023 A 
ATOM      2  C1  UNL d   1      -2.502  -4.933  -3.384  0.00  0.00     0.003 A 
ATOM      3  C2  UNL d   1      -3.785  -5.091  -3.913  0.00  0.00     0.048 A 
ATOM      4  C3  UNL d   1      -3.945  -5.624  -5.191  0.00  0.00     0.023 A 
ATOM      5  C4  UNL d   1      -2.831  -6.000  -5.945  0.00  0.00     0.048 A 
ATOM      6  C5  UNL d   1      -1.551  -5.839  -5.413  0.00  0.00     0.003 A 
ATOM      7  I   UNL d   1      -5.853  -5.860  -5.980  0.00  0.00    -0.146 I 
ENDROOT
TORSDOF 0
ENDMDL
