MODEL 1
REMARK minimizedAffinity 9.62195969
REMARK minimizedRMSD -1
REMARK  0 active torsions:
REMARK  status: ('A' for Active; 'I' for Inactive)
ROOT
ATOM      1  C   UNL d   1       0.221   4.120  -1.666  0.00  0.00     0.023 A 
ATOM      2  C1  UNL d   1      -0.801   3.302  -1.186  0.00  0.00     0.003 A 
ATOM      3  C2  UNL d   1      -0.600   2.530  -0.040  0.00  0.00     0.048 A 
ATOM      4  C3  UNL d   1       0.625   2.583   0.623  0.00  0.00     0.023 A 
ATOM      5  C4  UNL d   1       1.651   3.402   0.148  0.00  0.00     0.048 A 
ATOM      6  C5  UNL d   1       1.446   4.170  -0.999  0.00  0.00     0.003 A 
ATOM      7  I   UNL d   1       0.926   1.436   2.330  0.00  0.00    -0.146 I 
ENDROOT
TORSDOF 0
ENDMDL
