MODEL 1
REMARK minimizedAffinity 19.0232658
REMARK minimizedRMSD -1
REMARK  0 active torsions:
REMARK  status: ('A' for Active; 'I' for Inactive)
ROOT
ATOM      1  C   UNL d   1       1.179  -3.241  -0.200  0.00  0.00     0.023 A 
ATOM      2  C1  UNL d   1       2.375  -2.744   0.317  0.00  0.00     0.003 A 
ATOM      3  C2  UNL d   1       3.573  -3.424   0.089  0.00  0.00     0.048 A 
ATOM      4  C3  UNL d   1       3.567  -4.601  -0.659  0.00  0.00     0.023 A 
ATOM      5  C4  UNL d   1       2.373  -5.103  -1.179  0.00  0.00     0.048 A 
ATOM      6  C5  UNL d   1       1.178  -4.419  -0.947  0.00  0.00     0.003 A 
ATOM      7  I   UNL d   1       5.349  -5.616  -1.000  0.00  0.00    -0.146 I 
ENDROOT
TORSDOF 0
ENDMDL
