MODEL 1
REMARK minimizedAffinity 17.1148911
REMARK minimizedRMSD -1
REMARK  0 active torsions:
REMARK  status: ('A' for Active; 'I' for Inactive)
ROOT
ATOM      1  C   UNL d   1       6.000  -6.000  -2.601  0.00  0.00     0.023 A 
ATOM      2  C1  UNL d   1       5.274  -5.627  -3.732  0.00  0.00     0.003 A 
ATOM      3  C2  UNL d   1       3.942  -5.226  -3.608  0.00  0.00     0.048 A 
ATOM      4  C3  UNL d   1       3.343  -5.198  -2.349  0.00  0.00     0.023 A 
ATOM      5  C4  UNL d   1       4.066  -5.569  -1.214  0.00  0.00     0.048 A 
ATOM      6  C5  UNL d   1       5.397  -5.971  -1.344  0.00  0.00     0.003 A 
ATOM      7  I   UNL d   1       1.361  -4.600  -2.161  0.00  0.00    -0.146 I 
ENDROOT
TORSDOF 0
ENDMDL
