MODEL 1
REMARK minimizedAffinity 11.7100868
REMARK minimizedRMSD -1
REMARK  0 active torsions:
REMARK  status: ('A' for Active; 'I' for Inactive)
ROOT
ATOM      1  C   UNL d   1       1.566  -1.892  -0.021  0.00  0.00     0.023 A 
ATOM      2  C1  UNL d   1       2.151  -1.673  -1.268  0.00  0.00     0.003 A 
ATOM      3  C2  UNL d   1       3.423  -2.178  -1.543  0.00  0.00     0.048 A 
ATOM      4  C3  UNL d   1       4.105  -2.903  -0.566  0.00  0.00     0.023 A 
ATOM      5  C4  UNL d   1       3.524  -3.126   0.683  0.00  0.00     0.048 A 
ATOM      6  C5  UNL d   1       2.252  -2.617   0.953  0.00  0.00     0.003 A 
ATOM      7  I   UNL d   1       5.999  -3.657  -0.973  0.00  0.00    -0.146 I 
ENDROOT
TORSDOF 0
ENDMDL
