MODEL 1
REMARK minimizedAffinity 15.0439978
REMARK minimizedRMSD -1
REMARK  2 active torsions:
REMARK  status: ('A' for Active; 'I' for Inactive)
REMARK    1  A    between atoms: C2'_3  and  C1'_4 
REMARK    2  A    between atoms: C1'_4  and  C1_5 
ROOT
ATOM      1  C1  I4B d   1      -5.887   1.349  -2.866  0.00  0.00    -0.075 A 
ATOM      2  C2  I4B d   1      -5.847   0.235  -3.666  0.00  0.00     0.003 A 
ATOM      3  C3  I4B d   1      -5.863   0.369  -5.076  0.00  0.00     0.002 A 
ATOM      4  C4  I4B d   1      -5.970   1.625  -5.638  0.00  0.00    -0.004 A 
ATOM      5  C5  I4B d   1      -5.988   2.755  -4.825  0.00  0.00     0.002 A 
ATOM      6  C6  I4B d   1      -5.934   2.617  -3.430  0.00  0.00     0.003 A 
ENDROOT
BRANCH   1   7
ATOM      7  C1' I4B d   1      -5.902   1.169  -1.381  0.00  0.00     0.060 C 
BRANCH   7   8
ATOM      8  C2' I4B d   1      -4.584   1.680  -0.835  0.00  0.00    -0.013 C 
ATOM      9  C4' I4B d   1      -4.781   2.924  -0.009  0.00  0.00     0.013 C 
ATOM     10  C3' I4B d   1      -3.962   0.583  -0.023  0.00  0.00     0.013 C 
ENDBRANCH   7   8
ENDBRANCH   1   7
TORSDOF 2
ENDMDL
