MODEL 1
REMARK minimizedAffinity 9.96995068
REMARK minimizedRMSD -1
REMARK  2 active torsions:
REMARK  status: ('A' for Active; 'I' for Inactive)
REMARK    1  A    between atoms: C2'_3  and  C1'_4 
REMARK    2  A    between atoms: C1'_4  and  C1_5 
ROOT
ATOM      1  C1  I4B d   1      -0.526  -3.895   4.153  0.00  0.00    -0.075 A 
ATOM      2  C2  I4B d   1      -1.486  -4.876   4.142  0.00  0.00     0.003 A 
ATOM      3  C3  I4B d   1      -1.434  -5.935   5.081  0.00  0.00     0.002 A 
ATOM      4  C4  I4B d   1      -0.384  -5.999   5.975  0.00  0.00    -0.004 A 
ATOM      5  C5  I4B d   1       0.575  -4.991   6.000  0.00  0.00     0.002 A 
ATOM      6  C6  I4B d   1       0.497  -3.925   5.092  0.00  0.00     0.003 A 
ENDROOT
BRANCH   1   7
ATOM      7  C1' I4B d   1      -0.593  -2.809   3.126  0.00  0.00     0.060 C 
BRANCH   7   8
ATOM      8  C2' I4B d   1       0.716  -2.047   3.166  0.00  0.00    -0.013 C 
ATOM      9  C4' I4B d   1       1.515  -2.270   1.909  0.00  0.00     0.013 C 
ATOM     10  C3' I4B d   1       0.400  -0.594   3.357  0.00  0.00     0.013 C 
ENDBRANCH   7   8
ENDBRANCH   1   7
TORSDOF 2
ENDMDL
