MODEL 1
REMARK minimizedAffinity 13.8477268
REMARK minimizedRMSD -1
REMARK  0 active torsions:
REMARK  status: ('A' for Active; 'I' for Inactive)
ROOT
ATOM      1  C   UNL d   1       1.600  -3.327   0.427  0.00  0.00     0.124 A 
ATOM      2  C1  UNL d   1       1.700  -1.943   0.384  0.00  0.00     0.062 A 
ATOM      3  C2  UNL d   1       0.694  -1.152   0.932  0.00  0.00     0.162 A 
ATOM      4  C3  UNL d   1      -0.419  -1.743   1.530  0.00  0.00    -0.034 A 
ATOM      5  C4  UNL d   1      -0.512  -3.135   1.568  0.00  0.00     0.162 A 
ATOM      6  C5  UNL d   1       0.495  -3.922   1.019  0.00  0.00     0.062 A 
ATOM      7  F   UNL d   1       0.398  -5.258   1.061  0.00  0.00    -0.097 F 
ATOM      8  F1  UNL d   1      -1.569  -3.736   2.135  0.00  0.00    -0.096 F 
ATOM      9  I   UNL d   1      -1.924  -0.563   2.351  0.00  0.00    -0.060 I 
ATOM     10  F2  UNL d   1       0.816   0.182   0.877  0.00  0.00    -0.096 F 
ATOM     11  F3  UNL d   1       2.766  -1.366  -0.188  0.00  0.00    -0.097 F 
ATOM     12  F4  UNL d   1       2.569  -4.086  -0.102  0.00  0.00    -0.092 F 
ENDROOT
TORSDOF 0
ENDMDL
