MODEL 1
REMARK minimizedAffinity 14.1435814
REMARK minimizedRMSD -1
REMARK  0 active torsions:
REMARK  status: ('A' for Active; 'I' for Inactive)
ROOT
ATOM      1  C   UNL d   1       2.150  -0.728   0.696  0.00  0.00     0.124 A 
ATOM      2  C1  UNL d   1       1.803  -1.934   1.289  0.00  0.00     0.062 A 
ATOM      3  C2  UNL d   1       2.759  -2.931   1.458  0.00  0.00     0.162 A 
ATOM      4  C3  UNL d   1       4.073  -2.726   1.034  0.00  0.00    -0.034 A 
ATOM      5  C4  UNL d   1       4.414  -1.511   0.438  0.00  0.00     0.162 A 
ATOM      6  C5  UNL d   1       3.454  -0.517   0.271  0.00  0.00     0.062 A 
ATOM      7  F   UNL d   1       3.791   0.647  -0.302  0.00  0.00    -0.097 F 
ATOM      8  F1  UNL d   1       5.667  -1.281   0.019  0.00  0.00    -0.096 F 
ATOM      9  I   UNL d   1       5.505  -4.215   1.285  0.00  0.00    -0.060 I 
ATOM     10  F2  UNL d   1       2.396  -4.087   2.034  0.00  0.00    -0.096 F 
ATOM     11  F3  UNL d   1       0.544  -2.140   1.699  0.00  0.00    -0.097 F 
ATOM     12  F4  UNL d   1       1.228   0.230   0.533  0.00  0.00    -0.092 F 
ENDROOT
TORSDOF 0
ENDMDL
