MODEL 1
REMARK minimizedAffinity 14.2082424
REMARK minimizedRMSD -1
REMARK  0 active torsions:
REMARK  status: ('A' for Active; 'I' for Inactive)
ROOT
ATOM      1  C   UNL d   1       2.495   4.201   3.591  0.00  0.00     0.124 A 
ATOM      2  C1  UNL d   1       1.576   3.356   2.987  0.00  0.00     0.062 A 
ATOM      3  C2  UNL d   1       0.243   3.370   3.386  0.00  0.00     0.162 A 
ATOM      4  C3  UNL d   1      -0.180   4.235   4.396  0.00  0.00    -0.034 A 
ATOM      5  C4  UNL d   1       0.751   5.082   5.000  0.00  0.00     0.162 A 
ATOM      6  C5  UNL d   1       2.082   5.064   4.597  0.00  0.00     0.062 A 
ATOM      7  F   UNL d   1       2.969   5.882   5.183  0.00  0.00    -0.097 F 
ATOM      8  F1  UNL d   1       0.379   5.926   5.974  0.00  0.00    -0.096 F 
ATOM      9  I   UNL d   1      -2.172   4.260   4.997  0.00  0.00    -0.060 I 
ATOM     10  F2  UNL d   1      -0.624   2.542   2.785  0.00  0.00    -0.096 F 
ATOM     11  F3  UNL d   1       1.973   2.521   2.015  0.00  0.00    -0.097 F 
ATOM     12  F4  UNL d   1       3.778   4.185   3.205  0.00  0.00    -0.092 F 
ENDROOT
TORSDOF 0
ENDMDL
