MODEL 1
REMARK minimizedAffinity 25.7643147
REMARK minimizedRMSD -1
REMARK  0 active torsions:
REMARK  status: ('A' for Active; 'I' for Inactive)
ROOT
ATOM      1  C   UNL d   1       2.176  -2.742   0.061  0.00  0.00     0.124 A 
ATOM      2  C1  UNL d   1       0.965  -2.555   0.714  0.00  0.00     0.062 A 
ATOM      3  C2  UNL d   1       0.904  -1.777   1.866  0.00  0.00     0.162 A 
ATOM      4  C3  UNL d   1       2.058  -1.179   2.374  0.00  0.00    -0.034 A 
ATOM      5  C4  UNL d   1       3.272  -1.372   1.712  0.00  0.00     0.162 A 
ATOM      6  C5  UNL d   1       3.328  -2.151   0.561  0.00  0.00     0.062 A 
ATOM      7  F   UNL d   1       4.498  -2.331  -0.068  0.00  0.00    -0.097 F 
ATOM      8  F1  UNL d   1       4.400  -0.812   2.173  0.00  0.00    -0.096 F 
ATOM      9  I   UNL d   1       1.970  -0.014   4.096  0.00  0.00    -0.060 I 
ATOM     10  F2  UNL d   1      -0.279  -1.613   2.476  0.00  0.00    -0.096 F 
ATOM     11  F3  UNL d   1      -0.149  -3.126   0.234  0.00  0.00    -0.097 F 
ATOM     12  F4  UNL d   1       2.232  -3.492  -1.047  0.00  0.00    -0.092 F 
ENDROOT
TORSDOF 0
ENDMDL
