MODEL 1
REMARK minimizedAffinity 27.5973816
REMARK minimizedRMSD -1
REMARK  0 active torsions:
REMARK  status: ('A' for Active; 'I' for Inactive)
ROOT
ATOM      1  C   UNL d   1       1.882   3.779   3.027  0.00  0.00     0.124 A 
ATOM      2  C1  UNL d   1       1.836   4.594   4.149  0.00  0.00     0.062 A 
ATOM      3  C2  UNL d   1       2.993   5.215   4.611  0.00  0.00     0.162 A 
ATOM      4  C3  UNL d   1       4.207   5.023   3.950  0.00  0.00    -0.034 A 
ATOM      5  C4  UNL d   1       4.245   4.201   2.823  0.00  0.00     0.162 A 
ATOM      6  C5  UNL d   1       3.086   3.583   2.365  0.00  0.00     0.062 A 
ATOM      7  F   UNL d   1       3.132   2.795   1.281  0.00  0.00    -0.097 F 
ATOM      8  F1  UNL d   1       5.394   3.995   2.163  0.00  0.00    -0.096 F 
ATOM      9  I   UNL d   1       5.939   5.949   4.637  0.00  0.00    -0.060 I 
ATOM     10  F2  UNL d   1       2.920   5.998   5.698  0.00  0.00    -0.096 F 
ATOM     11  F3  UNL d   1       0.675   4.785   4.791  0.00  0.00    -0.097 F 
ATOM     12  F4  UNL d   1       0.767   3.182   2.585  0.00  0.00    -0.092 F 
ENDROOT
TORSDOF 0
ENDMDL
