MODEL 1
REMARK minimizedAffinity 15.0770092
REMARK minimizedRMSD -1
REMARK  0 active torsions:
REMARK  status: ('A' for Active; 'I' for Inactive)
ROOT
ATOM      1  C   UNL d   1       1.263   4.174   3.818  0.00  0.00     0.124 A 
ATOM      2  C1  UNL d   1       2.147   3.725   2.847  0.00  0.00     0.062 A 
ATOM      3  C2  UNL d   1       3.500   4.041   2.932  0.00  0.00     0.162 A 
ATOM      4  C3  UNL d   1       3.978   4.810   3.993  0.00  0.00    -0.034 A 
ATOM      5  C4  UNL d   1       3.082   5.259   4.966  0.00  0.00     0.162 A 
ATOM      6  C5  UNL d   1       1.731   4.940   4.876  0.00  0.00     0.062 A 
ATOM      7  F   UNL d   1       0.878   5.375   5.816  0.00  0.00    -0.097 F 
ATOM      8  F1  UNL d   1       3.508   6.000   6.000  0.00  0.00    -0.096 F 
ATOM      9  I   UNL d   1       6.000   5.284   4.124  0.00  0.00    -0.060 I 
ATOM     10  F2  UNL d   1       4.331   3.594   1.979  0.00  0.00    -0.096 F 
ATOM     11  F3  UNL d   1       1.697   2.986   1.823  0.00  0.00    -0.097 F 
ATOM     12  F4  UNL d   1      -0.039   3.870   3.733  0.00  0.00    -0.092 F 
ENDROOT
TORSDOF 0
ENDMDL
