MODEL 1
REMARK minimizedAffinity 18.6887512
REMARK minimizedRMSD -1
REMARK  0 active torsions:
REMARK  status: ('A' for Active; 'I' for Inactive)
ROOT
ATOM      1  C   UNL d   1      -0.504  -3.556   1.729  0.00  0.00     0.124 A 
ATOM      2  C1  UNL d   1       0.017  -2.479   2.433  0.00  0.00     0.062 A 
ATOM      3  C2  UNL d   1       1.354  -2.124   2.281  0.00  0.00     0.162 A 
ATOM      4  C3  UNL d   1       2.180  -2.846   1.419  0.00  0.00    -0.034 A 
ATOM      5  C4  UNL d   1       1.650  -3.928   0.715  0.00  0.00     0.162 A 
ATOM      6  C5  UNL d   1       0.312  -4.279   0.870  0.00  0.00     0.062 A 
ATOM      7  F   UNL d   1      -0.189  -5.319   0.189  0.00  0.00    -0.097 F 
ATOM      8  F1  UNL d   1       2.416  -4.643  -0.122  0.00  0.00    -0.096 F 
ATOM      9  I   UNL d   1       4.180  -2.318   1.189  0.00  0.00    -0.060 I 
ATOM     10  F2  UNL d   1       1.831  -1.080   2.974  0.00  0.00    -0.096 F 
ATOM     11  F3  UNL d   1      -0.770  -1.780   3.264  0.00  0.00    -0.097 F 
ATOM     12  F4  UNL d   1      -1.791  -3.896   1.878  0.00  0.00    -0.092 F 
ENDROOT
TORSDOF 0
ENDMDL
