MODEL 1
REMARK minimizedAffinity 27.2174416
REMARK minimizedRMSD -1
REMARK  0 active torsions:
REMARK  status: ('A' for Active; 'I' for Inactive)
ROOT
ATOM      1  C   UNL d   1      -3.973  -1.251  -2.215  0.00  0.00     0.124 A 
ATOM      2  C1  UNL d   1      -2.939  -0.362  -1.955  0.00  0.00     0.062 A 
ATOM      3  C2  UNL d   1      -2.929   0.895  -2.551  0.00  0.00     0.162 A 
ATOM      4  C3  UNL d   1      -3.958   1.273  -3.414  0.00  0.00    -0.034 A 
ATOM      5  C4  UNL d   1      -4.995   0.374  -3.672  0.00  0.00     0.162 A 
ATOM      6  C5  UNL d   1      -5.000  -0.882  -3.073  0.00  0.00     0.062 A 
ATOM      7  F   UNL d   1      -6.000  -1.739  -3.326  0.00  0.00    -0.097 F 
ATOM      8  F1  UNL d   1      -6.000   0.704  -4.496  0.00  0.00    -0.096 F 
ATOM      9  I   UNL d   1      -3.948   3.152  -4.308  0.00  0.00    -0.060 I 
ATOM     10  F2  UNL d   1      -1.917   1.733  -2.282  0.00  0.00    -0.096 F 
ATOM     11  F3  UNL d   1      -1.945  -0.717  -1.127  0.00  0.00    -0.097 F 
ATOM     12  F4  UNL d   1      -3.979  -2.460  -1.641  0.00  0.00    -0.092 F 
ENDROOT
TORSDOF 0
ENDMDL
