MODEL 1
REMARK minimizedAffinity 1.19685757
REMARK minimizedRMSD -1
REMARK  2 active torsions:
REMARK  status: ('A' for Active; 'I' for Inactive)
REMARK    1  A    between atoms: C1_2  and  C2_3 
REMARK    2  A    between atoms: C2_3  and  C3_4 
ROOT
ATOM      1  C3  UNL d   1       3.460  -1.739   4.115  0.00  0.00    -0.075 A 
ATOM      2  C4  UNL d   1       3.598  -2.123   5.457  0.00  0.00     0.002 A 
ATOM      3  C5  UNL d   1       4.861  -2.358   6.000  0.00  0.00     0.002 A 
ATOM      4  C6  UNL d   1       5.999  -2.223   5.208  0.00  0.00    -0.004 A 
ATOM      5  C7  UNL d   1       5.873  -1.858   3.870  0.00  0.00     0.002 A 
ATOM      6  C8  UNL d   1       4.611  -1.618   3.324  0.00  0.00     0.002 A 
ENDROOT
BRANCH   1   7
ATOM      7  C2  UNL d   1       2.098  -1.455   3.529  0.00  0.00     0.056 C 
BRANCH   7   8
ATOM      8  C1  UNL d   1       2.135  -0.928   2.090  0.00  0.00     0.007 C 
ATOM      9  C   UNL d   1       2.811   0.431   1.966  0.00  0.00     0.009 C 
ENDBRANCH   7   8
ENDBRANCH   1   7
TORSDOF 2
ENDMDL
