MODEL 1
REMARK minimizedAffinity 3.62395215
REMARK minimizedRMSD -1
REMARK  2 active torsions:
REMARK  status: ('A' for Active; 'I' for Inactive)
REMARK    1  A    between atoms: C1_2  and  C2_3 
REMARK    2  A    between atoms: C2_3  and  C3_4 
ROOT
ATOM      1  C3  UNL d   1       2.363  -0.313   3.295  0.00  0.00    -0.075 A 
ATOM      2  C4  UNL d   1       3.052   0.207   2.190  0.00  0.00     0.002 A 
ATOM      3  C5  UNL d   1       3.320   1.574   2.102  0.00  0.00     0.002 A 
ATOM      4  C6  UNL d   1       2.893   2.437   3.109  0.00  0.00    -0.004 A 
ATOM      5  C7  UNL d   1       2.192   1.932   4.203  0.00  0.00     0.002 A 
ATOM      6  C8  UNL d   1       1.928   0.565   4.296  0.00  0.00     0.002 A 
ENDROOT
BRANCH   1   7
ATOM      7  C2  UNL d   1       2.096  -1.795   3.410  0.00  0.00     0.056 C 
BRANCH   7   8
ATOM      8  C1  UNL d   1       3.282  -2.602   3.949  0.00  0.00     0.007 C 
ATOM      9  C   UNL d   1       2.932  -4.052   4.257  0.00  0.00     0.009 C 
ENDBRANCH   7   8
ENDBRANCH   1   7
TORSDOF 2
ENDMDL
