MODEL 1
REMARK minimizedAffinity 13.1592636
REMARK minimizedRMSD -1
REMARK  2 active torsions:
REMARK  status: ('A' for Active; 'I' for Inactive)
REMARK    1  A    between atoms: C1_2  and  C2_3 
REMARK    2  A    between atoms: C2_3  and  C3_4 
ROOT
ATOM      1  C3  UNL d   1       2.473   2.389   0.873  0.00  0.00    -0.075 A 
ATOM      2  C4  UNL d   1       1.352   2.280   1.708  0.00  0.00     0.002 A 
ATOM      3  C5  UNL d   1       1.058   1.076   2.347  0.00  0.00     0.002 A 
ATOM      4  C6  UNL d   1       1.875  -0.036   2.153  0.00  0.00    -0.004 A 
ATOM      5  C7  UNL d   1       2.982   0.055   1.312  0.00  0.00     0.002 A 
ATOM      6  C8  UNL d   1       3.281   1.261   0.675  0.00  0.00     0.002 A 
ENDROOT
BRANCH   1   7
ATOM      7  C2  UNL d   1       2.813   3.698   0.202  0.00  0.00     0.056 C 
BRANCH   7   8
ATOM      8  C1  UNL d   1       1.914   4.039  -0.991  0.00  0.00     0.007 C 
ATOM      9  C   UNL d   1       0.625   4.744  -0.590  0.00  0.00     0.009 C 
ENDBRANCH   7   8
ENDBRANCH   1   7
TORSDOF 2
ENDMDL
