MODEL 1
REMARK minimizedAffinity 0.424774826
REMARK minimizedRMSD -1
REMARK  2 active torsions:
REMARK  status: ('A' for Active; 'I' for Inactive)
REMARK    1  A    between atoms: C1_2  and  C2_3 
REMARK    2  A    between atoms: C2_3  and  C3_4 
ROOT
ATOM      1  C3  UNL d   1       1.873  -2.973   4.204  0.00  0.00    -0.075 A 
ATOM      2  C4  UNL d   1       2.489  -3.538   3.078  0.00  0.00     0.002 A 
ATOM      3  C5  UNL d   1       2.823  -2.744   1.980  0.00  0.00     0.002 A 
ATOM      4  C6  UNL d   1       2.536  -1.381   1.990  0.00  0.00    -0.004 A 
ATOM      5  C7  UNL d   1       1.909  -0.812   3.096  0.00  0.00     0.002 A 
ATOM      6  C8  UNL d   1       1.578  -1.603   4.198  0.00  0.00     0.002 A 
ENDROOT
BRANCH   1   7
ATOM      7  C2  UNL d   1       1.536  -3.821   5.407  0.00  0.00     0.056 C 
BRANCH   7   8
ATOM      8  C1  UNL d   1       0.156  -4.484   5.336  0.00  0.00     0.007 C 
ATOM      9  C   UNL d   1       0.225  -5.998   5.191  0.00  0.00     0.009 C 
ENDBRANCH   7   8
ENDBRANCH   1   7
TORSDOF 2
ENDMDL
