MODEL 1
REMARK minimizedAffinity 5.24751997
REMARK minimizedRMSD -1
REMARK  2 active torsions:
REMARK  status: ('A' for Active; 'I' for Inactive)
REMARK    1  A    between atoms: C1_2  and  C2_3 
REMARK    2  A    between atoms: C2_3  and  C3_4 
ROOT
ATOM      1  C3  UNL d   1       1.592  -1.074   0.863  0.00  0.00    -0.075 A 
ATOM      2  C4  UNL d   1       0.265  -0.628   0.935  0.00  0.00     0.002 A 
ATOM      3  C5  UNL d   1      -0.602  -0.808  -0.143  0.00  0.00     0.002 A 
ATOM      4  C6  UNL d   1      -0.152  -1.424  -1.309  0.00  0.00    -0.004 A 
ATOM      5  C7  UNL d   1       1.170  -1.856  -1.397  0.00  0.00     0.002 A 
ATOM      6  C8  UNL d   1       2.038  -1.682  -0.318  0.00  0.00     0.002 A 
ENDROOT
BRANCH   1   7
ATOM      7  C2  UNL d   1       2.527  -0.910   2.037  0.00  0.00     0.056 C 
BRANCH   7   8
ATOM      8  C1  UNL d   1       2.283  -1.909   3.173  0.00  0.00     0.007 C 
ATOM      9  C   UNL d   1       2.881  -3.283   2.904  0.00  0.00     0.009 C 
ENDBRANCH   7   8
ENDBRANCH   1   7
TORSDOF 2
ENDMDL
