MODEL 1
REMARK minimizedAffinity 6.69723988
REMARK minimizedRMSD -1
REMARK  0 active torsions:
REMARK  status: ('A' for Active; 'I' for Inactive)
ROOT
ATOM      1  C   UNL d   1       0.805  -1.869  -2.681  0.00  0.00    -0.002 A 
ATOM      2  C1  UNL d   1      -0.533  -1.521  -2.567  0.00  0.00     0.010 A 
ATOM      3  C2  UNL d   1      -1.184  -1.596  -1.334  0.00  0.00     0.041 A 
ATOM      4  C3  UNL d   1      -0.459  -2.029  -0.206  0.00  0.00    -0.075 A 
ATOM      5  S   UNL d   1      -1.048  -2.199   1.405  0.00  0.00     0.015 SA
ATOM      6  C4  UNL d   1       0.464  -2.736   1.981  0.00  0.00     0.022 A 
ATOM      7  C5  UNL d   1       1.406  -2.791   0.981  0.00  0.00     0.026 A 
ATOM      8  C6  UNL d   1       0.890  -2.384  -0.296  0.00  0.00    -0.082 A 
ATOM      9  C7  UNL d   1       1.521  -2.298  -1.560  0.00  0.00     0.045 A 
ENDROOT
TORSDOF 0
ENDMDL
