MODEL 1
REMARK minimizedAffinity 7.1661067
REMARK minimizedRMSD -1
REMARK  0 active torsions:
REMARK  status: ('A' for Active; 'I' for Inactive)
ROOT
ATOM      1  C   UNL d   1       1.410  -2.256   2.271  0.00  0.00    -0.002 A 
ATOM      2  C1  UNL d   1       2.540  -1.734   1.657  0.00  0.00     0.010 A 
ATOM      3  C2  UNL d   1       2.590  -1.588   0.269  0.00  0.00     0.041 A 
ATOM      4  C3  UNL d   1       1.474  -1.977  -0.498  0.00  0.00    -0.075 A 
ATOM      5  S   UNL d   1       1.309  -1.888  -2.212  0.00  0.00     0.015 SA
ATOM      6  C4  UNL d   1      -0.265  -2.540  -2.169  0.00  0.00     0.022 A 
ATOM      7  C5  UNL d   1      -0.670  -2.825  -0.886  0.00  0.00     0.026 A 
ATOM      8  C6  UNL d   1       0.325  -2.504   0.098  0.00  0.00    -0.082 A 
ATOM      9  C7  UNL d   1       0.305  -2.641   1.507  0.00  0.00     0.045 A 
ENDROOT
TORSDOF 0
ENDMDL
