MODEL 1
REMARK minimizedAffinity 7.74345064
REMARK minimizedRMSD -1
REMARK  0 active torsions:
REMARK  status: ('A' for Active; 'I' for Inactive)
ROOT
ATOM      1  C   UNL d   1       2.990  -3.056   2.755  0.00  0.00    -0.002 A 
ATOM      2  C1  UNL d   1       1.677  -3.298   2.376  0.00  0.00     0.010 A 
ATOM      3  C2  UNL d   1       0.963  -2.349   1.641  0.00  0.00     0.041 A 
ATOM      4  C3  UNL d   1       1.598  -1.143   1.288  0.00  0.00    -0.075 A 
ATOM      5  S   UNL d   1       0.921   0.164   0.389  0.00  0.00     0.015 SA
ATOM      6  C4  UNL d   1       2.359   1.074   0.486  0.00  0.00     0.022 A 
ATOM      7  C5  UNL d   1       3.342   0.412   1.183  0.00  0.00     0.026 A 
ATOM      8  C6  UNL d   1       2.920  -0.876   1.656  0.00  0.00    -0.082 A 
ATOM      9  C7  UNL d   1       3.617  -1.858   2.402  0.00  0.00     0.045 A 
ENDROOT
TORSDOF 0
ENDMDL
