MODEL 1
REMARK minimizedAffinity 3.36710405
REMARK minimizedRMSD -1
REMARK  0 active torsions:
REMARK  status: ('A' for Active; 'I' for Inactive)
ROOT
ATOM      1  C   UNL d   1       2.946   0.190   1.583  0.00  0.00    -0.002 A 
ATOM      2  C1  UNL d   1       2.201   1.305   1.228  0.00  0.00     0.010 A 
ATOM      3  C2  UNL d   1       0.839   1.187   0.941  0.00  0.00     0.041 A 
ATOM      4  C3  UNL d   1       0.233  -0.083   1.020  0.00  0.00    -0.075 A 
ATOM      5  S   UNL d   1      -1.419  -0.467   0.714  0.00  0.00     0.015 SA
ATOM      6  C4  UNL d   1      -1.174  -2.120   1.048  0.00  0.00     0.022 A 
ATOM      7  C5  UNL d   1       0.130  -2.390   1.386  0.00  0.00     0.026 A 
ATOM      8  C6  UNL d   1       0.963  -1.220   1.376  0.00  0.00    -0.082 A 
ATOM      9  C7  UNL d   1       2.342  -1.068   1.660  0.00  0.00     0.045 A 
ENDROOT
TORSDOF 0
ENDMDL
