MODEL 1
REMARK minimizedAffinity 17.8738003
REMARK minimizedRMSD -1
REMARK  0 active torsions:
REMARK  status: ('A' for Active; 'I' for Inactive)
ROOT
ATOM      1  C   UNL d   1      -0.965  -2.753  -1.223  0.00  0.00    -0.002 A 
ATOM      2  C1  UNL d   1       0.317  -3.171  -1.553  0.00  0.00     0.010 A 
ATOM      3  C2  UNL d   1       1.429  -2.636  -0.899  0.00  0.00     0.041 A 
ATOM      4  C3  UNL d   1       1.229  -1.666   0.103  0.00  0.00    -0.075 A 
ATOM      5  S   UNL d   1       2.441  -0.873   1.037  0.00  0.00     0.015 SA
ATOM      6  C4  UNL d   1       1.287   0.040   1.897  0.00  0.00     0.022 A 
ATOM      7  C5  UNL d   1       0.003  -0.242   1.494  0.00  0.00     0.026 A 
ATOM      8  C6  UNL d   1      -0.051  -1.230   0.453  0.00  0.00    -0.082 A 
ATOM      9  C7  UNL d   1      -1.159  -1.790  -0.228  0.00  0.00     0.045 A 
ENDROOT
TORSDOF 0
ENDMDL
