MODEL 1
REMARK minimizedAffinity 16.2457237
REMARK minimizedRMSD -1
REMARK  0 active torsions:
REMARK  status: ('A' for Active; 'I' for Inactive)
ROOT
ATOM      1  C   UNL d   1      -4.413   1.649   2.130  0.00  0.00    -0.002 A 
ATOM      2  C1  UNL d   1      -5.627   2.301   1.965  0.00  0.00     0.010 A 
ATOM      3  C2  UNL d   1      -5.984   2.835   0.725  0.00  0.00     0.041 A 
ATOM      4  C3  UNL d   1      -5.092   2.701  -0.357  0.00  0.00    -0.075 A 
ATOM      5  S   UNL d   1      -5.317   3.276  -1.967  0.00  0.00     0.015 SA
ATOM      6  C4  UNL d   1      -3.807   2.669  -2.474  0.00  0.00     0.022 A 
ATOM      7  C5  UNL d   1      -3.134   2.041  -1.453  0.00  0.00     0.026 A 
ATOM      8  C6  UNL d   1      -3.864   2.049  -0.216  0.00  0.00    -0.082 A 
ATOM      9  C7  UNL d   1      -3.531   1.518   1.054  0.00  0.00     0.045 A 
ENDROOT
TORSDOF 0
ENDMDL
