MODEL 1
REMARK minimizedAffinity 8.51145172
REMARK minimizedRMSD -1
REMARK  0 active torsions:
REMARK  status: ('A' for Active; 'I' for Inactive)
ROOT
ATOM      1  C   UNL d   1      -4.492   1.876   2.307  0.00  0.00    -0.002 A 
ATOM      2  C1  UNL d   1      -5.552   2.769   2.250  0.00  0.00     0.010 A 
ATOM      3  C2  UNL d   1      -5.796   3.509   1.092  0.00  0.00     0.041 A 
ATOM      4  C3  UNL d   1      -4.950   3.332  -0.021  0.00  0.00    -0.075 A 
ATOM      5  S   UNL d   1      -5.058   4.129  -1.546  0.00  0.00     0.015 SA
ATOM      6  C4  UNL d   1      -3.700   3.301  -2.159  0.00  0.00     0.022 A 
ATOM      7  C5  UNL d   1      -3.165   2.434  -1.236  0.00  0.00     0.026 A 
ATOM      8  C6  UNL d   1      -3.877   2.437   0.012  0.00  0.00    -0.082 A 
ATOM      9  C7  UNL d   1      -3.655   1.703   1.201  0.00  0.00     0.045 A 
ENDROOT
TORSDOF 0
ENDMDL
