MODEL 1
REMARK minimizedAffinity 5.41000032
REMARK minimizedRMSD -1
REMARK  0 active torsions:
REMARK  status: ('A' for Active; 'I' for Inactive)
ROOT
ATOM      1  C   UNL d   1       3.098  -2.031   0.918  0.00  0.00    -0.002 A 
ATOM      2  C1  UNL d   1       3.346  -0.685   1.147  0.00  0.00     0.010 A 
ATOM      3  C2  UNL d   1       2.291   0.208   1.346  0.00  0.00     0.041 A 
ATOM      4  C3  UNL d   1       0.970  -0.279   1.312  0.00  0.00    -0.075 A 
ATOM      5  S   UNL d   1      -0.479   0.629   1.530  0.00  0.00     0.015 SA
ATOM      6  C4  UNL d   1      -1.462  -0.748   1.325  0.00  0.00     0.022 A 
ATOM      7  C5  UNL d   1      -0.719  -1.882   1.095  0.00  0.00     0.026 A 
ATOM      8  C6  UNL d   1       0.694  -1.631   1.084  0.00  0.00    -0.082 A 
ATOM      9  C7  UNL d   1       1.785  -2.511   0.885  0.00  0.00     0.045 A 
ENDROOT
TORSDOF 0
ENDMDL
