MODEL 1
REMARK minimizedAffinity 19.8722591
REMARK minimizedRMSD -1
REMARK  0 active torsions:
REMARK  status: ('A' for Active; 'I' for Inactive)
ROOT
ATOM      1  C   UNL d   1       2.234  -0.768   1.611  0.00  0.00    -0.002 A 
ATOM      2  C1  UNL d   1       3.410  -0.129   1.245  0.00  0.00     0.010 A 
ATOM      3  C2  UNL d   1       3.847  -0.151  -0.082  0.00  0.00     0.041 A 
ATOM      4  C3  UNL d   1       3.073  -0.831  -1.042  0.00  0.00    -0.075 A 
ATOM      5  S   UNL d   1       3.410  -0.990  -2.726  0.00  0.00     0.015 SA
ATOM      6  C4  UNL d   1       2.000  -1.909  -2.998  0.00  0.00     0.022 A 
ATOM      7  C5  UNL d   1       1.278  -2.099  -1.843  0.00  0.00     0.026 A 
ATOM      8  C6  UNL d   1       1.884  -1.481  -0.697  0.00  0.00    -0.082 A 
ATOM      9  C7  UNL d   1       1.469  -1.441   0.655  0.00  0.00     0.045 A 
ENDROOT
TORSDOF 0
ENDMDL
