MODEL 1
REMARK minimizedAffinity -0.282945573
REMARK minimizedRMSD -1
REMARK  1 active torsions:
REMARK  status: ('A' for Active; 'I' for Inactive)
REMARK    1  A    between atoms: C1_2  and  C2_3 
ROOT
ATOM      1  C2  UNL d   1      -1.982   1.508   0.043  0.00  0.00    -0.077 A 
ATOM      2  C3  UNL d   1      -1.853   0.309   0.758  0.00  0.00     0.002 A 
ATOM      3  C4  UNL d   1      -0.640  -0.025   1.364  0.00  0.00     0.002 A 
ATOM      4  C5  UNL d   1       0.451   0.837   1.265  0.00  0.00    -0.004 A 
ATOM      5  C6  UNL d   1       0.333   2.030   0.554  0.00  0.00     0.002 A 
ATOM      6  C7  UNL d   1      -0.878   2.365  -0.053  0.00  0.00     0.002 A 
ENDROOT
BRANCH   1   7
ATOM      7  C1  UNL d   1      -3.303   1.893  -0.570  0.00  0.00     0.055 C 
ATOM      8  C   UNL d   1      -4.469   1.418   0.284  0.00  0.00     0.019 C 
ENDBRANCH   1   7
TORSDOF 1
ENDMDL
