MODEL 1
REMARK minimizedAffinity -0.504308939
REMARK minimizedRMSD -1
REMARK  1 active torsions:
REMARK  status: ('A' for Active; 'I' for Inactive)
REMARK    1  A    between atoms: C1_2  and  C2_3 
ROOT
ATOM      1  C2  UNL d   1      -0.904   1.175   1.348  0.00  0.00    -0.077 A 
ATOM      2  C3  UNL d   1      -1.867   0.164   1.471  0.00  0.00     0.002 A 
ATOM      3  C4  UNL d   1      -3.116   0.300   0.861  0.00  0.00     0.002 A 
ATOM      4  C5  UNL d   1      -3.411   1.443   0.121  0.00  0.00    -0.004 A 
ATOM      5  C6  UNL d   1      -2.461   2.455  -0.005  0.00  0.00     0.002 A 
ATOM      6  C7  UNL d   1      -1.212   2.321   0.604  0.00  0.00     0.002 A 
ENDROOT
BRANCH   1   7
ATOM      7  C1  UNL d   1       0.460   1.008   1.964  0.00  0.00     0.055 C 
ATOM      8  C   UNL d   1       1.555   1.484   1.020  0.00  0.00     0.019 C 
ENDBRANCH   1   7
TORSDOF 1
ENDMDL
