MODEL 1
REMARK minimizedAffinity -5.4368186
REMARK minimizedRMSD -1
REMARK  1 active torsions:
REMARK  status: ('A' for Active; 'I' for Inactive)
REMARK    1  A    between atoms: C1_2  and  C2_3 
ROOT
ATOM      1  C2  UNL d   1      -2.365   1.855  -0.216  0.00  0.00    -0.077 A 
ATOM      2  C3  UNL d   1      -2.403   0.742   0.635  0.00  0.00     0.002 A 
ATOM      3  C4  UNL d   1      -1.219   0.195   1.136  0.00  0.00     0.002 A 
ATOM      4  C5  UNL d   1       0.009   0.757   0.793  0.00  0.00    -0.004 A 
ATOM      5  C6  UNL d   1       0.057   1.862  -0.055  0.00  0.00     0.002 A 
ATOM      6  C7  UNL d   1      -1.124   2.410  -0.557  0.00  0.00     0.002 A 
ENDROOT
BRANCH   1   7
ATOM      7  C1  UNL d   1      -3.642   2.477  -0.717  0.00  0.00     0.055 C 
ATOM      8  C   UNL d   1      -4.795   2.224   0.243  0.00  0.00     0.019 C 
ENDBRANCH   1   7
TORSDOF 1
ENDMDL
