MODEL 1
REMARK minimizedAffinity 4.82824802
REMARK minimizedRMSD -1
REMARK  1 active torsions:
REMARK  status: ('A' for Active; 'I' for Inactive)
REMARK    1  A    between atoms: C1_2  and  C2_3 
ROOT
ATOM      1  C2  UNL d   1       0.966   1.483   1.182  0.00  0.00    -0.077 A 
ATOM      2  C3  UNL d   1       1.597   2.731   1.268  0.00  0.00     0.002 A 
ATOM      3  C4  UNL d   1       1.075   3.731   2.090  0.00  0.00     0.002 A 
ATOM      4  C5  UNL d   1      -0.078   3.492   2.836  0.00  0.00    -0.004 A 
ATOM      5  C6  UNL d   1      -0.714   2.254   2.755  0.00  0.00     0.002 A 
ATOM      6  C7  UNL d   1      -0.194   1.253   1.933  0.00  0.00     0.002 A 
ENDROOT
BRANCH   1   7
ATOM      7  C1  UNL d   1       1.555   0.386   0.334  0.00  0.00     0.055 C 
ATOM      8  C   UNL d   1       1.763   0.847  -1.102  0.00  0.00     0.019 C 
ENDBRANCH   1   7
TORSDOF 1
ENDMDL
