MODEL 1
REMARK minimizedAffinity 1.902017
REMARK minimizedRMSD -1
REMARK  1 active torsions:
REMARK  status: ('A' for Active; 'I' for Inactive)
REMARK    1  A    between atoms: C1_2  and  C2_3 
ROOT
ATOM      1  C2  UNL d   1       0.695   2.143   1.279  0.00  0.00    -0.077 A 
ATOM      2  C3  UNL d   1       1.435   3.323   1.434  0.00  0.00     0.002 A 
ATOM      3  C4  UNL d   1       1.216   4.156   2.533  0.00  0.00     0.002 A 
ATOM      4  C5  UNL d   1       0.261   3.814   3.488  0.00  0.00    -0.004 A 
ATOM      5  C6  UNL d   1      -0.482   2.643   3.342  0.00  0.00     0.002 A 
ATOM      6  C7  UNL d   1      -0.265   1.811   2.244  0.00  0.00     0.002 A 
ENDROOT
BRANCH   1   7
ATOM      7  C1  UNL d   1       0.965   1.219   0.120  0.00  0.00     0.055 C 
ATOM      8  C   UNL d   1       2.247   0.426   0.331  0.00  0.00     0.019 C 
ENDBRANCH   1   7
TORSDOF 1
ENDMDL
