MODEL 1
REMARK minimizedAffinity 2.7675817
REMARK minimizedRMSD -1
REMARK  1 active torsions:
REMARK  status: ('A' for Active; 'I' for Inactive)
REMARK    1  A    between atoms: C1_2  and  C2_3 
ROOT
ATOM      1  C2  UNL d   1       0.577   2.618   2.371  0.00  0.00    -0.077 A 
ATOM      2  C3  UNL d   1       0.126   1.713   1.399  0.00  0.00     0.002 A 
ATOM      3  C4  UNL d   1       1.038   0.937   0.680  0.00  0.00     0.002 A 
ATOM      4  C5  UNL d   1       2.403   1.055   0.928  0.00  0.00    -0.004 A 
ATOM      5  C6  UNL d   1       2.862   1.953   1.891  0.00  0.00     0.002 A 
ATOM      6  C7  UNL d   1       1.952   2.730   2.610  0.00  0.00     0.002 A 
ENDROOT
BRANCH   1   7
ATOM      7  C1  UNL d   1      -0.407   3.420   3.182  0.00  0.00     0.055 C 
ATOM      8  C   UNL d   1      -1.760   2.727   3.254  0.00  0.00     0.019 C 
ENDBRANCH   1   7
TORSDOF 1
ENDMDL
