MODEL 1
REMARK minimizedAffinity 0.79909569
REMARK minimizedRMSD -1
REMARK  1 active torsions:
REMARK  status: ('A' for Active; 'I' for Inactive)
REMARK    1  A    between atoms: C1_2  and  C2_3 
ROOT
ATOM      1  C2  UNL d   1       1.693   4.918   1.839  0.00  0.00    -0.077 A 
ATOM      2  C3  UNL d   1       0.756   4.135   1.149  0.00  0.00     0.002 A 
ATOM      3  C4  UNL d   1       0.014   3.164   1.824  0.00  0.00     0.002 A 
ATOM      4  C5  UNL d   1       0.198   2.969   3.191  0.00  0.00    -0.004 A 
ATOM      5  C6  UNL d   1       1.128   3.741   3.886  0.00  0.00     0.002 A 
ATOM      6  C7  UNL d   1       1.872   4.712   3.213  0.00  0.00     0.002 A 
ENDROOT
BRANCH   1   7
ATOM      7  C1  UNL d   1       2.459   6.000   1.123  0.00  0.00     0.055 C 
ATOM      8  C   UNL d   1       3.926   6.000   1.528  0.00  0.00     0.019 C 
ENDBRANCH   1   7
TORSDOF 1
ENDMDL
