MODEL 1
REMARK minimizedAffinity 4.61979246
REMARK minimizedRMSD -1
REMARK  1 active torsions:
REMARK  status: ('A' for Active; 'I' for Inactive)
REMARK    1  A    between atoms: C1_2  and  C2_3 
ROOT
ATOM      1  C2  UNL d   1      -0.299   1.348   1.232  0.00  0.00    -0.077 A 
ATOM      2  C3  UNL d   1       1.043   1.446   1.625  0.00  0.00     0.002 A 
ATOM      3  C4  UNL d   1       1.449   2.452   2.504  0.00  0.00     0.002 A 
ATOM      4  C5  UNL d   1       0.520   3.364   3.000  0.00  0.00    -0.004 A 
ATOM      5  C6  UNL d   1      -0.817   3.275   2.614  0.00  0.00     0.002 A 
ATOM      6  C7  UNL d   1      -1.225   2.272   1.734  0.00  0.00     0.002 A 
ENDROOT
BRANCH   1   7
ATOM      7  C1  UNL d   1      -0.749   0.234   0.323  0.00  0.00     0.055 C 
ATOM      8  C   UNL d   1      -2.061  -0.373   0.798  0.00  0.00     0.019 C 
ENDBRANCH   1   7
TORSDOF 1
ENDMDL
