MODEL 1
REMARK minimizedAffinity 8.78320789
REMARK minimizedRMSD -1
REMARK  1 active torsions:
REMARK  status: ('A' for Active; 'I' for Inactive)
REMARK    1  A    between atoms: C1_2  and  C2_3 
ROOT
ATOM      1  C2  UNL d   1       0.161   1.909   1.678  0.00  0.00    -0.077 A 
ATOM      2  C3  UNL d   1       1.295   2.441   2.308  0.00  0.00     0.002 A 
ATOM      3  C4  UNL d   1       2.549   1.859   2.114  0.00  0.00     0.002 A 
ATOM      4  C5  UNL d   1       2.682   0.745   1.287  0.00  0.00    -0.004 A 
ATOM      5  C6  UNL d   1       1.560   0.208   0.658  0.00  0.00     0.002 A 
ATOM      6  C7  UNL d   1       0.305   0.787   0.852  0.00  0.00     0.002 A 
ENDROOT
BRANCH   1   7
ATOM      7  C1  UNL d   1      -1.185   2.565   1.847  0.00  0.00     0.055 C 
ATOM      8  C   UNL d   1      -1.403   3.018   3.284  0.00  0.00     0.019 C 
ENDBRANCH   1   7
TORSDOF 1
ENDMDL
