MODEL 1
REMARK minimizedAffinity 1.28368962
REMARK minimizedRMSD -1
REMARK  1 active torsions:
REMARK  status: ('A' for Active; 'I' for Inactive)
REMARK    1  A    between atoms: C1_2  and  C2_3 
ROOT
ATOM      1  C2  UNL d   1      -0.895   1.111   1.007  0.00  0.00    -0.077 A 
ATOM      2  C3  UNL d   1      -1.190   2.036   2.018  0.00  0.00     0.002 A 
ATOM      3  C4  UNL d   1      -0.162   2.707   2.683  0.00  0.00     0.002 A 
ATOM      4  C5  UNL d   1       1.167   2.463   2.342  0.00  0.00    -0.004 A 
ATOM      5  C6  UNL d   1       1.470   1.543   1.340  0.00  0.00     0.002 A 
ATOM      6  C7  UNL d   1       0.444   0.870   0.674  0.00  0.00     0.002 A 
ENDROOT
BRANCH   1   7
ATOM      7  C1  UNL d   1      -2.004   0.423   0.255  0.00  0.00     0.055 C 
ATOM      8  C   UNL d   1      -2.611  -0.707   1.074  0.00  0.00     0.019 C 
ENDBRANCH   1   7
TORSDOF 1
ENDMDL
