MODEL 1
REMARK minimizedAffinity -2.15777707
REMARK minimizedRMSD -1
REMARK  1 active torsions:
REMARK  status: ('A' for Active; 'I' for Inactive)
REMARK    1  A    between atoms: C1_2  and  C2_3 
ROOT
ATOM      1  C2  UNL d   1       0.860  -1.048  -1.066  0.00  0.00    -0.073 A 
ATOM      2  C3  UNL d   1       1.548  -0.193  -1.934  0.00  0.00    -0.002 A 
ATOM      3  C4  UNL d   1       1.381   1.189  -1.841  0.00  0.00     0.004 A 
ATOM      4  C5  UNL d   1       0.531   1.730  -0.877  0.00  0.00    -0.004 A 
ATOM      5  C6  UNL d   1      -0.156   0.893   0.008  0.00  0.00    -0.075 A 
ATOM      6  C7  UNL d   1      -1.075   1.459   1.050  0.00  0.00     0.076 C 
ATOM      7  C8  UNL d   1       0.015  -0.494  -0.093  0.00  0.00     0.001 A 
ENDROOT
BRANCH   1   8
ATOM      8  C1  UNL d   1       1.042  -2.541  -1.158  0.00  0.00     0.053 C 
ATOM      9  C   UNL d   1       1.001  -3.033  -2.596  0.00  0.00     0.018 C 
ENDBRANCH   1   8
TORSDOF 1
ENDMDL
