MODEL 1
REMARK minimizedAffinity -2.51762843
REMARK minimizedRMSD -1
REMARK  1 active torsions:
REMARK  status: ('A' for Active; 'I' for Inactive)
REMARK    1  A    between atoms: C1_2  and  C2_3 
ROOT
ATOM      1  C2  UNL d   1      -0.961   1.543   1.895  0.00  0.00    -0.073 A 
ATOM      2  C3  UNL d   1      -2.078   2.192   1.356  0.00  0.00    -0.002 A 
ATOM      3  C4  UNL d   1      -2.300   2.187  -0.022  0.00  0.00     0.004 A 
ATOM      4  C5  UNL d   1      -1.414   1.526  -0.873  0.00  0.00    -0.004 A 
ATOM      5  C6  UNL d   1      -0.299   0.861  -0.353  0.00  0.00    -0.075 A 
ATOM      6  C7  UNL d   1       0.665   0.148  -1.255  0.00  0.00     0.076 C 
ATOM      7  C8  UNL d   1      -0.081   0.874   1.032  0.00  0.00     0.001 A 
ENDROOT
BRANCH   1   8
ATOM      8  C1  UNL d   1      -0.721   1.541   3.382  0.00  0.00     0.053 C 
ATOM      9  C   UNL d   1       0.366   2.525   3.785  0.00  0.00     0.018 C 
ENDBRANCH   1   8
TORSDOF 1
ENDMDL
