MODEL 1
REMARK minimizedAffinity -4.74911547
REMARK minimizedRMSD -1
REMARK  1 active torsions:
REMARK  status: ('A' for Active; 'I' for Inactive)
REMARK    1  A    between atoms: C1_2  and  C2_3 
ROOT
ATOM      1  C2  UNL d   1       0.399   0.000  -0.668  0.00  0.00    -0.073 A 
ATOM      2  C3  UNL d   1       1.016   0.909  -1.535  0.00  0.00    -0.002 A 
ATOM      3  C4  UNL d   1       0.579   2.233  -1.596  0.00  0.00     0.004 A 
ATOM      4  C5  UNL d   1      -0.474   2.663  -0.788  0.00  0.00    -0.004 A 
ATOM      5  C6  UNL d   1      -1.095   1.772   0.093  0.00  0.00    -0.075 A 
ATOM      6  C7  UNL d   1      -2.230   2.218   0.968  0.00  0.00     0.076 C 
ATOM      7  C8  UNL d   1      -0.652   0.444   0.147  0.00  0.00     0.001 A 
ENDROOT
BRANCH   1   8
ATOM      8  C1  UNL d   1       0.873  -1.428  -0.594  0.00  0.00     0.053 C 
ATOM      9  C   UNL d   1       0.524  -2.211  -1.850  0.00  0.00     0.018 C 
ENDBRANCH   1   8
TORSDOF 1
ENDMDL
