MODEL 1
REMARK minimizedAffinity -1.03835261
REMARK minimizedRMSD -1
REMARK  1 active torsions:
REMARK  status: ('A' for Active; 'I' for Inactive)
REMARK    1  A    between atoms: C1_2  and  C2_3 
ROOT
ATOM      1  C2  UNL d   1       0.937  -1.148  -0.309  0.00  0.00    -0.073 A 
ATOM      2  C3  UNL d   1       0.968  -0.318  -1.435  0.00  0.00    -0.002 A 
ATOM      3  C4  UNL d   1       0.963  -0.870  -2.717  0.00  0.00     0.004 A 
ATOM      4  C5  UNL d   1       0.920  -2.253  -2.886  0.00  0.00    -0.004 A 
ATOM      5  C6  UNL d   1       0.876  -3.099  -1.773  0.00  0.00    -0.075 A 
ATOM      6  C7  UNL d   1       0.832  -4.590  -1.937  0.00  0.00     0.076 C 
ATOM      7  C8  UNL d   1       0.885  -2.538  -0.489  0.00  0.00     0.001 A 
ENDROOT
BRANCH   1   8
ATOM      8  C1  UNL d   1       0.936  -0.557   1.078  0.00  0.00     0.053 C 
ATOM      9  C   UNL d   1      -0.465  -0.196   1.542  0.00  0.00     0.018 C 
ENDBRANCH   1   8
TORSDOF 1
ENDMDL
