MODEL 1
REMARK minimizedAffinity -3.25524187
REMARK minimizedRMSD -1
REMARK  1 active torsions:
REMARK  status: ('A' for Active; 'I' for Inactive)
REMARK    1  A    between atoms: C1_2  and  C2_3 
ROOT
ATOM      1  C2  UNL d   1       0.330  -0.360  -0.117  0.00  0.00    -0.073 A 
ATOM      2  C3  UNL d   1       0.401  -1.291   0.926  0.00  0.00    -0.002 A 
ATOM      3  C4  UNL d   1      -0.333  -1.094   2.097  0.00  0.00     0.004 A 
ATOM      4  C5  UNL d   1      -1.150   0.028   2.233  0.00  0.00    -0.004 A 
ATOM      5  C6  UNL d   1      -1.243   0.963   1.197  0.00  0.00    -0.075 A 
ATOM      6  C7  UNL d   1      -2.115   2.177   1.329  0.00  0.00     0.076 C 
ATOM      7  C8  UNL d   1      -0.500   0.760   0.026  0.00  0.00     0.001 A 
ENDROOT
BRANCH   1   8
ATOM      8  C1  UNL d   1       1.116  -0.571  -1.385  0.00  0.00     0.053 C 
ATOM      9  C   UNL d   1       0.868  -1.945  -1.988  0.00  0.00     0.018 C 
ENDBRANCH   1   8
TORSDOF 1
ENDMDL
