MODEL 1
REMARK minimizedAffinity -5.8564291
REMARK minimizedRMSD -1
REMARK  1 active torsions:
REMARK  status: ('A' for Active; 'I' for Inactive)
REMARK    1  A    between atoms: C1_2  and  C2_3 
ROOT
ATOM      1  C2  UNL d   1       0.171  -0.602  -0.272  0.00  0.00    -0.073 A 
ATOM      2  C3  UNL d   1       0.560  -1.268   0.896  0.00  0.00    -0.002 A 
ATOM      3  C4  UNL d   1       0.150  -0.799   2.145  0.00  0.00     0.004 A 
ATOM      4  C5  UNL d   1      -0.657   0.335   2.238  0.00  0.00    -0.004 A 
ATOM      5  C6  UNL d   1      -1.066   1.007   1.082  0.00  0.00    -0.075 A 
ATOM      6  C7  UNL d   1      -1.932   2.230   1.165  0.00  0.00     0.076 C 
ATOM      7  C8  UNL d   1      -0.648   0.531  -0.168  0.00  0.00     0.001 A 
ENDROOT
BRANCH   1   8
ATOM      8  C1  UNL d   1       0.606  -1.109  -1.623  0.00  0.00     0.053 C 
ATOM      9  C   UNL d   1      -0.456  -1.981  -2.274  0.00  0.00     0.018 C 
ENDBRANCH   1   8
TORSDOF 1
ENDMDL
