MODEL 1
REMARK minimizedAffinity -0.84224999
REMARK minimizedRMSD -1
REMARK  1 active torsions:
REMARK  status: ('A' for Active; 'I' for Inactive)
REMARK    1  A    between atoms: C1_2  and  C2_3 
ROOT
ATOM      1  C2  UNL d   1      -0.636   0.669   0.351  0.00  0.00    -0.073 A 
ATOM      2  C3  UNL d   1      -0.506   1.769  -0.505  0.00  0.00    -0.002 A 
ATOM      3  C4  UNL d   1       0.223   1.657  -1.690  0.00  0.00     0.004 A 
ATOM      4  C5  UNL d   1       0.822   0.446  -2.034  0.00  0.00    -0.004 A 
ATOM      5  C6  UNL d   1       0.693  -0.668  -1.197  0.00  0.00    -0.075 A 
ATOM      6  C7  UNL d   1       1.334  -1.977  -1.552  0.00  0.00     0.076 C 
ATOM      7  C8  UNL d   1      -0.038  -0.547  -0.008  0.00  0.00     0.001 A 
ENDROOT
BRANCH   1   8
ATOM      8  C1  UNL d   1      -1.428   0.783   1.628  0.00  0.00     0.053 C 
ATOM      9  C   UNL d   1      -2.175   2.104   1.720  0.00  0.00     0.018 C 
ENDBRANCH   1   8
TORSDOF 1
ENDMDL
