MODEL 1
REMARK minimizedAffinity -2.58619905
REMARK minimizedRMSD -1
REMARK  1 active torsions:
REMARK  status: ('A' for Active; 'I' for Inactive)
REMARK    1  A    between atoms: C1_2  and  C2_3 
ROOT
ATOM      1  C2  UNL d   1      -0.736   1.609   0.662  0.00  0.00    -0.073 A 
ATOM      2  C3  UNL d   1      -0.617   0.343   1.247  0.00  0.00    -0.002 A 
ATOM      3  C4  UNL d   1       0.289  -0.587   0.735  0.00  0.00     0.004 A 
ATOM      4  C5  UNL d   1       1.088  -0.260  -0.360  0.00  0.00    -0.004 A 
ATOM      5  C6  UNL d   1       0.992   1.005  -0.951  0.00  0.00    -0.075 A 
ATOM      6  C7  UNL d   1       1.843   1.372  -2.131  0.00  0.00     0.076 C 
ATOM      7  C8  UNL d   1       0.078   1.932  -0.433  0.00  0.00     0.001 A 
ENDROOT
BRANCH   1   8
ATOM      8  C1  UNL d   1      -1.708   2.619   1.216  0.00  0.00     0.053 C 
ATOM      9  C   UNL d   1      -1.375   3.005   2.648  0.00  0.00     0.018 C 
ENDBRANCH   1   8
TORSDOF 1
ENDMDL
