MODEL 1
REMARK minimizedAffinity -4.18744755
REMARK minimizedRMSD -1
REMARK  1 active torsions:
REMARK  status: ('A' for Active; 'I' for Inactive)
REMARK    1  A    between atoms: C1_2  and  C2_3 
ROOT
ATOM      1  C2  UNL d   1      -0.865   1.720   0.383  0.00  0.00    -0.073 A 
ATOM      2  C3  UNL d   1      -0.272   2.517  -0.603  0.00  0.00    -0.002 A 
ATOM      3  C4  UNL d   1       0.705   1.985  -1.445  0.00  0.00     0.004 A 
ATOM      4  C5  UNL d   1       1.094   0.652  -1.316  0.00  0.00    -0.004 A 
ATOM      5  C6  UNL d   1       0.504  -0.164  -0.345  0.00  0.00    -0.075 A 
ATOM      6  C7  UNL d   1       0.912  -1.600  -0.191  0.00  0.00     0.076 C 
ATOM      7  C8  UNL d   1      -0.475   0.378   0.499  0.00  0.00     0.001 A 
ENDROOT
BRANCH   1   8
ATOM      8  C1  UNL d   1      -1.925   2.288   1.291  0.00  0.00     0.053 C 
ATOM      9  C   UNL d   1      -1.835   3.802   1.395  0.00  0.00     0.018 C 
ENDBRANCH   1   8
TORSDOF 1
ENDMDL
