MODEL 1
REMARK minimizedAffinity -3.03651094
REMARK minimizedRMSD -1
REMARK  1 active torsions:
REMARK  status: ('A' for Active; 'I' for Inactive)
REMARK    1  A    between atoms: C1_2  and  C2_3 
ROOT
ATOM      1  C2  UNL d   1       0.704  -0.877  -0.579  0.00  0.00    -0.073 A 
ATOM      2  C3  UNL d   1       1.001   0.050  -1.584  0.00  0.00    -0.002 A 
ATOM      3  C4  UNL d   1       0.566   1.372  -1.475  0.00  0.00     0.004 A 
ATOM      4  C5  UNL d   1      -0.162   1.781  -0.358  0.00  0.00    -0.004 A 
ATOM      5  C6  UNL d   1      -0.458   0.872   0.663  0.00  0.00    -0.075 A 
ATOM      6  C7  UNL d   1      -1.243   1.296   1.870  0.00  0.00     0.076 C 
ATOM      7  C8  UNL d   1      -0.021  -0.454   0.544  0.00  0.00     0.001 A 
ENDROOT
BRANCH   1   8
ATOM      8  C1  UNL d   1       1.176  -2.304  -0.690  0.00  0.00     0.053 C 
ATOM      9  C   UNL d   1       0.728  -2.953  -1.990  0.00  0.00     0.018 C 
ENDBRANCH   1   8
TORSDOF 1
ENDMDL
