MODEL 1
REMARK minimizedAffinity -4.43532085
REMARK minimizedRMSD -1
REMARK  1 active torsions:
REMARK  status: ('A' for Active; 'I' for Inactive)
REMARK    1  A    between atoms: C1_2  and  C2_3 
ROOT
ATOM      1  C2  UNL d   1       0.398   0.529   0.006  0.00  0.00    -0.073 A 
ATOM      2  C3  UNL d   1      -0.376   0.129   1.101  0.00  0.00    -0.002 A 
ATOM      3  C4  UNL d   1      -1.031   1.078   1.886  0.00  0.00     0.004 A 
ATOM      4  C5  UNL d   1      -0.925   2.435   1.581  0.00  0.00    -0.004 A 
ATOM      5  C6  UNL d   1      -0.166   2.854   0.484  0.00  0.00    -0.075 A 
ATOM      6  C7  UNL d   1      -0.041   4.310   0.144  0.00  0.00     0.076 C 
ATOM      7  C8  UNL d   1       0.491   1.895  -0.298  0.00  0.00     0.001 A 
ENDROOT
BRANCH   1   8
ATOM      8  C1  UNL d   1       1.103  -0.493  -0.848  0.00  0.00     0.053 C 
ATOM      9  C   UNL d   1       0.168  -1.608  -1.289  0.00  0.00     0.018 C 
ENDBRANCH   1   8
TORSDOF 1
ENDMDL
