MODEL 1
REMARK minimizedAffinity -5.15410328
REMARK minimizedRMSD -1
REMARK  1 active torsions:
REMARK  status: ('A' for Active; 'I' for Inactive)
REMARK    1  A    between atoms: C1_2  and  C2_3 
ROOT
ATOM      1  C2  UNL d   1       0.498   0.357  -0.589  0.00  0.00    -0.073 A 
ATOM      2  C3  UNL d   1       0.922   1.450  -1.354  0.00  0.00    -0.002 A 
ATOM      3  C4  UNL d   1       0.287   2.686  -1.230  0.00  0.00     0.004 A 
ATOM      4  C5  UNL d   1      -0.772   2.845  -0.336  0.00  0.00    -0.004 A 
ATOM      5  C6  UNL d   1      -1.202   1.769   0.446  0.00  0.00    -0.075 A 
ATOM      6  C7  UNL d   1      -2.342   1.923   1.410  0.00  0.00     0.076 C 
ATOM      7  C8  UNL d   1      -0.562   0.530   0.314  0.00  0.00     0.001 A 
ENDROOT
BRANCH   1   8
ATOM      8  C1  UNL d   1       1.184  -0.978  -0.714  0.00  0.00     0.053 C 
ATOM      9  C   UNL d   1       0.500  -1.877  -1.732  0.00  0.00     0.018 C 
ENDBRANCH   1   8
TORSDOF 1
ENDMDL
