MODEL 1
REMARK minimizedAffinity -4.68718672
REMARK minimizedRMSD -1
REMARK  1 active torsions:
REMARK  status: ('A' for Active; 'I' for Inactive)
REMARK    1  A    between atoms: C1_2  and  C2_3 
ROOT
ATOM      1  C2  UNL d   1      -0.891   1.924   0.429  0.00  0.00    -0.073 A 
ATOM      2  C3  UNL d   1      -1.424   1.593   1.680  0.00  0.00    -0.002 A 
ATOM      3  C4  UNL d   1      -1.150   0.352   2.257  0.00  0.00     0.004 A 
ATOM      4  C5  UNL d   1      -0.335  -0.566   1.593  0.00  0.00    -0.004 A 
ATOM      5  C6  UNL d   1       0.217  -0.248   0.348  0.00  0.00    -0.075 A 
ATOM      6  C7  UNL d   1       1.093  -1.225  -0.379  0.00  0.00     0.076 C 
ATOM      7  C8  UNL d   1      -0.065   0.999  -0.226  0.00  0.00     0.001 A 
ENDROOT
BRANCH   1   8
ATOM      8  C1  UNL d   1      -1.179   3.265  -0.194  0.00  0.00     0.053 C 
ATOM      9  C   UNL d   1      -0.065   3.711  -1.128  0.00  0.00     0.018 C 
ENDBRANCH   1   8
TORSDOF 1
ENDMDL
