MODEL 1
REMARK minimizedAffinity -4.31018782
REMARK minimizedRMSD -1
REMARK  2 active torsions:
REMARK  status: ('A' for Active; 'I' for Inactive)
REMARK    1  A    between atoms: C2'_3  and  C1'_4 
REMARK    2  A    between atoms: C1'_4  and  C1_5 
ROOT
ATOM      1  C1  I4B d   1       0.644  -0.870  -0.457  0.00  0.00    -0.075 A 
ATOM      2  C2  I4B d   1       1.436  -1.751  -1.150  0.00  0.00     0.003 A 
ATOM      3  C3  I4B d   1       2.633  -2.241  -0.573  0.00  0.00     0.002 A 
ATOM      4  C4  I4B d   1       3.023  -1.787   0.670  0.00  0.00    -0.004 A 
ATOM      5  C5  I4B d   1       2.208  -0.911   1.381  0.00  0.00     0.002 A 
ATOM      6  C6  I4B d   1       1.005  -0.459   0.820  0.00  0.00     0.003 A 
ENDROOT
BRANCH   1   7
ATOM      7  C1' I4B d   1      -0.596  -0.348  -1.109  0.00  0.00     0.060 C 
BRANCH   7   8
ATOM      8  C2' I4B d   1      -1.022   0.904  -0.368  0.00  0.00    -0.013 C 
ATOM      9  C4' I4B d   1      -0.401   2.134  -0.975  0.00  0.00     0.013 C 
ATOM     10  C3' I4B d   1      -2.519   0.977  -0.406  0.00  0.00     0.013 C 
ENDBRANCH   7   8
ENDBRANCH   1   7
TORSDOF 2
ENDMDL
