MODEL 1
REMARK minimizedAffinity -3.49306369
REMARK minimizedRMSD -1
REMARK  2 active torsions:
REMARK  status: ('A' for Active; 'I' for Inactive)
REMARK    1  A    between atoms: C2'_3  and  C1'_4 
REMARK    2  A    between atoms: C1'_4  and  C1_5 
ROOT
ATOM      1  C1  I4B d   1       1.518   0.263   0.193  0.00  0.00    -0.075 A 
ATOM      2  C2  I4B d   1       1.880   1.584   0.098  0.00  0.00     0.003 A 
ATOM      3  C3  I4B d   1       3.227   1.938  -0.158  0.00  0.00     0.002 A 
ATOM      4  C4  I4B d   1       4.182   0.947  -0.261  0.00  0.00    -0.004 A 
ATOM      5  C5  I4B d   1       3.810  -0.393  -0.187  0.00  0.00     0.002 A 
ATOM      6  C6  I4B d   1       2.467  -0.737   0.028  0.00  0.00     0.003 A 
ENDROOT
BRANCH   1   7
ATOM      7  C1' I4B d   1       0.093  -0.073   0.496  0.00  0.00     0.060 C 
BRANCH   7   8
ATOM      8  C2' I4B d   1      -0.676  -0.069  -0.809  0.00  0.00    -0.013 C 
ATOM      9  C4' I4B d   1      -0.676  -1.434  -1.446  0.00  0.00     0.013 C 
ATOM     10  C3' I4B d   1      -2.073   0.395  -0.523  0.00  0.00     0.013 C 
ENDBRANCH   7   8
ENDBRANCH   1   7
TORSDOF 2
ENDMDL
