MODEL 1
REMARK minimizedAffinity -4.73268604
REMARK minimizedRMSD -1
REMARK  2 active torsions:
REMARK  status: ('A' for Active; 'I' for Inactive)
REMARK    1  A    between atoms: C2'_3  and  C1'_4 
REMARK    2  A    between atoms: C1'_4  and  C1_5 
ROOT
ATOM      1  C1  I4B d   1      -0.316   0.397  -0.286  0.00  0.00    -0.075 A 
ATOM      2  C2  I4B d   1      -0.402  -0.692  -1.118  0.00  0.00     0.003 A 
ATOM      3  C3  I4B d   1       0.569  -1.720  -1.050  0.00  0.00     0.002 A 
ATOM      4  C4  I4B d   1       1.630  -1.595  -0.176  0.00  0.00    -0.004 A 
ATOM      5  C5  I4B d   1       1.703  -0.502   0.683  0.00  0.00     0.002 A 
ATOM      6  C6  I4B d   1       0.717   0.494   0.636  0.00  0.00     0.003 A 
ENDROOT
BRANCH   1   7
ATOM      7  C1' I4B d   1      -1.341   1.480  -0.408  0.00  0.00     0.060 C 
BRANCH   7   8
ATOM      8  C2' I4B d   1      -2.564   1.055   0.379  0.00  0.00    -0.013 C 
ATOM      9  C4' I4B d   1      -3.107   2.195   1.200  0.00  0.00     0.013 C 
ATOM     10  C3' I4B d   1      -3.589   0.553  -0.594  0.00  0.00     0.013 C 
ENDBRANCH   7   8
ENDBRANCH   1   7
TORSDOF 2
ENDMDL
