MODEL 1
REMARK minimizedAffinity -3.1784122
REMARK minimizedRMSD -1
REMARK  2 active torsions:
REMARK  status: ('A' for Active; 'I' for Inactive)
REMARK    1  A    between atoms: C2'_3  and  C1'_4 
REMARK    2  A    between atoms: C1'_4  and  C1_5 
ROOT
ATOM      1  C1  I4B d   1      -0.387   0.176  -0.099  0.00  0.00    -0.075 A 
ATOM      2  C2  I4B d   1      -0.130  -0.722  -1.105  0.00  0.00     0.003 A 
ATOM      3  C3  I4B d   1       0.977  -1.600  -1.011  0.00  0.00     0.002 A 
ATOM      4  C4  I4B d   1       1.824  -1.512   0.075  0.00  0.00    -0.004 A 
ATOM      5  C5  I4B d   1       1.548  -0.617   1.105  0.00  0.00     0.002 A 
ATOM      6  C6  I4B d   1       0.429   0.224   1.024  0.00  0.00     0.003 A 
ENDROOT
BRANCH   1   7
ATOM      7  C1' I4B d   1      -1.545   1.111  -0.246  0.00  0.00     0.060 C 
BRANCH   7   8
ATOM      8  C2' I4B d   1      -2.641   0.648   0.693  0.00  0.00    -0.013 C 
ATOM      9  C4' I4B d   1      -2.932   1.686   1.745  0.00  0.00     0.013 C 
ATOM     10  C3' I4B d   1      -3.860   0.353  -0.128  0.00  0.00     0.013 C 
ENDBRANCH   7   8
ENDBRANCH   1   7
TORSDOF 2
ENDMDL
