MODEL 1
REMARK minimizedAffinity -3.97574115
REMARK minimizedRMSD -1
REMARK  2 active torsions:
REMARK  status: ('A' for Active; 'I' for Inactive)
REMARK    1  A    between atoms: C2'_3  and  C1'_4 
REMARK    2  A    between atoms: C1'_4  and  C1_5 
ROOT
ATOM      1  C1  I4B d   1      -0.557   1.137  -0.246  0.00  0.00    -0.075 A 
ATOM      2  C2  I4B d   1      -0.356  -0.208  -0.056  0.00  0.00     0.003 A 
ATOM      3  C3  I4B d   1       0.918  -0.690   0.330  0.00  0.00     0.002 A 
ATOM      4  C4  I4B d   1       1.968   0.195   0.466  0.00  0.00    -0.004 A 
ATOM      5  C5  I4B d   1       1.756   1.560   0.296  0.00  0.00     0.002 A 
ATOM      6  C6  I4B d   1       0.483   2.036  -0.051  0.00  0.00     0.003 A 
ENDROOT
BRANCH   1   7
ATOM      7  C1' I4B d   1      -1.907   1.608  -0.687  0.00  0.00     0.060 C 
BRANCH   7   8
ATOM      8  C2' I4B d   1      -2.901   1.262   0.403  0.00  0.00    -0.013 C 
ATOM      9  C4' I4B d   1      -2.942   2.332   1.463  0.00  0.00     0.013 C 
ATOM     10  C3' I4B d   1      -4.245   1.081  -0.236  0.00  0.00     0.013 C 
ENDBRANCH   7   8
ENDBRANCH   1   7
TORSDOF 2
ENDMDL
