MODEL 1
REMARK minimizedAffinity -1.64102805
REMARK minimizedRMSD -1
REMARK  2 active torsions:
REMARK  status: ('A' for Active; 'I' for Inactive)
REMARK    1  A    between atoms: C2'_3  and  C1'_4 
REMARK    2  A    between atoms: C1'_4  and  C1_5 
ROOT
ATOM      1  C1  I4B d   1       0.756  -0.843  -0.028  0.00  0.00    -0.075 A 
ATOM      2  C2  I4B d   1       1.887  -1.397  -0.574  0.00  0.00     0.003 A 
ATOM      3  C3  I4B d   1       3.014  -1.664   0.240  0.00  0.00     0.002 A 
ATOM      4  C4  I4B d   1       2.986  -1.316   1.575  0.00  0.00    -0.004 A 
ATOM      5  C5  I4B d   1       1.830  -0.775   2.132  0.00  0.00     0.002 A 
ATOM      6  C6  I4B d   1       0.704  -0.549   1.328  0.00  0.00     0.003 A 
ENDROOT
BRANCH   1   7
ATOM      7  C1' I4B d   1      -0.404  -0.544  -0.924  0.00  0.00     0.060 C 
BRANCH   7   8
ATOM      8  C2' I4B d   1      -0.617   0.956  -0.928  0.00  0.00    -0.013 C 
ATOM      9  C4' I4B d   1      -1.751   1.348  -0.018  0.00  0.00     0.013 C 
ATOM     10  C3' I4B d   1       0.667   1.606  -0.506  0.00  0.00     0.013 C 
ENDBRANCH   7   8
ENDBRANCH   1   7
TORSDOF 2
ENDMDL
