MODEL 1
REMARK minimizedAffinity -3.18430233
REMARK minimizedRMSD -1
REMARK  1 active torsions:
REMARK  status: ('A' for Active; 'I' for Inactive)
REMARK    1  A    between atoms: C1_2  and  C2_3 
ROOT
ATOM      1  C2  UNL d   1      -0.124  -0.319   0.210  0.00  0.00    -0.076 A 
ATOM      2  C3  UNL d   1      -1.143   0.646   0.121  0.00  0.00     0.004 A 
ATOM      3  C4  UNL d   1      -0.858   2.003   0.258  0.00  0.00    -0.003 A 
ATOM      4  C5  UNL d   1       0.449   2.418   0.484  0.00  0.00     0.000 A 
ATOM      5  C6  UNL d   1       1.475   1.476   0.557  0.00  0.00     0.000 A 
ATOM      6  C7  UNL d   1       1.208   0.104   0.406  0.00  0.00    -0.073 A 
ATOM      7  C8  UNL d   1       2.351  -0.869   0.499  0.00  0.00     0.078 C 
ENDROOT
BRANCH   1   8
ATOM      8  C1  UNL d   1      -0.497  -1.779   0.081  0.00  0.00     0.053 C 
ATOM      9  C   UNL d   1      -0.921  -2.150  -1.332  0.00  0.00     0.018 C 
ENDBRANCH   1   8
TORSDOF 1
ENDMDL
