MODEL 1
REMARK minimizedAffinity -6.1391325
REMARK minimizedRMSD -1
REMARK  1 active torsions:
REMARK  status: ('A' for Active; 'I' for Inactive)
REMARK    1  A    between atoms: C1_2  and  C2_3 
ROOT
ATOM      1  C2  UNL d   1       0.454   1.436   0.162  0.00  0.00    -0.076 A 
ATOM      2  C3  UNL d   1       1.859   1.394   0.158  0.00  0.00     0.004 A 
ATOM      3  C4  UNL d   1       2.541   0.190   0.324  0.00  0.00    -0.003 A 
ATOM      4  C5  UNL d   1       1.829  -0.992   0.497  0.00  0.00     0.000 A 
ATOM      5  C6  UNL d   1       0.435  -0.971   0.486  0.00  0.00     0.000 A 
ATOM      6  C7  UNL d   1      -0.268   0.232   0.303  0.00  0.00    -0.073 A 
ATOM      7  C8  UNL d   1      -1.772   0.197   0.306  0.00  0.00     0.078 C 
ENDROOT
BRANCH   1   8
ATOM      8  C1  UNL d   1      -0.231   2.775   0.005  0.00  0.00     0.053 C 
ATOM      9  C   UNL d   1       0.710   3.944   0.254  0.00  0.00     0.018 C 
ENDBRANCH   1   8
TORSDOF 1
ENDMDL
