MODEL 1
REMARK minimizedAffinity -5.74936199
REMARK minimizedRMSD -1
REMARK  1 active torsions:
REMARK  status: ('A' for Active; 'I' for Inactive)
REMARK    1  A    between atoms: C1_2  and  C2_3 
ROOT
ATOM      1  C2  UNL d   1       0.372   0.169   0.198  0.00  0.00    -0.076 A 
ATOM      2  C3  UNL d   1       1.482   0.881  -0.288  0.00  0.00     0.004 A 
ATOM      3  C4  UNL d   1       1.480   2.274  -0.325  0.00  0.00    -0.003 A 
ATOM      4  C5  UNL d   1       0.368   2.978   0.123  0.00  0.00     0.000 A 
ATOM      5  C6  UNL d   1      -0.735   2.288   0.625  0.00  0.00     0.000 A 
ATOM      6  C7  UNL d   1      -0.743   0.884   0.685  0.00  0.00    -0.073 A 
ATOM      7  C8  UNL d   1      -1.962   0.192   1.231  0.00  0.00     0.078 C 
ENDROOT
BRANCH   1   8
ATOM      8  C1  UNL d   1       0.420  -1.343   0.190  0.00  0.00     0.053 C 
ATOM      9  C   UNL d   1      -0.290  -1.942  -1.014  0.00  0.00     0.018 C 
ENDBRANCH   1   8
TORSDOF 1
ENDMDL
