MODEL 1
REMARK minimizedAffinity -4.61111307
REMARK minimizedRMSD -1
REMARK  1 active torsions:
REMARK  status: ('A' for Active; 'I' for Inactive)
REMARK    1  A    between atoms: C1_2  and  C2_3 
ROOT
ATOM      1  C2  UNL d   1       0.376   1.282   0.118  0.00  0.00    -0.076 A 
ATOM      2  C3  UNL d   1      -0.846   0.591   0.043  0.00  0.00     0.004 A 
ATOM      3  C4  UNL d   1      -0.884  -0.802   0.054  0.00  0.00    -0.003 A 
ATOM      4  C5  UNL d   1       0.299  -1.527   0.141  0.00  0.00     0.000 A 
ATOM      5  C6  UNL d   1       1.519  -0.858   0.234  0.00  0.00     0.000 A 
ATOM      6  C7  UNL d   1       1.574   0.546   0.241  0.00  0.00    -0.073 A 
ATOM      7  C8  UNL d   1       2.917   1.215   0.337  0.00  0.00     0.078 C 
ENDROOT
BRANCH   1   8
ATOM      8  C1  UNL d   1       0.357   2.793   0.075  0.00  0.00     0.053 C 
ATOM      9  C   UNL d   1      -0.360   3.402   1.270  0.00  0.00     0.018 C 
ENDBRANCH   1   8
TORSDOF 1
ENDMDL
