MODEL 1
REMARK minimizedAffinity -3.75863028
REMARK minimizedRMSD -1
REMARK  1 active torsions:
REMARK  status: ('A' for Active; 'I' for Inactive)
REMARK    1  A    between atoms: C1_2  and  C2_3 
ROOT
ATOM      1  C2  UNL d   1       0.162  -0.472  -0.395  0.00  0.00    -0.076 A 
ATOM      2  C3  UNL d   1      -0.039   0.592  -1.292  0.00  0.00     0.004 A 
ATOM      3  C4  UNL d   1       0.821   1.688  -1.310  0.00  0.00    -0.003 A 
ATOM      4  C5  UNL d   1       1.898   1.738  -0.432  0.00  0.00     0.000 A 
ATOM      5  C6  UNL d   1       2.123   0.683   0.452  0.00  0.00     0.000 A 
ATOM      6  C7  UNL d   1       1.274  -0.437   0.472  0.00  0.00    -0.073 A 
ATOM      7  C8  UNL d   1       1.560  -1.542   1.451  0.00  0.00     0.078 C 
ENDROOT
BRANCH   1   8
ATOM      8  C1  UNL d   1      -0.820  -1.621  -0.403  0.00  0.00     0.053 C 
ATOM      9  C   UNL d   1      -0.513  -2.643  -1.487  0.00  0.00     0.018 C 
ENDBRANCH   1   8
TORSDOF 1
ENDMDL
