MODEL 1
REMARK minimizedAffinity -4.1793561
REMARK minimizedRMSD -1
REMARK  1 active torsions:
REMARK  status: ('A' for Active; 'I' for Inactive)
REMARK    1  A    between atoms: C1_2  and  C2_3 
ROOT
ATOM      1  C2  UNL d   1      -0.031   0.151   0.031  0.00  0.00    -0.076 A 
ATOM      2  C3  UNL d   1      -1.397   0.472   0.122  0.00  0.00     0.004 A 
ATOM      3  C4  UNL d   1      -1.828   1.796   0.070  0.00  0.00    -0.003 A 
ATOM      4  C5  UNL d   1      -0.901   2.822  -0.075  0.00  0.00     0.000 A 
ATOM      5  C6  UNL d   1       0.457   2.521  -0.184  0.00  0.00     0.000 A 
ATOM      6  C7  UNL d   1       0.907   1.190  -0.150  0.00  0.00    -0.073 A 
ATOM      7  C8  UNL d   1       2.383   0.924  -0.267  0.00  0.00     0.078 C 
ENDROOT
BRANCH   1   8
ATOM      8  C1  UNL d   1       0.380  -1.301   0.120  0.00  0.00     0.053 C 
ATOM      9  C   UNL d   1      -0.478  -2.204  -0.752  0.00  0.00     0.018 C 
ENDBRANCH   1   8
TORSDOF 1
ENDMDL
