MODEL 1
REMARK minimizedAffinity -4.19583273
REMARK minimizedRMSD -1
REMARK  1 active torsions:
REMARK  status: ('A' for Active; 'I' for Inactive)
REMARK    1  A    between atoms: C1_2  and  C2_3 
ROOT
ATOM      1  C2  UNL d   1      -0.070   0.165  -0.030  0.00  0.00    -0.076 A 
ATOM      2  C3  UNL d   1      -1.384   0.615   0.181  0.00  0.00     0.004 A 
ATOM      3  C4  UNL d   1      -1.676   1.977   0.243  0.00  0.00    -0.003 A 
ATOM      4  C5  UNL d   1      -0.657   2.911   0.092  0.00  0.00     0.000 A 
ATOM      5  C6  UNL d   1       0.651   2.483  -0.136  0.00  0.00     0.000 A 
ATOM      6  C7  UNL d   1       0.959   1.114  -0.217  0.00  0.00    -0.073 A 
ATOM      7  C8  UNL d   1       2.387   0.708  -0.459  0.00  0.00     0.078 C 
ENDROOT
BRANCH   1   8
ATOM      8  C1  UNL d   1       0.190  -1.324  -0.060  0.00  0.00     0.053 C 
ATOM      9  C   UNL d   1      -0.397  -1.993  -1.293  0.00  0.00     0.018 C 
ENDBRANCH   1   8
TORSDOF 1
ENDMDL
