MODEL 1
REMARK minimizedAffinity -2.64264297
REMARK minimizedRMSD -1
REMARK  1 active torsions:
REMARK  status: ('A' for Active; 'I' for Inactive)
REMARK    1  A    between atoms: C1_2  and  C2_3 
ROOT
ATOM      1  C2  UNL d   1       0.041  -0.180   0.015  0.00  0.00    -0.076 A 
ATOM      2  C3  UNL d   1      -1.136  -0.020   0.767  0.00  0.00     0.004 A 
ATOM      3  C4  UNL d   1      -1.665   1.246   1.011  0.00  0.00    -0.003 A 
ATOM      4  C5  UNL d   1      -1.026   2.373   0.505  0.00  0.00     0.000 A 
ATOM      5  C6  UNL d   1       0.133   2.232  -0.258  0.00  0.00     0.000 A 
ATOM      6  C7  UNL d   1       0.670   0.961  -0.526  0.00  0.00    -0.073 A 
ATOM      7  C8  UNL d   1       1.926   0.868  -1.350  0.00  0.00     0.078 C 
ENDROOT
BRANCH   1   8
ATOM      8  C1  UNL d   1       0.583  -1.577  -0.194  0.00  0.00     0.053 C 
ATOM      9  C   UNL d   1      -0.408  -2.486  -0.902  0.00  0.00     0.018 C 
ENDBRANCH   1   8
TORSDOF 1
ENDMDL
