MODEL 1
REMARK minimizedAffinity -5.33964252
REMARK minimizedRMSD -1
REMARK  1 active torsions:
REMARK  status: ('A' for Active; 'I' for Inactive)
REMARK    1  A    between atoms: C1_2  and  C2_3 
ROOT
ATOM      1  C2  UNL d   1      -0.098   0.006   0.215  0.00  0.00    -0.076 A 
ATOM      2  C3  UNL d   1      -1.391   0.520   0.018  0.00  0.00     0.004 A 
ATOM      3  C4  UNL d   1      -1.593   1.875  -0.241  0.00  0.00    -0.003 A 
ATOM      4  C5  UNL d   1      -0.504   2.737  -0.308  0.00  0.00     0.000 A 
ATOM      5  C6  UNL d   1       0.787   2.241  -0.132  0.00  0.00     0.000 A 
ATOM      6  C7  UNL d   1       1.009   0.876   0.114  0.00  0.00    -0.073 A 
ATOM      7  C8  UNL d   1       2.423   0.396   0.301  0.00  0.00     0.078 C 
ENDROOT
BRANCH   1   8
ATOM      8  C1  UNL d   1       0.058  -1.467   0.520  0.00  0.00     0.053 C 
ATOM      9  C   UNL d   1      -0.210  -2.344  -0.693  0.00  0.00     0.018 C 
ENDBRANCH   1   8
TORSDOF 1
ENDMDL
