MODEL 1
REMARK minimizedAffinity -5.71294832
REMARK minimizedRMSD -1
REMARK  1 active torsions:
REMARK  status: ('A' for Active; 'I' for Inactive)
REMARK    1  A    between atoms: C1_2  and  C2_3 
ROOT
ATOM      1  C2  UNL d   1      -0.059  -0.597  -0.078  0.00  0.00    -0.076 A 
ATOM      2  C3  UNL d   1       1.202  -0.186  -0.544  0.00  0.00     0.004 A 
ATOM      3  C4  UNL d   1       1.526   1.167  -0.636  0.00  0.00    -0.003 A 
ATOM      4  C5  UNL d   1       0.595   2.130  -0.263  0.00  0.00     0.000 A 
ATOM      5  C6  UNL d   1      -0.655   1.739   0.217  0.00  0.00     0.000 A 
ATOM      6  C7  UNL d   1      -0.991   0.379   0.332  0.00  0.00    -0.073 A 
ATOM      7  C8  UNL d   1      -2.355   0.015   0.851  0.00  0.00     0.078 C 
ENDROOT
BRANCH   1   8
ATOM      8  C1  UNL d   1      -0.363  -2.078  -0.026  0.00  0.00     0.053 C 
ATOM      9  C   UNL d   1      -0.527  -2.688  -1.409  0.00  0.00     0.018 C 
ENDBRANCH   1   8
TORSDOF 1
ENDMDL
