MODEL 1
REMARK minimizedAffinity -4.03075647
REMARK minimizedRMSD -1
REMARK  1 active torsions:
REMARK  status: ('A' for Active; 'I' for Inactive)
REMARK    1  A    between atoms: C1_2  and  C2_3 
ROOT
ATOM      1  C2  UNL d   1       0.065  -0.091  -0.105  0.00  0.00    -0.076 A 
ATOM      2  C3  UNL d   1      -1.237   0.437  -0.052  0.00  0.00     0.004 A 
ATOM      3  C4  UNL d   1      -1.451   1.812   0.023  0.00  0.00    -0.003 A 
ATOM      4  C5  UNL d   1      -0.366   2.682   0.045  0.00  0.00     0.000 A 
ATOM      5  C6  UNL d   1       0.932   2.177  -0.025  0.00  0.00     0.000 A 
ATOM      6  C7  UNL d   1       1.164   0.794  -0.117  0.00  0.00    -0.073 A 
ATOM      7  C8  UNL d   1       2.585   0.303  -0.183  0.00  0.00     0.078 C 
ENDROOT
BRANCH   1   8
ATOM      8  C1  UNL d   1       0.236  -1.593  -0.157  0.00  0.00     0.053 C 
ATOM      9  C   UNL d   1      -0.014  -2.160  -1.546  0.00  0.00     0.018 C 
ENDBRANCH   1   8
TORSDOF 1
ENDMDL
