MODEL 1
REMARK minimizedAffinity -3.15953898
REMARK minimizedRMSD -1
REMARK  1 active torsions:
REMARK  status: ('A' for Active; 'I' for Inactive)
REMARK    1  A    between atoms: C1_2  and  C2_3 
ROOT
ATOM      1  C2  UNL d   1      -0.043  -0.023   0.058  0.00  0.00    -0.076 A 
ATOM      2  C3  UNL d   1       1.092   0.557  -0.535  0.00  0.00     0.004 A 
ATOM      3  C4  UNL d   1       1.198   1.938  -0.682  0.00  0.00    -0.003 A 
ATOM      4  C5  UNL d   1       0.171   2.764  -0.238  0.00  0.00     0.000 A 
ATOM      5  C6  UNL d   1      -0.955   2.207   0.368  0.00  0.00     0.000 A 
ATOM      6  C7  UNL d   1      -1.070   0.817   0.539  0.00  0.00    -0.073 A 
ATOM      7  C8  UNL d   1      -2.309   0.270   1.194  0.00  0.00     0.078 C 
ENDROOT
BRANCH   1   8
ATOM      8  C1  UNL d   1      -0.114  -1.529   0.167  0.00  0.00     0.053 C 
ATOM      9  C   UNL d   1      -0.300  -2.203  -1.184  0.00  0.00     0.018 C 
ENDBRANCH   1   8
TORSDOF 1
ENDMDL
