MODEL 1
REMARK minimizedAffinity -4.24486876
REMARK minimizedRMSD -1
REMARK  1 active torsions:
REMARK  status: ('A' for Active; 'I' for Inactive)
REMARK    1  A    between atoms: C1_2  and  C2_3 
ROOT
ATOM      1  C2  UNL d   1       0.125  -0.016  -0.003  0.00  0.00    -0.076 A 
ATOM      2  C3  UNL d   1      -1.163   0.546   0.010  0.00  0.00     0.004 A 
ATOM      3  C4  UNL d   1      -1.344   1.928   0.011  0.00  0.00    -0.003 A 
ATOM      4  C5  UNL d   1      -0.238   2.771  -0.002  0.00  0.00     0.000 A 
ATOM      5  C6  UNL d   1       1.048   2.231  -0.033  0.00  0.00     0.000 A 
ATOM      6  C7  UNL d   1       1.246   0.839  -0.051  0.00  0.00    -0.073 A 
ATOM      7  C8  UNL d   1       2.655   0.312  -0.079  0.00  0.00     0.078 C 
ENDROOT
BRANCH   1   8
ATOM      8  C1  UNL d   1       0.259  -1.522   0.024  0.00  0.00     0.053 C 
ATOM      9  C   UNL d   1      -0.154  -2.168  -1.290  0.00  0.00     0.018 C 
ENDBRANCH   1   8
TORSDOF 1
ENDMDL
