MODEL 1
REMARK minimizedAffinity -3.17716122
REMARK minimizedRMSD -1
REMARK  1 active torsions:
REMARK  status: ('A' for Active; 'I' for Inactive)
REMARK    1  A    between atoms: C1_2  and  C2_3 
ROOT
ATOM      1  C2  UNL d   1       0.007  -0.015  -0.032  0.00  0.00    -0.076 A 
ATOM      2  C3  UNL d   1       1.262   0.556  -0.305  0.00  0.00     0.004 A 
ATOM      3  C4  UNL d   1       1.435   1.940  -0.308  0.00  0.00    -0.003 A 
ATOM      4  C5  UNL d   1       0.356   2.774  -0.038  0.00  0.00     0.000 A 
ATOM      5  C6  UNL d   1      -0.892   2.223   0.251  0.00  0.00     0.000 A 
ATOM      6  C7  UNL d   1      -1.080   0.831   0.275  0.00  0.00    -0.073 A 
ATOM      7  C8  UNL d   1      -2.449   0.292   0.587  0.00  0.00     0.078 C 
ENDROOT
BRANCH   1   8
ATOM      8  C1  UNL d   1      -0.126  -1.521  -0.070  0.00  0.00     0.053 C 
ATOM      9  C   UNL d   1      -0.141  -2.069  -1.488  0.00  0.00     0.018 C 
ENDBRANCH   1   8
TORSDOF 1
ENDMDL
