MODEL 1
REMARK minimizedAffinity -2.63612962
REMARK minimizedRMSD -1
REMARK  1 active torsions:
REMARK  status: ('A' for Active; 'I' for Inactive)
REMARK    1  A    between atoms: C1_2  and  C2_3 
ROOT
ATOM      1  C2  UNL d   1      -0.086   0.792  -0.463  0.00  0.00    -0.076 A 
ATOM      2  C3  UNL d   1       0.519   1.813  -1.216  0.00  0.00     0.004 A 
ATOM      3  C4  UNL d   1       0.632   3.107  -0.710  0.00  0.00    -0.003 A 
ATOM      4  C5  UNL d   1       0.142   3.401   0.558  0.00  0.00     0.000 A 
ATOM      5  C6  UNL d   1      -0.446   2.396   1.326  0.00  0.00     0.000 A 
ATOM      6  C7  UNL d   1      -0.553   1.082   0.837  0.00  0.00    -0.073 A 
ATOM      7  C8  UNL d   1      -1.201   0.039   1.706  0.00  0.00     0.078 C 
ENDROOT
BRANCH   1   8
ATOM      8  C1  UNL d   1      -0.205  -0.586  -1.075  0.00  0.00     0.053 C 
ATOM      9  C   UNL d   1      -1.420  -0.719  -1.980  0.00  0.00     0.018 C 
ENDBRANCH   1   8
TORSDOF 1
ENDMDL
