MODEL 1
REMARK minimizedAffinity 0.263573945
REMARK minimizedRMSD -1
REMARK  1 active torsions:
REMARK  status: ('A' for Active; 'I' for Inactive)
REMARK    1  A    between atoms: C1_2  and  C2_3 
ROOT
ATOM      1  C2  UNL d   1       2.017  -1.406   3.334  0.00  0.00    -0.076 A 
ATOM      2  C3  UNL d   1       3.230  -1.516   4.036  0.00  0.00     0.004 A 
ATOM      3  C4  UNL d   1       4.427  -1.073   3.474  0.00  0.00    -0.003 A 
ATOM      4  C5  UNL d   1       4.429  -0.512   2.202  0.00  0.00     0.000 A 
ATOM      5  C6  UNL d   1       3.232  -0.379   1.498  0.00  0.00     0.000 A 
ATOM      6  C7  UNL d   1       2.015  -0.806   2.057  0.00  0.00    -0.073 A 
ATOM      7  C8  UNL d   1       0.755  -0.644   1.251  0.00  0.00     0.078 C 
ENDROOT
BRANCH   1   8
ATOM      8  C1  UNL d   1       0.755  -1.928   3.983  0.00  0.00     0.053 C 
ATOM      9  C   UNL d   1       0.407  -1.184   5.263  0.00  0.00     0.018 C 
ENDBRANCH   1   8
TORSDOF 1
ENDMDL
