MODEL 1
REMARK minimizedAffinity -2.43441725
REMARK minimizedRMSD -1
REMARK  1 active torsions:
REMARK  status: ('A' for Active; 'I' for Inactive)
REMARK    1  A    between atoms: C1_2  and  C2_3 
ROOT
ATOM      1  C2  UNL d   1       2.099  -1.053   2.230  0.00  0.00    -0.076 A 
ATOM      2  C3  UNL d   1       3.215  -0.375   1.711  0.00  0.00     0.004 A 
ATOM      3  C4  UNL d   1       4.390  -0.254   2.452  0.00  0.00    -0.003 A 
ATOM      4  C5  UNL d   1       4.467  -0.809   3.724  0.00  0.00     0.000 A 
ATOM      5  C6  UNL d   1       3.375  -1.500   4.248  0.00  0.00     0.000 A 
ATOM      6  C7  UNL d   1       2.189  -1.645   3.508  0.00  0.00    -0.073 A 
ATOM      7  C8  UNL d   1       1.040  -2.395   4.125  0.00  0.00     0.078 C 
ENDROOT
BRANCH   1   8
ATOM      8  C1  UNL d   1       0.843  -1.129   1.392  0.00  0.00     0.053 C 
ATOM      9  C   UNL d   1       0.750   0.000   0.378  0.00  0.00     0.018 C 
ENDBRANCH   1   8
TORSDOF 1
ENDMDL
