MODEL 1
REMARK minimizedAffinity -0.0474104248
REMARK minimizedRMSD -1
REMARK  1 active torsions:
REMARK  status: ('A' for Active; 'I' for Inactive)
REMARK    1  A    between atoms: C1_2  and  C2_3 
ROOT
ATOM      1  C2  UNL d   1       2.601  -1.366   2.481  0.00  0.00    -0.076 A 
ATOM      2  C3  UNL d   1       2.161  -0.276   1.711  0.00  0.00     0.004 A 
ATOM      3  C4  UNL d   1       1.040  -0.382   0.891  0.00  0.00    -0.003 A 
ATOM      4  C5  UNL d   1       0.339  -1.582   0.827  0.00  0.00     0.000 A 
ATOM      5  C6  UNL d   1       0.751  -2.669   1.598  0.00  0.00     0.000 A 
ATOM      6  C7  UNL d   1       1.870  -2.573   2.443  0.00  0.00    -0.073 A 
ATOM      7  C8  UNL d   1       2.273  -3.778   3.247  0.00  0.00     0.078 C 
ENDROOT
BRANCH   1   8
ATOM      8  C1  UNL d   1       3.840  -1.200   3.332  0.00  0.00     0.053 C 
ATOM      9  C   UNL d   1       4.905  -0.355   2.650  0.00  0.00     0.018 C 
ENDBRANCH   1   8
TORSDOF 1
ENDMDL
