MODEL 1
REMARK minimizedAffinity 2.70512676
REMARK minimizedRMSD -1
REMARK  1 active torsions:
REMARK  status: ('A' for Active; 'I' for Inactive)
REMARK    1  A    between atoms: C1_2  and  C2_3 
ROOT
ATOM      1  C2  UNL d   1       1.111  -0.745   1.298  0.00  0.00    -0.076 A 
ATOM      2  C3  UNL d   1       1.022  -1.551   2.446  0.00  0.00     0.004 A 
ATOM      3  C4  UNL d   1       2.165  -1.921   3.153  0.00  0.00    -0.003 A 
ATOM      4  C5  UNL d   1       3.415  -1.490   2.724  0.00  0.00     0.000 A 
ATOM      5  C6  UNL d   1       3.521  -0.675   1.597  0.00  0.00     0.000 A 
ATOM      6  C7  UNL d   1       2.377  -0.279   0.882  0.00  0.00    -0.073 A 
ATOM      7  C8  UNL d   1       2.549   0.596  -0.329  0.00  0.00     0.078 C 
ENDROOT
BRANCH   1   8
ATOM      8  C1  UNL d   1      -0.160  -0.398   0.556  0.00  0.00     0.053 C 
ATOM      9  C   UNL d   1      -0.709   0.966   0.945  0.00  0.00     0.018 C 
ENDBRANCH   1   8
TORSDOF 1
ENDMDL
