MODEL 1
REMARK minimizedAffinity -1.15313137
REMARK minimizedRMSD -1
REMARK  1 active torsions:
REMARK  status: ('A' for Active; 'I' for Inactive)
REMARK    1  A    between atoms: C1_2  and  C2_3 
ROOT
ATOM      1  C2  UNL d   1       2.382  -0.946   1.680  0.00  0.00    -0.076 A 
ATOM      2  C3  UNL d   1       1.988   0.172   0.924  0.00  0.00     0.004 A 
ATOM      3  C4  UNL d   1       0.835   0.138   0.140  0.00  0.00    -0.003 A 
ATOM      4  C5  UNL d   1       0.058  -1.015   0.101  0.00  0.00     0.000 A 
ATOM      5  C6  UNL d   1       0.424  -2.126   0.859  0.00  0.00     0.000 A 
ATOM      6  C7  UNL d   1       1.574  -2.103   1.666  0.00  0.00    -0.073 A 
ATOM      7  C8  UNL d   1       1.926  -3.333   2.458  0.00  0.00     0.078 C 
ENDROOT
BRANCH   1   8
ATOM      8  C1  UNL d   1       3.656  -0.859   2.489  0.00  0.00     0.053 C 
ATOM      9  C   UNL d   1       3.392  -0.609   3.966  0.00  0.00     0.018 C 
ENDBRANCH   1   8
TORSDOF 1
ENDMDL
