MODEL 1
REMARK minimizedAffinity -1.40126944
REMARK minimizedRMSD -1
REMARK  1 active torsions:
REMARK  status: ('A' for Active; 'I' for Inactive)
REMARK    1  A    between atoms: C1_2  and  C2_3 
ROOT
ATOM      1  C2  UNL d   1       0.848  -0.694   1.634  0.00  0.00    -0.076 A 
ATOM      2  C3  UNL d   1       0.302  -1.251   2.803  0.00  0.00     0.004 A 
ATOM      3  C4  UNL d   1       0.891  -2.358   3.413  0.00  0.00    -0.003 A 
ATOM      4  C5  UNL d   1       2.036  -2.925   2.863  0.00  0.00     0.000 A 
ATOM      5  C6  UNL d   1       2.601  -2.374   1.714  0.00  0.00     0.000 A 
ATOM      6  C7  UNL d   1       2.029  -1.248   1.096  0.00  0.00    -0.073 A 
ATOM      7  C8  UNL d   1       2.677  -0.699  -0.146  0.00  0.00     0.078 C 
ENDROOT
BRANCH   1   8
ATOM      8  C1  UNL d   1       0.151   0.489   1.002  0.00  0.00     0.053 C 
ATOM      9  C   UNL d   1      -1.289   0.182   0.621  0.00  0.00     0.018 C 
ENDBRANCH   1   8
TORSDOF 1
ENDMDL
