MODEL 1
REMARK minimizedAffinity 3.47399402
REMARK minimizedRMSD -1
REMARK  1 active torsions:
REMARK  status: ('A' for Active; 'I' for Inactive)
REMARK    1  A    between atoms: C1_2  and  C2_3 
ROOT
ATOM      1  C2  UNL d   1       2.965   4.250   0.446  0.00  0.00    -0.076 A 
ATOM      2  C3  UNL d   1       1.840   3.694  -0.187  0.00  0.00     0.004 A 
ATOM      3  C4  UNL d   1       0.560   4.186   0.061  0.00  0.00    -0.003 A 
ATOM      4  C5  UNL d   1       0.384   5.243   0.947  0.00  0.00     0.000 A 
ATOM      5  C6  UNL d   1       1.490   5.818   1.571  0.00  0.00     0.000 A 
ATOM      6  C7  UNL d   1       2.789   5.345   1.319  0.00  0.00    -0.073 A 
ATOM      7  C8  UNL d   1       3.946   5.998   2.025  0.00  0.00     0.078 C 
ENDROOT
BRANCH   1   8
ATOM      8  C1  UNL d   1       4.325   3.656   0.158  0.00  0.00     0.053 C 
ATOM      9  C   UNL d   1       5.200   4.581  -0.674  0.00  0.00     0.018 C 
ENDBRANCH   1   8
TORSDOF 1
ENDMDL
