MODEL 1
REMARK minimizedAffinity -2.94331431
REMARK minimizedRMSD -1
REMARK  1 active torsions:
REMARK  status: ('A' for Active; 'I' for Inactive)
REMARK    1  A    between atoms: C1_2  and  C2_3 
ROOT
ATOM      1  C2  UNL d   1      -4.409  -0.916  -0.986  0.00  0.00    -0.076 A 
ATOM      2  C3  UNL d   1      -3.990  -0.498  -2.261  0.00  0.00     0.004 A 
ATOM      3  C4  UNL d   1      -4.450   0.698  -2.810  0.00  0.00    -0.003 A 
ATOM      4  C5  UNL d   1      -5.337   1.494  -2.094  0.00  0.00     0.000 A 
ATOM      5  C6  UNL d   1      -5.749   1.103  -0.820  0.00  0.00     0.000 A 
ATOM      6  C7  UNL d   1      -5.281  -0.091  -0.245  0.00  0.00    -0.073 A 
ATOM      7  C8  UNL d   1      -5.764  -0.467   1.129  0.00  0.00     0.078 C 
ENDROOT
BRANCH   1   8
ATOM      8  C1  UNL d   1      -3.897  -2.235  -0.452  0.00  0.00     0.053 C 
ATOM      9  C   UNL d   1      -2.475  -2.137   0.080  0.00  0.00     0.018 C 
ENDBRANCH   1   8
TORSDOF 1
ENDMDL
