MODEL 1
REMARK minimizedAffinity 9.32107258
REMARK minimizedRMSD -1
REMARK  1 active torsions:
REMARK  status: ('A' for Active; 'I' for Inactive)
REMARK    1  A    between atoms: C1_2  and  C2_3 
ROOT
ATOM      1  C2  UNL d   1       2.748  -0.665   1.038  0.00  0.00    -0.076 A 
ATOM      2  C3  UNL d   1       1.878  -1.713   1.384  0.00  0.00     0.004 A 
ATOM      3  C4  UNL d   1       0.611  -1.813   0.812  0.00  0.00    -0.003 A 
ATOM      4  C5  UNL d   1       0.194  -0.867  -0.118  0.00  0.00     0.000 A 
ATOM      5  C6  UNL d   1       1.051   0.169  -0.487  0.00  0.00     0.000 A 
ATOM      6  C7  UNL d   1       2.338   0.275   0.069  0.00  0.00    -0.073 A 
ATOM      7  C8  UNL d   1       3.218   1.417  -0.361  0.00  0.00     0.078 C 
ENDROOT
BRANCH   1   8
ATOM      8  C1  UNL d   1       4.100  -0.593   1.712  0.00  0.00     0.053 C 
ATOM      9  C   UNL d   1       4.069  -1.124   3.137  0.00  0.00     0.018 C 
ENDBRANCH   1   8
TORSDOF 1
ENDMDL
