MODEL 1
REMARK minimizedAffinity -1.87472332
REMARK minimizedRMSD -1
REMARK  1 active torsions:
REMARK  status: ('A' for Active; 'I' for Inactive)
REMARK    1  A    between atoms: C1_2  and  C2_3 
ROOT
ATOM      1  C2  UNL d   1       3.342   2.535  -0.162  0.00  0.00    -0.076 A 
ATOM      2  C3  UNL d   1       3.811   1.294  -0.627  0.00  0.00     0.004 A 
ATOM      3  C4  UNL d   1       2.955   0.200  -0.739  0.00  0.00    -0.003 A 
ATOM      4  C5  UNL d   1       1.615   0.329  -0.387  0.00  0.00     0.000 A 
ATOM      5  C6  UNL d   1       1.129   1.557   0.060  0.00  0.00     0.000 A 
ATOM      6  C7  UNL d   1       1.976   2.675   0.163  0.00  0.00    -0.073 A 
ATOM      7  C8  UNL d   1       1.400   3.973   0.656  0.00  0.00     0.078 C 
ENDROOT
BRANCH   1   8
ATOM      8  C1  UNL d   1       4.323   3.679  -0.036  0.00  0.00     0.053 C 
ATOM      9  C   UNL d   1       5.394   3.649  -1.115  0.00  0.00     0.018 C 
ENDBRANCH   1   8
TORSDOF 1
ENDMDL
