MODEL 1
REMARK minimizedAffinity 5.76527452
REMARK minimizedRMSD -1
REMARK  1 active torsions:
REMARK  status: ('A' for Active; 'I' for Inactive)
REMARK    1  A    between atoms: C1_2  and  C2_3 
ROOT
ATOM      1  C2  UNL d   1       3.011  -1.137   0.631  0.00  0.00    -0.076 A 
ATOM      2  C3  UNL d   1       2.214  -2.295   0.665  0.00  0.00     0.004 A 
ATOM      3  C4  UNL d   1       0.989  -2.343   0.003  0.00  0.00    -0.003 A 
ATOM      4  C5  UNL d   1       0.539  -1.233  -0.705  0.00  0.00     0.000 A 
ATOM      5  C6  UNL d   1       1.324  -0.082  -0.764  0.00  0.00     0.000 A 
ATOM      6  C7  UNL d   1       2.570  -0.023  -0.116  0.00  0.00    -0.073 A 
ATOM      7  C8  UNL d   1       3.373   1.246  -0.208  0.00  0.00     0.078 C 
ENDROOT
BRANCH   1   8
ATOM      8  C1  UNL d   1       4.318  -1.135   1.390  0.00  0.00     0.053 C 
ATOM      9  C   UNL d   1       4.116  -1.138   2.898  0.00  0.00     0.018 C 
ENDBRANCH   1   8
TORSDOF 1
ENDMDL
