MODEL 1
REMARK minimizedAffinity 9.31989574
REMARK minimizedRMSD -1
REMARK  1 active torsions:
REMARK  status: ('A' for Active; 'I' for Inactive)
REMARK    1  A    between atoms: C1_2  and  C2_3 
ROOT
ATOM      1  C2  UNL d   1      -0.659  -2.290   0.547  0.00  0.00    -0.076 A 
ATOM      2  C3  UNL d   1       0.729  -2.502   0.611  0.00  0.00     0.004 A 
ATOM      3  C4  UNL d   1       1.612  -1.434   0.758  0.00  0.00    -0.003 A 
ATOM      4  C5  UNL d   1       1.120  -0.136   0.845  0.00  0.00     0.000 A 
ATOM      5  C6  UNL d   1      -0.255   0.091   0.801  0.00  0.00     0.000 A 
ATOM      6  C7  UNL d   1      -1.159  -0.976   0.669  0.00  0.00    -0.073 A 
ATOM      7  C8  UNL d   1      -2.632  -0.673   0.622  0.00  0.00     0.078 C 
ENDROOT
BRANCH   1   8
ATOM      8  C1  UNL d   1      -1.566  -3.485   0.359  0.00  0.00     0.053 C 
ATOM      9  C   UNL d   1      -2.158  -3.979   1.670  0.00  0.00     0.018 C 
ENDBRANCH   1   8
TORSDOF 1
ENDMDL
