MODEL 1
REMARK minimizedAffinity 7.4151783
REMARK minimizedRMSD -1
REMARK  1 active torsions:
REMARK  status: ('A' for Active; 'I' for Inactive)
REMARK    1  A    between atoms: C1_2  and  C2_3 
ROOT
ATOM      1  C2  UNL d   1       2.935   2.494  -0.214  0.00  0.00    -0.076 A 
ATOM      2  C3  UNL d   1       3.426   1.224  -0.563  0.00  0.00     0.004 A 
ATOM      3  C4  UNL d   1       2.599   0.103  -0.538  0.00  0.00    -0.003 A 
ATOM      4  C5  UNL d   1       1.266   0.233  -0.164  0.00  0.00     0.000 A 
ATOM      5  C6  UNL d   1       0.757   1.488   0.169  0.00  0.00     0.000 A 
ATOM      6  C7  UNL d   1       1.574   2.631   0.133  0.00  0.00    -0.073 A 
ATOM      7  C8  UNL d   1       0.974   3.959   0.508  0.00  0.00     0.078 C 
ENDROOT
BRANCH   1   8
ATOM      8  C1  UNL d   1       3.886   3.669  -0.233  0.00  0.00     0.053 C 
ATOM      9  C   UNL d   1       4.829   3.636  -1.426  0.00  0.00     0.018 C 
ENDBRANCH   1   8
TORSDOF 1
ENDMDL
