MODEL 1
REMARK minimizedAffinity 8.21457005
REMARK minimizedRMSD -1
REMARK  1 active torsions:
REMARK  status: ('A' for Active; 'I' for Inactive)
REMARK    1  A    between atoms: C1_2  and  C2_3 
ROOT
ATOM      1  C2  UNL d   1       0.328  -5.255  -4.690  0.00  0.00    -0.076 A 
ATOM      2  C3  UNL d   1       0.887  -5.999  -5.743  0.00  0.00     0.004 A 
ATOM      3  C4  UNL d   1       2.258  -5.968  -5.994  0.00  0.00    -0.003 A 
ATOM      4  C5  UNL d   1       3.091  -5.192  -5.197  0.00  0.00     0.000 A 
ATOM      5  C6  UNL d   1       2.556  -4.461  -4.137  0.00  0.00     0.000 A 
ATOM      6  C7  UNL d   1       1.178  -4.494  -3.859  0.00  0.00    -0.073 A 
ATOM      7  C8  UNL d   1       0.654  -3.682  -2.707  0.00  0.00     0.078 C 
ENDROOT
BRANCH   1   8
ATOM      8  C1  UNL d   1      -1.169  -5.307  -4.481  0.00  0.00     0.053 C 
ATOM      9  C   UNL d   1      -1.921  -5.688  -5.747  0.00  0.00     0.018 C 
ENDBRANCH   1   8
TORSDOF 1
ENDMDL
