MODEL 1
REMARK minimizedAffinity 9.33505821
REMARK minimizedRMSD -1
REMARK  0 active torsions:
REMARK  status: ('A' for Active; 'I' for Inactive)
ROOT
ATOM      1  O1  BZF d   1      -2.335   2.341   1.637  0.00  0.00    -0.204 OA
ATOM      2  C2  BZF d   1      -1.592   2.606   0.502  0.00  0.00     0.174 A 
ATOM      3  C3  BZF d   1      -2.304   3.346  -0.373  0.00  0.00    -0.012 A 
ATOM      4  C3A BZF d   1      -3.537   3.634   0.294  0.00  0.00    -0.107 A 
ATOM      5  C4  BZF d   1      -4.649   4.345  -0.056  0.00  0.00     0.055 A 
ATOM      6  C5  BZF d   1      -5.710   4.372   0.793  0.00  0.00    -0.016 A 
ATOM      7  C6  BZF d   1      -5.694   3.696   1.996  0.00  0.00     0.022 A 
ATOM      8  C7  BZF d   1      -4.612   2.982   2.388  0.00  0.00     0.029 A 
ATOM      9  C7A BZF d   1      -3.526   2.980   1.547  0.00  0.00     0.058 A 
ENDROOT
TORSDOF 0
ENDMDL
