MODEL 1
REMARK minimizedAffinity 5.36804914
REMARK minimizedRMSD -1
REMARK  0 active torsions:
REMARK  status: ('A' for Active; 'I' for Inactive)
ROOT
ATOM      1  O1  BZF d   1       5.258  -1.932   4.127  0.00  0.00    -0.204 OA
ATOM      2  C2  BZF d   1       5.351  -2.579   5.344  0.00  0.00     0.174 A 
ATOM      3  C3  BZF d   1       4.125  -2.870   5.825  0.00  0.00    -0.012 A 
ATOM      4  C3A BZF d   1       3.212  -2.458   4.804  0.00  0.00    -0.107 A 
ATOM      5  C4  BZF d   1       1.852  -2.500   4.688  0.00  0.00     0.055 A 
ATOM      6  C5  BZF d   1       1.265  -1.948   3.594  0.00  0.00    -0.016 A 
ATOM      7  C6  BZF d   1       2.006  -1.341   2.601  0.00  0.00     0.022 A 
ATOM      8  C7  BZF d   1       3.358  -1.278   2.670  0.00  0.00     0.029 A 
ATOM      9  C7A BZF d   1       3.956  -1.865   3.758  0.00  0.00     0.058 A 
ENDROOT
TORSDOF 0
ENDMDL
