MODEL 1
REMARK minimizedAffinity 9.29075241
REMARK minimizedRMSD -1
REMARK  0 active torsions:
REMARK  status: ('A' for Active; 'I' for Inactive)
ROOT
ATOM      1  O1  BZF d   1       3.751  -1.941  -5.995  0.00  0.00    -0.204 OA
ATOM      2  C2  BZF d   1       4.933  -2.656  -5.975  0.00  0.00     0.174 A 
ATOM      3  C3  BZF d   1       5.995  -1.825  -5.996  0.00  0.00    -0.012 A 
ATOM      4  C3A BZF d   1       5.443  -0.507  -5.938  0.00  0.00    -0.107 A 
ATOM      5  C4  BZF d   1       5.995   0.742  -5.912  0.00  0.00     0.055 A 
ATOM      6  C5  BZF d   1       5.176   1.826  -5.929  0.00  0.00    -0.016 A 
ATOM      7  C6  BZF d   1       3.803   1.699  -5.978  0.00  0.00     0.022 A 
ATOM      8  C7  BZF d   1       3.209   0.481  -6.000  0.00  0.00     0.029 A 
ATOM      9  C7A BZF d   1       4.033  -0.617  -5.949  0.00  0.00     0.058 A 
ENDROOT
TORSDOF 0
ENDMDL
