MODEL 1
REMARK minimizedAffinity 10.2710094
REMARK minimizedRMSD -1
REMARK  0 active torsions:
REMARK  status: ('A' for Active; 'I' for Inactive)
ROOT
ATOM      1  O1  BZF d   1      -2.114  -0.055  -1.936  0.00  0.00    -0.204 OA
ATOM      2  C2  BZF d   1      -1.629  -1.035  -1.091  0.00  0.00     0.174 A 
ATOM      3  C3  BZF d   1      -1.480  -0.555   0.161  0.00  0.00    -0.012 A 
ATOM      4  C3A BZF d   1      -1.985   0.783   0.114  0.00  0.00    -0.107 A 
ATOM      5  C4  BZF d   1      -2.121   1.768   1.050  0.00  0.00     0.055 A 
ATOM      6  C5  BZF d   1      -2.583   2.986   0.664  0.00  0.00    -0.016 A 
ATOM      7  C6  BZF d   1      -2.913   3.255  -0.648  0.00  0.00     0.022 A 
ATOM      8  C7  BZF d   1      -2.800   2.308  -1.611  0.00  0.00     0.029 A 
ATOM      9  C7A BZF d   1      -2.364   1.066  -1.218  0.00  0.00     0.058 A 
ENDROOT
TORSDOF 0
ENDMDL
