MODEL 1
REMARK minimizedAffinity 16.0452461
REMARK minimizedRMSD -1
REMARK  0 active torsions:
REMARK  status: ('A' for Active; 'I' for Inactive)
ROOT
ATOM      1  O1  BZF d   1       2.870   0.240  -3.710  0.00  0.00    -0.204 OA
ATOM      2  C2  BZF d   1       3.407  -0.926  -3.202  0.00  0.00     0.174 A 
ATOM      3  C3  BZF d   1       4.637  -1.147  -3.707  0.00  0.00    -0.012 A 
ATOM      4  C3A BZF d   1       4.923  -0.002  -4.516  0.00  0.00    -0.107 A 
ATOM      5  C4  BZF d   1       6.000   0.372  -5.268  0.00  0.00     0.055 A 
ATOM      6  C5  BZF d   1       5.932   1.517  -5.996  0.00  0.00    -0.016 A 
ATOM      7  C6  BZF d   1       4.802   2.309  -5.999  0.00  0.00     0.022 A 
ATOM      8  C7  BZF d   1       3.711   1.982  -5.266  0.00  0.00     0.029 A 
ATOM      9  C7A BZF d   1       3.789   0.843  -4.503  0.00  0.00     0.058 A 
ENDROOT
TORSDOF 0
ENDMDL
