MODEL 1
REMARK minimizedAffinity 15.503624
REMARK minimizedRMSD -1
REMARK  0 active torsions:
REMARK  status: ('A' for Active; 'I' for Inactive)
ROOT
ATOM      1  O1  BZF d   1       0.279  -0.246  -0.980  0.00  0.00    -0.204 OA
ATOM      2  C2  BZF d   1       1.315  -1.122  -0.721  0.00  0.00     0.174 A 
ATOM      3  C3  BZF d   1       2.177  -0.594   0.171  0.00  0.00    -0.012 A 
ATOM      4  C3A BZF d   1       1.598   0.655   0.560  0.00  0.00    -0.107 A 
ATOM      5  C4  BZF d   1       1.978   1.635   1.432  0.00  0.00     0.055 A 
ATOM      6  C5  BZF d   1       1.226   2.763   1.526  0.00  0.00    -0.016 A 
ATOM      7  C6  BZF d   1       0.094   2.947   0.760  0.00  0.00     0.022 A 
ATOM      8  C7  BZF d   1      -0.325   2.001  -0.116  0.00  0.00     0.029 A 
ATOM      9  C7A BZF d   1       0.414   0.846  -0.189  0.00  0.00     0.058 A 
ENDROOT
TORSDOF 0
ENDMDL
