MODEL 1
REMARK minimizedAffinity 6.32626677
REMARK minimizedRMSD -1
REMARK  0 active torsions:
REMARK  status: ('A' for Active; 'I' for Inactive)
ROOT
ATOM      1  O1  BZF d   1      -0.704  -0.750   0.023  0.00  0.00    -0.204 OA
ATOM      2  C2  BZF d   1       0.467  -0.999  -0.666  0.00  0.00     0.174 A 
ATOM      3  C3  BZF d   1       1.160   0.142  -0.859  0.00  0.00    -0.012 A 
ATOM      4  C3A BZF d   1       0.418   1.154  -0.172  0.00  0.00    -0.107 A 
ATOM      5  C4  BZF d   1       0.608   2.494   0.014  0.00  0.00     0.055 A 
ATOM      6  C5  BZF d   1      -0.341   3.209   0.673  0.00  0.00    -0.016 A 
ATOM      7  C6  BZF d   1      -1.492   2.620   1.153  0.00  0.00     0.022 A 
ATOM      8  C7  BZF d   1      -1.722   1.293   0.997  0.00  0.00     0.029 A 
ATOM      9  C7A BZF d   1      -0.750   0.561   0.361  0.00  0.00     0.058 A 
ENDROOT
TORSDOF 0
ENDMDL
