MODEL 1
REMARK minimizedAffinity 3.81274581
REMARK minimizedRMSD -1
REMARK  0 active torsions:
REMARK  status: ('A' for Active; 'I' for Inactive)
ROOT
ATOM      1  O1  BZF d   1       2.102  -1.309   4.550  0.00  0.00    -0.204 OA
ATOM      2  C2  BZF d   1       2.081  -0.800   3.266  0.00  0.00     0.174 A 
ATOM      3  C3  BZF d   1       3.320  -0.794   2.733  0.00  0.00    -0.012 A 
ATOM      4  C3A BZF d   1       4.154  -1.420   3.713  0.00  0.00    -0.107 A 
ATOM      5  C4  BZF d   1       5.485  -1.721   3.759  0.00  0.00     0.055 A 
ATOM      6  C5  BZF d   1       6.000  -2.266   4.892  0.00  0.00    -0.016 A 
ATOM      7  C6  BZF d   1       5.215  -2.518   5.999  0.00  0.00     0.022 A 
ATOM      8  C7  BZF d   1       3.888  -2.241   5.999  0.00  0.00     0.029 A 
ATOM      9  C7A BZF d   1       3.358  -1.720   4.843  0.00  0.00     0.058 A 
ENDROOT
TORSDOF 0
ENDMDL
