MODEL 1
REMARK minimizedAffinity -1.08867252
REMARK minimizedRMSD -1
REMARK  0 active torsions:
REMARK  status: ('A' for Active; 'I' for Inactive)
ROOT
ATOM      1  C   UNL d   1       0.577  -5.999  -5.943  0.00  0.00     0.077 C 
ATOM      2  C1  UNL d   1      -0.655  -5.578  -5.200  0.00  0.00    -0.074 A 
ATOM      3  C2  UNL d   1      -0.728  -5.688  -3.808  0.00  0.00    -0.005 A 
ATOM      4  C3  UNL d   1      -1.877  -5.283  -3.129  0.00  0.00     0.006 A 
ATOM      5  C4  UNL d   1      -2.964  -4.765  -3.835  0.00  0.00    -0.005 A 
ATOM      6  C5  UNL d   1      -2.909  -4.647  -5.227  0.00  0.00    -0.074 A 
ATOM      7  C6  UNL d   1      -4.064  -4.083  -6.000  0.00  0.00     0.077 C 
ATOM      8  C7  UNL d   1      -1.748  -5.049  -5.901  0.00  0.00    -0.001 A 
ENDROOT
TORSDOF 0
ENDMDL
