MODEL 1
REMARK minimizedAffinity 3.83035111
REMARK minimizedRMSD -1
REMARK  0 active torsions:
REMARK  status: ('A' for Active; 'I' for Inactive)
ROOT
ATOM      1  C   UNL d   1       5.554  -1.426   1.404  0.00  0.00     0.077 C 
ATOM      2  C1  UNL d   1       4.108  -1.091   1.188  0.00  0.00    -0.074 A 
ATOM      3  C2  UNL d   1       3.708   0.219   0.908  0.00  0.00    -0.005 A 
ATOM      4  C3  UNL d   1       2.360   0.514   0.700  0.00  0.00     0.006 A 
ATOM      5  C4  UNL d   1       1.401  -0.497   0.769  0.00  0.00    -0.005 A 
ATOM      6  C5  UNL d   1       1.783  -1.814   1.047  0.00  0.00    -0.074 A 
ATOM      7  C6  UNL d   1       0.766  -2.914   1.115  0.00  0.00     0.077 C 
ATOM      8  C7  UNL d   1       3.139  -2.103   1.248  0.00  0.00    -0.001 A 
ENDROOT
TORSDOF 0
ENDMDL
