MODEL 1
REMARK minimizedAffinity 1.27148521
REMARK minimizedRMSD -1
REMARK  0 active torsions:
REMARK  status: ('A' for Active; 'I' for Inactive)
ROOT
ATOM      1  C   UNL d   1      -1.341   0.798   0.097  0.00  0.00     0.077 C 
ATOM      2  C1  UNL d   1      -0.425  -0.279   0.598  0.00  0.00    -0.074 A 
ATOM      3  C2  UNL d   1       0.788  -0.548  -0.044  0.00  0.00    -0.005 A 
ATOM      4  C3  UNL d   1       1.634  -1.546   0.439  0.00  0.00     0.006 A 
ATOM      5  C4  UNL d   1       1.276  -2.284   1.567  0.00  0.00    -0.005 A 
ATOM      6  C5  UNL d   1       0.067  -2.030   2.223  0.00  0.00    -0.074 A 
ATOM      7  C6  UNL d   1      -0.328  -2.808   3.443  0.00  0.00     0.077 C 
ATOM      8  C7  UNL d   1      -0.774  -1.020   1.736  0.00  0.00    -0.001 A 
ENDROOT
TORSDOF 0
ENDMDL
