MODEL 1
REMARK minimizedAffinity -0.0950640589
REMARK minimizedRMSD -1
REMARK  0 active torsions:
REMARK  status: ('A' for Active; 'I' for Inactive)
ROOT
ATOM      1  C   UNL d   1       0.090  -2.923   3.271  0.00  0.00     0.077 C 
ATOM      2  C1  UNL d   1       0.481  -2.178   2.029  0.00  0.00    -0.074 A 
ATOM      3  C2  UNL d   1       1.631  -2.526   1.313  0.00  0.00    -0.005 A 
ATOM      4  C3  UNL d   1       1.976  -1.830   0.155  0.00  0.00     0.006 A 
ATOM      5  C4  UNL d   1       1.176  -0.781  -0.299  0.00  0.00    -0.005 A 
ATOM      6  C5  UNL d   1       0.022  -0.418   0.403  0.00  0.00    -0.074 A 
ATOM      7  C6  UNL d   1      -0.853   0.701  -0.076  0.00  0.00     0.077 C 
ATOM      8  C7  UNL d   1      -0.322  -1.127   1.563  0.00  0.00    -0.001 A 
ENDROOT
TORSDOF 0
ENDMDL
