MODEL 1
REMARK minimizedAffinity 4.3336935
REMARK minimizedRMSD -1
REMARK  0 active torsions:
REMARK  status: ('A' for Active; 'I' for Inactive)
ROOT
ATOM      1  C   UNL d   1       1.697   2.289  -3.388  0.00  0.00     0.077 C 
ATOM      2  C1  UNL d   1       0.208   2.421  -3.267  0.00  0.00    -0.074 A 
ATOM      3  C2  UNL d   1      -0.590   2.624  -4.397  0.00  0.00    -0.005 A 
ATOM      4  C3  UNL d   1      -1.974   2.736  -4.270  0.00  0.00     0.006 A 
ATOM      5  C4  UNL d   1      -2.574   2.646  -3.013  0.00  0.00    -0.005 A 
ATOM      6  C5  UNL d   1      -1.792   2.443  -1.871  0.00  0.00    -0.074 A 
ATOM      7  C6  UNL d   1      -2.422   2.335  -0.514  0.00  0.00     0.077 C 
ATOM      8  C7  UNL d   1      -0.402   2.324  -2.008  0.00  0.00    -0.001 A 
ENDROOT
TORSDOF 0
ENDMDL
