MODEL 1
REMARK minimizedAffinity 9.50212002
REMARK minimizedRMSD -1
REMARK  0 active torsions:
REMARK  status: ('A' for Active; 'I' for Inactive)
ROOT
ATOM      1  C   UNL d   1       2.424  -4.085   4.248  0.00  0.00     0.077 C 
ATOM      2  C1  UNL d   1       1.186  -3.314   3.899  0.00  0.00    -0.074 A 
ATOM      3  C2  UNL d   1       0.170  -3.121   4.840  0.00  0.00    -0.005 A 
ATOM      4  C3  UNL d   1      -0.972  -2.393   4.503  0.00  0.00     0.006 A 
ATOM      5  C4  UNL d   1      -1.108  -1.852   3.224  0.00  0.00    -0.005 A 
ATOM      6  C5  UNL d   1      -0.102  -2.034   2.270  0.00  0.00    -0.074 A 
ATOM      7  C6  UNL d   1      -0.229  -1.451   0.894  0.00  0.00     0.077 C 
ATOM      8  C7  UNL d   1       1.045  -2.760   2.618  0.00  0.00    -0.001 A 
ENDROOT
TORSDOF 0
ENDMDL
