MODEL 1
REMARK minimizedAffinity 5.09647512
REMARK minimizedRMSD -1
REMARK  0 active torsions:
REMARK  status: ('A' for Active; 'I' for Inactive)
ROOT
ATOM      1  C   UNL d   1      -1.099   3.153  -4.589  0.00  0.00     0.077 C 
ATOM      2  C1  UNL d   1      -0.066   2.515  -3.709  0.00  0.00    -0.074 A 
ATOM      3  C2  UNL d   1      -0.371   2.144  -2.395  0.00  0.00    -0.005 A 
ATOM      4  C3  UNL d   1       0.597   1.542  -1.591  0.00  0.00     0.006 A 
ATOM      5  C4  UNL d   1       1.878   1.306  -2.092  0.00  0.00    -0.005 A 
ATOM      6  C5  UNL d   1       2.201   1.669  -3.403  0.00  0.00    -0.074 A 
ATOM      7  C6  UNL d   1       3.570   1.413  -3.961  0.00  0.00     0.077 C 
ATOM      8  C7  UNL d   1       1.220   2.267  -4.207  0.00  0.00    -0.001 A 
ENDROOT
TORSDOF 0
ENDMDL
