MODEL 1
REMARK minimizedAffinity 7.27536154
REMARK minimizedRMSD -1
REMARK  0 active torsions:
REMARK  status: ('A' for Active; 'I' for Inactive)
ROOT
ATOM      1  C   UNL d   1       0.163  -0.967   0.018  0.00  0.00     0.077 C 
ATOM      2  C1  UNL d   1      -0.112  -1.536   1.378  0.00  0.00    -0.074 A 
ATOM      3  C2  UNL d   1      -1.351  -1.345   2.000  0.00  0.00    -0.005 A 
ATOM      4  C3  UNL d   1      -1.596  -1.888   3.261  0.00  0.00     0.006 A 
ATOM      5  C4  UNL d   1      -0.607  -2.626   3.912  0.00  0.00    -0.005 A 
ATOM      6  C5  UNL d   1       0.637  -2.828   3.306  0.00  0.00    -0.074 A 
ATOM      7  C6  UNL d   1       1.708  -3.627   3.988  0.00  0.00     0.077 C 
ATOM      8  C7  UNL d   1       0.873  -2.285   2.036  0.00  0.00    -0.001 A 
ENDROOT
TORSDOF 0
ENDMDL
