MODEL 1
REMARK minimizedAffinity 2.48029923
REMARK minimizedRMSD -1
REMARK  0 active torsions:
REMARK  status: ('A' for Active; 'I' for Inactive)
ROOT
ATOM      1  C   UNL d   1      -3.402  -1.182  -0.742  0.00  0.00     0.077 C 
ATOM      2  C1  UNL d   1      -1.993  -1.291  -0.240  0.00  0.00    -0.074 A 
ATOM      3  C2  UNL d   1      -1.348  -2.530  -0.174  0.00  0.00    -0.005 A 
ATOM      4  C3  UNL d   1      -0.034  -2.615   0.286  0.00  0.00     0.006 A 
ATOM      5  C4  UNL d   1       0.647  -1.464   0.683  0.00  0.00    -0.005 A 
ATOM      6  C5  UNL d   1       0.019  -0.216   0.622  0.00  0.00    -0.074 A 
ATOM      7  C6  UNL d   1       0.740   1.032   1.035  0.00  0.00     0.077 C 
ATOM      8  C7  UNL d   1      -1.299  -0.138   0.153  0.00  0.00    -0.001 A 
ENDROOT
TORSDOF 0
ENDMDL
