MODEL 1
REMARK minimizedAffinity 12.1487246
REMARK minimizedRMSD -1
REMARK  0 active torsions:
REMARK  status: ('A' for Active; 'I' for Inactive)
ROOT
ATOM      1  C   UNL d   1       0.150  -1.004   1.118  0.00  0.00     0.077 C 
ATOM      2  C1  UNL d   1       0.127  -1.741   2.424  0.00  0.00    -0.074 A 
ATOM      3  C2  UNL d   1      -0.971  -1.645   3.284  0.00  0.00    -0.005 A 
ATOM      4  C3  UNL d   1      -0.983  -2.344   4.491  0.00  0.00     0.006 A 
ATOM      5  C4  UNL d   1       0.102  -3.145   4.850  0.00  0.00    -0.005 A 
ATOM      6  C5  UNL d   1       1.209  -3.254   4.002  0.00  0.00    -0.074 A 
ATOM      7  C6  UNL d   1       2.379  -4.118   4.368  0.00  0.00     0.077 C 
ATOM      8  C7  UNL d   1       1.210  -2.554   2.788  0.00  0.00    -0.001 A 
ENDROOT
TORSDOF 0
ENDMDL
