MODEL 1
REMARK minimizedAffinity -6.21714926
REMARK minimizedRMSD -1
REMARK  0 active torsions:
REMARK  status: ('A' for Active; 'I' for Inactive)
ROOT
ATOM      1  C   UNL d   1      -1.714  -2.393  -0.315  0.00  0.00     0.077 C 
ATOM      2  C1  UNL d   1      -1.930  -2.261   1.163  0.00  0.00    -0.074 A 
ATOM      3  C2  UNL d   1      -0.859  -2.005   2.025  0.00  0.00    -0.005 A 
ATOM      4  C3  UNL d   1      -1.077  -1.875   3.397  0.00  0.00     0.006 A 
ATOM      5  C4  UNL d   1      -2.365  -2.000   3.919  0.00  0.00    -0.005 A 
ATOM      6  C5  UNL d   1      -3.448  -2.255   3.072  0.00  0.00    -0.074 A 
ATOM      7  C6  UNL d   1      -4.840  -2.383   3.616  0.00  0.00     0.077 C 
ATOM      8  C7  UNL d   1      -3.222  -2.378   1.694  0.00  0.00    -0.001 A 
ENDROOT
TORSDOF 0
ENDMDL
