MODEL 1
REMARK minimizedAffinity 7.71828413
REMARK minimizedRMSD -1
REMARK  0 active torsions:
REMARK  status: ('A' for Active; 'I' for Inactive)
ROOT
ATOM      1  C   UNL d   1      -0.544  -1.135   0.351  0.00  0.00     0.077 C 
ATOM      2  C1  UNL d   1       0.625  -0.217   0.151  0.00  0.00    -0.074 A 
ATOM      3  C2  UNL d   1       1.142   0.530   1.214  0.00  0.00    -0.005 A 
ATOM      4  C3  UNL d   1       2.236   1.373   1.014  0.00  0.00     0.006 A 
ATOM      5  C4  UNL d   1       2.822   1.477  -0.248  0.00  0.00    -0.005 A 
ATOM      6  C5  UNL d   1       2.319   0.737  -1.322  0.00  0.00    -0.074 A 
ATOM      7  C6  UNL d   1       2.943   0.830  -2.683  0.00  0.00     0.077 C 
ATOM      8  C7  UNL d   1       1.224  -0.113  -1.113  0.00  0.00    -0.001 A 
ENDROOT
TORSDOF 0
ENDMDL
