MODEL 1
REMARK minimizedAffinity -1.05478442
REMARK minimizedRMSD -1
REMARK  0 active torsions:
REMARK  status: ('A' for Active; 'I' for Inactive)
ROOT
ATOM      1  C   UNL d   1       0.760  -0.952   0.287  0.00  0.00     0.077 C 
ATOM      2  C1  UNL d   1       0.399  -1.528   1.625  0.00  0.00    -0.074 A 
ATOM      3  C2  UNL d   1      -0.825  -1.226   2.230  0.00  0.00    -0.005 A 
ATOM      4  C3  UNL d   1      -1.151  -1.777   3.470  0.00  0.00     0.006 A 
ATOM      5  C4  UNL d   1      -0.257  -2.633   4.115  0.00  0.00    -0.005 A 
ATOM      6  C5  UNL d   1       0.971  -2.947   3.524  0.00  0.00    -0.074 A 
ATOM      7  C6  UNL d   1       1.938  -3.873   4.199  0.00  0.00     0.077 C 
ATOM      8  C7  UNL d   1       1.288  -2.395   2.275  0.00  0.00    -0.001 A 
ENDROOT
TORSDOF 0
ENDMDL
