MODEL 1
REMARK minimizedAffinity -0.600086987
REMARK minimizedRMSD -1
REMARK  0 active torsions:
REMARK  status: ('A' for Active; 'I' for Inactive)
ROOT
ATOM      1  C   UNL d   1      -5.085  -2.215  -5.606  0.00  0.00     0.077 C 
ATOM      2  C1  UNL d   1      -4.389  -3.540  -5.704  0.00  0.00    -0.074 A 
ATOM      3  C2  UNL d   1      -5.113  -4.720  -5.901  0.00  0.00    -0.005 A 
ATOM      4  C3  UNL d   1      -4.451  -5.944  -6.000  0.00  0.00     0.006 A 
ATOM      5  C4  UNL d   1      -3.060  -6.000  -5.904  0.00  0.00    -0.005 A 
ATOM      6  C5  UNL d   1      -2.319  -4.830  -5.708  0.00  0.00    -0.074 A 
ATOM      7  C6  UNL d   1      -0.823  -4.872  -5.613  0.00  0.00     0.077 C 
ATOM      8  C7  UNL d   1      -2.991  -3.604  -5.617  0.00  0.00    -0.001 A 
ENDROOT
TORSDOF 0
ENDMDL
