MODEL 1
REMARK minimizedAffinity -3.76689363
REMARK minimizedRMSD -1
REMARK  0 active torsions:
REMARK  status: ('A' for Active; 'I' for Inactive)
ROOT
ATOM      1  C   UNL d   1      -4.128  -1.703  -6.000  0.00  0.00     0.077 C 
ATOM      2  C1  UNL d   1      -3.965  -3.194  -5.992  0.00  0.00    -0.074 A 
ATOM      3  C2  UNL d   1      -5.080  -4.039  -5.998  0.00  0.00    -0.005 A 
ATOM      4  C3  UNL d   1      -4.913  -5.423  -6.000  0.00  0.00     0.006 A 
ATOM      5  C4  UNL d   1      -3.632  -5.977  -5.996  0.00  0.00    -0.005 A 
ATOM      6  C5  UNL d   1      -2.505  -5.148  -5.991  0.00  0.00    -0.074 A 
ATOM      7  C6  UNL d   1      -1.122  -5.726  -5.997  0.00  0.00     0.077 C 
ATOM      8  C7  UNL d   1      -2.681  -3.757  -5.996  0.00  0.00    -0.001 A 
ENDROOT
TORSDOF 0
ENDMDL
