MODEL 1
REMARK minimizedAffinity -3.74102998
REMARK minimizedRMSD -1
REMARK  1 active torsions:
REMARK  status: ('A' for Active; 'I' for Inactive)
REMARK    1  A    between atoms: C1_2  and  C2_3 
ROOT
ATOM      1  C2  UNL d   1      -0.401   0.981   1.319  0.00  0.00    -0.073 A 
ATOM      2  C3  UNL d   1      -1.465   0.725   0.447  0.00  0.00    -0.002 A 
ATOM      3  C4  UNL d   1      -1.302  -0.151  -0.626  0.00  0.00     0.004 A 
ATOM      4  C5  UNL d   1      -0.077  -0.786  -0.834  0.00  0.00    -0.004 A 
ATOM      5  C6  UNL d   1       0.994  -0.553   0.033  0.00  0.00    -0.075 A 
ATOM      6  C7  UNL d   1       2.319  -1.226  -0.178  0.00  0.00     0.076 C 
ATOM      7  C8  UNL d   1       0.823   0.331   1.108  0.00  0.00     0.001 A 
ENDROOT
BRANCH   1   8
ATOM      8  C1  UNL d   1      -0.575   1.921   2.484  0.00  0.00     0.053 C 
ATOM      9  C   UNL d   1      -1.481   1.339   3.557  0.00  0.00     0.018 C 
ENDBRANCH   1   8
TORSDOF 1
ENDMDL
