MODEL 1
REMARK minimizedAffinity -1.96540678
REMARK minimizedRMSD -1
REMARK  1 active torsions:
REMARK  status: ('A' for Active; 'I' for Inactive)
REMARK    1  A    between atoms: C1_2  and  C2_3 
ROOT
ATOM      1  C2  UNL d   1       0.309  -0.194  -0.890  0.00  0.00    -0.073 A 
ATOM      2  C3  UNL d   1       1.541  -0.592  -0.357  0.00  0.00    -0.002 A 
ATOM      3  C4  UNL d   1       1.849  -0.328   0.978  0.00  0.00     0.004 A 
ATOM      4  C5  UNL d   1       0.928   0.329   1.795  0.00  0.00    -0.004 A 
ATOM      5  C6  UNL d   1      -0.312   0.724   1.283  0.00  0.00    -0.075 A 
ATOM      6  C7  UNL d   1      -1.313   1.434   2.148  0.00  0.00     0.076 C 
ATOM      7  C8  UNL d   1      -0.613   0.458  -0.059  0.00  0.00     0.001 A 
ENDROOT
BRANCH   1   8
ATOM      8  C1  UNL d   1      -0.031  -0.482  -2.330  0.00  0.00     0.053 C 
ATOM      9  C   UNL d   1       0.699   0.449  -3.285  0.00  0.00     0.018 C 
ENDBRANCH   1   8
TORSDOF 1
ENDMDL
