MODEL 1
REMARK minimizedAffinity -2.39540076
REMARK minimizedRMSD -1
REMARK  1 active torsions:
REMARK  status: ('A' for Active; 'I' for Inactive)
REMARK    1  A    between atoms: C1_2  and  C2_3 
ROOT
ATOM      1  C2  UNL d   1       0.530   0.511  -0.296  0.00  0.00    -0.073 A 
ATOM      2  C3  UNL d   1       0.183  -0.819  -0.558  0.00  0.00    -0.002 A 
ATOM      3  C4  UNL d   1       0.250  -1.321  -1.858  0.00  0.00     0.004 A 
ATOM      4  C5  UNL d   1       0.669  -0.503  -2.907  0.00  0.00    -0.004 A 
ATOM      5  C6  UNL d   1       1.032   0.826  -2.663  0.00  0.00    -0.075 A 
ATOM      6  C7  UNL d   1       1.483   1.720  -3.780  0.00  0.00     0.076 C 
ATOM      7  C8  UNL d   1       0.960   1.324  -1.355  0.00  0.00     0.001 A 
ENDROOT
BRANCH   1   8
ATOM      8  C1  UNL d   1       0.467   1.057   1.108  0.00  0.00     0.053 C 
ATOM      9  C   UNL d   1      -0.860   0.743   1.781  0.00  0.00     0.018 C 
ENDBRANCH   1   8
TORSDOF 1
ENDMDL
