MODEL 1
REMARK minimizedAffinity 7.53764915
REMARK minimizedRMSD -1
REMARK  0 active torsions:
REMARK  status: ('A' for Active; 'I' for Inactive)
ROOT
ATOM      1  C   UNL d   1       5.998   2.840  -2.340  0.00  0.00    -0.002 A 
ATOM      2  C1  UNL d   1       4.857   3.504  -1.914  0.00  0.00     0.010 A 
ATOM      3  C2  UNL d   1       3.681   3.451  -2.665  0.00  0.00     0.041 A 
ATOM      4  C3  UNL d   1       3.671   2.709  -3.863  0.00  0.00    -0.075 A 
ATOM      5  S   UNL d   1       2.345   2.501  -4.945  0.00  0.00     0.015 SA
ATOM      6  C4  UNL d   1       3.263   1.524  -5.999  0.00  0.00     0.022 A 
ATOM      7  C5  UNL d   1       4.551   1.351  -5.551  0.00  0.00     0.026 A 
ATOM      8  C6  UNL d   1       4.808   2.031  -4.313  0.00  0.00    -0.082 A 
ATOM      9  C7  UNL d   1       5.984   2.106  -3.529  0.00  0.00     0.045 A 
ENDROOT
TORSDOF 0
ENDMDL
