MODEL 1
REMARK minimizedAffinity -3.80212665
REMARK minimizedRMSD -1
REMARK  0 active torsions:
REMARK  status: ('A' for Active; 'I' for Inactive)
ROOT
ATOM      1  C   UNL d   1       1.465   3.792  -5.989  0.00  0.00    -0.002 A 
ATOM      2  C1  UNL d   1       0.854   2.546  -5.990  0.00  0.00     0.010 A 
ATOM      3  C2  UNL d   1      -0.538   2.437  -5.991  0.00  0.00     0.041 A 
ATOM      4  C3  UNL d   1      -1.314   3.613  -5.994  0.00  0.00    -0.075 A 
ATOM      5  S   UNL d   1      -3.034   3.724  -5.997  0.00  0.00     0.015 SA
ATOM      6  C4  UNL d   1      -2.999   5.428  -5.999  0.00  0.00     0.022 A 
ATOM      7  C5  UNL d   1      -1.714   5.917  -5.997  0.00  0.00     0.026 A 
ATOM      8  C6  UNL d   1      -0.722   4.880  -5.995  0.00  0.00    -0.082 A 
ATOM      9  C7  UNL d   1       0.692   4.956  -5.992  0.00  0.00     0.045 A 
ENDROOT
TORSDOF 0
ENDMDL
