MODEL 1
REMARK minimizedAffinity 1.35072279
REMARK minimizedRMSD -1
REMARK  0 active torsions:
REMARK  status: ('A' for Active; 'I' for Inactive)
ROOT
ATOM      1  C   UNL d   1      -3.195   3.003  -5.951  0.00  0.00    -0.002 A 
ATOM      2  C1  UNL d   1      -2.232   2.004  -5.953  0.00  0.00     0.010 A 
ATOM      3  C2  UNL d   1      -0.873   2.326  -5.967  0.00  0.00     0.041 A 
ATOM      4  C3  UNL d   1      -0.495   3.683  -5.977  0.00  0.00    -0.075 A 
ATOM      5  S   UNL d   1       1.109   4.315  -5.993  0.00  0.00     0.015 SA
ATOM      6  C4  UNL d   1       0.554   5.927  -5.997  0.00  0.00     0.022 A 
ATOM      7  C5  UNL d   1      -0.819   5.999  -5.986  0.00  0.00     0.026 A 
ATOM      8  C6  UNL d   1      -1.446   4.708  -5.974  0.00  0.00    -0.082 A 
ATOM      9  C7  UNL d   1      -2.816   4.348  -5.960  0.00  0.00     0.045 A 
ENDROOT
TORSDOF 0
ENDMDL
