MODEL 1
REMARK minimizedAffinity -1.39691234
REMARK minimizedRMSD -1
REMARK  0 active torsions:
REMARK  status: ('A' for Active; 'I' for Inactive)
ROOT
ATOM      1  C   UNL d   1       1.209   4.660  -5.976  0.00  0.00    -0.002 A 
ATOM      2  C1  UNL d   1       0.901   3.307  -5.968  0.00  0.00     0.010 A 
ATOM      3  C2  UNL d   1      -0.429   2.882  -5.970  0.00  0.00     0.041 A 
ATOM      4  C3  UNL d   1      -1.454   3.849  -5.981  0.00  0.00    -0.075 A 
ATOM      5  S   UNL d   1      -3.154   3.562  -5.986  0.00  0.00     0.015 SA
ATOM      6  C4  UNL d   1      -3.511   5.229  -5.999  0.00  0.00     0.022 A 
ATOM      7  C5  UNL d   1      -2.372   6.000  -6.000  0.00  0.00     0.026 A 
ATOM      8  C6  UNL d   1      -1.168   5.217  -5.990  0.00  0.00    -0.082 A 
ATOM      9  C7  UNL d   1       0.190   5.616  -5.988  0.00  0.00     0.045 A 
ENDROOT
TORSDOF 0
ENDMDL
