MODEL 1
REMARK minimizedAffinity -0.63504076
REMARK minimizedRMSD -1
REMARK  0 active torsions:
REMARK  status: ('A' for Active; 'I' for Inactive)
ROOT
ATOM      1  C   UNL d   1       0.839   2.924  -5.991  0.00  0.00    -0.002 A 
ATOM      2  C1  UNL d   1       1.088   4.289  -5.991  0.00  0.00     0.010 A 
ATOM      3  C2  UNL d   1       0.033   5.203  -5.995  0.00  0.00     0.041 A 
ATOM      4  C3  UNL d   1      -1.290   4.718  -5.996  0.00  0.00    -0.075 A 
ATOM      5  S   UNL d   1      -2.740   5.651  -5.999  0.00  0.00     0.015 SA
ATOM      6  C4  UNL d   1      -3.724   4.260  -5.999  0.00  0.00     0.022 A 
ATOM      7  C5  UNL d   1      -2.981   3.103  -5.997  0.00  0.00     0.026 A 
ATOM      8  C6  UNL d   1      -1.566   3.348  -5.995  0.00  0.00    -0.082 A 
ATOM      9  C7  UNL d   1      -0.475   2.446  -5.992  0.00  0.00     0.045 A 
ENDROOT
TORSDOF 0
ENDMDL
