MODEL 1
REMARK minimizedAffinity 0.357257396
REMARK minimizedRMSD -1
REMARK  0 active torsions:
REMARK  status: ('A' for Active; 'I' for Inactive)
ROOT
ATOM      1  C   UNL d   1       0.191   3.622  -5.947  0.00  0.00    -0.002 A 
ATOM      2  C1  UNL d   1      -0.520   2.430  -5.951  0.00  0.00     0.010 A 
ATOM      3  C2  UNL d   1      -1.916   2.435  -5.965  0.00  0.00     0.041 A 
ATOM      4  C3  UNL d   1      -2.593   3.671  -5.977  0.00  0.00    -0.075 A 
ATOM      5  S   UNL d   1      -4.298   3.921  -5.996  0.00  0.00     0.015 SA
ATOM      6  C4  UNL d   1      -4.124   5.617  -6.000  0.00  0.00     0.022 A 
ATOM      7  C5  UNL d   1      -2.804   5.999  -5.987  0.00  0.00     0.026 A 
ATOM      8  C6  UNL d   1      -1.899   4.884  -5.974  0.00  0.00    -0.082 A 
ATOM      9  C7  UNL d   1      -0.484   4.846  -5.959  0.00  0.00     0.045 A 
ENDROOT
TORSDOF 0
ENDMDL
