MODEL 1
REMARK minimizedAffinity 3.24255872
REMARK minimizedRMSD -1
REMARK  0 active torsions:
REMARK  status: ('A' for Active; 'I' for Inactive)
ROOT
ATOM      1  C   UNL d   1       1.145   2.865  -5.999  0.00  0.00    -0.002 A 
ATOM      2  C1  UNL d   1       1.262   4.248  -5.999  0.00  0.00     0.010 A 
ATOM      3  C2  UNL d   1       0.124   5.057  -5.999  0.00  0.00     0.041 A 
ATOM      4  C3  UNL d   1      -1.146   4.447  -5.999  0.00  0.00    -0.075 A 
ATOM      5  S   UNL d   1      -2.679   5.236  -5.999  0.00  0.00     0.015 SA
ATOM      6  C4  UNL d   1      -3.525   3.757  -5.999  0.00  0.00     0.022 A 
ATOM      7  C5  UNL d   1      -2.674   2.676  -6.000  0.00  0.00     0.026 A 
ATOM      8  C6  UNL d   1      -1.289   3.056  -5.999  0.00  0.00    -0.082 A 
ATOM      9  C7  UNL d   1      -0.116   2.264  -5.999  0.00  0.00     0.045 A 
ENDROOT
TORSDOF 0
ENDMDL
