MODEL 1
REMARK minimizedAffinity 2.7879827
REMARK minimizedRMSD -1
REMARK  0 active torsions:
REMARK  status: ('A' for Active; 'I' for Inactive)
ROOT
ATOM      1  C   UNL d   1      -2.828   5.203  -5.998  0.00  0.00    -0.002 A 
ATOM      2  C1  UNL d   1      -3.000   3.826  -5.999  0.00  0.00     0.010 A 
ATOM      3  C2  UNL d   1      -1.895   2.972  -6.000  0.00  0.00     0.041 A 
ATOM      4  C3  UNL d   1      -0.602   3.531  -5.998  0.00  0.00    -0.075 A 
ATOM      5  S   UNL d   1       0.898   2.682  -5.999  0.00  0.00     0.015 SA
ATOM      6  C4  UNL d   1       1.802   4.127  -5.997  0.00  0.00     0.022 A 
ATOM      7  C5  UNL d   1       0.995   5.240  -5.996  0.00  0.00     0.026 A 
ATOM      8  C6  UNL d   1      -0.403   4.915  -5.997  0.00  0.00    -0.082 A 
ATOM      9  C7  UNL d   1      -1.544   5.754  -5.996  0.00  0.00     0.045 A 
ENDROOT
TORSDOF 0
ENDMDL
