MODEL 1
REMARK minimizedAffinity 0.989564776
REMARK minimizedRMSD -1
REMARK  0 active torsions:
REMARK  status: ('A' for Active; 'I' for Inactive)
ROOT
ATOM      1  C   UNL d   1      -4.628   3.875  -5.839  0.00  0.00    -0.002 A 
ATOM      2  C1  UNL d   1      -4.657   5.262  -5.851  0.00  0.00     0.010 A 
ATOM      3  C2  UNL d   1      -3.471   5.997  -5.895  0.00  0.00     0.041 A 
ATOM      4  C3  UNL d   1      -2.243   5.307  -5.929  0.00  0.00    -0.075 A 
ATOM      5  S   UNL d   1      -0.664   5.997  -5.987  0.00  0.00     0.015 SA
ATOM      6  C4  UNL d   1       0.086   4.467  -5.997  0.00  0.00     0.022 A 
ATOM      7  C5  UNL d   1      -0.831   3.443  -5.958  0.00  0.00     0.026 A 
ATOM      8  C6  UNL d   1      -2.188   3.910  -5.919  0.00  0.00    -0.082 A 
ATOM      9  C7  UNL d   1      -3.408   3.194  -5.873  0.00  0.00     0.045 A 
ENDROOT
TORSDOF 0
ENDMDL
