MODEL 1
REMARK minimizedAffinity 6.45927811
REMARK minimizedRMSD -1
REMARK  1 active torsions:
REMARK  status: ('A' for Active; 'I' for Inactive)
REMARK    1  A    between atoms: C1_2  and  C2_3 
ROOT
ATOM      1  C2  UNL d   1      -0.375  -0.785   1.904  0.00  0.00    -0.081 A 
ATOM      2  C3  UNL d   1      -1.748  -0.778   1.630  0.00  0.00     0.006 A 
ATOM      3  C4  UNL d   1      -2.603   0.086   2.319  0.00  0.00     0.002 A 
ATOM      4  C5  UNL d   1      -2.099   0.961   3.287  0.00  0.00    -0.080 A 
ATOM      5  C6  UNL d   1      -3.001   1.915   4.012  0.00  0.00     0.076 C 
ATOM      6  C7  UNL d   1      -0.729   0.942   3.573  0.00  0.00     0.002 A 
ATOM      7  C8  UNL d   1       0.126   0.078   2.884  0.00  0.00     0.006 A 
ENDROOT
BRANCH   1   8
ATOM      8  C1  UNL d   1       0.559  -1.669   1.117  0.00  0.00     0.054 C 
ATOM      9  C   UNL d   1       1.235  -0.897  -0.008  0.00  0.00     0.018 C 
ENDBRANCH   1   8
TORSDOF 1
ENDMDL
