MODEL 1
REMARK minimizedAffinity -0.359366983
REMARK minimizedRMSD -1
REMARK  1 active torsions:
REMARK  status: ('A' for Active; 'I' for Inactive)
REMARK    1  A    between atoms: C1_2  and  C2_3 
ROOT
ATOM      1  C2  UNL d   1      -1.989   0.552   3.237  0.00  0.00    -0.081 A 
ATOM      2  C3  UNL d   1      -2.205  -0.199   2.075  0.00  0.00     0.006 A 
ATOM      3  C4  UNL d   1      -1.203  -1.034   1.576  0.00  0.00     0.002 A 
ATOM      4  C5  UNL d   1       0.028  -1.138   2.233  0.00  0.00    -0.080 A 
ATOM      5  C6  UNL d   1       1.102  -2.053   1.724  0.00  0.00     0.076 C 
ATOM      6  C7  UNL d   1       0.250  -0.373   3.383  0.00  0.00     0.002 A 
ATOM      7  C8  UNL d   1      -0.751   0.462   3.883  0.00  0.00     0.006 A 
ENDROOT
BRANCH   1   8
ATOM      8  C1  UNL d   1      -3.091   1.404   3.814  0.00  0.00     0.054 C 
ATOM      9  C   UNL d   1      -4.462   0.829   3.490  0.00  0.00     0.018 C 
ENDBRANCH   1   8
TORSDOF 1
ENDMDL
