MODEL 1
REMARK minimizedAffinity 5.24729633
REMARK minimizedRMSD -1
REMARK  1 active torsions:
REMARK  status: ('A' for Active; 'I' for Inactive)
REMARK    1  A    between atoms: C1_2  and  C2_3 
ROOT
ATOM      1  C2  UNL d   1       0.229  -1.280   1.112  0.00  0.00    -0.081 A 
ATOM      2  C3  UNL d   1       1.624  -1.172   1.049  0.00  0.00     0.006 A 
ATOM      3  C4  UNL d   1       2.272  -1.068  -0.184  0.00  0.00     0.002 A 
ATOM      4  C5  UNL d   1       1.536  -1.063  -1.374  0.00  0.00    -0.080 A 
ATOM      5  C6  UNL d   1       2.217  -0.921  -2.703  0.00  0.00     0.076 C 
ATOM      6  C7  UNL d   1       0.144  -1.188  -1.313  0.00  0.00     0.002 A 
ATOM      7  C8  UNL d   1      -0.504  -1.293  -0.080  0.00  0.00     0.006 A 
ENDROOT
BRANCH   1   8
ATOM      8  C1  UNL d   1      -0.477  -1.327   2.442  0.00  0.00     0.054 C 
ATOM      9  C   UNL d   1      -0.257  -0.045   3.232  0.00  0.00     0.018 C 
ENDBRANCH   1   8
TORSDOF 1
ENDMDL
