MODEL 1
REMARK minimizedAffinity 3.48102999
REMARK minimizedRMSD -1
REMARK  1 active torsions:
REMARK  status: ('A' for Active; 'I' for Inactive)
REMARK    1  A    between atoms: C1_2  and  C2_3 
ROOT
ATOM      1  C2  UNL d   1       0.292  -0.922   2.194  0.00  0.00    -0.081 A 
ATOM      2  C3  UNL d   1      -0.895  -1.516   1.748  0.00  0.00     0.006 A 
ATOM      3  C4  UNL d   1      -2.119  -0.863   1.912  0.00  0.00     0.002 A 
ATOM      4  C5  UNL d   1      -2.175   0.397   2.517  0.00  0.00    -0.080 A 
ATOM      5  C6  UNL d   1      -3.479   1.123   2.672  0.00  0.00     0.076 C 
ATOM      6  C7  UNL d   1      -0.991   0.983   2.979  0.00  0.00     0.002 A 
ATOM      7  C8  UNL d   1       0.232   0.330   2.815  0.00  0.00     0.006 A 
ENDROOT
BRANCH   1   8
ATOM      8  C1  UNL d   1       1.621  -1.595   1.960  0.00  0.00     0.054 C 
ATOM      9  C   UNL d   1       2.187  -1.242   0.592  0.00  0.00     0.018 C 
ENDBRANCH   1   8
TORSDOF 1
ENDMDL
