MODEL 1
REMARK minimizedAffinity 21.8524876
REMARK minimizedRMSD -1
REMARK  0 active torsions:
REMARK  status: ('A' for Active; 'I' for Inactive)
ROOT
ATOM      1  C   UNL d   1      -1.666   1.675  -4.547  0.00  0.00     0.124 A 
ATOM      2  C1  UNL d   1      -2.406   0.551  -4.207  0.00  0.00     0.062 A 
ATOM      3  C2  UNL d   1      -2.498   0.150  -2.877  0.00  0.00     0.162 A 
ATOM      4  C3  UNL d   1      -1.849   0.873  -1.877  0.00  0.00    -0.034 A 
ATOM      5  C4  UNL d   1      -1.105   2.002  -2.227  0.00  0.00     0.162 A 
ATOM      6  C5  UNL d   1      -1.017   2.399  -3.557  0.00  0.00     0.062 A 
ATOM      7  F   UNL d   1      -0.301   3.486  -3.883  0.00  0.00    -0.097 F 
ATOM      8  F1  UNL d   1      -0.469   2.721  -1.290  0.00  0.00    -0.096 F 
ATOM      9  I   UNL d   1      -1.983   0.275   0.112  0.00  0.00    -0.060 I 
ATOM     10  F2  UNL d   1      -3.220  -0.941  -2.578  0.00  0.00    -0.096 F 
ATOM     11  F3  UNL d   1      -3.034  -0.150  -5.161  0.00  0.00    -0.097 F 
ATOM     12  F4  UNL d   1      -1.579   2.059  -5.827  0.00  0.00    -0.092 F 
ENDROOT
TORSDOF 0
ENDMDL
