MODEL 1
REMARK minimizedAffinity 10.8385048
REMARK minimizedRMSD -1
REMARK  0 active torsions:
REMARK  status: ('A' for Active; 'I' for Inactive)
ROOT
ATOM      1  C   UNL d   1      -1.689   0.786  -0.421  0.00  0.00     0.124 A 
ATOM      2  C1  UNL d   1      -2.422  -0.286  -0.910  0.00  0.00     0.062 A 
ATOM      3  C2  UNL d   1      -3.653  -0.608  -0.346  0.00  0.00     0.162 A 
ATOM      4  C3  UNL d   1      -4.160   0.144   0.713  0.00  0.00    -0.034 A 
ATOM      5  C4  UNL d   1      -3.416   1.221   1.201  0.00  0.00     0.162 A 
ATOM      6  C5  UNL d   1      -2.186   1.538   0.634  0.00  0.00     0.062 A 
ATOM      7  F   UNL d   1      -1.479   2.574   1.108  0.00  0.00    -0.097 F 
ATOM      8  F1  UNL d   1      -3.874   1.965   2.219  0.00  0.00    -0.096 F 
ATOM      9  I   UNL d   1      -6.000  -0.334   1.559  0.00  0.00    -0.060 I 
ATOM     10  F2  UNL d   1      -4.340  -1.649  -0.840  0.00  0.00    -0.096 F 
ATOM     11  F3  UNL d   1      -1.943  -1.014  -1.929  0.00  0.00    -0.097 F 
ATOM     12  F4  UNL d   1      -0.504   1.093  -0.965  0.00  0.00    -0.092 F 
ENDROOT
TORSDOF 0
ENDMDL
