MODEL 1
REMARK minimizedAffinity 16.3959064
REMARK minimizedRMSD -1
REMARK  0 active torsions:
REMARK  status: ('A' for Active; 'I' for Inactive)
ROOT
ATOM      1  C   UNL d   1      -2.273   0.385  -0.481  0.00  0.00     0.124 A 
ATOM      2  C1  UNL d   1      -2.239   1.452   0.405  0.00  0.00     0.062 A 
ATOM      3  C2  UNL d   1      -3.302   1.674   1.275  0.00  0.00     0.162 A 
ATOM      4  C3  UNL d   1      -4.408   0.825   1.265  0.00  0.00    -0.034 A 
ATOM      5  C4  UNL d   1      -4.436  -0.246   0.371  0.00  0.00     0.162 A 
ATOM      6  C5  UNL d   1      -3.371  -0.463  -0.498  0.00  0.00     0.062 A 
ATOM      7  F   UNL d   1      -3.406  -1.496  -1.353  0.00  0.00    -0.097 F 
ATOM      8  F1  UNL d   1      -5.485  -1.082   0.334  0.00  0.00    -0.096 F 
ATOM      9  I   UNL d   1      -6.000   1.153   2.566  0.00  0.00    -0.060 I 
ATOM     10  F2  UNL d   1      -3.242   2.714   2.121  0.00  0.00    -0.096 F 
ATOM     11  F3  UNL d   1      -1.179   2.274   0.422  0.00  0.00    -0.097 F 
ATOM     12  F4  UNL d   1      -1.249   0.174  -1.319  0.00  0.00    -0.092 F 
ENDROOT
TORSDOF 0
ENDMDL
