MODEL 1
REMARK minimizedAffinity 28.0253525
REMARK minimizedRMSD -1
REMARK  0 active torsions:
REMARK  status: ('A' for Active; 'I' for Inactive)
ROOT
ATOM      1  C   UNL d   1      -2.267   0.273  -1.532  0.00  0.00     0.124 A 
ATOM      2  C1  UNL d   1      -1.545   1.430  -1.791  0.00  0.00     0.062 A 
ATOM      3  C2  UNL d   1      -1.636   2.047  -3.035  0.00  0.00     0.162 A 
ATOM      4  C3  UNL d   1      -2.452   1.510  -4.030  0.00  0.00    -0.034 A 
ATOM      5  C4  UNL d   1      -3.174   0.345  -3.762  0.00  0.00     0.162 A 
ATOM      6  C5  UNL d   1      -3.080  -0.268  -2.517  0.00  0.00     0.062 A 
ATOM      7  F   UNL d   1      -3.778  -1.386  -2.269  0.00  0.00    -0.097 F 
ATOM      8  F1  UNL d   1      -3.969  -0.199  -4.696  0.00  0.00    -0.096 F 
ATOM      9  I   UNL d   1      -2.590   2.430  -5.891  0.00  0.00    -0.060 I 
ATOM     10  F2  UNL d   1      -0.927   3.164  -3.258  0.00  0.00    -0.096 F 
ATOM     11  F3  UNL d   1      -0.758   1.954  -0.841  0.00  0.00    -0.097 F 
ATOM     12  F4  UNL d   1      -2.177  -0.320  -0.334  0.00  0.00    -0.092 F 
ENDROOT
TORSDOF 0
ENDMDL
