MODEL 1
REMARK minimizedAffinity 12.8338308
REMARK minimizedRMSD -1
REMARK  0 active torsions:
REMARK  status: ('A' for Active; 'I' for Inactive)
ROOT
ATOM      1  C   UNL d   1      -0.381   1.854  -2.250  0.00  0.00     0.124 A 
ATOM      2  C1  UNL d   1      -0.145   2.173  -3.580  0.00  0.00     0.062 A 
ATOM      3  C2  UNL d   1      -0.980   1.678  -4.578  0.00  0.00     0.162 A 
ATOM      4  C3  UNL d   1      -2.060   0.859  -4.249  0.00  0.00    -0.034 A 
ATOM      5  C4  UNL d   1      -2.291   0.542  -2.909  0.00  0.00     0.162 A 
ATOM      6  C5  UNL d   1      -1.454   1.039  -1.916  0.00  0.00     0.062 A 
ATOM      7  F   UNL d   1      -1.684   0.730  -0.632  0.00  0.00    -0.097 F 
ATOM      8  F1  UNL d   1      -3.321  -0.242  -2.558  0.00  0.00    -0.096 F 
ATOM      9  I   UNL d   1      -3.311   0.118  -5.738  0.00  0.00    -0.060 I 
ATOM     10  F2  UNL d   1      -0.728   2.003  -5.855  0.00  0.00    -0.096 F 
ATOM     11  F3  UNL d   1       0.891   2.959  -3.906  0.00  0.00    -0.097 F 
ATOM     12  F4  UNL d   1       0.424   2.330  -1.292  0.00  0.00    -0.092 F 
ENDROOT
TORSDOF 0
ENDMDL
