MODEL 1
REMARK minimizedAffinity 9.65300179
REMARK minimizedRMSD -1
REMARK  0 active torsions:
REMARK  status: ('A' for Active; 'I' for Inactive)
ROOT
ATOM      1  C   UNL d   1       2.271   0.788  -2.247  0.00  0.00     0.124 A 
ATOM      2  C1  UNL d   1       1.209   1.678  -2.165  0.00  0.00     0.062 A 
ATOM      3  C2  UNL d   1      -0.043   1.321  -2.658  0.00  0.00     0.162 A 
ATOM      4  C3  UNL d   1      -0.240   0.067  -3.235  0.00  0.00    -0.034 A 
ATOM      5  C4  UNL d   1       0.833  -0.823  -3.314  0.00  0.00     0.162 A 
ATOM      6  C5  UNL d   1       2.082  -0.461  -2.821  0.00  0.00     0.062 A 
ATOM      7  F   UNL d   1       3.107  -1.322  -2.901  0.00  0.00    -0.097 F 
ATOM      8  F1  UNL d   1       0.678  -2.037  -3.863  0.00  0.00    -0.096 F 
ATOM      9  I   UNL d   1      -2.111  -0.471  -3.972  0.00  0.00    -0.060 I 
ATOM     10  F2  UNL d   1      -1.051   2.201  -2.565  0.00  0.00    -0.096 F 
ATOM     11  F3  UNL d   1       1.389   2.886  -1.612  0.00  0.00    -0.097 F 
ATOM     12  F4  UNL d   1       3.475   1.135  -1.774  0.00  0.00    -0.092 F 
ENDROOT
TORSDOF 0
ENDMDL
