MODEL 1
REMARK minimizedAffinity 15.8148117
REMARK minimizedRMSD -1
REMARK  0 active torsions:
REMARK  status: ('A' for Active; 'I' for Inactive)
ROOT
ATOM      1  C   UNL d   1      -2.899   0.454  -2.816  0.00  0.00     0.124 A 
ATOM      2  C1  UNL d   1      -2.666  -0.160  -1.593  0.00  0.00     0.062 A 
ATOM      3  C2  UNL d   1      -1.601   0.249  -0.796  0.00  0.00     0.162 A 
ATOM      4  C3  UNL d   1      -0.760   1.278  -1.220  0.00  0.00    -0.034 A 
ATOM      5  C4  UNL d   1      -0.999   1.889  -2.452  0.00  0.00     0.162 A 
ATOM      6  C5  UNL d   1      -2.066   1.477  -3.244  0.00  0.00     0.062 A 
ATOM      7  F   UNL d   1      -2.289   2.071  -4.426  0.00  0.00    -0.097 F 
ATOM      8  F1  UNL d   1      -0.210   2.882  -2.889  0.00  0.00    -0.096 F 
ATOM      9  I   UNL d   1       0.835   1.892  -0.032  0.00  0.00    -0.060 I 
ATOM     10  F2  UNL d   1      -1.400  -0.362   0.381  0.00  0.00    -0.096 F 
ATOM     11  F3  UNL d   1      -3.470  -1.150  -1.178  0.00  0.00    -0.097 F 
ATOM     12  F4  UNL d   1      -3.925   0.058  -3.581  0.00  0.00    -0.092 F 
ENDROOT
TORSDOF 0
ENDMDL
