MODEL 1
REMARK minimizedAffinity 3.83368516
REMARK minimizedRMSD -1
REMARK  0 active torsions:
REMARK  status: ('A' for Active; 'I' for Inactive)
ROOT
ATOM      1  C   UNL d   1       1.884   0.974  -2.475  0.00  0.00     0.124 A 
ATOM      2  C1  UNL d   1       0.926   1.956  -2.688  0.00  0.00     0.062 A 
ATOM      3  C2  UNL d   1      -0.204   1.678  -3.452  0.00  0.00     0.162 A 
ATOM      4  C3  UNL d   1      -0.382   0.412  -4.010  0.00  0.00    -0.034 A 
ATOM      5  C4  UNL d   1       0.586  -0.570  -3.792  0.00  0.00     0.162 A 
ATOM      6  C5  UNL d   1       1.713  -0.287  -3.027  0.00  0.00     0.062 A 
ATOM      7  F   UNL d   1       2.637  -1.237  -2.823  0.00  0.00    -0.097 F 
ATOM      8  F1  UNL d   1       0.445  -1.798  -4.313  0.00  0.00    -0.096 F 
ATOM      9  I   UNL d   1      -2.070  -0.007  -5.153  0.00  0.00    -0.060 I 
ATOM     10  F2  UNL d   1      -1.113   2.646  -3.641  0.00  0.00    -0.096 F 
ATOM     11  F3  UNL d   1       1.089   3.176  -2.156  0.00  0.00    -0.097 F 
ATOM     12  F4  UNL d   1       2.970   1.245  -1.740  0.00  0.00    -0.092 F 
ENDROOT
TORSDOF 0
ENDMDL
