MODEL 1
REMARK minimizedAffinity 1.7311182
REMARK minimizedRMSD -1
REMARK  0 active torsions:
REMARK  status: ('A' for Active; 'I' for Inactive)
ROOT
ATOM      1  C   UNL d   1       2.249   0.831  -2.811  0.00  0.00     0.124 A 
ATOM      2  C1  UNL d   1       2.089  -0.352  -3.518  0.00  0.00     0.062 A 
ATOM      3  C2  UNL d   1       0.851  -0.682  -4.061  0.00  0.00     0.162 A 
ATOM      4  C3  UNL d   1      -0.239   0.174  -3.900  0.00  0.00    -0.034 A 
ATOM      5  C4  UNL d   1      -0.071   1.363  -3.187  0.00  0.00     0.162 A 
ATOM      6  C5  UNL d   1       1.169   1.688  -2.646  0.00  0.00     0.062 A 
ATOM      7  F   UNL d   1       1.321   2.832  -1.963  0.00  0.00    -0.097 F 
ATOM      8  F1  UNL d   1      -1.097   2.209  -3.013  0.00  0.00    -0.096 F 
ATOM      9  I   UNL d   1      -2.092  -0.315  -4.710  0.00  0.00    -0.060 I 
ATOM     10  F2  UNL d   1       0.726  -1.832  -4.739  0.00  0.00    -0.096 F 
ATOM     11  F3  UNL d   1       3.131  -1.182  -3.678  0.00  0.00    -0.097 F 
ATOM     12  F4  UNL d   1       3.441   1.146  -2.289  0.00  0.00    -0.092 F 
ENDROOT
TORSDOF 0
ENDMDL
