MODEL 1
REMARK minimizedAffinity 6.31354856
REMARK minimizedRMSD -1
REMARK  0 active torsions:
REMARK  status: ('A' for Active; 'I' for Inactive)
ROOT
ATOM      1  C   UNL d   1      -1.069   0.913  -4.023  0.00  0.00     0.124 A 
ATOM      2  C1  UNL d   1      -0.702   2.167  -3.556  0.00  0.00     0.062 A 
ATOM      3  C2  UNL d   1       0.405   2.309  -2.725  0.00  0.00     0.162 A 
ATOM      4  C3  UNL d   1       1.155   1.192  -2.356  0.00  0.00    -0.034 A 
ATOM      5  C4  UNL d   1       0.779  -0.067  -2.829  0.00  0.00     0.162 A 
ATOM      6  C5  UNL d   1      -0.328  -0.203  -3.659  0.00  0.00     0.062 A 
ATOM      7  F   UNL d   1      -0.681  -1.415  -4.110  0.00  0.00    -0.097 F 
ATOM      8  F1  UNL d   1       1.478  -1.161  -2.494  0.00  0.00    -0.096 F 
ATOM      9  I   UNL d   1       2.812   1.399  -1.114  0.00  0.00    -0.060 I 
ATOM     10  F2  UNL d   1       0.736   3.533  -2.289  0.00  0.00    -0.096 F 
ATOM     11  F3  UNL d   1      -1.417   3.247  -3.906  0.00  0.00    -0.097 F 
ATOM     12  F4  UNL d   1      -2.136   0.780  -4.822  0.00  0.00    -0.092 F 
ENDROOT
TORSDOF 0
ENDMDL
