MODEL 1
REMARK minimizedAffinity 20.0128803
REMARK minimizedRMSD -1
REMARK  0 active torsions:
REMARK  status: ('A' for Active; 'I' for Inactive)
ROOT
ATOM      1  C   UNL d   1      -1.837   1.852  -3.834  0.00  0.00     0.124 A 
ATOM      2  C1  UNL d   1      -1.567   0.495  -3.936  0.00  0.00     0.062 A 
ATOM      3  C2  UNL d   1      -0.329  -0.004  -3.541  0.00  0.00     0.162 A 
ATOM      4  C3  UNL d   1       0.648   0.855  -3.039  0.00  0.00    -0.034 A 
ATOM      5  C4  UNL d   1       0.369   2.219  -2.940  0.00  0.00     0.162 A 
ATOM      6  C5  UNL d   1      -0.869   2.713  -3.336  0.00  0.00     0.062 A 
ATOM      7  F   UNL d   1      -1.129   4.025  -3.236  0.00  0.00    -0.097 F 
ATOM      8  F1  UNL d   1       1.286   3.074  -2.461  0.00  0.00    -0.096 F 
ATOM      9  I   UNL d   1       2.501   0.113  -2.447  0.00  0.00    -0.060 I 
ATOM     10  F2  UNL d   1      -0.095  -1.320  -3.651  0.00  0.00    -0.096 F 
ATOM     11  F3  UNL d   1      -2.500  -0.339  -4.418  0.00  0.00    -0.097 F 
ATOM     12  F4  UNL d   1      -3.029   2.330  -4.215  0.00  0.00    -0.092 F 
ENDROOT
TORSDOF 0
ENDMDL
