MODEL 1
REMARK minimizedAffinity 12.4197598
REMARK minimizedRMSD -1
REMARK  0 active torsions:
REMARK  status: ('A' for Active; 'I' for Inactive)
ROOT
ATOM      1  C   UNL d   1      -2.425   1.293  -4.022  0.00  0.00     0.124 A 
ATOM      2  C1  UNL d   1      -1.566   2.014  -3.203  0.00  0.00     0.062 A 
ATOM      3  C2  UNL d   1      -0.302   1.515  -2.903  0.00  0.00     0.162 A 
ATOM      4  C3  UNL d   1       0.113   0.289  -3.423  0.00  0.00    -0.034 A 
ATOM      5  C4  UNL d   1      -0.757  -0.431  -4.244  0.00  0.00     0.162 A 
ATOM      6  C5  UNL d   1      -2.019   0.072  -4.541  0.00  0.00     0.062 A 
ATOM      7  F   UNL d   1      -2.848  -0.626  -5.332  0.00  0.00    -0.097 F 
ATOM      8  F1  UNL d   1      -0.391  -1.613  -4.761  0.00  0.00    -0.096 F 
ATOM      9  I   UNL d   1       2.002  -0.460  -2.977  0.00  0.00    -0.060 I 
ATOM     10  F2  UNL d   1       0.507   2.233  -2.110  0.00  0.00    -0.096 F 
ATOM     11  F3  UNL d   1      -1.955   3.194  -2.699  0.00  0.00    -0.097 F 
ATOM     12  F4  UNL d   1      -3.641   1.775  -4.308  0.00  0.00    -0.092 F 
ENDROOT
TORSDOF 0
ENDMDL
