MODEL 1
REMARK minimizedAffinity 26.072916
REMARK minimizedRMSD -1
REMARK  0 active torsions:
REMARK  status: ('A' for Active; 'I' for Inactive)
ROOT
ATOM      1  C   UNL d   1      -2.180   0.314  -0.244  0.00  0.00     0.124 A 
ATOM      2  C1  UNL d   1      -3.352  -0.425  -0.328  0.00  0.00     0.062 A 
ATOM      3  C2  UNL d   1      -4.444  -0.097   0.471  0.00  0.00     0.162 A 
ATOM      4  C3  UNL d   1      -4.369   0.975   1.360  0.00  0.00    -0.034 A 
ATOM      5  C4  UNL d   1      -3.187   1.713   1.438  0.00  0.00     0.162 A 
ATOM      6  C5  UNL d   1      -2.098   1.382   0.638  0.00  0.00     0.062 A 
ATOM      7  F   UNL d   1      -0.966   2.096   0.720  0.00  0.00    -0.097 F 
ATOM      8  F1  UNL d   1      -3.081   2.750   2.282  0.00  0.00    -0.096 F 
ATOM      9  I   UNL d   1      -6.000   1.468   2.555  0.00  0.00    -0.060 I 
ATOM     10  F2  UNL d   1      -5.564  -0.828   0.369  0.00  0.00    -0.096 F 
ATOM     11  F3  UNL d   1      -3.433  -1.457  -1.179  0.00  0.00    -0.097 F 
ATOM     12  F4  UNL d   1      -1.130  -0.004  -1.013  0.00  0.00    -0.092 F 
ENDROOT
TORSDOF 0
ENDMDL
