MODEL 1
REMARK minimizedAffinity 12.0953789
REMARK minimizedRMSD -1
REMARK  0 active torsions:
REMARK  status: ('A' for Active; 'I' for Inactive)
ROOT
ATOM      1  C   UNL d   1       2.687  -1.891  -0.999  0.00  0.00     0.124 A 
ATOM      2  C1  UNL d   1       2.883  -1.713   0.364  0.00  0.00     0.062 A 
ATOM      3  C2  UNL d   1       2.809  -0.439   0.921  0.00  0.00     0.162 A 
ATOM      4  C3  UNL d   1       2.537   0.667   0.115  0.00  0.00    -0.034 A 
ATOM      5  C4  UNL d   1       2.342   0.480  -1.254  0.00  0.00     0.162 A 
ATOM      6  C5  UNL d   1       2.417  -0.795  -1.806  0.00  0.00     0.062 A 
ATOM      7  F   UNL d   1       2.227  -0.965  -3.123  0.00  0.00    -0.097 F 
ATOM      8  F1  UNL d   1       2.078   1.521  -2.057  0.00  0.00    -0.096 F 
ATOM      9  I   UNL d   1       2.426   2.572   0.945  0.00  0.00    -0.060 I 
ATOM     10  F2  UNL d   1       3.003  -0.297   2.240  0.00  0.00    -0.096 F 
ATOM     11  F3  UNL d   1       3.145  -2.770   1.146  0.00  0.00    -0.097 F 
ATOM     12  F4  UNL d   1       2.759  -3.117  -1.532  0.00  0.00    -0.092 F 
ENDROOT
TORSDOF 0
ENDMDL
