MODEL 1
REMARK minimizedAffinity -3.10007811
REMARK minimizedRMSD -1
REMARK  0 active torsions:
REMARK  status: ('A' for Active; 'I' for Inactive)
ROOT
ATOM      1  C   UNL d   1       0.056   0.957   0.472  0.00  0.00     0.172 C 
ATOM      2  N   UNL d   1       0.839  -0.236   0.254  0.00  0.00    -0.070 N 
ATOM      3  C1  UNL d   1       0.398  -1.381  -0.354  0.00  0.00    -0.004 A 
ATOM      4  C2  UNL d   1       1.441  -2.281  -0.368  0.00  0.00    -0.047 A 
ATOM      5  C3  UNL d   1       2.548  -1.656   0.254  0.00  0.00    -0.047 A 
ATOM      6  C4  UNL d   1       2.148  -0.391   0.629  0.00  0.00    -0.004 A 
ENDROOT
TORSDOF 0
ENDMDL
