MODEL 1
REMARK minimizedAffinity -3.48663974
REMARK minimizedRMSD -1
REMARK  0 active torsions:
REMARK  status: ('A' for Active; 'I' for Inactive)
ROOT
ATOM      1  C   UNL d   1       2.432  -1.538   1.002  0.00  0.00     0.172 C 
ATOM      2  N   UNL d   1       1.452  -0.621   0.471  0.00  0.00    -0.070 N 
ATOM      3  C1  UNL d   1       1.482   0.742   0.599  0.00  0.00    -0.004 A 
ATOM      4  C2  UNL d   1       0.374   1.251  -0.044  0.00  0.00    -0.047 A 
ATOM      5  C3  UNL d   1      -0.347   0.156  -0.575  0.00  0.00    -0.047 A 
ATOM      6  C4  UNL d   1       0.342  -0.991  -0.242  0.00  0.00    -0.004 A 
ENDROOT
TORSDOF 0
ENDMDL
