MODEL 1
REMARK minimizedAffinity -3.6146636
REMARK minimizedRMSD -1
REMARK  0 active torsions:
REMARK  status: ('A' for Active; 'I' for Inactive)
ROOT
ATOM      1  C   UNL d   1      -0.704   0.700  -0.192  0.00  0.00     0.172 C 
ATOM      2  N   UNL d   1       0.486  -0.064   0.100  0.00  0.00    -0.070 N 
ATOM      3  C1  UNL d   1       1.593   0.403   0.756  0.00  0.00    -0.004 A 
ATOM      4  C2  UNL d   1       2.504  -0.628   0.834  0.00  0.00    -0.047 A 
ATOM      5  C3  UNL d   1       1.924  -1.754   0.203  0.00  0.00    -0.047 A 
ATOM      6  C4  UNL d   1       0.674  -1.377  -0.243  0.00  0.00    -0.004 A 
ENDROOT
TORSDOF 0
ENDMDL
