MODEL 1
REMARK minimizedAffinity -2.50168633
REMARK minimizedRMSD -1
REMARK  0 active torsions:
REMARK  status: ('A' for Active; 'I' for Inactive)
ROOT
ATOM      1  C   UNL d   1      -0.808   0.809  -0.563  0.00  0.00     0.172 C 
ATOM      2  N   UNL d   1      -2.019   0.846   0.222  0.00  0.00    -0.070 N 
ATOM      3  C1  UNL d   1      -3.294   0.823  -0.276  0.00  0.00    -0.004 A 
ATOM      4  C2  UNL d   1      -4.165   0.872   0.792  0.00  0.00    -0.047 A 
ATOM      5  C3  UNL d   1      -3.386   0.928   1.972  0.00  0.00    -0.047 A 
ATOM      6  C4  UNL d   1      -2.061   0.911   1.590  0.00  0.00    -0.004 A 
ENDROOT
TORSDOF 0
ENDMDL
