MODEL 1
REMARK minimizedAffinity -2.44529676
REMARK minimizedRMSD -1
REMARK  0 active torsions:
REMARK  status: ('A' for Active; 'I' for Inactive)
ROOT
ATOM      1  C   UNL d   1      -1.305   0.370  -0.153  0.00  0.00     0.172 C 
ATOM      2  N   UNL d   1       0.041  -0.120  -0.334  0.00  0.00    -0.070 N 
ATOM      3  C1  UNL d   1       1.166   0.654  -0.436  0.00  0.00    -0.004 A 
ATOM      4  C2  UNL d   1       2.245  -0.188  -0.599  0.00  0.00    -0.047 A 
ATOM      5  C3  UNL d   1       1.751  -1.514  -0.596  0.00  0.00    -0.047 A 
ATOM      6  C4  UNL d   1       0.384  -1.443  -0.430  0.00  0.00    -0.004 A 
ENDROOT
TORSDOF 0
ENDMDL
