MODEL 1
REMARK minimizedAffinity -3.73530555
REMARK minimizedRMSD -1
REMARK  0 active torsions:
REMARK  status: ('A' for Active; 'I' for Inactive)
ROOT
ATOM      1  C   UNL d   1       1.461   2.230   0.378  0.00  0.00     0.172 C 
ATOM      2  N   UNL d   1       1.276   0.798   0.334  0.00  0.00    -0.070 N 
ATOM      3  C1  UNL d   1       0.166   0.151  -0.137  0.00  0.00    -0.004 A 
ATOM      4  C2  UNL d   1       0.381  -1.205  -0.008  0.00  0.00    -0.047 A 
ATOM      5  C3  UNL d   1       1.664  -1.377   0.562  0.00  0.00    -0.047 A 
ATOM      6  C4  UNL d   1       2.196  -0.121   0.764  0.00  0.00    -0.004 A 
ENDROOT
TORSDOF 0
ENDMDL
