MODEL 1
REMARK minimizedAffinity -3.23739457
REMARK minimizedRMSD -1
REMARK  0 active torsions:
REMARK  status: ('A' for Active; 'I' for Inactive)
ROOT
ATOM      1  C   UNL d   1       2.187  -1.625  -0.033  0.00  0.00     0.172 C 
ATOM      2  N   UNL d   1       1.039  -0.750  -0.055  0.00  0.00    -0.070 N 
ATOM      3  C1  UNL d   1       0.879   0.378   0.705  0.00  0.00    -0.004 A 
ATOM      4  C2  UNL d   1      -0.345   0.929   0.391  0.00  0.00    -0.047 A 
ATOM      5  C3  UNL d   1      -0.942   0.102  -0.590  0.00  0.00    -0.047 A 
ATOM      6  C4  UNL d   1      -0.064  -0.929  -0.848  0.00  0.00    -0.004 A 
ENDROOT
TORSDOF 0
ENDMDL
