MODEL 1
REMARK minimizedAffinity -0.190721467
REMARK minimizedRMSD -1
REMARK  0 active torsions:
REMARK  status: ('A' for Active; 'I' for Inactive)
ROOT
ATOM      1  C   UNL d   1       0.018  -0.093  -0.087  0.00  0.00     0.172 C 
ATOM      2  N   UNL d   1       1.327  -0.671  -0.282  0.00  0.00    -0.070 N 
ATOM      3  C1  UNL d   1       1.605  -2.010  -0.358  0.00  0.00    -0.004 A 
ATOM      4  C2  UNL d   1       2.963  -2.149  -0.548  0.00  0.00    -0.047 A 
ATOM      5  C3  UNL d   1       3.520  -0.848  -0.587  0.00  0.00    -0.047 A 
ATOM      6  C4  UNL d   1       2.485   0.047  -0.420  0.00  0.00    -0.004 A 
ENDROOT
TORSDOF 0
ENDMDL
