MODEL 1
REMARK minimizedAffinity -2.47401214
REMARK minimizedRMSD -1
REMARK  0 active torsions:
REMARK  status: ('A' for Active; 'I' for Inactive)
ROOT
ATOM      1  C   UNL d   1      -0.462   0.741  -0.737  0.00  0.00     0.172 C 
ATOM      2  N   UNL d   1       0.619  -0.201  -0.570  0.00  0.00    -0.070 N 
ATOM      3  C1  UNL d   1       0.484  -1.559  -0.450  0.00  0.00    -0.004 A 
ATOM      4  C2  UNL d   1       1.744  -2.098  -0.309  0.00  0.00    -0.047 A 
ATOM      5  C3  UNL d   1       2.669  -1.027  -0.345  0.00  0.00    -0.047 A 
ATOM      6  C4  UNL d   1       1.946   0.135  -0.507  0.00  0.00    -0.004 A 
ENDROOT
TORSDOF 0
ENDMDL
