MODEL 1
REMARK minimizedAffinity 2.15915036
REMARK minimizedRMSD -1
REMARK  0 active torsions:
REMARK  status: ('A' for Active; 'I' for Inactive)
ROOT
ATOM      1  O1  BZF d   1      -0.059  -2.281  -0.661  0.00  0.00    -0.204 OA
ATOM      2  C2  BZF d   1      -0.460  -1.077  -0.115  0.00  0.00     0.174 A 
ATOM      3  C3  BZF d   1       0.150  -0.045  -0.733  0.00  0.00    -0.012 A 
ATOM      4  C3A BZF d   1       0.913  -0.637  -1.789  0.00  0.00    -0.107 A 
ATOM      5  C4  BZF d   1       1.722  -0.125  -2.763  0.00  0.00     0.055 A 
ATOM      6  C5  BZF d   1       2.378  -0.979  -3.593  0.00  0.00    -0.016 A 
ATOM      7  C6  BZF d   1       2.252  -2.347  -3.474  0.00  0.00     0.022 A 
ATOM      8  C7  BZF d   1       1.456  -2.901  -2.526  0.00  0.00     0.029 A 
ATOM      9  C7A BZF d   1       0.767  -2.041  -1.708  0.00  0.00     0.058 A 
ENDROOT
TORSDOF 0
ENDMDL
