MODEL 1
REMARK minimizedAffinity 8.08846283
REMARK minimizedRMSD -1
REMARK  0 active torsions:
REMARK  status: ('A' for Active; 'I' for Inactive)
ROOT
ATOM      1  O1  BZF d   1       4.880   5.992   2.734  0.00  0.00    -0.204 OA
ATOM      2  C2  BZF d   1       5.229   5.002   3.632  0.00  0.00     0.174 A 
ATOM      3  C3  BZF d   1       5.027   3.780   3.099  0.00  0.00    -0.012 A 
ATOM      4  C3A BZF d   1       4.607   4.021   1.753  0.00  0.00    -0.107 A 
ATOM      5  C4  BZF d   1       4.271   3.202   0.713  0.00  0.00     0.055 A 
ATOM      6  C5  BZF d   1       3.834   3.755  -0.449  0.00  0.00    -0.016 A 
ATOM      7  C6  BZF d   1       3.717   5.121  -0.604  0.00  0.00     0.022 A 
ATOM      8  C7  BZF d   1       4.043   5.974   0.397  0.00  0.00     0.029 A 
ATOM      9  C7A BZF d   1       4.516   5.420   1.562  0.00  0.00     0.058 A 
ENDROOT
TORSDOF 0
ENDMDL
