MODEL 1
REMARK minimizedAffinity 3.44976306
REMARK minimizedRMSD -1
REMARK  0 active torsions:
REMARK  status: ('A' for Active; 'I' for Inactive)
ROOT
ATOM      1  O1  BZF d   1       4.825   6.000  -0.594  0.00  0.00    -0.204 OA
ATOM      2  C2  BZF d   1       4.629   5.576  -1.894  0.00  0.00     0.174 A 
ATOM      3  C3  BZF d   1       3.861   4.467  -1.925  0.00  0.00    -0.012 A 
ATOM      4  C3A BZF d   1       3.482   4.234  -0.565  0.00  0.00    -0.107 A 
ATOM      5  C4  BZF d   1       2.708   3.289   0.045  0.00  0.00     0.055 A 
ATOM      6  C5  BZF d   1       2.598   3.299   1.400  0.00  0.00    -0.016 A 
ATOM      7  C6  BZF d   1       3.251   4.236   2.174  0.00  0.00     0.022 A 
ATOM      8  C7  BZF d   1       4.026   5.196   1.614  0.00  0.00     0.029 A 
ATOM      9  C7A BZF d   1       4.113   5.208   0.243  0.00  0.00     0.058 A 
ENDROOT
TORSDOF 0
ENDMDL
