MODEL 1
REMARK minimizedAffinity 6.4894352
REMARK minimizedRMSD -1
REMARK  0 active torsions:
REMARK  status: ('A' for Active; 'I' for Inactive)
ROOT
ATOM      1  O1  BZF d   1      -1.788  -0.904  -0.369  0.00  0.00    -0.204 OA
ATOM      2  C2  BZF d   1      -0.437  -0.748  -0.128  0.00  0.00     0.174 A 
ATOM      3  C3  BZF d   1       0.121  -1.919   0.242  0.00  0.00    -0.012 A 
ATOM      4  C3A BZF d   1      -0.930  -2.885   0.143  0.00  0.00    -0.107 A 
ATOM      5  C4  BZF d   1      -0.993  -4.231   0.364  0.00  0.00     0.055 A 
ATOM      6  C5  BZF d   1      -2.189  -4.865   0.247  0.00  0.00    -0.016 A 
ATOM      7  C6  BZF d   1      -3.342  -4.184  -0.084  0.00  0.00     0.022 A 
ATOM      8  C7  BZF d   1      -3.329  -2.849  -0.319  0.00  0.00     0.029 A 
ATOM      9  C7A BZF d   1      -2.116  -2.211  -0.233  0.00  0.00     0.058 A 
ENDROOT
TORSDOF 0
ENDMDL
