MODEL 1
REMARK minimizedAffinity 3.07064128
REMARK minimizedRMSD -1
REMARK  0 active torsions:
REMARK  status: ('A' for Active; 'I' for Inactive)
ROOT
ATOM      1  O1  BZF d   1       4.859   1.768   2.821  0.00  0.00    -0.204 OA
ATOM      2  C2  BZF d   1       5.235   2.995   3.332  0.00  0.00     0.174 A 
ATOM      3  C3  BZF d   1       5.635   2.877   4.615  0.00  0.00    -0.012 A 
ATOM      4  C3A BZF d   1       5.588   1.475   4.896  0.00  0.00    -0.107 A 
ATOM      5  C4  BZF d   1       5.885   0.728   6.000  0.00  0.00     0.055 A 
ATOM      6  C5  BZF d   1       5.661  -0.612   5.971  0.00  0.00    -0.016 A 
ATOM      7  C6  BZF d   1       5.136  -1.236   4.858  0.00  0.00     0.022 A 
ATOM      8  C7  BZF d   1       4.831  -0.538   3.737  0.00  0.00     0.029 A 
ATOM      9  C7A BZF d   1       5.088   0.811   3.752  0.00  0.00     0.058 A 
ENDROOT
TORSDOF 0
ENDMDL
