MODEL 1
REMARK minimizedAffinity 1.25209546
REMARK minimizedRMSD -1
REMARK  0 active torsions:
REMARK  status: ('A' for Active; 'I' for Inactive)
ROOT
ATOM      1  O1  BZF d   1      -0.281  -1.689  -0.111  0.00  0.00    -0.204 OA
ATOM      2  C2  BZF d   1      -0.748  -0.420   0.172  0.00  0.00     0.174 A 
ATOM      3  C3  BZF d   1      -0.291   0.470  -0.733  0.00  0.00    -0.012 A 
ATOM      4  C3A BZF d   1       0.436  -0.306  -1.690  0.00  0.00    -0.107 A 
ATOM      5  C4  BZF d   1       1.112   0.008  -2.834  0.00  0.00     0.055 A 
ATOM      6  C5  BZF d   1       1.776  -0.973  -3.499  0.00  0.00    -0.016 A 
ATOM      7  C6  BZF d   1       1.790  -2.276  -3.047  0.00  0.00     0.022 A 
ATOM      8  C7  BZF d   1       1.130  -2.637  -1.919  0.00  0.00     0.029 A 
ATOM      9  C7A BZF d   1       0.430  -1.654  -1.263  0.00  0.00     0.058 A 
ENDROOT
TORSDOF 0
ENDMDL
