MODEL 1
REMARK minimizedAffinity 1.12478256
REMARK minimizedRMSD -1
REMARK  0 active torsions:
REMARK  status: ('A' for Active; 'I' for Inactive)
ROOT
ATOM      1  O1  BZF d   1      -0.259  -1.367  -0.690  0.00  0.00    -0.204 OA
ATOM      2  C2  BZF d   1       0.924  -2.014  -0.388  0.00  0.00     0.174 A 
ATOM      3  C3  BZF d   1       0.721  -3.339  -0.243  0.00  0.00    -0.012 A 
ATOM      4  C3A BZF d   1      -0.659  -3.546  -0.559  0.00  0.00    -0.107 A 
ATOM      5  C4  BZF d   1      -1.454  -4.655  -0.610  0.00  0.00     0.055 A 
ATOM      6  C5  BZF d   1      -2.778  -4.506  -0.882  0.00  0.00    -0.016 A 
ATOM      7  C6  BZF d   1      -3.339  -3.265  -1.101  0.00  0.00     0.022 A 
ATOM      8  C7  BZF d   1      -2.589  -2.137  -1.066  0.00  0.00     0.029 A 
ATOM      9  C7A BZF d   1      -1.245  -2.287  -0.825  0.00  0.00     0.058 A 
ENDROOT
TORSDOF 0
ENDMDL
