MODEL 1
REMARK minimizedAffinity 12.4529171
REMARK minimizedRMSD -1
REMARK  0 active torsions:
REMARK  status: ('A' for Active; 'I' for Inactive)
ROOT
ATOM      1  O1  BZF d   1       1.196  -0.455  -1.674  0.00  0.00    -0.204 OA
ATOM      2  C2  BZF d   1       0.943  -1.057  -0.456  0.00  0.00     0.174 A 
ATOM      3  C3  BZF d   1       0.962  -2.400  -0.573  0.00  0.00    -0.012 A 
ATOM      4  C3A BZF d   1       1.336  -2.654  -1.930  0.00  0.00    -0.107 A 
ATOM      5  C4  BZF d   1       1.540  -3.797  -2.650  0.00  0.00     0.055 A 
ATOM      6  C5  BZF d   1       1.826  -3.701  -3.975  0.00  0.00    -0.016 A 
ATOM      7  C6  BZF d   1       1.911  -2.481  -4.613  0.00  0.00     0.022 A 
ATOM      8  C7  BZF d   1       1.722  -1.320  -3.940  0.00  0.00     0.029 A 
ATOM      9  C7A BZF d   1       1.465  -1.412  -2.594  0.00  0.00     0.058 A 
ENDROOT
TORSDOF 0
ENDMDL
