MODEL 1
REMARK minimizedAffinity -4.57177067
REMARK minimizedRMSD -1
REMARK  0 active torsions:
REMARK  status: ('A' for Active; 'I' for Inactive)
ROOT
ATOM      1  O1  BZF d   1       4.023   4.534   2.284  0.00  0.00    -0.204 OA
ATOM      2  C2  BZF d   1       4.912   5.441   2.828  0.00  0.00     0.174 A 
ATOM      3  C3  BZF d   1       5.676   5.997   1.866  0.00  0.00    -0.012 A 
ATOM      4  C3A BZF d   1       5.175   5.469   0.634  0.00  0.00    -0.107 A 
ATOM      5  C4  BZF d   1       5.513   5.657  -0.675  0.00  0.00     0.055 A 
ATOM      6  C5  BZF d   1       4.875   4.934  -1.633  0.00  0.00    -0.016 A 
ATOM      7  C6  BZF d   1       3.898   4.012  -1.317  0.00  0.00     0.022 A 
ATOM      8  C7  BZF d   1       3.525   3.795  -0.032  0.00  0.00     0.029 A 
ATOM      9  C7A BZF d   1       4.145   4.547   0.935  0.00  0.00     0.058 A 
ENDROOT
TORSDOF 0
ENDMDL
