MODEL 1
REMARK minimizedAffinity 2.2974174
REMARK minimizedRMSD -1
REMARK  0 active torsions:
REMARK  status: ('A' for Active; 'I' for Inactive)
ROOT
ATOM      1  O1  BZF d   1       5.938   2.789   3.537  0.00  0.00    -0.204 OA
ATOM      2  C2  BZF d   1       5.998   3.598   4.656  0.00  0.00     0.174 A 
ATOM      3  C3  BZF d   1       5.974   2.858   5.783  0.00  0.00    -0.012 A 
ATOM      4  C3A BZF d   1       5.987   1.497   5.341  0.00  0.00    -0.107 A 
ATOM      5  C4  BZF d   1       5.990   0.298   5.993  0.00  0.00     0.055 A 
ATOM      6  C5  BZF d   1       5.930  -0.849   5.267  0.00  0.00    -0.016 A 
ATOM      7  C6  BZF d   1       5.861  -0.834   3.890  0.00  0.00     0.022 A 
ATOM      8  C7  BZF d   1       5.861   0.331   3.197  0.00  0.00     0.029 A 
ATOM      9  C7A BZF d   1       5.955   1.491   3.927  0.00  0.00     0.058 A 
ENDROOT
TORSDOF 0
ENDMDL
