MODEL 1
REMARK minimizedAffinity -2.34142065
REMARK minimizedRMSD -1
REMARK  0 active torsions:
REMARK  status: ('A' for Active; 'I' for Inactive)
ROOT
ATOM      1  O1  BZF d   1       4.349   5.629   0.490  0.00  0.00    -0.204 OA
ATOM      2  C2  BZF d   1       4.070   4.502  -0.259  0.00  0.00     0.174 A 
ATOM      3  C3  BZF d   1       4.490   3.389   0.377  0.00  0.00    -0.012 A 
ATOM      4  C3A BZF d   1       4.985   3.843   1.641  0.00  0.00    -0.107 A 
ATOM      5  C4  BZF d   1       5.522   3.205   2.722  0.00  0.00     0.055 A 
ATOM      6  C5  BZF d   1       5.973   3.945   3.769  0.00  0.00    -0.016 A 
ATOM      7  C6  BZF d   1       5.906   5.323   3.766  0.00  0.00     0.022 A 
ATOM      8  C7  BZF d   1       5.377   6.000   2.718  0.00  0.00     0.029 A 
ATOM      9  C7A BZF d   1       4.890   5.253   1.673  0.00  0.00     0.058 A 
ENDROOT
TORSDOF 0
ENDMDL
