MODEL 1
REMARK minimizedAffinity 5.74294329
REMARK minimizedRMSD -1
REMARK  0 active torsions:
REMARK  status: ('A' for Active; 'I' for Inactive)
ROOT
ATOM      1  O1  BZF d   1       4.975   3.769   3.407  0.00  0.00    -0.204 OA
ATOM      2  C2  BZF d   1       5.295   4.948   4.051  0.00  0.00     0.174 A 
ATOM      3  C3  BZF d   1       5.161   6.000   3.217  0.00  0.00    -0.012 A 
ATOM      4  C3A BZF d   1       4.642   5.452   2.002  0.00  0.00    -0.107 A 
ATOM      5  C4  BZF d   1       4.283   6.000   0.803  0.00  0.00     0.055 A 
ATOM      6  C5  BZF d   1       3.882   5.180  -0.204  0.00  0.00    -0.016 A 
ATOM      7  C6  BZF d   1       3.832   3.810  -0.049  0.00  0.00     0.022 A 
ATOM      8  C7  BZF d   1       4.173   3.222   1.123  0.00  0.00     0.029 A 
ATOM      9  C7A BZF d   1       4.547   4.050   2.153  0.00  0.00     0.058 A 
ENDROOT
TORSDOF 0
ENDMDL
