MODEL 1
REMARK minimizedAffinity 3.41908932
REMARK minimizedRMSD -1
REMARK  0 active torsions:
REMARK  status: ('A' for Active; 'I' for Inactive)
ROOT
ATOM      1  O1  BZF d   1       0.078  -3.800   0.227  0.00  0.00    -0.204 OA
ATOM      2  C2  BZF d   1       0.416  -2.464   0.128  0.00  0.00     0.174 A 
ATOM      3  C3  BZF d   1      -0.554  -1.771  -0.502  0.00  0.00    -0.012 A 
ATOM      4  C3A BZF d   1      -1.602  -2.717  -0.736  0.00  0.00    -0.107 A 
ATOM      5  C4  BZF d   1      -2.836  -2.627  -1.312  0.00  0.00     0.055 A 
ATOM      6  C5  BZF d   1      -3.585  -3.752  -1.450  0.00  0.00    -0.016 A 
ATOM      7  C6  BZF d   1      -3.128  -4.984  -1.027  0.00  0.00     0.022 A 
ATOM      8  C7  BZF d   1      -1.912  -5.122  -0.445  0.00  0.00     0.029 A 
ATOM      9  C7A BZF d   1      -1.167  -3.981  -0.275  0.00  0.00     0.058 A 
ENDROOT
TORSDOF 0
ENDMDL
