MODEL 1
REMARK minimizedAffinity -4.55152178
REMARK minimizedRMSD -1
REMARK  0 active torsions:
REMARK  status: ('A' for Active; 'I' for Inactive)
ROOT
ATOM      1  O1  BZF d   1       5.835   1.753   4.804  0.00  0.00    -0.204 OA
ATOM      2  C2  BZF d   1       5.655   0.564   4.123  0.00  0.00     0.174 A 
ATOM      3  C3  BZF d   1       5.468   0.790   2.807  0.00  0.00    -0.012 A 
ATOM      4  C3A BZF d   1       5.628   2.202   2.641  0.00  0.00    -0.107 A 
ATOM      5  C4  BZF d   1       5.575   3.033   1.558  0.00  0.00     0.055 A 
ATOM      6  C5  BZF d   1       5.702   4.372   1.746  0.00  0.00    -0.016 A 
ATOM      7  C6  BZF d   1       5.878   4.916   3.002  0.00  0.00     0.022 A 
ATOM      8  C7  BZF d   1       5.942   4.132   4.106  0.00  0.00     0.029 A 
ATOM      9  C7A BZF d   1       5.847   2.775   3.915  0.00  0.00     0.058 A 
ENDROOT
TORSDOF 0
ENDMDL
