MODEL 1
REMARK minimizedAffinity 4.65768528
REMARK minimizedRMSD -1
REMARK  0 active torsions:
REMARK  status: ('A' for Active; 'I' for Inactive)
ROOT
ATOM      1  O1  BZF d   1       3.590   4.159   3.200  0.00  0.00    -0.204 OA
ATOM      2  C2  BZF d   1       4.228   5.155   3.916  0.00  0.00     0.174 A 
ATOM      3  C3  BZF d   1       4.875   6.000   3.087  0.00  0.00    -0.012 A 
ATOM      4  C3A BZF d   1       4.549   5.555   1.767  0.00  0.00    -0.107 A 
ATOM      5  C4  BZF d   1       4.878   6.000   0.518  0.00  0.00     0.055 A 
ATOM      6  C5  BZF d   1       4.456   5.298  -0.566  0.00  0.00    -0.016 A 
ATOM      7  C6  BZF d   1       3.708   4.145  -0.438  0.00  0.00     0.022 A 
ATOM      8  C7  BZF d   1       3.353   3.668   0.779  0.00  0.00     0.029 A 
ATOM      9  C7A BZF d   1       3.751   4.393   1.876  0.00  0.00     0.058 A 
ENDROOT
TORSDOF 0
ENDMDL
