MODEL 1
REMARK minimizedAffinity 7.29904938
REMARK minimizedRMSD -1
REMARK  0 active torsions:
REMARK  status: ('A' for Active; 'I' for Inactive)
ROOT
ATOM      1  O1  BZF d   1       4.489   3.969   3.544  0.00  0.00    -0.204 OA
ATOM      2  C2  BZF d   1       5.128   5.059   4.104  0.00  0.00     0.174 A 
ATOM      3  C3  BZF d   1       5.376   6.000   3.171  0.00  0.00    -0.012 A 
ATOM      4  C3A BZF d   1       4.776   5.506   1.970  0.00  0.00    -0.107 A 
ATOM      5  C4  BZF d   1       4.672   5.999   0.700  0.00  0.00     0.055 A 
ATOM      6  C5  BZF d   1       4.087   5.234  -0.259  0.00  0.00    -0.016 A 
ATOM      7  C6  BZF d   1       3.602   3.972   0.013  0.00  0.00     0.022 A 
ATOM      8  C7  BZF d   1       3.678   3.442   1.259  0.00  0.00     0.029 A 
ATOM      9  C7A BZF d   1       4.238   4.226   2.238  0.00  0.00     0.058 A 
ENDROOT
TORSDOF 0
ENDMDL
