MODEL 1
REMARK minimizedAffinity 2.90948677
REMARK minimizedRMSD -1
REMARK  0 active torsions:
REMARK  status: ('A' for Active; 'I' for Inactive)
ROOT
ATOM      1  O1  BZF d   1      -1.480  -1.185   3.693  0.00  0.00    -0.204 OA
ATOM      2  C2  BZF d   1      -2.760  -1.349   4.186  0.00  0.00     0.174 A 
ATOM      3  C3  BZF d   1      -3.672  -1.234   3.199  0.00  0.00    -0.012 A 
ATOM      4  C3A BZF d   1      -2.909  -1.074   1.999  0.00  0.00    -0.107 A 
ATOM      5  C4  BZF d   1      -3.246  -0.927   0.684  0.00  0.00     0.055 A 
ATOM      6  C5  BZF d   1      -2.263  -0.721  -0.231  0.00  0.00    -0.016 A 
ATOM      7  C6  BZF d   1      -0.935  -0.651   0.133  0.00  0.00     0.022 A 
ATOM      8  C7  BZF d   1      -0.550  -0.796   1.425  0.00  0.00     0.029 A 
ATOM      9  C7A BZF d   1      -1.539  -1.038   2.348  0.00  0.00     0.058 A 
ENDROOT
TORSDOF 0
ENDMDL
