MODEL 1
REMARK minimizedAffinity 3.02843881
REMARK minimizedRMSD -1
REMARK  0 active torsions:
REMARK  status: ('A' for Active; 'I' for Inactive)
ROOT
ATOM      1  O1  BZF d   1       5.630   2.888   5.985  0.00  0.00    -0.204 OA
ATOM      2  C2  BZF d   1       4.880   1.786   5.624  0.00  0.00     0.174 A 
ATOM      3  C3  BZF d   1       4.191   2.026   4.490  0.00  0.00    -0.012 A 
ATOM      4  C3A BZF d   1       4.604   3.330   4.068  0.00  0.00    -0.107 A 
ATOM      5  C4  BZF d   1       4.283   4.116   2.999  0.00  0.00     0.055 A 
ATOM      6  C5  BZF d   1       4.807   5.368   2.919  0.00  0.00    -0.016 A 
ATOM      7  C6  BZF d   1       5.649   5.866   3.891  0.00  0.00     0.022 A 
ATOM      8  C7  BZF d   1       6.000   5.121   4.968  0.00  0.00     0.029 A 
ATOM      9  C7A BZF d   1       5.499   3.844   5.035  0.00  0.00     0.058 A 
ENDROOT
TORSDOF 0
ENDMDL
