MODEL 1
REMARK minimizedAffinity -3.63607669
REMARK minimizedRMSD -1
REMARK  0 active torsions:
REMARK  status: ('A' for Active; 'I' for Inactive)
ROOT
ATOM      1  C   UNL d   1       0.386   0.136  -0.061  0.00  0.00     0.172 C 
ATOM      2  N   UNL d   1      -0.616  -0.635   0.636  0.00  0.00    -0.070 N 
ATOM      3  C1  UNL d   1      -1.917  -0.257   0.839  0.00  0.00    -0.004 A 
ATOM      4  C2  UNL d   1      -2.544  -1.263   1.541  0.00  0.00    -0.047 A 
ATOM      5  C3  UNL d   1      -1.587  -2.280   1.770  0.00  0.00    -0.047 A 
ATOM      6  C4  UNL d   1      -0.403  -1.865   1.200  0.00  0.00    -0.004 A 
ENDROOT
TORSDOF 0
ENDMDL
