MODEL 1
REMARK minimizedAffinity -4.08928633
REMARK minimizedRMSD -1
REMARK  0 active torsions:
REMARK  status: ('A' for Active; 'I' for Inactive)
ROOT
ATOM      1  C   UNL d   1       0.872  -0.739   0.018  0.00  0.00     0.172 C 
ATOM      2  N   UNL d   1      -0.496  -0.968   0.421  0.00  0.00    -0.070 N 
ATOM      3  C1  UNL d   1      -1.521  -0.067   0.313  0.00  0.00    -0.004 A 
ATOM      4  C2  UNL d   1      -2.662  -0.665   0.805  0.00  0.00    -0.047 A 
ATOM      5  C3  UNL d   1      -2.308  -1.970   1.223  0.00  0.00    -0.047 A 
ATOM      6  C4  UNL d   1      -0.962  -2.131   0.974  0.00  0.00    -0.004 A 
ENDROOT
TORSDOF 0
ENDMDL
