MODEL 1
REMARK minimizedAffinity -3.74900746
REMARK minimizedRMSD -1
REMARK  0 active torsions:
REMARK  status: ('A' for Active; 'I' for Inactive)
ROOT
ATOM      1  C   UNL d   1      -0.269   0.988   0.028  0.00  0.00     0.172 C 
ATOM      2  N   UNL d   1      -0.838  -0.193   0.633  0.00  0.00    -0.070 N 
ATOM      3  C1  UNL d   1      -2.090  -0.286   1.180  0.00  0.00    -0.004 A 
ATOM      4  C2  UNL d   1      -2.251  -1.572   1.649  0.00  0.00    -0.047 A 
ATOM      5  C3  UNL d   1      -1.054  -2.276   1.376  0.00  0.00    -0.047 A 
ATOM      6  C4  UNL d   1      -0.196  -1.398   0.746  0.00  0.00    -0.004 A 
ENDROOT
TORSDOF 0
ENDMDL
