MODEL 1
REMARK minimizedAffinity -1.49802125
REMARK minimizedRMSD -1
REMARK  0 active torsions:
REMARK  status: ('A' for Active; 'I' for Inactive)
ROOT
ATOM      1  C   UNL d   1       0.588   0.777  -0.451  0.00  0.00     0.172 C 
ATOM      2  N   UNL d   1       0.137  -0.486   0.083  0.00  0.00    -0.070 N 
ATOM      3  C1  UNL d   1       0.877  -1.638   0.141  0.00  0.00    -0.004 A 
ATOM      4  C2  UNL d   1       0.092  -2.614   0.716  0.00  0.00    -0.047 A 
ATOM      5  C3  UNL d   1      -1.162  -2.030   1.013  0.00  0.00    -0.047 A 
ATOM      6  C4  UNL d   1      -1.107  -0.712   0.610  0.00  0.00    -0.004 A 
ENDROOT
TORSDOF 0
ENDMDL
