MODEL 1
REMARK minimizedAffinity -3.05499029
REMARK minimizedRMSD -1
REMARK  0 active torsions:
REMARK  status: ('A' for Active; 'I' for Inactive)
ROOT
ATOM      1  C   UNL d   1      -1.903   0.748   1.455  0.00  0.00     0.172 C 
ATOM      2  N   UNL d   1      -0.929  -0.219   1.006  0.00  0.00    -0.070 N 
ATOM      3  C1  UNL d   1       0.032  -0.003   0.054  0.00  0.00    -0.004 A 
ATOM      4  C2  UNL d   1       0.757  -1.167  -0.086  0.00  0.00    -0.047 A 
ATOM      5  C3  UNL d   1       0.212  -2.116   0.812  0.00  0.00    -0.047 A 
ATOM      6  C4  UNL d   1      -0.830  -1.503   1.475  0.00  0.00    -0.004 A 
ENDROOT
TORSDOF 0
ENDMDL
