MODEL 1
REMARK minimizedAffinity -2.14017344
REMARK minimizedRMSD -1
REMARK  0 active torsions:
REMARK  status: ('A' for Active; 'I' for Inactive)
ROOT
ATOM      1  C   UNL d   1       0.530   1.265  -1.520  0.00  0.00     0.172 C 
ATOM      2  N   UNL d   1       0.454   0.191  -0.558  0.00  0.00    -0.070 N 
ATOM      3  C1  UNL d   1      -0.226   0.230   0.630  0.00  0.00    -0.004 A 
ATOM      4  C2  UNL d   1      -0.054  -0.987   1.255  0.00  0.00    -0.047 A 
ATOM      5  C3  UNL d   1       0.759  -1.784   0.414  0.00  0.00    -0.047 A 
ATOM      6  C4  UNL d   1       1.059  -1.030  -0.701  0.00  0.00    -0.004 A 
ENDROOT
TORSDOF 0
ENDMDL
