MODEL 1
REMARK minimizedAffinity -2.53389597
REMARK minimizedRMSD -1
REMARK  0 active torsions:
REMARK  status: ('A' for Active; 'I' for Inactive)
ROOT
ATOM      1  C   UNL d   1      -0.722   0.975   0.865  0.00  0.00     0.172 C 
ATOM      2  N   UNL d   1       0.378   0.068   0.632  0.00  0.00    -0.070 N 
ATOM      3  C1  UNL d   1       0.322  -1.079  -0.114  0.00  0.00    -0.004 A 
ATOM      4  C2  UNL d   1       1.573  -1.657  -0.092  0.00  0.00    -0.047 A 
ATOM      5  C3  UNL d   1       2.409  -0.830   0.695  0.00  0.00    -0.047 A 
ATOM      6  C4  UNL d   1       1.643   0.231   1.131  0.00  0.00    -0.004 A 
ENDROOT
TORSDOF 0
ENDMDL
