MODEL 1
REMARK minimizedAffinity -2.84290648
REMARK minimizedRMSD -1
REMARK  0 active torsions:
REMARK  status: ('A' for Active; 'I' for Inactive)
ROOT
ATOM      1  C   UNL d   1       1.792   2.245  -1.849  0.00  0.00     0.172 C 
ATOM      2  N   UNL d   1       0.924   1.489  -0.977  0.00  0.00    -0.070 N 
ATOM      3  C1  UNL d   1       0.945   0.130  -0.811  0.00  0.00    -0.004 A 
ATOM      4  C2  UNL d   1      -0.033  -0.199   0.102  0.00  0.00    -0.047 A 
ATOM      5  C3  UNL d   1      -0.665   1.003   0.498  0.00  0.00    -0.047 A 
ATOM      6  C4  UNL d   1      -0.053   2.033  -0.185  0.00  0.00    -0.004 A 
ENDROOT
TORSDOF 0
ENDMDL
