MODEL 1
REMARK minimizedAffinity -4.14751339
REMARK minimizedRMSD -1
REMARK  0 active torsions:
REMARK  status: ('A' for Active; 'I' for Inactive)
ROOT
ATOM      1  C   UNL d   1       1.441  -0.853   0.746  0.00  0.00     0.172 C 
ATOM      2  N   UNL d   1       0.054  -1.240   0.859  0.00  0.00    -0.070 N 
ATOM      3  C1  UNL d   1      -0.403  -2.442   1.328  0.00  0.00    -0.004 A 
ATOM      4  C2  UNL d   1      -1.780  -2.418   1.277  0.00  0.00    -0.047 A 
ATOM      5  C3  UNL d   1      -2.163  -1.159   0.758  0.00  0.00    -0.047 A 
ATOM      6  C4  UNL d   1      -1.008  -0.449   0.508  0.00  0.00    -0.004 A 
ENDROOT
TORSDOF 0
ENDMDL
