MODEL 1
REMARK minimizedAffinity -3.60847592
REMARK minimizedRMSD -1
REMARK  0 active torsions:
REMARK  status: ('A' for Active; 'I' for Inactive)
ROOT
ATOM      1  C   UNL d   1       0.255   1.001   0.089  0.00  0.00     0.172 C 
ATOM      2  N   UNL d   1      -0.579  -0.051   0.620  0.00  0.00    -0.070 N 
ATOM      3  C1  UNL d   1      -1.911   0.059   0.918  0.00  0.00    -0.004 A 
ATOM      4  C2  UNL d   1      -2.338  -1.160   1.399  0.00  0.00    -0.047 A 
ATOM      5  C3  UNL d   1      -1.223  -2.032   1.391  0.00  0.00    -0.047 A 
ATOM      6  C4  UNL d   1      -0.148  -1.320   0.905  0.00  0.00    -0.004 A 
ENDROOT
TORSDOF 0
ENDMDL
