MODEL 1
REMARK minimizedAffinity -3.880229
REMARK minimizedRMSD -1
REMARK  0 active torsions:
REMARK  status: ('A' for Active; 'I' for Inactive)
ROOT
ATOM      1  C   UNL d   1       0.500  -1.433   0.470  0.00  0.00     0.172 C 
ATOM      2  N   UNL d   1      -0.848  -1.604   0.959  0.00  0.00    -0.070 N 
ATOM      3  C1  UNL d   1      -1.724  -0.593   1.255  0.00  0.00    -0.004 A 
ATOM      4  C2  UNL d   1      -2.899  -1.167   1.689  0.00  0.00    -0.047 A 
ATOM      5  C3  UNL d   1      -2.724  -2.571   1.653  0.00  0.00    -0.047 A 
ATOM      6  C4  UNL d   1      -1.445  -2.813   1.197  0.00  0.00    -0.004 A 
ENDROOT
TORSDOF 0
ENDMDL
