MODEL 1
REMARK minimizedAffinity -3.74111414
REMARK minimizedRMSD -1
REMARK  0 active torsions:
REMARK  status: ('A' for Active; 'I' for Inactive)
ROOT
ATOM      1  C   UNL d   1      -2.105  -2.291   1.119  0.00  0.00     0.172 C 
ATOM      2  N   UNL d   1      -1.014  -1.403   0.794  0.00  0.00    -0.070 N 
ATOM      3  C1  UNL d   1      -1.127  -0.067   0.516  0.00  0.00    -0.004 A 
ATOM      4  C2  UNL d   1       0.136   0.419   0.259  0.00  0.00    -0.047 A 
ATOM      5  C3  UNL d   1       1.040  -0.662   0.386  0.00  0.00    -0.047 A 
ATOM      6  C4  UNL d   1       0.301  -1.778   0.718  0.00  0.00    -0.004 A 
ENDROOT
TORSDOF 0
ENDMDL
