MODEL 1
REMARK minimizedAffinity -1.70021677
REMARK minimizedRMSD -1
REMARK  0 active torsions:
REMARK  status: ('A' for Active; 'I' for Inactive)
ROOT
ATOM      1  C   UNL d   1       1.487   2.044  -2.265  0.00  0.00     0.172 C 
ATOM      2  N   UNL d   1       0.841   1.279  -1.225  0.00  0.00    -0.070 N 
ATOM      3  C1  UNL d   1       1.007  -0.062  -1.000  0.00  0.00    -0.004 A 
ATOM      4  C2  UNL d   1       0.223  -0.409   0.078  0.00  0.00    -0.047 A 
ATOM      5  C3  UNL d   1      -0.438   0.763   0.516  0.00  0.00    -0.047 A 
ATOM      6  C4  UNL d   1      -0.037   1.793  -0.308  0.00  0.00    -0.004 A 
ENDROOT
TORSDOF 0
ENDMDL
