MODEL 1
REMARK minimizedAffinity -2.51994729
REMARK minimizedRMSD -1
REMARK  0 active torsions:
REMARK  status: ('A' for Active; 'I' for Inactive)
ROOT
ATOM      1  C   UNL d   1       0.427   1.806  -2.476  0.00  0.00     0.172 C 
ATOM      2  N   UNL d   1       0.431   0.946  -1.316  0.00  0.00    -0.070 N 
ATOM      3  C1  UNL d   1       0.369  -0.422  -1.337  0.00  0.00    -0.004 A 
ATOM      4  C2  UNL d   1       0.398  -0.865  -0.032  0.00  0.00    -0.047 A 
ATOM      5  C3  UNL d   1       0.478   0.276   0.801  0.00  0.00    -0.047 A 
ATOM      6  C4  UNL d   1       0.497   1.384  -0.020  0.00  0.00    -0.004 A 
ENDROOT
TORSDOF 0
ENDMDL
