MODEL 1
REMARK minimizedAffinity -3.40665174
REMARK minimizedRMSD -1
REMARK  0 active torsions:
REMARK  status: ('A' for Active; 'I' for Inactive)
ROOT
ATOM      1  C   UNL d   1       0.731   0.577  -0.891  0.00  0.00     0.172 C 
ATOM      2  N   UNL d   1       0.302  -0.556  -0.106  0.00  0.00    -0.070 N 
ATOM      3  C1  UNL d   1      -0.992  -0.847   0.235  0.00  0.00    -0.004 A 
ATOM      4  C2  UNL d   1      -0.981  -2.003   0.984  0.00  0.00    -0.047 A 
ATOM      5  C3  UNL d   1       0.366  -2.422   1.098  0.00  0.00    -0.047 A 
ATOM      6  C4  UNL d   1       1.139  -1.507   0.415  0.00  0.00    -0.004 A 
ENDROOT
TORSDOF 0
ENDMDL
