MODEL 1
REMARK minimizedAffinity 1.34890151
REMARK minimizedRMSD -1
REMARK  2 active torsions:
REMARK  status: ('A' for Active; 'I' for Inactive)
REMARK    1  A    between atoms: C1_2  and  C2_3 
REMARK    2  A    between atoms: C2_3  and  C3_4 
ROOT
ATOM      1  C3  UNL d   1       0.225   0.119   0.807  0.00  0.00    -0.075 A 
ATOM      2  C4  UNL d   1      -0.655  -0.024  -0.275  0.00  0.00     0.002 A 
ATOM      3  C5  UNL d   1      -2.028   0.153  -0.100  0.00  0.00     0.002 A 
ATOM      4  C6  UNL d   1      -2.538   0.465   1.158  0.00  0.00    -0.004 A 
ATOM      5  C7  UNL d   1      -1.675   0.593   2.244  0.00  0.00     0.002 A 
ATOM      6  C8  UNL d   1      -0.300   0.420   2.071  0.00  0.00     0.002 A 
ENDROOT
BRANCH   1   7
ATOM      7  C2  UNL d   1       1.714  -0.043   0.618  0.00  0.00     0.056 C 
BRANCH   7   8
ATOM      8  C1  UNL d   1       2.330   0.957  -0.366  0.00  0.00     0.007 C 
ATOM      9  C   UNL d   1       3.178   2.024   0.313  0.00  0.00     0.009 C 
ENDBRANCH   7   8
ENDBRANCH   1   7
TORSDOF 2
ENDMDL
