MODEL 1
REMARK minimizedAffinity 2.03592563
REMARK minimizedRMSD -1
REMARK  2 active torsions:
REMARK  status: ('A' for Active; 'I' for Inactive)
REMARK    1  A    between atoms: C1_2  and  C2_3 
REMARK    2  A    between atoms: C2_3  and  C3_4 
ROOT
ATOM      1  C3  UNL d   1       1.390   0.832  -1.748  0.00  0.00    -0.075 A 
ATOM      2  C4  UNL d   1       2.411   1.584  -1.150  0.00  0.00     0.002 A 
ATOM      3  C5  UNL d   1       2.557   1.603   0.238  0.00  0.00     0.002 A 
ATOM      4  C6  UNL d   1       1.680   0.882   1.044  0.00  0.00    -0.004 A 
ATOM      5  C7  UNL d   1       0.651   0.144   0.462  0.00  0.00     0.002 A 
ATOM      6  C8  UNL d   1       0.505   0.119  -0.927  0.00  0.00     0.002 A 
ENDROOT
BRANCH   1   7
ATOM      7  C2  UNL d   1       1.244   0.783  -3.250  0.00  0.00     0.056 C 
BRANCH   7   8
ATOM      8  C1  UNL d   1      -0.181   1.045  -3.747  0.00  0.00     0.007 C 
ATOM      9  C   UNL d   1      -0.744  -0.096  -4.584  0.00  0.00     0.009 C 
ENDBRANCH   7   8
ENDBRANCH   1   7
TORSDOF 2
ENDMDL
