MODEL 1
REMARK minimizedAffinity 4.19476557
REMARK minimizedRMSD -1
REMARK  2 active torsions:
REMARK  status: ('A' for Active; 'I' for Inactive)
REMARK    1  A    between atoms: C1_2  and  C2_3 
REMARK    2  A    between atoms: C2_3  and  C3_4 
ROOT
ATOM      1  C3  UNL d   1       0.225   0.007   2.191  0.00  0.00    -0.075 A 
ATOM      2  C4  UNL d   1       0.082  -0.657   3.419  0.00  0.00     0.002 A 
ATOM      3  C5  UNL d   1      -1.178  -0.812   3.997  0.00  0.00     0.002 A 
ATOM      4  C6  UNL d   1      -2.307  -0.299   3.363  0.00  0.00    -0.004 A 
ATOM      5  C7  UNL d   1      -2.175   0.376   2.151  0.00  0.00     0.002 A 
ATOM      6  C8  UNL d   1      -0.916   0.529   1.568  0.00  0.00     0.002 A 
ENDROOT
BRANCH   1   7
ATOM      7  C2  UNL d   1       1.583   0.152   1.546  0.00  0.00     0.056 C 
BRANCH   7   8
ATOM      8  C1  UNL d   1       1.573  -0.036   0.025  0.00  0.00     0.007 C 
ATOM      9  C   UNL d   1       2.904   0.308  -0.630  0.00  0.00     0.009 C 
ENDBRANCH   7   8
ENDBRANCH   1   7
TORSDOF 2
ENDMDL
