MODEL 1
REMARK minimizedAffinity 2.38047194
REMARK minimizedRMSD -1
REMARK  2 active torsions:
REMARK  status: ('A' for Active; 'I' for Inactive)
REMARK    1  A    between atoms: C1_2  and  C2_3 
REMARK    2  A    between atoms: C2_3  and  C3_4 
ROOT
ATOM      1  C3  UNL d   1      -0.620  -0.053   1.571  0.00  0.00    -0.075 A 
ATOM      2  C4  UNL d   1       0.543  -0.506   2.211  0.00  0.00     0.002 A 
ATOM      3  C5  UNL d   1       0.494  -0.962   3.529  0.00  0.00     0.002 A 
ATOM      4  C6  UNL d   1      -0.713  -0.961   4.225  0.00  0.00    -0.004 A 
ATOM      5  C7  UNL d   1      -1.871  -0.498   3.604  0.00  0.00     0.002 A 
ATOM      6  C8  UNL d   1      -1.826  -0.045   2.285  0.00  0.00     0.002 A 
ENDROOT
BRANCH   1   7
ATOM      7  C2  UNL d   1      -0.579   0.414   0.135  0.00  0.00     0.056 C 
BRANCH   7   8
ATOM      8  C1  UNL d   1      -1.838   0.070  -0.668  0.00  0.00     0.007 C 
ATOM      9  C   UNL d   1      -1.885  -1.385  -1.115  0.00  0.00     0.009 C 
ENDBRANCH   7   8
ENDBRANCH   1   7
TORSDOF 2
ENDMDL
