MODEL 1
REMARK minimizedAffinity -1.36732709
REMARK minimizedRMSD -1
REMARK  2 active torsions:
REMARK  status: ('A' for Active; 'I' for Inactive)
REMARK    1  A    between atoms: C1_2  and  C2_3 
REMARK    2  A    between atoms: C2_3  and  C3_4 
ROOT
ATOM      1  C3  UNL d   1      -0.026  -1.358   3.644  0.00  0.00    -0.075 A 
ATOM      2  C4  UNL d   1      -1.382  -1.002   3.656  0.00  0.00     0.002 A 
ATOM      3  C5  UNL d   1      -1.974  -0.427   2.531  0.00  0.00     0.002 A 
ATOM      4  C6  UNL d   1      -1.217  -0.192   1.385  0.00  0.00    -0.004 A 
ATOM      5  C7  UNL d   1       0.136  -0.526   1.368  0.00  0.00     0.002 A 
ATOM      6  C8  UNL d   1       0.729  -1.105   2.491  0.00  0.00     0.002 A 
ENDROOT
BRANCH   1   7
ATOM      7  C2  UNL d   1       0.613  -2.007   4.848  0.00  0.00     0.056 C 
BRANCH   7   8
ATOM      8  C1  UNL d   1       2.073  -1.600   5.075  0.00  0.00     0.007 C 
ATOM      9  C   UNL d   1       3.054  -2.749   4.881  0.00  0.00     0.009 C 
ENDBRANCH   7   8
ENDBRANCH   1   7
TORSDOF 2
ENDMDL
