MODEL 1
REMARK minimizedAffinity 5.06298113
REMARK minimizedRMSD -1
REMARK  1 active torsions:
REMARK  status: ('A' for Active; 'I' for Inactive)
REMARK    1  A    between atoms: C1_2  and  C2_3 
ROOT
ATOM      1  C2  UNL d   1       1.902  -4.656   4.535  0.00  0.00    -0.081 A 
ATOM      2  C3  UNL d   1       3.030  -3.857   4.760  0.00  0.00     0.006 A 
ATOM      3  C4  UNL d   1       3.173  -2.633   4.102  0.00  0.00     0.002 A 
ATOM      4  C5  UNL d   1       2.189  -2.185   3.214  0.00  0.00    -0.080 A 
ATOM      5  C6  UNL d   1       2.317  -0.860   2.524  0.00  0.00     0.076 C 
ATOM      6  C7  UNL d   1       1.071  -2.992   2.976  0.00  0.00     0.002 A 
ATOM      7  C8  UNL d   1       0.928  -4.216   3.633  0.00  0.00     0.006 A 
ENDROOT
BRANCH   1   8
ATOM      8  C1  UNL d   1       1.713  -5.946   5.292  0.00  0.00     0.054 C 
ATOM      9  C   UNL d   1       0.366  -5.980   6.000  0.00  0.00     0.018 C 
ENDBRANCH   1   8
TORSDOF 1
ENDMDL
