MODEL 1
REMARK minimizedAffinity 7.88355827
REMARK minimizedRMSD -1
REMARK  1 active torsions:
REMARK  status: ('A' for Active; 'I' for Inactive)
REMARK    1  A    between atoms: C1_2  and  C2_3 
ROOT
ATOM      1  C2  UNL d   1       0.617  -2.029   1.438  0.00  0.00    -0.081 A 
ATOM      2  C3  UNL d   1      -0.405  -1.120   1.140  0.00  0.00     0.006 A 
ATOM      3  C4  UNL d   1      -1.406  -1.455   0.225  0.00  0.00     0.002 A 
ATOM      4  C5  UNL d   1      -1.406  -2.707  -0.401  0.00  0.00    -0.080 A 
ATOM      5  C6  UNL d   1      -2.492  -3.091  -1.362  0.00  0.00     0.076 C 
ATOM      6  C7  UNL d   1      -0.375  -3.608  -0.116  0.00  0.00     0.002 A 
ATOM      7  C8  UNL d   1       0.627  -3.273   0.798  0.00  0.00     0.006 A 
ENDROOT
BRANCH   1   8
ATOM      8  C1  UNL d   1       1.662  -1.695   2.472  0.00  0.00     0.054 C 
ATOM      9  C   UNL d   1       2.000  -0.212   2.458  0.00  0.00     0.018 C 
ENDBRANCH   1   8
TORSDOF 1
ENDMDL
