MODEL 1
REMARK minimizedAffinity 16.9214134
REMARK minimizedRMSD -1
REMARK  1 active torsions:
REMARK  status: ('A' for Active; 'I' for Inactive)
REMARK    1  A    between atoms: C1_2  and  C2_3 
ROOT
ATOM      1  C2  UNL d   1      -3.785   0.694  -2.548  0.00  0.00    -0.081 A 
ATOM      2  C3  UNL d   1      -3.161   1.822  -2.001  0.00  0.00     0.006 A 
ATOM      3  C4  UNL d   1      -3.878   2.703  -1.188  0.00  0.00     0.002 A 
ATOM      4  C5  UNL d   1      -5.227   2.467  -0.902  0.00  0.00    -0.080 A 
ATOM      5  C6  UNL d   1      -6.000   3.389  -0.006  0.00  0.00     0.076 C 
ATOM      6  C7  UNL d   1      -5.855   1.350  -1.463  0.00  0.00     0.002 A 
ATOM      7  C8  UNL d   1      -5.139   0.469  -2.276  0.00  0.00     0.006 A 
ENDROOT
BRANCH   1   8
ATOM      8  C1  UNL d   1      -2.998  -0.292  -3.373  0.00  0.00     0.054 C 
ATOM      9  C   UNL d   1      -3.353  -1.726  -3.007  0.00  0.00     0.018 C 
ENDBRANCH   1   8
TORSDOF 1
ENDMDL
