MODEL 1
REMARK minimizedAffinity -1.56289279
REMARK minimizedRMSD -1
REMARK  1 active torsions:
REMARK  status: ('A' for Active; 'I' for Inactive)
REMARK    1  A    between atoms: C1_2  and  C2_3 
ROOT
ATOM      1  C2  UNL d   1       3.494  -5.831  -4.398  0.00  0.00    -0.081 A 
ATOM      2  C3  UNL d   1       4.847  -5.723  -4.056  0.00  0.00     0.006 A 
ATOM      3  C4  UNL d   1       5.245  -5.758  -2.718  0.00  0.00     0.002 A 
ATOM      4  C5  UNL d   1       4.297  -5.909  -1.700  0.00  0.00    -0.080 A 
ATOM      5  C6  UNL d   1       4.713  -5.979  -0.260  0.00  0.00     0.076 C 
ATOM      6  C7  UNL d   1       2.943  -6.000  -2.040  0.00  0.00     0.002 A 
ATOM      7  C8  UNL d   1       2.545  -5.964  -3.378  0.00  0.00     0.006 A 
ENDROOT
BRANCH   1   8
ATOM      8  C1  UNL d   1       3.068  -5.859  -5.844  0.00  0.00     0.054 C 
ATOM      9  C   UNL d   1       1.558  -5.994  -5.974  0.00  0.00     0.018 C 
ENDBRANCH   1   8
TORSDOF 1
ENDMDL
