MODEL 1
REMARK minimizedAffinity 3.57952023
REMARK minimizedRMSD -1
REMARK  1 active torsions:
REMARK  status: ('A' for Active; 'I' for Inactive)
REMARK    1  A    between atoms: C1_2  and  C2_3 
ROOT
ATOM      1  C2  UNL d   1      -2.690  -1.834  -1.996  0.00  0.00    -0.081 A 
ATOM      2  C3  UNL d   1      -2.743  -2.976  -1.188  0.00  0.00     0.006 A 
ATOM      3  C4  UNL d   1      -1.660  -3.321  -0.377  0.00  0.00     0.002 A 
ATOM      4  C5  UNL d   1      -0.509  -2.525  -0.353  0.00  0.00    -0.080 A 
ATOM      5  C6  UNL d   1       0.649  -2.868   0.537  0.00  0.00     0.076 C 
ATOM      6  C7  UNL d   1      -0.449  -1.394  -1.173  0.00  0.00     0.002 A 
ATOM      7  C8  UNL d   1      -1.532  -1.049  -1.986  0.00  0.00     0.006 A 
ENDROOT
BRANCH   1   8
ATOM      8  C1  UNL d   1      -3.881  -1.424  -2.824  0.00  0.00     0.054 C 
ATOM      9  C   UNL d   1      -3.843   0.062  -3.150  0.00  0.00     0.018 C 
ENDBRANCH   1   8
TORSDOF 1
ENDMDL
