MODEL 1
REMARK minimizedAffinity 5.18222046
REMARK minimizedRMSD -1
REMARK  1 active torsions:
REMARK  status: ('A' for Active; 'I' for Inactive)
REMARK    1  A    between atoms: C1_2  and  C2_3 
ROOT
ATOM      1  C2  UNL d   1       2.438  -0.328   1.946  0.00  0.00    -0.081 A 
ATOM      2  C3  UNL d   1       1.927   0.795   2.608  0.00  0.00     0.006 A 
ATOM      3  C4  UNL d   1       1.966   2.053   2.003  0.00  0.00     0.002 A 
ATOM      4  C5  UNL d   1       2.508   2.208   0.722  0.00  0.00    -0.080 A 
ATOM      5  C6  UNL d   1       2.528   3.548   0.049  0.00  0.00     0.076 C 
ATOM      6  C7  UNL d   1       3.034   1.089   0.067  0.00  0.00     0.002 A 
ATOM      7  C8  UNL d   1       2.996  -0.169   0.672  0.00  0.00     0.006 A 
ENDROOT
BRANCH   1   8
ATOM      8  C1  UNL d   1       2.339  -1.697   2.569  0.00  0.00     0.054 C 
ATOM      9  C   UNL d   1       1.450  -1.679   3.804  0.00  0.00     0.018 C 
ENDBRANCH   1   8
TORSDOF 1
ENDMDL
