MODEL 1
REMARK minimizedAffinity 5.53827095
REMARK minimizedRMSD -1
REMARK  1 active torsions:
REMARK  status: ('A' for Active; 'I' for Inactive)
REMARK    1  A    between atoms: C1_2  and  C2_3 
ROOT
ATOM      1  C2  UNL d   1       3.558  -1.952   4.415  0.00  0.00    -0.081 A 
ATOM      2  C3  UNL d   1       2.249  -2.178   4.858  0.00  0.00     0.006 A 
ATOM      3  C4  UNL d   1       1.160  -1.818   4.060  0.00  0.00     0.002 A 
ATOM      4  C5  UNL d   1       1.361  -1.234   2.805  0.00  0.00    -0.080 A 
ATOM      5  C6  UNL d   1       0.201  -0.871   1.926  0.00  0.00     0.076 C 
ATOM      6  C7  UNL d   1       2.669  -0.992   2.371  0.00  0.00     0.002 A 
ATOM      7  C8  UNL d   1       3.758  -1.351   3.168  0.00  0.00     0.006 A 
ENDROOT
BRANCH   1   8
ATOM      8  C1  UNL d   1       4.735  -2.398   5.245  0.00  0.00     0.054 C 
ATOM      9  C   UNL d   1       5.999  -2.498   4.403  0.00  0.00     0.018 C 
ENDBRANCH   1   8
TORSDOF 1
ENDMDL
