MODEL 1
REMARK minimizedAffinity 12.2689323
REMARK minimizedRMSD -1
REMARK  1 active torsions:
REMARK  status: ('A' for Active; 'I' for Inactive)
REMARK    1  A    between atoms: C1_2  and  C2_3 
ROOT
ATOM      1  C2  UNL d   1      -4.018   2.265  -2.151  0.00  0.00    -0.081 A 
ATOM      2  C3  UNL d   1      -3.229   2.851  -1.154  0.00  0.00     0.006 A 
ATOM      3  C4  UNL d   1      -3.821   3.403  -0.015  0.00  0.00     0.002 A 
ATOM      4  C5  UNL d   1      -5.210   3.370   0.149  0.00  0.00    -0.080 A 
ATOM      5  C6  UNL d   1      -5.856   3.931   1.381  0.00  0.00     0.076 C 
ATOM      6  C7  UNL d   1      -5.999   2.800  -0.855  0.00  0.00     0.002 A 
ATOM      7  C8  UNL d   1      -5.408   2.249  -1.994  0.00  0.00     0.006 A 
ENDROOT
BRANCH   1   8
ATOM      8  C1  UNL d   1      -3.378   1.611  -3.349  0.00  0.00     0.054 C 
ATOM      9  C   UNL d   1      -3.004   0.165  -3.058  0.00  0.00     0.018 C 
ENDBRANCH   1   8
TORSDOF 1
ENDMDL
