MODEL 1
REMARK minimizedAffinity 14.6061058
REMARK minimizedRMSD -1
REMARK  1 active torsions:
REMARK  status: ('A' for Active; 'I' for Inactive)
REMARK    1  A    between atoms: C1_2  and  C2_3 
ROOT
ATOM      1  C2  UNL d   1      -4.215   0.331  -3.203  0.00  0.00    -0.081 A 
ATOM      2  C3  UNL d   1      -5.312  -0.276  -2.579  0.00  0.00     0.006 A 
ATOM      3  C4  UNL d   1      -5.309  -1.649  -2.321  0.00  0.00     0.002 A 
ATOM      4  C5  UNL d   1      -4.208  -2.436  -2.675  0.00  0.00    -0.080 A 
ATOM      5  C6  UNL d   1      -4.180  -3.906  -2.376  0.00  0.00     0.076 C 
ATOM      6  C7  UNL d   1      -3.120  -1.833  -3.314  0.00  0.00     0.002 A 
ATOM      7  C8  UNL d   1      -3.122  -0.461  -3.573  0.00  0.00     0.006 A 
ENDROOT
BRANCH   1   8
ATOM      8  C1  UNL d   1      -4.187   1.821  -3.424  0.00  0.00     0.054 C 
ATOM      9  C   UNL d   1      -5.017   2.216  -4.638  0.00  0.00     0.018 C 
ENDBRANCH   1   8
TORSDOF 1
ENDMDL
