MODEL 1
REMARK minimizedAffinity 3.54872775
REMARK minimizedRMSD -1
REMARK  1 active torsions:
REMARK  status: ('A' for Active; 'I' for Inactive)
REMARK    1  A    between atoms: N_2  and  C1_3 
ROOT
ATOM      1  C1  UNL d   1       0.527   1.828   2.844  0.00  0.00     0.143 A 
ATOM      2  C2  UNL d   1      -0.453   1.399   3.746  0.00  0.00    -0.057 A 
ATOM      3  C3  UNL d   1      -0.222   0.322   4.611  0.00  0.00     0.033 A 
ATOM      4  C4  UNL d   1       0.987  -0.365   4.568  0.00  0.00    -0.042 A 
ATOM      5  C5  UNL d   1       1.965   0.028   3.662  0.00  0.00     0.033 A 
ATOM      6  C6  UNL d   1       1.731   1.108   2.806  0.00  0.00    -0.057 A 
ENDROOT
BRANCH   1   7
ATOM      7  N   UNL d   1       0.321   2.829   1.891  0.00  0.00    -0.732 N 
ATOM      8  C   UNL d   1       0.152   2.492   0.493  0.00  0.00     0.284 C 
ATOM      9  H3  UNL d   1      -0.306   3.558   2.222  0.00  0.00     0.395 HD
ENDBRANCH   1   7
TORSDOF 1
ENDMDL
