MODEL 1
REMARK minimizedAffinity 0.308033824
REMARK minimizedRMSD -1
REMARK  1 active torsions:
REMARK  status: ('A' for Active; 'I' for Inactive)
REMARK    1  A    between atoms: N_2  and  C1_3 
ROOT
ATOM      1  C1  UNL d   1      -1.200  -1.305  -0.612  0.00  0.00     0.143 A 
ATOM      2  C2  UNL d   1      -1.578  -2.078   0.491  0.00  0.00    -0.057 A 
ATOM      3  C3  UNL d   1      -1.615  -3.476   0.420  0.00  0.00     0.033 A 
ATOM      4  C4  UNL d   1      -1.302  -4.127  -0.769  0.00  0.00    -0.042 A 
ATOM      5  C5  UNL d   1      -0.948  -3.378  -1.885  0.00  0.00     0.033 A 
ATOM      6  C6  UNL d   1      -0.906  -1.982  -1.806  0.00  0.00    -0.057 A 
ENDROOT
BRANCH   1   7
ATOM      7  N   UNL d   1      -1.239   0.091  -0.633  0.00  0.00    -0.732 N 
ATOM      8  C   UNL d   1      -0.067   0.855  -1.003  0.00  0.00     0.284 C 
ATOM      9  H3  UNL d   1      -2.108   0.450  -1.021  0.00  0.00     0.395 HD
ENDBRANCH   1   7
TORSDOF 1
ENDMDL
