MODEL 1
REMARK minimizedAffinity -0.622106135
REMARK minimizedRMSD -1
REMARK  1 active torsions:
REMARK  status: ('A' for Active; 'I' for Inactive)
REMARK    1  A    between atoms: N_2  and  C1_3 
ROOT
ATOM      1  C1  UNL d   1      -5.887   3.599  -3.231  0.00  0.00     0.143 A 
ATOM      2  C2  UNL d   1      -5.815   2.603  -4.211  0.00  0.00    -0.057 A 
ATOM      3  C3  UNL d   1      -5.805   2.924  -5.574  0.00  0.00     0.033 A 
ATOM      4  C4  UNL d   1      -5.896   4.250  -5.983  0.00  0.00    -0.042 A 
ATOM      5  C5  UNL d   1      -5.993   5.255  -5.027  0.00  0.00     0.033 A 
ATOM      6  C6  UNL d   1      -5.996   4.929  -3.668  0.00  0.00    -0.057 A 
ENDROOT
BRANCH   1   7
ATOM      7  N   UNL d   1      -6.000   3.339  -1.864  0.00  0.00    -0.732 N 
ATOM      8  C   UNL d   1      -4.986   2.571  -1.173  0.00  0.00     0.284 C 
ATOM      9  H3  UNL d   1      -6.339   4.143  -1.342  0.00  0.00     0.395 HD
ENDBRANCH   1   7
TORSDOF 1
ENDMDL
