MODEL 1
REMARK minimizedAffinity 12.1090374
REMARK minimizedRMSD -1
REMARK  1 active torsions:
REMARK  status: ('A' for Active; 'I' for Inactive)
REMARK    1  A    between atoms: N_2  and  C1_3 
ROOT
ATOM      1  C1  UNL d   1       1.325  -1.619   4.495  0.00  0.00     0.143 A 
ATOM      2  C2  UNL d   1       2.527  -2.102   5.022  0.00  0.00    -0.057 A 
ATOM      3  C3  UNL d   1       3.701  -2.115   4.259  0.00  0.00     0.033 A 
ATOM      4  C4  UNL d   1       3.686  -1.671   2.941  0.00  0.00    -0.042 A 
ATOM      5  C5  UNL d   1       2.497  -1.211   2.388  0.00  0.00     0.033 A 
ATOM      6  C6  UNL d   1       1.329  -1.194   3.157  0.00  0.00    -0.057 A 
ENDROOT
BRANCH   1   7
ATOM      7  N   UNL d   1       0.103  -1.671   5.170  0.00  0.00    -0.732 N 
ATOM      8  C   UNL d   1      -1.077  -2.199   4.519  0.00  0.00     0.284 C 
ATOM      9  H3  UNL d   1       0.207  -1.961   6.140  0.00  0.00     0.395 HD
ENDBRANCH   1   7
TORSDOF 1
ENDMDL
