MODEL 1
REMARK minimizedAffinity -0.724711418
REMARK minimizedRMSD -1
REMARK  1 active torsions:
REMARK  status: ('A' for Active; 'I' for Inactive)
REMARK    1  A    between atoms: N_2  and  C1_3 
ROOT
ATOM      1  C1  UNL d   1      -5.700   3.026  -5.145  0.00  0.00     0.143 A 
ATOM      2  C2  UNL d   1      -5.989   2.665  -3.824  0.00  0.00    -0.057 A 
ATOM      3  C3  UNL d   1      -5.761   1.364  -3.360  0.00  0.00     0.033 A 
ATOM      4  C4  UNL d   1      -5.265   0.390  -4.220  0.00  0.00    -0.042 A 
ATOM      5  C5  UNL d   1      -4.994   0.719  -5.543  0.00  0.00     0.033 A 
ATOM      6  C6  UNL d   1      -5.217   2.021  -5.999  0.00  0.00    -0.057 A 
ENDROOT
BRANCH   1   7
ATOM      7  N   UNL d   1      -5.996   4.276  -5.693  0.00  0.00    -0.732 N 
ATOM      8  C   UNL d   1      -4.941   5.222  -5.984  0.00  0.00     0.284 C 
ATOM      9  H3  UNL d   1      -6.719   4.225  -6.408  0.00  0.00     0.395 HD
ENDBRANCH   1   7
TORSDOF 1
ENDMDL
