MODEL 1
REMARK minimizedAffinity -1.40139556
REMARK minimizedRMSD -1
REMARK  1 active torsions:
REMARK  status: ('A' for Active; 'I' for Inactive)
REMARK    1  A    between atoms: N_2  and  C1_3 
ROOT
ATOM      1  C1  UNL d   1      -5.577   3.440  -3.204  0.00  0.00     0.143 A 
ATOM      2  C2  UNL d   1      -5.555   4.634  -3.932  0.00  0.00    -0.057 A 
ATOM      3  C3  UNL d   1      -5.777   4.647  -5.314  0.00  0.00     0.033 A 
ATOM      4  C4  UNL d   1      -5.998   3.457  -6.000  0.00  0.00    -0.042 A 
ATOM      5  C5  UNL d   1      -6.000   2.255  -5.301  0.00  0.00     0.033 A 
ATOM      6  C6  UNL d   1      -5.784   2.250  -3.919  0.00  0.00    -0.057 A 
ENDROOT
BRANCH   1   7
ATOM      7  N   UNL d   1      -5.266   3.351  -1.845  0.00  0.00    -0.732 N 
ATOM      8  C   UNL d   1      -4.435   2.276  -1.347  0.00  0.00     0.284 C 
ATOM      9  H3  UNL d   1      -5.063   4.259  -1.433  0.00  0.00     0.395 HD
ENDBRANCH   1   7
TORSDOF 1
ENDMDL
