MODEL 1
REMARK minimizedAffinity 2.78001738
REMARK minimizedRMSD -1
REMARK  1 active torsions:
REMARK  status: ('A' for Active; 'I' for Inactive)
REMARK    1  A    between atoms: N_2  and  C1_3 
ROOT
ATOM      1  C1  UNL d   1      -3.568  -0.221   0.533  0.00  0.00     0.143 A 
ATOM      2  C2  UNL d   1      -2.787   0.801  -0.018  0.00  0.00    -0.057 A 
ATOM      3  C3  UNL d   1      -1.468   0.568  -0.425  0.00  0.00     0.033 A 
ATOM      4  C4  UNL d   1      -0.895  -0.689  -0.262  0.00  0.00    -0.042 A 
ATOM      5  C5  UNL d   1      -1.644  -1.713   0.307  0.00  0.00     0.033 A 
ATOM      6  C6  UNL d   1      -2.963  -1.476   0.705  0.00  0.00    -0.057 A 
ENDROOT
BRANCH   1   7
ATOM      7  N   UNL d   1      -4.852  -0.027   1.048  0.00  0.00    -0.732 N 
ATOM      8  C   UNL d   1      -5.999  -0.646   0.420  0.00  0.00     0.284 C 
ATOM      9  H3  UNL d   1      -4.871  -0.053   2.065  0.00  0.00     0.395 HD
ENDBRANCH   1   7
TORSDOF 1
ENDMDL
