MODEL 1
REMARK minimizedAffinity 4.61972427
REMARK minimizedRMSD -1
REMARK  0 active torsions:
REMARK  status: ('A' for Active; 'I' for Inactive)
ROOT
ATOM      1  C   UNL d   1      -2.189   0.329  -1.555  0.00  0.00    -0.002 A 
ATOM      2  C1  UNL d   1      -3.035   0.704  -2.589  0.00  0.00     0.010 A 
ATOM      3  C2  UNL d   1      -4.052   1.637  -2.372  0.00  0.00     0.041 A 
ATOM      4  C3  UNL d   1      -4.204   2.192  -1.086  0.00  0.00    -0.075 A 
ATOM      5  S   UNL d   1      -5.378   3.352  -0.587  0.00  0.00     0.015 SA
ATOM      6  C4  UNL d   1      -4.783   3.378   1.010  0.00  0.00     0.022 A 
ATOM      7  C5  UNL d   1      -3.716   2.528   1.176  0.00  0.00     0.026 A 
ATOM      8  C6  UNL d   1      -3.364   1.831  -0.029  0.00  0.00    -0.082 A 
ATOM      9  C7  UNL d   1      -2.343   0.882  -0.281  0.00  0.00     0.045 A 
ENDROOT
TORSDOF 0
ENDMDL
