MODEL 1
REMARK minimizedAffinity 6.69354439
REMARK minimizedRMSD -1
REMARK  0 active torsions:
REMARK  status: ('A' for Active; 'I' for Inactive)
ROOT
ATOM      1  C   UNL d   1       3.923  -5.972  -0.714  0.00  0.00    -0.002 A 
ATOM      2  C1  UNL d   1       2.626  -5.975  -1.209  0.00  0.00     0.010 A 
ATOM      3  C2  UNL d   1       2.391  -5.983  -2.585  0.00  0.00     0.041 A 
ATOM      4  C3  UNL d   1       3.491  -5.989  -3.464  0.00  0.00    -0.075 A 
ATOM      5  S   UNL d   1       3.444  -5.999  -5.188  0.00  0.00     0.015 SA
ATOM      6  C4  UNL d   1       5.144  -6.000  -5.308  0.00  0.00     0.022 A 
ATOM      7  C5  UNL d   1       5.749  -5.992  -4.074  0.00  0.00     0.026 A 
ATOM      8  C6  UNL d   1       4.806  -5.986  -2.990  0.00  0.00    -0.082 A 
ATOM      9  C7  UNL d   1       5.012  -5.977  -1.590  0.00  0.00     0.045 A 
ENDROOT
TORSDOF 0
ENDMDL
