MODEL 1
REMARK minimizedAffinity 13.6205378
REMARK minimizedRMSD -1
REMARK  0 active torsions:
REMARK  status: ('A' for Active; 'I' for Inactive)
ROOT
ATOM      1  C   UNL d   1       0.984  -5.997   5.606  0.00  0.00    -0.002 A 
ATOM      2  C1  UNL d   1       0.005  -5.096   6.000  0.00  0.00     0.010 A 
ATOM      3  C2  UNL d   1      -0.026  -3.804   5.471  0.00  0.00     0.041 A 
ATOM      4  C3  UNL d   1       0.952  -3.430   4.528  0.00  0.00    -0.075 A 
ATOM      5  S   UNL d   1       1.111  -1.902   3.745  0.00  0.00     0.015 SA
ATOM      6  C4  UNL d   1       2.481  -2.410   2.868  0.00  0.00     0.022 A 
ATOM      7  C5  UNL d   1       2.823  -3.711   3.154  0.00  0.00     0.026 A 
ATOM      8  C6  UNL d   1       1.948  -4.320   4.115  0.00  0.00    -0.082 A 
ATOM      9  C7  UNL d   1       1.953  -5.622   4.670  0.00  0.00     0.045 A 
ENDROOT
TORSDOF 0
ENDMDL
