MODEL 1
REMARK minimizedAffinity 1.72936249
REMARK minimizedRMSD -1
REMARK  0 active torsions:
REMARK  status: ('A' for Active; 'I' for Inactive)
ROOT
ATOM      1  C   UNL d   1       4.524  -5.673  -1.458  0.00  0.00    -0.002 A 
ATOM      2  C1  UNL d   1       5.795  -5.685  -2.013  0.00  0.00     0.010 A 
ATOM      3  C2  UNL d   1       5.965  -5.774  -3.396  0.00  0.00     0.041 A 
ATOM      4  C3  UNL d   1       4.825  -5.850  -4.220  0.00  0.00    -0.075 A 
ATOM      5  S   UNL d   1       4.790  -5.964  -5.939  0.00  0.00     0.015 SA
ATOM      6  C4  UNL d   1       3.087  -5.999  -5.978  0.00  0.00     0.022 A 
ATOM      7  C5  UNL d   1       2.541  -5.926  -4.718  0.00  0.00     0.026 A 
ATOM      8  C6  UNL d   1       3.534  -5.838  -3.684  0.00  0.00    -0.082 A 
ATOM      9  C7  UNL d   1       3.395  -5.748  -2.278  0.00  0.00     0.045 A 
ENDROOT
TORSDOF 0
ENDMDL
