MODEL 1
REMARK minimizedAffinity 13.5287991
REMARK minimizedRMSD -1
REMARK  0 active torsions:
REMARK  status: ('A' for Active; 'I' for Inactive)
ROOT
ATOM      1  C   UNL d   1       2.131  -4.531   3.340  0.00  0.00    -0.002 A 
ATOM      2  C1  UNL d   1       1.610  -4.304   4.606  0.00  0.00     0.010 A 
ATOM      3  C2  UNL d   1       1.263  -3.014   5.010  0.00  0.00     0.041 A 
ATOM      4  C3  UNL d   1       1.449  -1.945   4.112  0.00  0.00    -0.075 A 
ATOM      5  S   UNL d   1       1.095  -0.280   4.389  0.00  0.00     0.015 SA
ATOM      6  C4  UNL d   1       1.626   0.169   2.833  0.00  0.00     0.022 A 
ATOM      7  C5  UNL d   1       2.067  -0.912   2.107  0.00  0.00     0.026 A 
ATOM      8  C6  UNL d   1       1.972  -2.148   2.831  0.00  0.00    -0.082 A 
ATOM      9  C7  UNL d   1       2.314  -3.468   2.451  0.00  0.00     0.045 A 
ENDROOT
TORSDOF 0
ENDMDL
