MODEL 1
REMARK minimizedAffinity 3.1273632
REMARK minimizedRMSD -1
REMARK  0 active torsions:
REMARK  status: ('A' for Active; 'I' for Inactive)
ROOT
ATOM      1  C   UNL d   1      -4.946   2.362  -4.059  0.00  0.00    -0.002 A 
ATOM      2  C1  UNL d   1      -5.710   2.209  -5.207  0.00  0.00     0.010 A 
ATOM      3  C2  UNL d   1      -5.763   0.980  -5.867  0.00  0.00     0.041 A 
ATOM      4  C3  UNL d   1      -5.029  -0.104  -5.347  0.00  0.00    -0.075 A 
ATOM      5  S   UNL d   1      -4.943  -1.703  -5.986  0.00  0.00     0.015 SA
ATOM      6  C4  UNL d   1      -3.891  -2.222  -4.750  0.00  0.00     0.022 A 
ATOM      7  C5  UNL d   1      -3.602  -1.212  -3.862  0.00  0.00     0.026 A 
ATOM      8  C6  UNL d   1      -4.253   0.025  -4.192  0.00  0.00    -0.082 A 
ATOM      9  C7  UNL d   1      -4.220   1.284  -3.546  0.00  0.00     0.045 A 
ENDROOT
TORSDOF 0
ENDMDL
