MODEL 1
REMARK minimizedAffinity 1.14538121
REMARK minimizedRMSD -1
REMARK  3 active torsions:
REMARK  status: ('A' for Active; 'I' for Inactive)
REMARK    1  A    between atoms: C3'_2  and  C2'_3 
REMARK    2  A    between atoms: C2'_3  and  C1'_4 
REMARK    3  A    between atoms: C1'_4  and  C1_5 
ROOT
ATOM      1  C1  N4B d   1       2.461  -0.042   1.151  0.00  0.00    -0.075 A 
ATOM      2  C2  N4B d   1       1.105  -0.381   0.948  0.00  0.00     0.002 A 
ATOM      3  C3  N4B d   1       0.605  -1.550   1.468  0.00  0.00     0.002 A 
ATOM      4  C4  N4B d   1       1.442  -2.400   2.175  0.00  0.00    -0.004 A 
ATOM      5  C5  N4B d   1       2.744  -2.052   2.389  0.00  0.00     0.002 A 
ATOM      6  C6  N4B d   1       3.259  -0.879   1.876  0.00  0.00     0.002 A 
ENDROOT
BRANCH   1   7
ATOM      7  C1' N4B d   1       3.075   1.183   0.530  0.00  0.00     0.057 C 
BRANCH   7   8
ATOM      8  C2' N4B d   1       1.989   2.232   0.313  0.00  0.00     0.009 C 
BRANCH   8   9
ATOM      9  C3' N4B d   1       2.392   3.261  -0.729  0.00  0.00     0.004 C 
ATOM     10  C4' N4B d   1       1.327   4.288  -0.975  0.00  0.00     0.003 C 
ENDBRANCH   8   9
ENDBRANCH   7   8
ENDBRANCH   1   7
TORSDOF 3
ENDMDL
