MODEL 1
REMARK minimizedAffinity 4.45136642
REMARK minimizedRMSD -1
REMARK  3 active torsions:
REMARK  status: ('A' for Active; 'I' for Inactive)
REMARK    1  A    between atoms: C3'_2  and  C2'_3 
REMARK    2  A    between atoms: C2'_3  and  C1'_4 
REMARK    3  A    between atoms: C1'_4  and  C1_5 
ROOT
ATOM      1  C1  N4B d   1       1.115  -1.952   2.314  0.00  0.00    -0.075 A 
ATOM      2  C2  N4B d   1       0.706  -2.997   3.172  0.00  0.00     0.002 A 
ATOM      3  C3  N4B d   1      -0.462  -3.674   2.921  0.00  0.00     0.002 A 
ATOM      4  C4  N4B d   1      -1.244  -3.312   1.835  0.00  0.00    -0.004 A 
ATOM      5  C5  N4B d   1      -0.830  -2.319   0.997  0.00  0.00     0.002 A 
ATOM      6  C6  N4B d   1       0.344  -1.633   1.234  0.00  0.00     0.002 A 
ENDROOT
BRANCH   1   7
ATOM      7  C1' N4B d   1       2.341  -1.127   2.596  0.00  0.00     0.057 C 
BRANCH   7   8
ATOM      8  C2' N4B d   1       3.290  -1.218   1.406  0.00  0.00     0.009 C 
BRANCH   8   9
ATOM      9  C3' N4B d   1       4.127  -2.486   1.441  0.00  0.00     0.004 C 
ATOM     10  C4' N4B d   1       5.565  -2.223   1.774  0.00  0.00     0.003 C 
ENDBRANCH   8   9
ENDBRANCH   7   8
ENDBRANCH   1   7
TORSDOF 3
ENDMDL
