MODEL 1
REMARK minimizedAffinity 7.2385354
REMARK minimizedRMSD -1
REMARK  3 active torsions:
REMARK  status: ('A' for Active; 'I' for Inactive)
REMARK    1  A    between atoms: C3'_2  and  C2'_3 
REMARK    2  A    between atoms: C2'_3  and  C1'_4 
REMARK    3  A    between atoms: C1'_4  and  C1_5 
ROOT
ATOM      1  C1  N4B d   1       1.611  -1.307   1.853  0.00  0.00    -0.075 A 
ATOM      2  C2  N4B d   1       0.504  -0.778   1.153  0.00  0.00     0.002 A 
ATOM      3  C3  N4B d   1      -0.690  -1.457   1.145  0.00  0.00     0.002 A 
ATOM      4  C4  N4B d   1      -0.794  -2.669   1.810  0.00  0.00    -0.004 A 
ATOM      5  C5  N4B d   1       0.272  -3.160   2.505  0.00  0.00     0.002 A 
ATOM      6  C6  N4B d   1       1.477  -2.487   2.525  0.00  0.00     0.002 A 
ENDROOT
BRANCH   1   7
ATOM      7  C1' N4B d   1       2.962  -0.644   1.819  0.00  0.00     0.057 C 
BRANCH   7   8
ATOM      8  C2' N4B d   1       2.776   0.871   1.831  0.00  0.00     0.009 C 
BRANCH   8   9
ATOM      9  C3' N4B d   1       3.583   1.550   0.738  0.00  0.00     0.004 C 
ATOM     10  C4' N4B d   1       3.042   2.899   0.370  0.00  0.00     0.003 C 
ENDBRANCH   8   9
ENDBRANCH   7   8
ENDBRANCH   1   7
TORSDOF 3
ENDMDL
