MODEL 1
REMARK minimizedAffinity -2.01881027
REMARK minimizedRMSD -1
REMARK  3 active torsions:
REMARK  status: ('A' for Active; 'I' for Inactive)
REMARK    1  A    between atoms: C3'_2  and  C2'_3 
REMARK    2  A    between atoms: C2'_3  and  C1'_4 
REMARK    3  A    between atoms: C1'_4  and  C1_5 
ROOT
ATOM      1  C1  N4B d   1       1.437  -2.085  -1.190  0.00  0.00    -0.075 A 
ATOM      2  C2  N4B d   1       1.544  -1.335   0.002  0.00  0.00     0.002 A 
ATOM      3  C3  N4B d   1       0.521  -0.501   0.382  0.00  0.00     0.002 A 
ATOM      4  C4  N4B d   1      -0.605  -0.388  -0.419  0.00  0.00    -0.004 A 
ATOM      5  C5  N4B d   1      -0.712  -1.136  -1.555  0.00  0.00     0.002 A 
ATOM      6  C6  N4B d   1       0.307  -1.981  -1.948  0.00  0.00     0.002 A 
ENDROOT
BRANCH   1   7
ATOM      7  C1' N4B d   1       2.566  -2.945  -1.691  0.00  0.00     0.057 C 
BRANCH   7   8
ATOM      8  C2' N4B d   1       2.816  -2.634  -3.163  0.00  0.00     0.009 C 
BRANCH   8   9
ATOM      9  C3' N4B d   1       4.273  -2.300  -3.434  0.00  0.00     0.004 C 
ATOM     10  C4' N4B d   1       4.454  -0.939  -4.037  0.00  0.00     0.003 C 
ENDBRANCH   8   9
ENDBRANCH   7   8
ENDBRANCH   1   7
TORSDOF 3
ENDMDL
