MODEL 1
REMARK minimizedAffinity 10.7214499
REMARK minimizedRMSD -1
REMARK  0 active torsions:
REMARK  status: ('A' for Active; 'I' for Inactive)
ROOT
ATOM      1  C1  DEN d   1       3.134  -1.772   1.299  0.00  0.00     0.130 A 
ATOM      2  C2  DEN d   1       2.273  -2.870   1.729  0.00  0.00    -0.031 A 
ATOM      3  C3  DEN d   1       1.066  -2.865   0.879  0.00  0.00     0.027 A 
ATOM      4  C4  DEN d   1       0.452  -1.274  -1.056  0.00  0.00     0.027 A 
ATOM      5  C5  DEN d   1       0.864  -0.178  -1.782  0.00  0.00    -0.003 A 
ATOM      6  C6  DEN d   1       2.035   0.479  -1.512  0.00  0.00     0.001 A 
ATOM      7  C7  DEN d   1       2.858   0.018  -0.519  0.00  0.00     0.017 A 
ATOM      8  C8  DEN d   1       2.446  -1.082   0.222  0.00  0.00    -0.094 A 
ATOM      9  C9  DEN d   1       1.265  -1.740  -0.074  0.00  0.00    -0.072 A 
ENDROOT
TORSDOF 0
ENDMDL
