MODEL 1
REMARK minimizedAffinity 13.6926556
REMARK minimizedRMSD -1
REMARK  0 active torsions:
REMARK  status: ('A' for Active; 'I' for Inactive)
ROOT
ATOM      1  C1  DEN d   1      -4.092   0.322  -4.706  0.00  0.00     0.130 A 
ATOM      2  C2  DEN d   1      -5.075  -0.196  -5.653  0.00  0.00    -0.031 A 
ATOM      3  C3  DEN d   1      -5.999   0.902  -5.998  0.00  0.00     0.027 A 
ATOM      4  C4  DEN d   1      -6.000   3.344  -5.167  0.00  0.00     0.027 A 
ATOM      5  C5  DEN d   1      -5.366   4.250  -4.345  0.00  0.00    -0.003 A 
ATOM      6  C6  DEN d   1      -4.293   3.905  -3.567  0.00  0.00     0.001 A 
ATOM      7  C7  DEN d   1      -3.793   2.631  -3.628  0.00  0.00     0.017 A 
ATOM      8  C8  DEN d   1      -4.431   1.710  -4.448  0.00  0.00    -0.094 A 
ATOM      9  C9  DEN d   1      -5.507   2.082  -5.236  0.00  0.00    -0.072 A 
ENDROOT
TORSDOF 0
ENDMDL
