MODEL 1
REMARK minimizedAffinity 12.2774944
REMARK minimizedRMSD -1
REMARK  0 active torsions:
REMARK  status: ('A' for Active; 'I' for Inactive)
ROOT
ATOM      1  C1  DEN d   1      -0.972  -1.926   1.134  0.00  0.00     0.130 A 
ATOM      2  C2  DEN d   1       0.354  -2.325   1.599  0.00  0.00    -0.031 A 
ATOM      3  C3  DEN d   1       0.710  -1.471   2.750  0.00  0.00     0.027 A 
ATOM      4  C4  DEN d   1      -0.658   0.416   3.855  0.00  0.00     0.027 A 
ATOM      5  C5  DEN d   1      -1.838   1.125   3.804  0.00  0.00    -0.003 A 
ATOM      6  C6  DEN d   1      -2.789   0.892   2.846  0.00  0.00     0.001 A 
ATOM      7  C7  DEN d   1      -2.596  -0.105   1.927  0.00  0.00     0.017 A 
ATOM      8  C8  DEN d   1      -1.406  -0.820   1.968  0.00  0.00    -0.094 A 
ATOM      9  C9  DEN d   1      -0.463  -0.578   2.952  0.00  0.00    -0.072 A 
ENDROOT
TORSDOF 0
ENDMDL
