MODEL 1
REMARK minimizedAffinity -3.52866459
REMARK minimizedRMSD -1
REMARK  0 active torsions:
REMARK  status: ('A' for Active; 'I' for Inactive)
ROOT
ATOM      1  C1  DEN d   1       2.024  -0.866   0.777  0.00  0.00     0.130 A 
ATOM      2  C2  DEN d   1       1.513  -1.981  -0.015  0.00  0.00    -0.031 A 
ATOM      3  C3  DEN d   1       1.519  -1.573  -1.435  0.00  0.00     0.027 A 
ATOM      4  C4  DEN d   1       2.269   0.664  -2.477  0.00  0.00     0.027 A 
ATOM      5  C5  DEN d   1       2.766   1.919  -2.204  0.00  0.00    -0.003 A 
ATOM      6  C6  DEN d   1       3.017   2.342  -0.925  0.00  0.00     0.001 A 
ATOM      7  C7  DEN d   1       2.814   1.487   0.125  0.00  0.00     0.017 A 
ATOM      8  C8  DEN d   1       2.305   0.222  -0.142  0.00  0.00    -0.094 A 
ATOM      9  C9  DEN d   1       2.070  -0.191  -1.442  0.00  0.00    -0.072 A 
ENDROOT
TORSDOF 0
ENDMDL
