MODEL 1
REMARK minimizedAffinity 15.2113705
REMARK minimizedRMSD -1
REMARK  0 active torsions:
REMARK  status: ('A' for Active; 'I' for Inactive)
ROOT
ATOM      1  C1  DEN d   1       0.989  -1.427  -1.135  0.00  0.00     0.130 A 
ATOM      2  C2  DEN d   1       1.177  -1.832   0.255  0.00  0.00    -0.031 A 
ATOM      3  C3  DEN d   1       2.013  -0.811   0.919  0.00  0.00     0.027 A 
ATOM      4  C4  DEN d   1       3.026   1.347  -0.066  0.00  0.00     0.027 A 
ATOM      5  C5  DEN d   1       3.151   2.110  -1.206  0.00  0.00    -0.003 A 
ATOM      6  C6  DEN d   1       2.597   1.733  -2.401  0.00  0.00     0.001 A 
ATOM      7  C7  DEN d   1       1.854   0.585  -2.472  0.00  0.00     0.017 A 
ATOM      8  C8  DEN d   1       1.730  -0.194  -1.329  0.00  0.00    -0.094 A 
ATOM      9  C9  DEN d   1       2.287   0.210  -0.128  0.00  0.00    -0.072 A 
ENDROOT
TORSDOF 0
ENDMDL
