MODEL 1
REMARK minimizedAffinity 4.45552826
REMARK minimizedRMSD -1
REMARK  0 active torsions:
REMARK  status: ('A' for Active; 'I' for Inactive)
ROOT
ATOM      1  C1  DEN d   1       2.973   2.897  -0.985  0.00  0.00     0.130 A 
ATOM      2  C2  DEN d   1       3.500   1.832  -0.136  0.00  0.00    -0.031 A 
ATOM      3  C3  DEN d   1       2.630   0.649  -0.294  0.00  0.00     0.027 A 
ATOM      4  C4  DEN d   1       0.533   0.364  -1.769  0.00  0.00     0.027 A 
ATOM      5  C5  DEN d   1      -0.309   0.995  -2.658  0.00  0.00    -0.003 A 
ATOM      6  C6  DEN d   1      -0.136   2.304  -3.024  0.00  0.00     0.001 A 
ATOM      7  C7  DEN d   1       0.929   3.011  -2.531  0.00  0.00     0.017 A 
ATOM      8  C8  DEN d   1       1.777   2.384  -1.628  0.00  0.00    -0.094 A 
ATOM      9  C9  DEN d   1       1.593   1.056  -1.281  0.00  0.00    -0.072 A 
ENDROOT
TORSDOF 0
ENDMDL
