MODEL 1
REMARK minimizedAffinity -5.49918461
REMARK minimizedRMSD -1
REMARK  1 active torsions:
REMARK  status: ('A' for Active; 'I' for Inactive)
REMARK    1  A    between atoms: C3_4  and  O_7 
ROOT
ATOM      1  C   UNL d   1       2.238  -2.011   2.184  0.00  0.00    -0.033 A 
ATOM      2  C1  UNL d   1       1.340  -1.013   2.568  0.00  0.00     0.039 A 
ATOM      3  C2  UNL d   1       0.829  -0.127   1.617  0.00  0.00    -0.080 A 
ATOM      4  C3  UNL d   1       1.224  -0.250   0.288  0.00  0.00     0.150 A 
ATOM      5  C4  UNL d   1       2.116  -1.244  -0.102  0.00  0.00    -0.007 A 
ATOM      6  C5  UNL d   1       2.625  -2.127   0.849  0.00  0.00     0.039 A 
ENDROOT
BRANCH   4   7
ATOM      7  O   UNL d   1       0.756   0.594  -0.675  0.00  0.00    -0.526 OA
ATOM      8  H5  UNL d   1       0.172   1.247  -0.255  0.00  0.00     0.418 HD
ENDBRANCH   4   7
TORSDOF 1
ENDMDL
