MODEL 1
REMARK minimizedAffinity -5.06964493
REMARK minimizedRMSD -1
REMARK  1 active torsions:
REMARK  status: ('A' for Active; 'I' for Inactive)
REMARK    1  A    between atoms: C3_4  and  O_7 
ROOT
ATOM      1  C   UNL d   1       1.537  -1.655   2.621  0.00  0.00    -0.033 A 
ATOM      2  C1  UNL d   1       2.249  -1.776   1.426  0.00  0.00     0.039 A 
ATOM      3  C2  UNL d   1       1.717  -1.266   0.240  0.00  0.00    -0.080 A 
ATOM      4  C3  UNL d   1       0.475  -0.637   0.263  0.00  0.00     0.150 A 
ATOM      5  C4  UNL d   1      -0.237  -0.509   1.451  0.00  0.00    -0.007 A 
ATOM      6  C5  UNL d   1       0.295  -1.021   2.633  0.00  0.00     0.039 A 
ENDROOT
BRANCH   4   7
ATOM      7  O   UNL d   1      -0.086  -0.127  -0.870  0.00  0.00    -0.526 OA
ATOM      8  H5  UNL d   1       0.506  -0.313  -1.618  0.00  0.00     0.418 HD
ENDBRANCH   4   7
TORSDOF 1
ENDMDL
