MODEL 1
REMARK minimizedAffinity -5.96709347
REMARK minimizedRMSD -1
REMARK  1 active torsions:
REMARK  status: ('A' for Active; 'I' for Inactive)
REMARK    1  A    between atoms: C3_4  and  O_7 
ROOT
ATOM      1  C   UNL d   1       0.471  -0.605   2.928  0.00  0.00    -0.033 A 
ATOM      2  C1  UNL d   1      -0.093  -0.193   1.719  0.00  0.00     0.039 A 
ATOM      3  C2  UNL d   1       0.472  -0.598   0.509  0.00  0.00    -0.080 A 
ATOM      4  C3  UNL d   1       1.598  -1.416   0.520  0.00  0.00     0.150 A 
ATOM      5  C4  UNL d   1       2.164  -1.833   1.720  0.00  0.00    -0.007 A 
ATOM      6  C5  UNL d   1       1.599  -1.427   2.928  0.00  0.00     0.039 A 
ENDROOT
BRANCH   4   7
ATOM      7  O   UNL d   1       2.188  -1.833  -0.636  0.00  0.00    -0.526 OA
ATOM      8  H5  UNL d   1       1.707  -1.443  -1.385  0.00  0.00     0.418 HD
ENDBRANCH   4   7
TORSDOF 1
ENDMDL
