MODEL 1
REMARK minimizedAffinity -4.658041
REMARK minimizedRMSD -1
REMARK  1 active torsions:
REMARK  status: ('A' for Active; 'I' for Inactive)
REMARK    1  A    between atoms: C3_4  and  O_7 
ROOT
ATOM      1  C   UNL d   1       0.439  -0.719   2.660  0.00  0.00    -0.033 A 
ATOM      2  C1  UNL d   1      -0.827  -0.441   2.143  0.00  0.00     0.039 A 
ATOM      3  C2  UNL d   1      -1.006  -0.305   0.765  0.00  0.00    -0.080 A 
ATOM      4  C3  UNL d   1       0.088  -0.452  -0.084  0.00  0.00     0.150 A 
ATOM      5  C4  UNL d   1       1.352  -0.734   0.425  0.00  0.00    -0.007 A 
ATOM      6  C5  UNL d   1       1.529  -0.868   1.801  0.00  0.00     0.039 A 
ENDROOT
BRANCH   4   7
ATOM      7  O   UNL d   1      -0.036  -0.324  -1.435  0.00  0.00    -0.526 OA
ATOM      8  H5  UNL d   1      -0.960  -0.102  -1.640  0.00  0.00     0.418 HD
ENDBRANCH   4   7
TORSDOF 1
ENDMDL
