MODEL 1
REMARK minimizedAffinity -4.53178453
REMARK minimizedRMSD -1
REMARK  1 active torsions:
REMARK  status: ('A' for Active; 'I' for Inactive)
REMARK    1  A    between atoms: C3_4  and  O_7 
ROOT
ATOM      1  C   UNL d   1      -0.672  -0.062  -0.263  0.00  0.00    -0.033 A 
ATOM      2  C1  UNL d   1      -1.252  -0.480   0.937  0.00  0.00     0.039 A 
ATOM      3  C2  UNL d   1      -0.459  -0.659   2.072  0.00  0.00    -0.080 A 
ATOM      4  C3  UNL d   1       0.910  -0.417   1.994  0.00  0.00     0.150 A 
ATOM      5  C4  UNL d   1       1.493   0.003   0.803  0.00  0.00    -0.007 A 
ATOM      6  C5  UNL d   1       0.700   0.181  -0.329  0.00  0.00     0.039 A 
ENDROOT
BRANCH   4   7
ATOM      7  O   UNL d   1       1.725  -0.583   3.074  0.00  0.00    -0.526 OA
ATOM      8  H5  UNL d   1       1.189  -0.903   3.818  0.00  0.00     0.418 HD
ENDBRANCH   4   7
TORSDOF 1
ENDMDL
