MODEL 1
REMARK minimizedAffinity -4.8952055
REMARK minimizedRMSD -1
REMARK  1 active torsions:
REMARK  status: ('A' for Active; 'I' for Inactive)
REMARK    1  A    between atoms: C3_4  and  O_7 
ROOT
ATOM      1  C   UNL d   1       0.173  -0.247  -0.920  0.00  0.00    -0.033 A 
ATOM      2  C1  UNL d   1      -0.997  -0.175  -0.161  0.00  0.00     0.039 A 
ATOM      3  C2  UNL d   1      -0.963  -0.457   1.206  0.00  0.00    -0.080 A 
ATOM      4  C3  UNL d   1       0.245  -0.810   1.801  0.00  0.00     0.150 A 
ATOM      5  C4  UNL d   1       1.415  -0.880   1.052  0.00  0.00    -0.007 A 
ATOM      6  C5  UNL d   1       1.379  -0.599  -0.313  0.00  0.00     0.039 A 
ENDROOT
BRANCH   4   7
ATOM      7  O   UNL d   1       0.326  -1.099   3.131  0.00  0.00    -0.526 OA
ATOM      8  H5  UNL d   1      -0.564  -1.038   3.515  0.00  0.00     0.418 HD
ENDBRANCH   4   7
TORSDOF 1
ENDMDL
