MODEL 1
REMARK minimizedAffinity -4.88033676
REMARK minimizedRMSD -1
REMARK  1 active torsions:
REMARK  status: ('A' for Active; 'I' for Inactive)
REMARK    1  A    between atoms: C3_4  and  O_7 
ROOT
ATOM      1  C   UNL d   1       0.038  -0.757  -0.305  0.00  0.00    -0.033 A 
ATOM      2  C1  UNL d   1       1.232  -1.291   0.181  0.00  0.00     0.039 A 
ATOM      3  C2  UNL d   1       1.631  -1.032   1.494  0.00  0.00    -0.080 A 
ATOM      4  C3  UNL d   1       0.826  -0.240   2.309  0.00  0.00     0.150 A 
ATOM      5  C4  UNL d   1      -0.367   0.292   1.832  0.00  0.00    -0.007 A 
ATOM      6  C5  UNL d   1      -0.763   0.033   0.520  0.00  0.00     0.039 A 
ENDROOT
BRANCH   4   7
ATOM      7  O   UNL d   1       1.176   0.045   3.596  0.00  0.00    -0.526 OA
ATOM      8  H5  UNL d   1       2.038  -0.366   3.778  0.00  0.00     0.418 HD
ENDBRANCH   4   7
TORSDOF 1
ENDMDL
