MODEL 1
REMARK minimizedAffinity -5.41959476
REMARK minimizedRMSD -1
REMARK  1 active torsions:
REMARK  status: ('A' for Active; 'I' for Inactive)
REMARK    1  A    between atoms: C3_4  and  O_7 
ROOT
ATOM      1  C   UNL d   1       1.296  -1.060  -0.115  0.00  0.00    -0.033 A 
ATOM      2  C1  UNL d   1       0.416  -0.190   0.531  0.00  0.00     0.039 A 
ATOM      3  C2  UNL d   1       0.442  -0.074   1.922  0.00  0.00    -0.080 A 
ATOM      4  C3  UNL d   1       1.352  -0.832   2.654  0.00  0.00     0.150 A 
ATOM      5  C4  UNL d   1       2.234  -1.697   2.016  0.00  0.00    -0.007 A 
ATOM      6  C5  UNL d   1       2.206  -1.813   0.627  0.00  0.00     0.039 A 
ENDROOT
BRANCH   4   7
ATOM      7  O   UNL d   1       1.412  -0.756   4.014  0.00  0.00    -0.526 OA
ATOM      8  H5  UNL d   1       0.725  -0.140   4.318  0.00  0.00     0.418 HD
ENDBRANCH   4   7
TORSDOF 1
ENDMDL
