MODEL 1
REMARK minimizedAffinity -5.20747805
REMARK minimizedRMSD -1
REMARK  1 active torsions:
REMARK  status: ('A' for Active; 'I' for Inactive)
REMARK    1  A    between atoms: C3_4  and  O_7 
ROOT
ATOM      1  C   UNL d   1      -1.087  -0.221   0.089  0.00  0.00    -0.033 A 
ATOM      2  C1  UNL d   1       0.243   0.169  -0.085  0.00  0.00     0.039 A 
ATOM      3  C2  UNL d   1       1.137   0.105   0.986  0.00  0.00    -0.080 A 
ATOM      4  C3  UNL d   1       0.689  -0.350   2.223  0.00  0.00     0.150 A 
ATOM      5  C4  UNL d   1      -0.633  -0.743   2.402  0.00  0.00    -0.007 A 
ATOM      6  C5  UNL d   1      -1.524  -0.678   1.332  0.00  0.00     0.039 A 
ENDROOT
BRANCH   4   7
ATOM      7  O   UNL d   1       1.524  -0.425   3.298  0.00  0.00    -0.526 OA
ATOM      8  H5  UNL d   1       2.398  -0.094   3.034  0.00  0.00     0.418 HD
ENDBRANCH   4   7
TORSDOF 1
ENDMDL
