MODEL 1
REMARK minimizedAffinity -4.62961006
REMARK minimizedRMSD -1
REMARK  1 active torsions:
REMARK  status: ('A' for Active; 'I' for Inactive)
REMARK    1  A    between atoms: C3_4  and  O_7 
ROOT
ATOM      1  C   UNL d   1      -0.075  -0.481   2.716  0.00  0.00    -0.033 A 
ATOM      2  C1  UNL d   1      -0.364  -0.027   1.427  0.00  0.00     0.039 A 
ATOM      3  C2  UNL d   1       0.457  -0.388   0.357  0.00  0.00    -0.080 A 
ATOM      4  C3  UNL d   1       1.562  -1.202   0.588  0.00  0.00     0.150 A 
ATOM      5  C4  UNL d   1       1.854  -1.661   1.868  0.00  0.00    -0.007 A 
ATOM      6  C5  UNL d   1       1.034  -1.299   2.936  0.00  0.00     0.039 A 
ENDROOT
BRANCH   4   7
ATOM      7  O   UNL d   1       2.395  -1.577  -0.424  0.00  0.00    -0.526 OA
ATOM      8  H5  UNL d   1       2.086  -1.162  -1.247  0.00  0.00     0.418 HD
ENDBRANCH   4   7
TORSDOF 1
ENDMDL
