MODEL 1
REMARK minimizedAffinity 10.0133476
REMARK minimizedRMSD -1
REMARK  0 active torsions:
REMARK  status: ('A' for Active; 'I' for Inactive)
ROOT
ATOM      1  C2' OXE d   1      -2.913  -0.423  -0.059  0.00  0.00     0.078 C 
ATOM      2  C1' OXE d   1      -0.778  -1.323  -1.644  0.00  0.00     0.078 C 
ATOM      3  C1  OXE d   1      -1.141  -2.134  -0.425  0.00  0.00    -0.078 A 
ATOM      4  C2  OXE d   1      -2.156  -1.661   0.371  0.00  0.00    -0.078 A 
ATOM      5  C3  OXE d   1      -2.567  -2.399   1.477  0.00  0.00     0.003 A 
ATOM      6  C4  OXE d   1      -1.855  -3.538   1.873  0.00  0.00    -0.002 A 
ATOM      7  C5  OXE d   1      -0.792  -4.015   1.099  0.00  0.00    -0.002 A 
ATOM      8  C6  OXE d   1      -0.450  -3.350  -0.074  0.00  0.00     0.003 A 
ENDROOT
TORSDOF 0
ENDMDL
