MODEL 1
REMARK minimizedAffinity 13.4153833
REMARK minimizedRMSD -1
REMARK  0 active torsions:
REMARK  status: ('A' for Active; 'I' for Inactive)
ROOT
ATOM      1  C2' OXE d   1      -5.057   1.846  -5.953  0.00  0.00     0.078 C 
ATOM      2  C1' OXE d   1      -3.092   2.697  -4.138  0.00  0.00     0.078 C 
ATOM      3  C1  OXE d   1      -4.087   3.719  -4.627  0.00  0.00    -0.078 A 
ATOM      4  C2  OXE d   1      -5.016   3.305  -5.551  0.00  0.00    -0.078 A 
ATOM      5  C3  OXE d   1      -5.991   4.194  -5.994  0.00  0.00     0.003 A 
ATOM      6  C4  OXE d   1      -5.940   5.544  -5.626  0.00  0.00    -0.002 A 
ATOM      7  C5  OXE d   1      -4.977   5.995  -4.717  0.00  0.00    -0.002 A 
ATOM      8  C6  OXE d   1      -4.072   5.089  -4.176  0.00  0.00     0.003 A 
ENDROOT
TORSDOF 0
ENDMDL
