MODEL 1
REMARK minimizedAffinity 0.02655554
REMARK minimizedRMSD -1
REMARK  0 active torsions:
REMARK  status: ('A' for Active; 'I' for Inactive)
ROOT
ATOM      1  C2' OXE d   1      -1.510  -4.958  -0.753  0.00  0.00     0.078 C 
ATOM      2  C1' OXE d   1      -2.364  -2.374  -1.445  0.00  0.00     0.078 C 
ATOM      3  C1  OXE d   1      -1.695  -2.559  -0.105  0.00  0.00    -0.078 A 
ATOM      4  C2  OXE d   1      -1.322  -3.835   0.245  0.00  0.00    -0.078 A 
ATOM      5  C3  OXE d   1      -0.652  -4.052   1.445  0.00  0.00     0.003 A 
ATOM      6  C4  OXE d   1      -0.492  -3.010   2.366  0.00  0.00    -0.002 A 
ATOM      7  C5  OXE d   1      -0.900  -1.711   2.046  0.00  0.00    -0.002 A 
ATOM      8  C6  OXE d   1      -1.463  -1.461   0.800  0.00  0.00     0.003 A 
ENDROOT
TORSDOF 0
ENDMDL
