MODEL 1
REMARK minimizedAffinity 6.63828516
REMARK minimizedRMSD -1
REMARK  0 active torsions:
REMARK  status: ('A' for Active; 'I' for Inactive)
ROOT
ATOM      1  C2' OXE d   1      -0.946  -3.951   1.161  0.00  0.00     0.078 C 
ATOM      2  C1' OXE d   1      -1.652  -1.361   0.340  0.00  0.00     0.078 C 
ATOM      3  C1  OXE d   1      -1.579  -1.634   1.822  0.00  0.00    -0.078 A 
ATOM      4  C2  OXE d   1      -1.279  -2.916   2.214  0.00  0.00    -0.078 A 
ATOM      5  C3  OXE d   1      -1.145  -3.209   3.568  0.00  0.00     0.003 A 
ATOM      6  C4  OXE d   1      -1.463  -2.249   4.536  0.00  0.00    -0.002 A 
ATOM      7  C5  OXE d   1      -1.811  -0.948   4.158  0.00  0.00    -0.002 A 
ATOM      8  C6  OXE d   1      -1.832  -0.613   2.808  0.00  0.00     0.003 A 
ENDROOT
TORSDOF 0
ENDMDL
