MODEL 1
REMARK minimizedAffinity 14.0056353
REMARK minimizedRMSD -1
REMARK  0 active torsions:
REMARK  status: ('A' for Active; 'I' for Inactive)
ROOT
ATOM      1  C2' OXE d   1       6.000  -1.492  -3.759  0.00  0.00     0.078 C 
ATOM      2  C1' OXE d   1       5.970   1.295  -4.092  0.00  0.00     0.078 C 
ATOM      3  C1  OXE d   1       4.781   0.654  -3.420  0.00  0.00    -0.078 A 
ATOM      4  C2  OXE d   1       4.783  -0.716  -3.304  0.00  0.00    -0.078 A 
ATOM      5  C3  OXE d   1       3.736  -1.353  -2.644  0.00  0.00     0.003 A 
ATOM      6  C4  OXE d   1       2.610  -0.628  -2.235  0.00  0.00    -0.002 A 
ATOM      7  C5  OXE d   1       2.570   0.763  -2.380  0.00  0.00    -0.002 A 
ATOM      8  C6  OXE d   1       3.663   1.422  -2.931  0.00  0.00     0.003 A 
ENDROOT
TORSDOF 0
ENDMDL
