MODEL 1
REMARK minimizedAffinity 4.92852354
REMARK minimizedRMSD -1
REMARK  0 active torsions:
REMARK  status: ('A' for Active; 'I' for Inactive)
ROOT
ATOM      1  C2' OXE d   1      -0.929  -5.632   2.505  0.00  0.00     0.078 C 
ATOM      2  C1' OXE d   1      -0.910  -5.195  -0.268  0.00  0.00     0.078 C 
ATOM      3  C1  OXE d   1      -1.100  -3.999   0.632  0.00  0.00    -0.078 A 
ATOM      4  C2  OXE d   1      -1.154  -4.229   1.986  0.00  0.00    -0.078 A 
ATOM      5  C3  OXE d   1      -1.273  -3.154   2.863  0.00  0.00     0.003 A 
ATOM      6  C4  OXE d   1      -1.491  -1.861   2.374  0.00  0.00    -0.002 A 
ATOM      7  C5  OXE d   1      -1.479  -1.610   0.998  0.00  0.00    -0.002 A 
ATOM      8  C6  OXE d   1      -1.242  -2.660   0.116  0.00  0.00     0.003 A 
ENDROOT
TORSDOF 0
ENDMDL
