MODEL 1
REMARK minimizedAffinity 4.04750299
REMARK minimizedRMSD -1
REMARK  0 active torsions:
REMARK  status: ('A' for Active; 'I' for Inactive)
ROOT
ATOM      1  C2' OXE d   1      -3.690  -0.738   0.378  0.00  0.00     0.078 C 
ATOM      2  C1' OXE d   1      -2.257  -2.032  -1.660  0.00  0.00     0.078 C 
ATOM      3  C1  OXE d   1      -1.900  -2.360  -0.231  0.00  0.00    -0.078 A 
ATOM      4  C2  OXE d   1      -2.574  -1.687   0.759  0.00  0.00    -0.078 A 
ATOM      5  C3  OXE d   1      -2.322  -1.991   2.094  0.00  0.00     0.003 A 
ATOM      6  C4  OXE d   1      -1.281  -2.862   2.438  0.00  0.00    -0.002 A 
ATOM      7  C5  OXE d   1      -0.555  -3.528   1.445  0.00  0.00    -0.002 A 
ATOM      8  C6  OXE d   1      -0.880  -3.320   0.109  0.00  0.00     0.003 A 
ENDROOT
TORSDOF 0
ENDMDL
