MODEL 1
REMARK minimizedAffinity 14.7723103
REMARK minimizedRMSD -1
REMARK  0 active torsions:
REMARK  status: ('A' for Active; 'I' for Inactive)
ROOT
ATOM      1  C2' OXE d   1       5.999  -0.017   2.982  0.00  0.00     0.078 C 
ATOM      2  C1' OXE d   1       4.199   1.966   3.825  0.00  0.00     0.078 C 
ATOM      3  C1  OXE d   1       4.662   2.000   2.390  0.00  0.00    -0.078 A 
ATOM      4  C2  OXE d   1       5.579   1.054   1.999  0.00  0.00    -0.078 A 
ATOM      5  C3  OXE d   1       5.998   1.007   0.672  0.00  0.00     0.003 A 
ATOM      6  C4  OXE d   1       5.612   2.008  -0.229  0.00  0.00    -0.002 A 
ATOM      7  C5  OXE d   1       4.711   3.004   0.160  0.00  0.00    -0.002 A 
ATOM      8  C6  OXE d   1       4.194   2.990   1.451  0.00  0.00     0.003 A 
ENDROOT
TORSDOF 0
ENDMDL
