MODEL 1
REMARK minimizedAffinity 3.36408544
REMARK minimizedRMSD -1
REMARK  0 active torsions:
REMARK  status: ('A' for Active; 'I' for Inactive)
ROOT
ATOM      1  C2' OXE d   1      -0.619  -4.039   1.264  0.00  0.00     0.078 C 
ATOM      2  C1' OXE d   1      -1.955  -1.617   1.738  0.00  0.00     0.078 C 
ATOM      3  C1  OXE d   1      -1.858  -2.099   0.312  0.00  0.00    -0.078 A 
ATOM      4  C2  OXE d   1      -1.162  -3.262   0.084  0.00  0.00    -0.078 A 
ATOM      5  C3  OXE d   1      -1.090  -3.781  -1.206  0.00  0.00     0.003 A 
ATOM      6  C4  OXE d   1      -1.586  -3.051  -2.292  0.00  0.00    -0.002 A 
ATOM      7  C5  OXE d   1      -2.264  -1.844  -2.087  0.00  0.00    -0.002 A 
ATOM      8  C6  OXE d   1      -2.445  -1.377  -0.789  0.00  0.00     0.003 A 
ENDROOT
TORSDOF 0
ENDMDL
