MODEL 1
REMARK minimizedAffinity 3.30012965
REMARK minimizedRMSD -1
REMARK  0 active torsions:
REMARK  status: ('A' for Active; 'I' for Inactive)
ROOT
ATOM      1  C2' OXE d   1      -0.225  -4.358   2.232  0.00  0.00     0.078 C 
ATOM      2  C1' OXE d   1      -0.978  -1.897   3.353  0.00  0.00     0.078 C 
ATOM      3  C1  OXE d   1      -1.298  -2.135   1.899  0.00  0.00    -0.078 A 
ATOM      4  C2  OXE d   1      -0.884  -3.323   1.346  0.00  0.00    -0.078 A 
ATOM      5  C3  OXE d   1      -1.202  -3.616   0.023  0.00  0.00     0.003 A 
ATOM      6  C4  OXE d   1      -1.803  -2.649  -0.792  0.00  0.00    -0.002 A 
ATOM      7  C5  OXE d   1      -2.197  -1.417  -0.260  0.00  0.00    -0.002 A 
ATOM      8  C6  OXE d   1      -1.991  -1.161   1.091  0.00  0.00     0.003 A 
ENDROOT
TORSDOF 0
ENDMDL
