MODEL 1
REMARK minimizedAffinity 8.91896629
REMARK minimizedRMSD -1
REMARK  0 active torsions:
REMARK  status: ('A' for Active; 'I' for Inactive)
ROOT
ATOM      1  C2' OXE d   1      -1.157   0.719   2.588  0.00  0.00     0.078 C 
ATOM      2  C1' OXE d   1      -1.315  -1.152   4.676  0.00  0.00     0.078 C 
ATOM      3  C1  OXE d   1      -1.298  -1.676   3.262  0.00  0.00    -0.078 A 
ATOM      4  C2  OXE d   1      -1.267  -0.751   2.245  0.00  0.00    -0.078 A 
ATOM      5  C3  OXE d   1      -1.195  -1.182   0.924  0.00  0.00     0.003 A 
ATOM      6  C4  OXE d   1      -1.307  -2.543   0.614  0.00  0.00    -0.002 A 
ATOM      7  C5  OXE d   1      -1.379  -3.499   1.633  0.00  0.00    -0.002 A 
ATOM      8  C6  OXE d   1      -1.333  -3.085   2.960  0.00  0.00     0.003 A 
ENDROOT
TORSDOF 0
ENDMDL
