MODEL 1
REMARK minimizedAffinity 9.51126099
REMARK minimizedRMSD -1
REMARK  0 active torsions:
REMARK  status: ('A' for Active; 'I' for Inactive)
ROOT
ATOM      1  C2' OXE d   1      -0.996  -1.926  -0.750  0.00  0.00     0.078 C 
ATOM      2  C1' OXE d   1      -0.649  -4.053   1.049  0.00  0.00     0.078 C 
ATOM      3  C1  OXE d   1      -0.877  -2.677   1.622  0.00  0.00    -0.078 A 
ATOM      4  C2  OXE d   1      -0.999  -1.635   0.735  0.00  0.00    -0.078 A 
ATOM      5  C3  OXE d   1      -1.264  -0.353   1.210  0.00  0.00     0.003 A 
ATOM      6  C4  OXE d   1      -1.255  -0.091   2.585  0.00  0.00    -0.002 A 
ATOM      7  C5  OXE d   1      -1.093  -1.132   3.505  0.00  0.00    -0.002 A 
ATOM      8  C6  OXE d   1      -0.945  -2.434   3.042  0.00  0.00     0.003 A 
ENDROOT
TORSDOF 0
ENDMDL
