MODEL 1
REMARK minimizedAffinity 9.87596512
REMARK minimizedRMSD -1
REMARK  0 active torsions:
REMARK  status: ('A' for Active; 'I' for Inactive)
ROOT
ATOM      1  C2' OXE d   1       0.086  -3.734   2.550  0.00  0.00     0.078 C 
ATOM      2  C1' OXE d   1      -1.382  -1.432   3.204  0.00  0.00     0.078 C 
ATOM      3  C1  OXE d   1      -1.607  -2.048   1.846  0.00  0.00    -0.078 A 
ATOM      4  C2  OXE d   1      -0.850  -3.146   1.516  0.00  0.00    -0.078 A 
ATOM      5  C3  OXE d   1      -1.056  -3.785   0.297  0.00  0.00     0.003 A 
ATOM      6  C4  OXE d   1      -1.916  -3.230  -0.658  0.00  0.00    -0.002 A 
ATOM      7  C5  OXE d   1      -2.668  -2.088  -0.358  0.00  0.00    -0.002 A 
ATOM      8  C6  OXE d   1      -2.556  -1.511   0.903  0.00  0.00     0.003 A 
ENDROOT
TORSDOF 0
ENDMDL
