MODEL 1
REMARK minimizedAffinity 10.1225014
REMARK minimizedRMSD -1
REMARK  0 active torsions:
REMARK  status: ('A' for Active; 'I' for Inactive)
ROOT
ATOM      1  C2' OXE d   1      -1.004  -1.798  -0.213  0.00  0.00     0.078 C 
ATOM      2  C1' OXE d   1      -0.705  -4.009   1.491  0.00  0.00     0.078 C 
ATOM      3  C1  OXE d   1      -0.929  -2.658   2.124  0.00  0.00    -0.078 A 
ATOM      4  C2  OXE d   1      -1.028  -1.575   1.284  0.00  0.00    -0.078 A 
ATOM      5  C3  OXE d   1      -1.291  -0.314   1.812  0.00  0.00     0.003 A 
ATOM      6  C4  OXE d   1      -1.302  -0.115   3.198  0.00  0.00    -0.002 A 
ATOM      7  C5  OXE d   1      -1.163  -1.198   4.072  0.00  0.00    -0.002 A 
ATOM      8  C6  OXE d   1      -1.019  -2.480   3.552  0.00  0.00     0.003 A 
ENDROOT
TORSDOF 0
ENDMDL
