MODEL 1
REMARK minimizedAffinity 9.8509407
REMARK minimizedRMSD -1
REMARK  0 active torsions:
REMARK  status: ('A' for Active; 'I' for Inactive)
ROOT
ATOM      1  C2' OXE d   1      -1.489  -0.526   4.322  0.00  0.00     0.078 C 
ATOM      2  C1' OXE d   1      -1.744   1.032   2.001  0.00  0.00     0.078 C 
ATOM      3  C1  OXE d   1      -1.428  -0.433   1.834  0.00  0.00    -0.078 A 
ATOM      4  C2  OXE d   1      -1.259  -1.178   2.976  0.00  0.00    -0.078 A 
ATOM      5  C3  OXE d   1      -1.020  -2.546   2.878  0.00  0.00     0.003 A 
ATOM      6  C4  OXE d   1      -0.799  -3.139   1.629  0.00  0.00    -0.002 A 
ATOM      7  C5  OXE d   1      -0.927  -2.390   0.455  0.00  0.00    -0.002 A 
ATOM      8  C6  OXE d   1      -1.283  -1.048   0.537  0.00  0.00     0.003 A 
ENDROOT
TORSDOF 0
ENDMDL
