MODEL 1
REMARK minimizedAffinity 4.26792717
REMARK minimizedRMSD -1
REMARK  0 active torsions:
REMARK  status: ('A' for Active; 'I' for Inactive)
ROOT
ATOM      1  C2' OXE d   1      -0.361  -3.664   1.321  0.00  0.00     0.078 C 
ATOM      2  C1' OXE d   1      -1.694  -1.216   1.662  0.00  0.00     0.078 C 
ATOM      3  C1  OXE d   1      -1.703  -1.837   0.287  0.00  0.00    -0.078 A 
ATOM      4  C2  OXE d   1      -1.009  -3.011   0.119  0.00  0.00    -0.078 A 
ATOM      5  C3  OXE d   1      -1.030  -3.653  -1.116  0.00  0.00     0.003 A 
ATOM      6  C4  OXE d   1      -1.623  -3.038  -2.225  0.00  0.00    -0.002 A 
ATOM      7  C5  OXE d   1      -2.301  -1.822  -2.084  0.00  0.00    -0.002 A 
ATOM      8  C6  OXE d   1      -2.387  -1.231  -0.829  0.00  0.00     0.003 A 
ENDROOT
TORSDOF 0
ENDMDL
