MODEL 1
REMARK minimizedAffinity 3.44499803
REMARK minimizedRMSD -1
REMARK  0 active torsions:
REMARK  status: ('A' for Active; 'I' for Inactive)
ROOT
ATOM      1  C2' OXE d   1      -3.365  -5.998   1.513  0.00  0.00     0.078 C 
ATOM      2  C1' OXE d   1      -0.751  -6.000   0.491  0.00  0.00     0.078 C 
ATOM      3  C1  OXE d   1      -1.469  -4.677   0.582  0.00  0.00    -0.078 A 
ATOM      4  C2  OXE d   1      -2.765  -4.691   1.040  0.00  0.00    -0.078 A 
ATOM      5  C3  OXE d   1      -3.455  -3.492   1.196  0.00  0.00     0.003 A 
ATOM      6  C4  OXE d   1      -2.896  -2.290   0.746  0.00  0.00    -0.002 A 
ATOM      7  C5  OXE d   1      -1.592  -2.258   0.240  0.00  0.00    -0.002 A 
ATOM      8  C6  OXE d   1      -0.852  -3.434   0.191  0.00  0.00     0.003 A 
ENDROOT
TORSDOF 0
ENDMDL
