MODEL 1
REMARK minimizedAffinity 4.02014685
REMARK minimizedRMSD -1
REMARK  0 active torsions:
REMARK  status: ('A' for Active; 'I' for Inactive)
ROOT
ATOM      1  C2' OXE d   1      -5.975   0.745   6.000  0.00  0.00     0.078 C 
ATOM      2  C1' OXE d   1      -3.620   2.251   5.740  0.00  0.00     0.078 C 
ATOM      3  C1  OXE d   1      -3.491   0.750   5.809  0.00  0.00    -0.078 A 
ATOM      4  C2  OXE d   1      -4.644   0.024   5.983  0.00  0.00    -0.078 A 
ATOM      5  C3  OXE d   1      -4.587  -1.367   5.999  0.00  0.00     0.003 A 
ATOM      6  C4  OXE d   1      -3.352  -2.026   5.993  0.00  0.00    -0.002 A 
ATOM      7  C5  OXE d   1      -2.162  -1.303   5.856  0.00  0.00    -0.002 A 
ATOM      8  C6  OXE d   1      -2.217   0.080   5.721  0.00  0.00     0.003 A 
ENDROOT
TORSDOF 0
ENDMDL
