MODEL 1
REMARK minimizedAffinity -2.21200418
REMARK minimizedRMSD -1
REMARK  0 active torsions:
REMARK  status: ('A' for Active; 'I' for Inactive)
ROOT
ATOM      1  N1  IND d   1      -0.505   1.443  -0.435  0.00  0.00    -0.196 N 
ATOM      2  C2  IND d   1       0.282   0.326  -0.379  0.00  0.00     0.054 A 
ATOM      3  C3  IND d   1       0.082  -0.446  -1.470  0.00  0.00    -0.031 A 
ATOM      4  C4  IND d   1      -1.413  -0.021  -3.523  0.00  0.00     0.051 A 
ATOM      5  C5  IND d   1      -2.348   0.846  -4.013  0.00  0.00    -0.031 A 
ATOM      6  C6  IND d   1      -2.722   1.982  -3.324  0.00  0.00     0.015 A 
ATOM      7  C7  IND d   1      -2.164   2.299  -2.117  0.00  0.00    -0.016 A 
ATOM      8  C8  IND d   1      -1.220   1.416  -1.613  0.00  0.00    -0.047 A 
ATOM      9  C9  IND d   1      -0.867   0.241  -2.288  0.00  0.00    -0.096 A 
ATOM     10  HN1 IND d   1      -0.547   2.058   0.164  0.00  0.00     0.298 HD
ENDROOT
TORSDOF 0
ENDMDL
