MODEL 1
REMARK minimizedAffinity -2.05332756
REMARK minimizedRMSD -1
REMARK  0 active torsions:
REMARK  status: ('A' for Active; 'I' for Inactive)
ROOT
ATOM      1  N1  IND d   1       0.949   1.565   0.170  0.00  0.00    -0.196 N 
ATOM      2  C2  IND d   1      -0.407   1.604   0.334  0.00  0.00     0.054 A 
ATOM      3  C3  IND d   1      -0.872   0.389   0.702  0.00  0.00    -0.031 A 
ATOM      4  C4  IND d   1       0.425  -1.780   1.190  0.00  0.00     0.051 A 
ATOM      5  C5  IND d   1       1.681  -2.318   1.142  0.00  0.00    -0.031 A 
ATOM      6  C6  IND d   1       2.779  -1.574   0.763  0.00  0.00     0.015 A 
ATOM      7  C7  IND d   1       2.664  -0.255   0.427  0.00  0.00    -0.016 A 
ATOM      8  C8  IND d   1       1.390   0.293   0.467  0.00  0.00    -0.047 A 
ATOM      9  C9  IND d   1       0.265  -0.468   0.811  0.00  0.00    -0.096 A 
ATOM     10  HN1 IND d   1       1.444   2.223  -0.077  0.00  0.00     0.298 HD
ENDROOT
TORSDOF 0
ENDMDL
