MODEL 1
REMARK minimizedAffinity -5.4939146
REMARK minimizedRMSD -1
REMARK  0 active torsions:
REMARK  status: ('A' for Active; 'I' for Inactive)
ROOT
ATOM      1  N1  IND d   1      -1.003   0.160   0.649  0.00  0.00    -0.196 N 
ATOM      2  C2  IND d   1      -0.725   1.045  -0.355  0.00  0.00     0.054 A 
ATOM      3  C3  IND d   1       0.430   0.709  -0.972  0.00  0.00    -0.031 A 
ATOM      4  C4  IND d   1       1.973  -1.311  -0.565  0.00  0.00     0.051 A 
ATOM      5  C5  IND d   1       2.154  -2.378   0.270  0.00  0.00    -0.031 A 
ATOM      6  C6  IND d   1       1.272  -2.660   1.294  0.00  0.00     0.015 A 
ATOM      7  C7  IND d   1       0.166  -1.890   1.513  0.00  0.00    -0.016 A 
ATOM      8  C8  IND d   1      -0.017  -0.802   0.672  0.00  0.00    -0.047 A 
ATOM      9  C9  IND d   1       0.897  -0.485  -0.342  0.00  0.00    -0.096 A 
ATOM     10  HN1 IND d   1      -1.680   0.198   1.178  0.00  0.00     0.298 HD
ENDROOT
TORSDOF 0
ENDMDL
