MODEL 1
REMARK minimizedAffinity -1.65349638
REMARK minimizedRMSD -1
REMARK  0 active torsions:
REMARK  status: ('A' for Active; 'I' for Inactive)
ROOT
ATOM      1  N1  IND d   1       0.730   0.252  -1.076  0.00  0.00    -0.196 N 
ATOM      2  C2  IND d   1       0.294   0.097   0.210  0.00  0.00     0.054 A 
ATOM      3  C3  IND d   1      -1.022   0.391   0.299  0.00  0.00    -0.031 A 
ATOM      4  C4  IND d   1      -2.680   1.050  -1.557  0.00  0.00     0.051 A 
ATOM      5  C5  IND d   1      -2.742   1.355  -2.888  0.00  0.00    -0.031 A 
ATOM      6  C6  IND d   1      -1.627   1.304  -3.699  0.00  0.00     0.015 A 
ATOM      7  C7  IND d   1      -0.406   0.934  -3.211  0.00  0.00    -0.016 A 
ATOM      8  C8  IND d   1      -0.339   0.630  -1.859  0.00  0.00    -0.047 A 
ATOM      9  C9  IND d   1      -1.458   0.721  -1.021  0.00  0.00    -0.096 A 
ATOM     10  HN1 IND d   1       1.536   0.133  -1.350  0.00  0.00     0.298 HD
ENDROOT
TORSDOF 0
ENDMDL
