MODEL 1
REMARK minimizedAffinity -5.451478
REMARK minimizedRMSD -1
REMARK  0 active torsions:
REMARK  status: ('A' for Active; 'I' for Inactive)
ROOT
ATOM      1  N1  IND d   1       2.047  -1.241   0.000  0.00  0.00    -0.196 N 
ATOM      2  C2  IND d   1       2.059  -2.438   0.662  0.00  0.00     0.054 A 
ATOM      3  C3  IND d   1       1.047  -2.491   1.557  0.00  0.00    -0.031 A 
ATOM      4  C4  IND d   1      -0.809  -0.771   2.030  0.00  0.00     0.051 A 
ATOM      5  C5  IND d   1      -1.218   0.491   1.701  0.00  0.00    -0.031 A 
ATOM      6  C6  IND d   1      -0.547   1.255   0.768  0.00  0.00     0.015 A 
ATOM      7  C7  IND d   1       0.556   0.778   0.117  0.00  0.00    -0.016 A 
ATOM      8  C8  IND d   1       0.978  -0.501   0.454  0.00  0.00    -0.047 A 
ATOM      9  C9  IND d   1       0.326  -1.264   1.431  0.00  0.00    -0.096 A 
ATOM     10  HN1 IND d   1       2.612  -0.993  -0.598  0.00  0.00     0.298 HD
ENDROOT
TORSDOF 0
ENDMDL
