MODEL 1
REMARK minimizedAffinity -0.516715467
REMARK minimizedRMSD -1
REMARK  0 active torsions:
REMARK  status: ('A' for Active; 'I' for Inactive)
ROOT
ATOM      1  N1  IND d   1       4.044  -1.015   0.576  0.00  0.00    -0.196 N 
ATOM      2  C2  IND d   1       3.980  -0.643   1.890  0.00  0.00     0.054 A 
ATOM      3  C3  IND d   1       2.743  -0.188   2.190  0.00  0.00    -0.031 A 
ATOM      4  C4  IND d   1       0.642  -0.059   0.707  0.00  0.00     0.051 A 
ATOM      5  C5  IND d   1       0.218  -0.250  -0.578  0.00  0.00    -0.031 A 
ATOM      6  C6  IND d   1       1.063  -0.718  -1.563  0.00  0.00     0.015 A 
ATOM      7  C7  IND d   1       2.367  -1.024  -1.296  0.00  0.00    -0.016 A 
ATOM      8  C8  IND d   1       2.804  -0.825   0.006  0.00  0.00    -0.047 A 
ATOM      9  C9  IND d   1       1.962  -0.310   1.000  0.00  0.00    -0.096 A 
ATOM     10  HN1 IND d   1       4.741  -1.316   0.173  0.00  0.00     0.298 HD
ENDROOT
TORSDOF 0
ENDMDL
