MODEL 1
REMARK minimizedAffinity -3.56522655
REMARK minimizedRMSD -1
REMARK  0 active torsions:
REMARK  status: ('A' for Active; 'I' for Inactive)
ROOT
ATOM      1  N1  IND d   1       0.325  -2.280   0.908  0.00  0.00    -0.196 N 
ATOM      2  C2  IND d   1       1.617  -2.682   1.100  0.00  0.00     0.054 A 
ATOM      3  C3  IND d   1       2.470  -1.666   0.838  0.00  0.00    -0.031 A 
ATOM      4  C4  IND d   1       1.959   0.769   0.178  0.00  0.00     0.051 A 
ATOM      5  C5  IND d   1       0.927   1.601  -0.154  0.00  0.00    -0.031 A 
ATOM      6  C6  IND d   1      -0.385   1.174  -0.146  0.00  0.00     0.015 A 
ATOM      7  C7  IND d   1      -0.717  -0.103   0.207  0.00  0.00    -0.016 A 
ATOM      8  C8  IND d   1       0.329  -0.953   0.537  0.00  0.00    -0.047 A 
ATOM      9  C9  IND d   1       1.666  -0.538   0.490  0.00  0.00    -0.096 A 
ATOM     10  HN1 IND d   1      -0.373  -2.773   1.003  0.00  0.00     0.298 HD
ENDROOT
TORSDOF 0
ENDMDL
