MODEL 1
REMARK minimizedAffinity -2.71876884
REMARK minimizedRMSD -1
REMARK  0 active torsions:
REMARK  status: ('A' for Active; 'I' for Inactive)
ROOT
ATOM      1  N1  IND d   1       0.882  -2.575   1.112  0.00  0.00    -0.196 N 
ATOM      2  C2  IND d   1       2.214  -2.657   1.408  0.00  0.00     0.054 A 
ATOM      3  C3  IND d   1       2.889  -1.643   0.822  0.00  0.00    -0.031 A 
ATOM      4  C4  IND d   1       1.995   0.322  -0.581  0.00  0.00     0.051 A 
ATOM      5  C5  IND d   1       0.851   0.806  -1.151  0.00  0.00    -0.031 A 
ATOM      6  C6  IND d   1      -0.367   0.176  -0.990  0.00  0.00     0.015 A 
ATOM      7  C7  IND d   1      -0.488  -0.960  -0.240  0.00  0.00    -0.016 A 
ATOM      8  C8  IND d   1       0.673  -1.458   0.334  0.00  0.00    -0.047 A 
ATOM      9  C9  IND d   1       1.919  -0.847   0.139  0.00  0.00    -0.096 A 
ATOM     10  HN1 IND d   1       0.276  -3.129   1.369  0.00  0.00     0.298 HD
ENDROOT
TORSDOF 0
ENDMDL
