MODEL 1
REMARK minimizedAffinity -3.5300169
REMARK minimizedRMSD -1
REMARK  0 active torsions:
REMARK  status: ('A' for Active; 'I' for Inactive)
ROOT
ATOM      1  N1  IND d   1      -0.855  -0.468  -0.569  0.00  0.00    -0.196 N 
ATOM      2  C2  IND d   1      -0.742   0.892  -0.489  0.00  0.00     0.054 A 
ATOM      3  C3  IND d   1       0.413   1.232   0.127  0.00  0.00    -0.031 A 
ATOM      4  C4  IND d   1       2.310  -0.277   0.992  0.00  0.00     0.051 A 
ATOM      5  C5  IND d   1       2.645  -1.590   1.175  0.00  0.00    -0.031 A 
ATOM      6  C6  IND d   1       1.814  -2.616   0.774  0.00  0.00     0.015 A 
ATOM      7  C7  IND d   1       0.618  -2.367   0.164  0.00  0.00    -0.016 A 
ATOM      8  C8  IND d   1       0.272  -1.035  -0.017  0.00  0.00    -0.047 A 
ATOM      9  C9  IND d   1       1.091   0.011   0.426  0.00  0.00    -0.096 A 
ATOM     10  HN1 IND d   1      -1.519  -0.897  -0.908  0.00  0.00     0.298 HD
ENDROOT
TORSDOF 0
ENDMDL
