MODEL 1
REMARK minimizedAffinity -3.14880133
REMARK minimizedRMSD -1
REMARK  0 active torsions:
REMARK  status: ('A' for Active; 'I' for Inactive)
ROOT
ATOM      1  N1  IND d   1      -0.452  -0.009  -1.175  0.00  0.00    -0.196 N 
ATOM      2  C2  IND d   1      -0.557   1.294  -0.776  0.00  0.00     0.054 A 
ATOM      3  C3  IND d   1       0.442   1.606   0.079  0.00  0.00    -0.031 A 
ATOM      4  C4  IND d   1       2.419   0.165   0.881  0.00  0.00     0.051 A 
ATOM      5  C5  IND d   1       2.922  -1.104   0.817  0.00  0.00    -0.031 A 
ATOM      6  C6  IND d   1       2.316  -2.092   0.069  0.00  0.00     0.015 A 
ATOM      7  C7  IND d   1       1.185  -1.844  -0.656  0.00  0.00    -0.016 A 
ATOM      8  C8  IND d   1       0.667  -0.558  -0.588  0.00  0.00    -0.047 A 
ATOM      9  C9  IND d   1       1.254   0.437   0.204  0.00  0.00    -0.096 A 
ATOM     10  HN1 IND d   1      -0.993  -0.417  -1.704  0.00  0.00     0.298 HD
ENDROOT
TORSDOF 0
ENDMDL
