MODEL 1
REMARK minimizedAffinity -3.91412663
REMARK minimizedRMSD -1
REMARK  0 active torsions:
REMARK  status: ('A' for Active; 'I' for Inactive)
ROOT
ATOM      1  N1  IND d   1       0.292   1.054  -0.664  0.00  0.00    -0.196 N 
ATOM      2  C2  IND d   1      -1.034   1.115  -0.338  0.00  0.00     0.054 A 
ATOM      3  C3  IND d   1      -1.409  -0.004   0.322  0.00  0.00    -0.031 A 
ATOM      4  C4  IND d   1       0.013  -2.019   1.062  0.00  0.00     0.051 A 
ATOM      5  C5  IND d   1       1.270  -2.545   0.962  0.00  0.00    -0.031 A 
ATOM      6  C6  IND d   1       2.287  -1.884   0.303  0.00  0.00     0.015 A 
ATOM      7  C7  IND d   1       2.086  -0.661  -0.272  0.00  0.00    -0.016 A 
ATOM      8  C8  IND d   1       0.809  -0.127  -0.178  0.00  0.00    -0.047 A 
ATOM      9  C9  IND d   1      -0.238  -0.812   0.452  0.00  0.00    -0.096 A 
ATOM     10  HN1 IND d   1       0.729   1.653  -1.099  0.00  0.00     0.298 HD
ENDROOT
TORSDOF 0
ENDMDL
