MODEL 1
REMARK minimizedAffinity -6.11593628
REMARK minimizedRMSD -1
REMARK  0 active torsions:
REMARK  status: ('A' for Active; 'I' for Inactive)
ROOT
ATOM      1  N1  IND d   1      -0.382   0.236   0.637  0.00  0.00    -0.196 N 
ATOM      2  C2  IND d   1       0.357   1.020  -0.205  0.00  0.00     0.054 A 
ATOM      3  C3  IND d   1       1.616   0.540  -0.311  0.00  0.00    -0.031 A 
ATOM      4  C4  IND d   1       2.653  -1.575   0.727  0.00  0.00     0.051 A 
ATOM      5  C5  IND d   1       2.381  -2.592   1.598  0.00  0.00    -0.031 A 
ATOM      6  C6  IND d   1       1.148  -2.723   2.204  0.00  0.00     0.015 A 
ATOM      7  C7  IND d   1       0.133  -1.843   1.951  0.00  0.00    -0.016 A 
ATOM      8  C8  IND d   1       0.408  -0.806   1.072  0.00  0.00    -0.047 A 
ATOM      9  C9  IND d   1       1.671  -0.644   0.487  0.00  0.00    -0.096 A 
ATOM     10  HN1 IND d   1      -1.202   0.370   0.858  0.00  0.00     0.298 HD
ENDROOT
TORSDOF 0
ENDMDL
