MODEL 1
REMARK minimizedAffinity -5.26091528
REMARK minimizedRMSD -1
REMARK  0 active torsions:
REMARK  status: ('A' for Active; 'I' for Inactive)
ROOT
ATOM      1  N1  IND d   1       2.304  -0.882  -0.157  0.00  0.00    -0.196 N 
ATOM      2  C2  IND d   1       2.721  -1.928   0.617  0.00  0.00     0.054 A 
ATOM      3  C3  IND d   1       1.864  -2.125   1.644  0.00  0.00    -0.031 A 
ATOM      4  C4  IND d   1      -0.342  -0.915   2.188  0.00  0.00     0.051 A 
ATOM      5  C5  IND d   1      -1.121   0.135   1.790  0.00  0.00    -0.031 A 
ATOM      6  C6  IND d   1      -0.794   0.913   0.698  0.00  0.00     0.015 A 
ATOM      7  C7  IND d   1       0.325   0.663  -0.045  0.00  0.00    -0.016 A 
ATOM      8  C8  IND d   1       1.122  -0.398   0.361  0.00  0.00    -0.047 A 
ATOM      9  C9  IND d   1       0.817  -1.165   1.492  0.00  0.00    -0.096 A 
ATOM     10  HN1 IND d   1       2.710  -0.577  -0.850  0.00  0.00     0.298 HD
ENDROOT
TORSDOF 0
ENDMDL
