MODEL 1
REMARK minimizedAffinity -4.06927347
REMARK minimizedRMSD -1
REMARK  0 active torsions:
REMARK  status: ('A' for Active; 'I' for Inactive)
ROOT
ATOM      1  N1  IND d   1       0.617   1.072  -0.388  0.00  0.00    -0.196 N 
ATOM      2  C2  IND d   1      -0.665   1.248   0.052  0.00  0.00     0.054 A 
ATOM      3  C3  IND d   1      -1.108   0.130   0.670  0.00  0.00    -0.031 A 
ATOM      4  C4  IND d   1       0.137  -2.068   1.163  0.00  0.00     0.051 A 
ATOM      5  C5  IND d   1       1.318  -2.714   0.924  0.00  0.00    -0.031 A 
ATOM      6  C6  IND d   1       2.347  -2.118   0.225  0.00  0.00     0.015 A 
ATOM      7  C7  IND d   1       2.238  -0.844  -0.255  0.00  0.00    -0.016 A 
ATOM      8  C8  IND d   1       1.038  -0.187  -0.021  0.00  0.00    -0.047 A 
ATOM      9  C9  IND d   1      -0.026  -0.802   0.652  0.00  0.00    -0.096 A 
ATOM     10  HN1 IND d   1       1.083   1.651  -0.821  0.00  0.00     0.298 HD
ENDROOT
TORSDOF 0
ENDMDL
