MODEL 1
REMARK minimizedAffinity -5.72729206
REMARK minimizedRMSD -1
REMARK  0 active torsions:
REMARK  status: ('A' for Active; 'I' for Inactive)
ROOT
ATOM      1  N1  IND d   1      -1.184  -0.588  -0.539  0.00  0.00    -0.196 N 
ATOM      2  C2  IND d   1      -1.002   0.670  -1.042  0.00  0.00     0.054 A 
ATOM      3  C3  IND d   1       0.275   1.073  -0.851  0.00  0.00    -0.031 A 
ATOM      4  C4  IND d   1       2.258  -0.210   0.172  0.00  0.00     0.051 A 
ATOM      5  C5  IND d   1       2.574  -1.380   0.805  0.00  0.00    -0.031 A 
ATOM      6  C6  IND d   1       1.634  -2.366   1.024  0.00  0.00     0.015 A 
ATOM      7  C7  IND d   1       0.341  -2.224   0.607  0.00  0.00    -0.016 A 
ATOM      8  C8  IND d   1       0.016  -1.034  -0.030  0.00  0.00    -0.047 A 
ATOM      9  C9  IND d   1       0.955  -0.012  -0.217  0.00  0.00    -0.096 A 
ATOM     10  HN1 IND d   1      -1.924  -1.026  -0.540  0.00  0.00     0.298 HD
ENDROOT
TORSDOF 0
ENDMDL
