MODEL 1
REMARK minimizedAffinity -4.05058146
REMARK minimizedRMSD -1
REMARK  1 active torsions:
REMARK  status: ('A' for Active; 'I' for Inactive)
REMARK    1  A    between atoms: C1_2  and  C2_3 
ROOT
ATOM      1  C2  UNL d   1       0.741   1.195   0.203  0.00  0.00    -0.077 A 
ATOM      2  C3  UNL d   1       1.829   1.504   1.032  0.00  0.00     0.002 A 
ATOM      3  C4  UNL d   1       2.131   2.833   1.334  0.00  0.00     0.002 A 
ATOM      4  C5  UNL d   1       1.350   3.863   0.814  0.00  0.00    -0.004 A 
ATOM      5  C6  UNL d   1       0.268   3.566  -0.013  0.00  0.00     0.002 A 
ATOM      6  C7  UNL d   1      -0.036   2.238  -0.317  0.00  0.00     0.002 A 
ENDROOT
BRANCH   1   7
ATOM      7  C1  UNL d   1       0.383  -0.240  -0.083  0.00  0.00     0.055 C 
ATOM      8  C   UNL d   1      -0.260  -0.902   1.126  0.00  0.00     0.019 C 
ENDBRANCH   1   7
TORSDOF 1
ENDMDL
