MODEL 1
REMARK minimizedAffinity -3.29212523
REMARK minimizedRMSD -1
REMARK  1 active torsions:
REMARK  status: ('A' for Active; 'I' for Inactive)
REMARK    1  A    between atoms: C1_2  and  C2_3 
ROOT
ATOM      1  C2  UNL d   1      -1.154  -1.701   0.537  0.00  0.00    -0.077 A 
ATOM      2  C3  UNL d   1      -1.570  -0.539   1.202  0.00  0.00     0.002 A 
ATOM      3  C4  UNL d   1      -0.934   0.680   0.958  0.00  0.00     0.002 A 
ATOM      4  C5  UNL d   1       0.117   0.750   0.047  0.00  0.00    -0.004 A 
ATOM      5  C6  UNL d   1       0.540  -0.400  -0.618  0.00  0.00     0.002 A 
ATOM      6  C7  UNL d   1      -0.094  -1.620  -0.375  0.00  0.00     0.002 A 
ENDROOT
BRANCH   1   7
ATOM      7  C1  UNL d   1      -1.870  -3.007   0.761  0.00  0.00     0.055 C 
ATOM      8  C   UNL d   1      -3.283  -2.967   0.197  0.00  0.00     0.019 C 
ENDBRANCH   1   7
TORSDOF 1
ENDMDL
