MODEL 1
REMARK minimizedAffinity -6.1401515
REMARK minimizedRMSD -1
REMARK  1 active torsions:
REMARK  status: ('A' for Active; 'I' for Inactive)
REMARK    1  A    between atoms: C1_2  and  C2_3 
ROOT
ATOM      1  C2  UNL d   1      -0.048  -0.744  -0.749  0.00  0.00    -0.077 A 
ATOM      2  C3  UNL d   1       0.038  -2.119  -1.009  0.00  0.00     0.002 A 
ATOM      3  C4  UNL d   1      -0.089  -3.043   0.029  0.00  0.00     0.002 A 
ATOM      4  C5  UNL d   1      -0.307  -2.604   1.333  0.00  0.00    -0.004 A 
ATOM      5  C6  UNL d   1      -0.392  -1.238   1.602  0.00  0.00     0.002 A 
ATOM      6  C7  UNL d   1      -0.264  -0.313   0.566  0.00  0.00     0.002 A 
ENDROOT
BRANCH   1   7
ATOM      7  C1  UNL d   1       0.039   0.253  -1.875  0.00  0.00     0.055 C 
ATOM      8  C   UNL d   1       0.562  -0.395  -3.149  0.00  0.00     0.019 C 
ENDBRANCH   1   7
TORSDOF 1
ENDMDL
