MODEL 1
REMARK minimizedAffinity -4.82524347
REMARK minimizedRMSD -1
REMARK  1 active torsions:
REMARK  status: ('A' for Active; 'I' for Inactive)
REMARK    1  A    between atoms: C1_2  and  C2_3 
ROOT
ATOM      1  C2  UNL d   1       0.148   0.441   0.078  0.00  0.00    -0.077 A 
ATOM      2  C3  UNL d   1      -0.844   0.131   1.019  0.00  0.00     0.002 A 
ATOM      3  C4  UNL d   1      -1.112  -1.199   1.351  0.00  0.00     0.002 A 
ATOM      4  C5  UNL d   1      -0.389  -2.227   0.750  0.00  0.00    -0.004 A 
ATOM      5  C6  UNL d   1       0.597  -1.929  -0.189  0.00  0.00     0.002 A 
ATOM      6  C7  UNL d   1       0.865  -0.601  -0.523  0.00  0.00     0.002 A 
ENDROOT
BRANCH   1   7
ATOM      7  C1  UNL d   1       0.471   1.876  -0.245  0.00  0.00     0.055 C 
ATOM      8  C   UNL d   1       1.946   2.176  -0.015  0.00  0.00     0.019 C 
ENDBRANCH   1   7
TORSDOF 1
ENDMDL
