MODEL 1
REMARK minimizedAffinity -4.76570654
REMARK minimizedRMSD -1
REMARK  1 active torsions:
REMARK  status: ('A' for Active; 'I' for Inactive)
REMARK    1  A    between atoms: C1_2  and  C2_3 
ROOT
ATOM      1  C2  UNL d   1       0.556  -1.530  -0.704  0.00  0.00    -0.077 A 
ATOM      2  C3  UNL d   1       0.392  -2.731  -0.000  0.00  0.00     0.002 A 
ATOM      3  C4  UNL d   1      -0.275  -2.746   1.226  0.00  0.00     0.002 A 
ATOM      4  C5  UNL d   1      -0.787  -1.563   1.756  0.00  0.00    -0.004 A 
ATOM      5  C6  UNL d   1      -0.627  -0.363   1.065  0.00  0.00     0.002 A 
ATOM      6  C7  UNL d   1       0.041  -0.347  -0.161  0.00  0.00     0.002 A 
ENDROOT
BRANCH   1   7
ATOM      7  C1  UNL d   1       1.233  -1.520  -2.050  0.00  0.00     0.055 C 
ATOM      8  C   UNL d   1       0.628  -0.466  -2.966  0.00  0.00     0.019 C 
ENDBRANCH   1   7
TORSDOF 1
ENDMDL
