MODEL 1
REMARK minimizedAffinity -1.64370549
REMARK minimizedRMSD -1
REMARK  1 active torsions:
REMARK  status: ('A' for Active; 'I' for Inactive)
REMARK    1  A    between atoms: C1_2  and  C2_3 
ROOT
ATOM      1  C2  UNL d   1      -0.024  -0.840  -0.002  0.00  0.00    -0.077 A 
ATOM      2  C3  UNL d   1       1.167  -1.575  -0.090  0.00  0.00     0.002 A 
ATOM      3  C4  UNL d   1       1.196  -2.920   0.283  0.00  0.00     0.002 A 
ATOM      4  C5  UNL d   1       0.037  -3.542   0.743  0.00  0.00    -0.004 A 
ATOM      5  C6  UNL d   1      -1.151  -2.819   0.837  0.00  0.00     0.002 A 
ATOM      6  C7  UNL d   1      -1.182  -1.474   0.465  0.00  0.00     0.002 A 
ENDROOT
BRANCH   1   7
ATOM      7  C1  UNL d   1      -0.069   0.598  -0.451  0.00  0.00     0.055 C 
ATOM      8  C   UNL d   1       1.001   1.428   0.243  0.00  0.00     0.019 C 
ENDBRANCH   1   7
TORSDOF 1
ENDMDL
