MODEL 1
REMARK minimizedAffinity -3.76045275
REMARK minimizedRMSD -1
REMARK  1 active torsions:
REMARK  status: ('A' for Active; 'I' for Inactive)
REMARK    1  A    between atoms: C1_2  and  C2_3 
ROOT
ATOM      1  C2  UNL d   1      -0.444   0.106   0.147  0.00  0.00    -0.077 A 
ATOM      2  C3  UNL d   1       0.345  -0.701  -0.684  0.00  0.00     0.002 A 
ATOM      3  C4  UNL d   1       0.385  -2.084  -0.494  0.00  0.00     0.002 A 
ATOM      4  C5  UNL d   1      -0.366  -2.671   0.522  0.00  0.00    -0.004 A 
ATOM      5  C6  UNL d   1      -1.152  -1.876   1.356  0.00  0.00     0.002 A 
ATOM      6  C7  UNL d   1      -1.191  -0.494   1.168  0.00  0.00     0.002 A 
ENDROOT
BRANCH   1   7
ATOM      7  C1  UNL d   1      -0.526   1.592  -0.086  0.00  0.00     0.055 C 
ATOM      8  C   UNL d   1       0.742   2.296   0.376  0.00  0.00     0.019 C 
ENDBRANCH   1   7
TORSDOF 1
ENDMDL
