MODEL 1
REMARK minimizedAffinity -3.9771533
REMARK minimizedRMSD -1
REMARK  1 active torsions:
REMARK  status: ('A' for Active; 'I' for Inactive)
REMARK    1  A    between atoms: C1_2  and  C2_3 
ROOT
ATOM      1  C2  UNL d   1       0.149   0.072  -0.197  0.00  0.00    -0.077 A 
ATOM      2  C3  UNL d   1       0.975  -0.869  -0.828  0.00  0.00     0.002 A 
ATOM      3  C4  UNL d   1       0.876  -2.224  -0.506  0.00  0.00     0.002 A 
ATOM      4  C5  UNL d   1      -0.050  -2.650   0.443  0.00  0.00    -0.004 A 
ATOM      5  C6  UNL d   1      -0.874  -1.722   1.078  0.00  0.00     0.002 A 
ATOM      6  C7  UNL d   1      -0.776  -0.367   0.759  0.00  0.00     0.002 A 
ENDROOT
BRANCH   1   7
ATOM      7  C1  UNL d   1       0.221   1.528  -0.578  0.00  0.00     0.055 C 
ATOM      8  C   UNL d   1       1.237   2.274   0.274  0.00  0.00     0.019 C 
ENDBRANCH   1   7
TORSDOF 1
ENDMDL
