MODEL 1
REMARK minimizedAffinity -0.0889623016
REMARK minimizedRMSD -1
REMARK  1 active torsions:
REMARK  status: ('A' for Active; 'I' for Inactive)
REMARK    1  A    between atoms: C3_4  and  O_7 
ROOT
ATOM      1  C   UNL d   1      -1.938  -3.434   1.075  0.00  0.00    -0.033 A 
ATOM      2  C1  UNL d   1      -2.237  -4.694   0.552  0.00  0.00     0.039 A 
ATOM      3  C2  UNL d   1      -1.290  -5.378  -0.211  0.00  0.00    -0.080 A 
ATOM      4  C3  UNL d   1      -0.048  -4.794  -0.442  0.00  0.00     0.150 A 
ATOM      5  C4  UNL d   1       0.259  -3.541   0.079  0.00  0.00    -0.007 A 
ATOM      6  C5  UNL d   1      -0.689  -2.859   0.840  0.00  0.00     0.039 A 
ENDROOT
BRANCH   4   7
ATOM      7  O   UNL d   1       0.908  -5.421  -1.185  0.00  0.00    -0.526 OA
ATOM      8  H5  UNL d   1       0.545  -6.265  -1.504  0.00  0.00     0.418 HD
ENDBRANCH   4   7
TORSDOF 1
ENDMDL
