MODEL 1
REMARK minimizedAffinity 1.85594857
REMARK minimizedRMSD -1
REMARK  1 active torsions:
REMARK  status: ('A' for Active; 'I' for Inactive)
REMARK    1  A    between atoms: C3_4  and  O_7 
ROOT
ATOM      1  C   UNL d   1      -0.973  -5.493  -0.111  0.00  0.00    -0.033 A 
ATOM      2  C1  UNL d   1       0.094  -4.594  -0.163  0.00  0.00     0.039 A 
ATOM      3  C2  UNL d   1      -0.092  -3.264   0.217  0.00  0.00    -0.080 A 
ATOM      4  C3  UNL d   1      -1.348  -2.846   0.648  0.00  0.00     0.150 A 
ATOM      5  C4  UNL d   1      -2.415  -3.736   0.707  0.00  0.00    -0.007 A 
ATOM      6  C5  UNL d   1      -2.227  -5.064   0.325  0.00  0.00     0.039 A 
ENDROOT
BRANCH   4   7
ATOM      7  O   UNL d   1      -1.579  -1.556   1.025  0.00  0.00    -0.526 OA
ATOM      8  H5  UNL d   1      -0.759  -1.049   0.906  0.00  0.00     0.418 HD
ENDBRANCH   4   7
TORSDOF 1
ENDMDL
