MODEL 1
REMARK minimizedAffinity 6.84387207
REMARK minimizedRMSD -1
REMARK  1 active torsions:
REMARK  status: ('A' for Active; 'I' for Inactive)
REMARK    1  A    between atoms: C3_4  and  O_7 
ROOT
ATOM      1  C   UNL d   1       1.865  -3.052   5.999  0.00  0.00    -0.033 A 
ATOM      2  C1  UNL d   1       1.163  -1.885   5.693  0.00  0.00     0.039 A 
ATOM      3  C2  UNL d   1       1.028  -1.478   4.364  0.00  0.00    -0.080 A 
ATOM      4  C3  UNL d   1       1.598  -2.246   3.353  0.00  0.00     0.150 A 
ATOM      5  C4  UNL d   1       2.296  -3.412   3.651  0.00  0.00    -0.007 A 
ATOM      6  C5  UNL d   1       2.430  -3.816   4.978  0.00  0.00     0.039 A 
ENDROOT
BRANCH   4   7
ATOM      7  O   UNL d   1       1.497  -1.886   2.042  0.00  0.00    -0.526 OA
ATOM      8  H5  UNL d   1       1.013  -1.045   1.990  0.00  0.00     0.418 HD
ENDBRANCH   4   7
TORSDOF 1
ENDMDL
