MODEL 1
REMARK minimizedAffinity 3.38083982
REMARK minimizedRMSD -1
REMARK  1 active torsions:
REMARK  status: ('A' for Active; 'I' for Inactive)
REMARK    1  A    between atoms: C3_4  and  O_7 
ROOT
ATOM      1  C   UNL d   1       1.771  -2.213   1.945  0.00  0.00    -0.033 A 
ATOM      2  C1  UNL d   1       2.123  -3.414   2.565  0.00  0.00     0.039 A 
ATOM      3  C2  UNL d   1       1.782  -3.637   3.900  0.00  0.00    -0.080 A 
ATOM      4  C3  UNL d   1       1.090  -2.655   4.603  0.00  0.00     0.150 A 
ATOM      5  C4  UNL d   1       0.733  -1.458   3.990  0.00  0.00    -0.007 A 
ATOM      6  C5  UNL d   1       1.075  -1.236   2.657  0.00  0.00     0.039 A 
ENDROOT
BRANCH   4   7
ATOM      7  O   UNL d   1       0.740  -2.826   5.909  0.00  0.00    -0.526 OA
ATOM      8  H5  UNL d   1       1.077  -3.687   6.208  0.00  0.00     0.418 HD
ENDBRANCH   4   7
TORSDOF 1
ENDMDL
