MODEL 1
REMARK minimizedAffinity 8.69606876
REMARK minimizedRMSD -1
REMARK  1 active torsions:
REMARK  status: ('A' for Active; 'I' for Inactive)
REMARK    1  A    between atoms: C3_4  and  O_7 
ROOT
ATOM      1  C   UNL d   1       1.478  -1.851   1.649  0.00  0.00    -0.033 A 
ATOM      2  C1  UNL d   1       1.843  -3.128   2.081  0.00  0.00     0.039 A 
ATOM      3  C2  UNL d   1       1.777  -3.453   3.437  0.00  0.00    -0.080 A 
ATOM      4  C3  UNL d   1       1.344  -2.495   4.350  0.00  0.00     0.150 A 
ATOM      5  C4  UNL d   1       0.975  -1.223   3.926  0.00  0.00    -0.007 A 
ATOM      6  C5  UNL d   1       1.042  -0.899   2.571  0.00  0.00     0.039 A 
ENDROOT
BRANCH   4   7
ATOM      7  O   UNL d   1       1.267  -2.765   5.684  0.00  0.00    -0.526 OA
ATOM      8  H5  UNL d   1       1.581  -3.673   5.833  0.00  0.00     0.418 HD
ENDBRANCH   4   7
TORSDOF 1
ENDMDL
