MODEL 1
REMARK minimizedAffinity 5.56837416
REMARK minimizedRMSD -1
REMARK  1 active torsions:
REMARK  status: ('A' for Active; 'I' for Inactive)
REMARK    1  A    between atoms: C3_4  and  O_7 
ROOT
ATOM      1  C   UNL d   1       1.540  -5.360  -0.837  0.00  0.00    -0.033 A 
ATOM      2  C1  UNL d   1       0.599  -5.183  -1.853  0.00  0.00     0.039 A 
ATOM      3  C2  UNL d   1      -0.742  -4.962  -1.534  0.00  0.00    -0.080 A 
ATOM      4  C3  UNL d   1      -1.129  -4.918  -0.197  0.00  0.00     0.150 A 
ATOM      5  C4  UNL d   1      -0.196  -5.090   0.820  0.00  0.00    -0.007 A 
ATOM      6  C5  UNL d   1       1.143  -5.312   0.500  0.00  0.00     0.039 A 
ENDROOT
BRANCH   4   7
ATOM      7  O   UNL d   1      -2.427  -4.710   0.163  0.00  0.00    -0.526 OA
ATOM      8  H5  UNL d   1      -2.962  -4.637  -0.644  0.00  0.00     0.418 HD
ENDBRANCH   4   7
TORSDOF 1
ENDMDL
