MODEL 1
REMARK minimizedAffinity 6.54506683
REMARK minimizedRMSD -1
REMARK  1 active torsions:
REMARK  status: ('A' for Active; 'I' for Inactive)
REMARK    1  A    between atoms: C3_4  and  O_7 
ROOT
ATOM      1  C   UNL d   1       0.984  -0.278   1.641  0.00  0.00    -0.033 A 
ATOM      2  C1  UNL d   1       1.012  -1.532   2.255  0.00  0.00     0.039 A 
ATOM      3  C2  UNL d   1       1.865  -2.528   1.776  0.00  0.00    -0.080 A 
ATOM      4  C3  UNL d   1       2.685  -2.258   0.684  0.00  0.00     0.150 A 
ATOM      5  C4  UNL d   1       2.665  -1.010   0.069  0.00  0.00    -0.007 A 
ATOM      6  C5  UNL d   1       1.812  -0.017   0.548  0.00  0.00     0.039 A 
ENDROOT
BRANCH   4   7
ATOM      7  O   UNL d   1       3.531  -3.199   0.178  0.00  0.00    -0.526 OA
ATOM      8  H5  UNL d   1       3.416  -4.020   0.684  0.00  0.00     0.418 HD
ENDBRANCH   4   7
TORSDOF 1
ENDMDL
