MODEL 1
REMARK minimizedAffinity -1.65192831
REMARK minimizedRMSD -1
REMARK  0 active torsions:
REMARK  status: ('A' for Active; 'I' for Inactive)
ROOT
ATOM      1  C1  BNZ d   1       1.435  -0.708  -0.693  0.00  0.00     0.000 A 
ATOM      2  C2  BNZ d   1       1.402  -1.327  -1.914  0.00  0.00     0.000 A 
ATOM      3  C3  BNZ d   1       0.583  -0.872  -2.908  0.00  0.00     0.000 A 
ATOM      4  C4  BNZ d   1      -0.231   0.177  -2.668  0.00  0.00     0.000 A 
ATOM      5  C5  BNZ d   1      -0.217   0.806  -1.440  0.00  0.00     0.000 A 
ATOM      6  C6  BNZ d   1       0.637   0.369  -0.454  0.00  0.00     0.000 A 
ENDROOT
TORSDOF 0
ENDMDL
