MODEL 1
REMARK minimizedAffinity -3.84585476
REMARK minimizedRMSD -1
REMARK  0 active torsions:
REMARK  status: ('A' for Active; 'I' for Inactive)
ROOT
ATOM      1  C1  BNZ d   1       0.419  -0.669  -0.786  0.00  0.00     0.000 A 
ATOM      2  C2  BNZ d   1      -0.739  -1.355  -1.037  0.00  0.00     0.000 A 
ATOM      3  C3  BNZ d   1      -1.076  -1.718  -2.311  0.00  0.00     0.000 A 
ATOM      4  C4  BNZ d   1      -0.276  -1.360  -3.336  0.00  0.00     0.000 A 
ATOM      5  C5  BNZ d   1       0.891  -0.659  -3.101  0.00  0.00     0.000 A 
ATOM      6  C6  BNZ d   1       1.246  -0.329  -1.813  0.00  0.00     0.000 A 
ENDROOT
TORSDOF 0
ENDMDL
