MODEL 1
REMARK minimizedAffinity -2.51699996
REMARK minimizedRMSD -1
REMARK  0 active torsions:
REMARK  status: ('A' for Active; 'I' for Inactive)
ROOT
ATOM      1  C1  BNZ d   1      -4.213   1.796  -6.000  0.00  0.00     0.000 A 
ATOM      2  C2  BNZ d   1      -5.363   2.540  -5.999  0.00  0.00     0.000 A 
ATOM      3  C3  BNZ d   1      -5.313   3.906  -5.985  0.00  0.00     0.000 A 
ATOM      4  C4  BNZ d   1      -4.116   4.525  -5.932  0.00  0.00     0.000 A 
ATOM      5  C5  BNZ d   1      -2.948   3.789  -5.924  0.00  0.00     0.000 A 
ATOM      6  C6  BNZ d   1      -3.002   2.415  -5.977  0.00  0.00     0.000 A 
ENDROOT
TORSDOF 0
ENDMDL
