MODEL 1
REMARK minimizedAffinity -4.4819479
REMARK minimizedRMSD -1
REMARK  0 active torsions:
REMARK  status: ('A' for Active; 'I' for Inactive)
ROOT
ATOM      1  C1  BNZ d   1      -0.266  -0.860  -0.659  0.00  0.00     0.000 A 
ATOM      2  C2  BNZ d   1      -0.372  -1.162  -1.991  0.00  0.00     0.000 A 
ATOM      3  C3  BNZ d   1       0.583  -0.753  -2.879  0.00  0.00     0.000 A 
ATOM      4  C4  BNZ d   1       1.620  -0.010  -2.443  0.00  0.00     0.000 A 
ATOM      5  C5  BNZ d   1       1.736   0.310  -1.105  0.00  0.00     0.000 A 
ATOM      6  C6  BNZ d   1       0.794  -0.136  -0.207  0.00  0.00     0.000 A 
ENDROOT
TORSDOF 0
ENDMDL
