MODEL 1
REMARK minimizedAffinity -1.59079528
REMARK minimizedRMSD -1
REMARK  0 active torsions:
REMARK  status: ('A' for Active; 'I' for Inactive)
ROOT
ATOM      1  C1  BNZ d   1       0.950  -1.173  -1.402  0.00  0.00     0.000 A 
ATOM      2  C2  BNZ d   1       0.327  -1.156  -0.183  0.00  0.00     0.000 A 
ATOM      3  C3  BNZ d   1       0.292  -0.015   0.569  0.00  0.00     0.000 A 
ATOM      4  C4  BNZ d   1       0.914   1.095   0.121  0.00  0.00     0.000 A 
ATOM      5  C5  BNZ d   1       1.554   1.091  -1.102  0.00  0.00     0.000 A 
ATOM      6  C6  BNZ d   1       1.554  -0.048  -1.874  0.00  0.00     0.000 A 
ENDROOT
TORSDOF 0
ENDMDL
