MODEL 1
REMARK minimizedAffinity -2.62309766
REMARK minimizedRMSD -1
REMARK  0 active torsions:
REMARK  status: ('A' for Active; 'I' for Inactive)
ROOT
ATOM      1  C1  BNZ d   1      -3.849   5.588  -5.955  0.00  0.00     0.000 A 
ATOM      2  C2  BNZ d   1      -5.191   5.318  -5.969  0.00  0.00     0.000 A 
ATOM      3  C3  BNZ d   1      -5.645   4.029  -5.970  0.00  0.00     0.000 A 
ATOM      4  C4  BNZ d   1      -4.758   3.013  -5.999  0.00  0.00     0.000 A 
ATOM      5  C5  BNZ d   1      -3.402   3.270  -5.996  0.00  0.00     0.000 A 
ATOM      6  C6  BNZ d   1      -2.948   4.568  -5.955  0.00  0.00     0.000 A 
ENDROOT
TORSDOF 0
ENDMDL
