MODEL 1
REMARK minimizedAffinity -1.54744601
REMARK minimizedRMSD -1
REMARK  0 active torsions:
REMARK  status: ('A' for Active; 'I' for Inactive)
ROOT
ATOM      1  C1  BNZ d   1      -0.170  -0.406  -0.298  0.00  0.00     0.000 A 
ATOM      2  C2  BNZ d   1       0.039  -1.118  -1.449  0.00  0.00     0.000 A 
ATOM      3  C3  BNZ d   1       1.147  -0.896  -2.218  0.00  0.00     0.000 A 
ATOM      4  C4  BNZ d   1       2.022   0.065  -1.857  0.00  0.00     0.000 A 
ATOM      5  C5  BNZ d   1       1.821   0.797  -0.705  0.00  0.00     0.000 A 
ATOM      6  C6  BNZ d   1       0.725   0.544   0.088  0.00  0.00     0.000 A 
ENDROOT
TORSDOF 0
ENDMDL
