MODEL 1
REMARK minimizedAffinity -3.292624
REMARK minimizedRMSD -1
REMARK  0 active torsions:
REMARK  status: ('A' for Active; 'I' for Inactive)
ROOT
ATOM      1  C1  BNZ d   1      -3.227   1.975  -5.980  0.00  0.00     0.000 A 
ATOM      2  C2  BNZ d   1      -4.478   2.530  -5.932  0.00  0.00     0.000 A 
ATOM      3  C3  BNZ d   1      -4.643   3.865  -5.691  0.00  0.00     0.000 A 
ATOM      4  C4  BNZ d   1      -3.561   4.636  -5.460  0.00  0.00     0.000 A 
ATOM      5  C5  BNZ d   1      -2.294   4.090  -5.496  0.00  0.00     0.000 A 
ATOM      6  C6  BNZ d   1      -2.129   2.753  -5.777  0.00  0.00     0.000 A 
ENDROOT
TORSDOF 0
ENDMDL
