MODEL 1
REMARK minimizedAffinity -2.07075119
REMARK minimizedRMSD -1
REMARK  0 active torsions:
REMARK  status: ('A' for Active; 'I' for Inactive)
ROOT
ATOM      1  C1  BNZ d   1      -2.978   3.281  -5.945  0.00  0.00     0.000 A 
ATOM      2  C2  BNZ d   1      -3.904   2.273  -5.953  0.00  0.00     0.000 A 
ATOM      3  C3  BNZ d   1      -5.242   2.552  -6.000  0.00  0.00     0.000 A 
ATOM      4  C4  BNZ d   1      -5.651   3.837  -5.998  0.00  0.00     0.000 A 
ATOM      5  C5  BNZ d   1      -4.730   4.864  -5.980  0.00  0.00     0.000 A 
ATOM      6  C6  BNZ d   1      -3.383   4.580  -5.973  0.00  0.00     0.000 A 
ENDROOT
TORSDOF 0
ENDMDL
