MODEL 1
REMARK minimizedAffinity -1.3088913
REMARK minimizedRMSD -1
REMARK  0 active torsions:
REMARK  status: ('A' for Active; 'I' for Inactive)
ROOT
ATOM      1  C1  BNZ d   1      -3.758   4.784  -5.990  0.00  0.00     0.000 A 
ATOM      2  C2  BNZ d   1      -5.112   4.577  -6.000  0.00  0.00     0.000 A 
ATOM      3  C3  BNZ d   1      -5.627   3.311  -5.984  0.00  0.00     0.000 A 
ATOM      4  C4  BNZ d   1      -4.789   2.255  -6.000  0.00  0.00     0.000 A 
ATOM      5  C5  BNZ d   1      -3.422   2.446  -6.000  0.00  0.00     0.000 A 
ATOM      6  C6  BNZ d   1      -2.907   3.722  -5.976  0.00  0.00     0.000 A 
ENDROOT
TORSDOF 0
ENDMDL
