MODEL 1
REMARK minimizedAffinity -1.15373385
REMARK minimizedRMSD -1
REMARK  0 active torsions:
REMARK  status: ('A' for Active; 'I' for Inactive)
ROOT
ATOM      1  C1  BNZ d   1      -4.874   2.469  -5.253  0.00  0.00     0.000 A 
ATOM      2  C2  BNZ d   1      -4.856   1.100  -5.266  0.00  0.00     0.000 A 
ATOM      3  C3  BNZ d   1      -3.725   0.419  -5.621  0.00  0.00     0.000 A 
ATOM      4  C4  BNZ d   1      -2.628   1.106  -6.000  0.00  0.00     0.000 A 
ATOM      5  C5  BNZ d   1      -2.634   2.487  -6.000  0.00  0.00     0.000 A 
ATOM      6  C6  BNZ d   1      -3.762   3.169  -5.605  0.00  0.00     0.000 A 
ENDROOT
TORSDOF 0
ENDMDL
