MODEL 1
REMARK minimizedAffinity -3.15751672
REMARK minimizedRMSD -1
REMARK  0 active torsions:
REMARK  status: ('A' for Active; 'I' for Inactive)
ROOT
ATOM      1  C1  BNZ d   1       1.675   0.901  -0.475  0.00  0.00     0.000 A 
ATOM      2  C2  BNZ d   1       0.840  -0.046   0.056  0.00  0.00     0.000 A 
ATOM      3  C3  BNZ d   1       0.373  -1.076  -0.712  0.00  0.00     0.000 A 
ATOM      4  C4  BNZ d   1       0.709  -1.136  -2.016  0.00  0.00     0.000 A 
ATOM      5  C5  BNZ d   1       1.543  -0.184  -2.568  0.00  0.00     0.000 A 
ATOM      6  C6  BNZ d   1       2.042   0.829  -1.783  0.00  0.00     0.000 A 
ENDROOT
TORSDOF 0
ENDMDL
