MODEL 1
REMARK minimizedAffinity -2.33939815
REMARK minimizedRMSD -1
REMARK  0 active torsions:
REMARK  status: ('A' for Active; 'I' for Inactive)
ROOT
ATOM      1  C1  BNZ d   1      -4.929   2.220  -5.911  0.00  0.00     0.000 A 
ATOM      2  C2  BNZ d   1      -3.793   2.983  -5.909  0.00  0.00     0.000 A 
ATOM      3  C3  BNZ d   1      -2.558   2.401  -5.974  0.00  0.00     0.000 A 
ATOM      4  C4  BNZ d   1      -2.460   1.056  -5.999  0.00  0.00     0.000 A 
ATOM      5  C5  BNZ d   1      -3.597   0.272  -5.992  0.00  0.00     0.000 A 
ATOM      6  C6  BNZ d   1      -4.839   0.863  -5.966  0.00  0.00     0.000 A 
ENDROOT
TORSDOF 0
ENDMDL
