MODEL 1
REMARK minimizedAffinity 0.527056515
REMARK minimizedRMSD -1
REMARK  1 active torsions:
REMARK  status: ('A' for Active; 'I' for Inactive)
REMARK    1  A    between atoms: N_2  and  C1_3 
ROOT
ATOM      1  C1  UNL d   1       1.438   0.141  -0.041  0.00  0.00     0.143 A 
ATOM      2  C2  UNL d   1       2.561  -0.247  -0.780  0.00  0.00    -0.057 A 
ATOM      3  C3  UNL d   1       3.696   0.569  -0.859  0.00  0.00     0.033 A 
ATOM      4  C4  UNL d   1       3.717   1.805  -0.222  0.00  0.00    -0.042 A 
ATOM      5  C5  UNL d   1       2.602   2.223   0.498  0.00  0.00     0.033 A 
ATOM      6  C6  UNL d   1       1.475   1.400   0.578  0.00  0.00    -0.057 A 
ENDROOT
BRANCH   1   7
ATOM      7  N   UNL d   1       0.243  -0.581  -0.006  0.00  0.00    -0.732 N 
ATOM      8  C   UNL d   1       0.248  -2.022  -0.142  0.00  0.00     0.284 C 
ATOM      9  H3  UNL d   1      -0.400  -0.233   0.702  0.00  0.00     0.395 HD
ENDBRANCH   1   7
TORSDOF 1
ENDMDL
