MODEL 1
REMARK minimizedAffinity 3.1506989
REMARK minimizedRMSD -1
REMARK  1 active torsions:
REMARK  status: ('A' for Active; 'I' for Inactive)
REMARK    1  A    between atoms: N_2  and  C1_3 
ROOT
ATOM      1  C1  UNL d   1       3.056  -0.673  -0.013  0.00  0.00     0.143 A 
ATOM      2  C2  UNL d   1       4.296  -0.215  -0.471  0.00  0.00    -0.057 A 
ATOM      3  C3  UNL d   1       4.639   1.141  -0.405  0.00  0.00     0.033 A 
ATOM      4  C4  UNL d   1       3.732   2.070   0.095  0.00  0.00    -0.042 A 
ATOM      5  C5  UNL d   1       2.484   1.641   0.533  0.00  0.00     0.033 A 
ATOM      6  C6  UNL d   1       2.150   0.285   0.471  0.00  0.00    -0.057 A 
ENDROOT
BRANCH   1   7
ATOM      7  N   UNL d   1       2.618  -1.993  -0.142  0.00  0.00    -0.732 N 
ATOM      8  C   UNL d   1       1.300  -2.285  -0.664  0.00  0.00     0.284 C 
ATOM      9  H3  UNL d   1       3.348  -2.612  -0.486  0.00  0.00     0.395 HD
ENDBRANCH   1   7
TORSDOF 1
ENDMDL
