MODEL 1
REMARK minimizedAffinity -0.48954314
REMARK minimizedRMSD -1
REMARK  1 active torsions:
REMARK  status: ('A' for Active; 'I' for Inactive)
REMARK    1  A    between atoms: N_2  and  C1_3 
ROOT
ATOM      1  C1  UNL d   1       3.927  -0.434  -1.176  0.00  0.00     0.143 A 
ATOM      2  C2  UNL d   1       3.832   0.926  -0.863  0.00  0.00    -0.057 A 
ATOM      3  C3  UNL d   1       3.322   1.354   0.369  0.00  0.00     0.033 A 
ATOM      4  C4  UNL d   1       2.870   0.426   1.301  0.00  0.00    -0.042 A 
ATOM      5  C5  UNL d   1       2.931  -0.930   1.002  0.00  0.00     0.033 A 
ATOM      6  C6  UNL d   1       3.448  -1.351  -0.227  0.00  0.00    -0.057 A 
ENDROOT
BRANCH   1   7
ATOM      7  N   UNL d   1       4.333  -0.919  -2.421  0.00  0.00    -0.732 N 
ATOM      8  C   UNL d   1       3.790  -2.155  -2.944  0.00  0.00     0.284 C 
ATOM      9  H3  UNL d   1       4.427  -0.180  -3.114  0.00  0.00     0.395 HD
ENDBRANCH   1   7
TORSDOF 1
ENDMDL
