MODEL 1
REMARK minimizedAffinity 2.82183456
REMARK minimizedRMSD -1
REMARK  1 active torsions:
REMARK  status: ('A' for Active; 'I' for Inactive)
REMARK    1  A    between atoms: N_2  and  C1_3 
ROOT
ATOM      1  C1  UNL d   1       3.171   0.245   0.231  0.00  0.00     0.143 A 
ATOM      2  C2  UNL d   1       3.831   1.404  -0.192  0.00  0.00    -0.057 A 
ATOM      3  C3  UNL d   1       3.266   2.671  -0.003  0.00  0.00     0.033 A 
ATOM      4  C4  UNL d   1       2.014   2.800   0.588  0.00  0.00    -0.042 A 
ATOM      5  C5  UNL d   1       1.328   1.660   0.994  0.00  0.00     0.033 A 
ATOM      6  C6  UNL d   1       1.901   0.398   0.808  0.00  0.00    -0.057 A 
ENDROOT
BRANCH   1   7
ATOM      7  N   UNL d   1       3.635  -1.049  -0.018  0.00  0.00    -0.732 N 
ATOM      8  C   UNL d   1       2.723  -2.092  -0.435  0.00  0.00     0.284 C 
ATOM      9  H3  UNL d   1       4.526  -1.054  -0.509  0.00  0.00     0.395 HD
ENDBRANCH   1   7
TORSDOF 1
ENDMDL
