MODEL 1
REMARK minimizedAffinity 6.40049744
REMARK minimizedRMSD -1
REMARK  1 active torsions:
REMARK  status: ('A' for Active; 'I' for Inactive)
REMARK    1  A    between atoms: N_2  and  C1_3 
ROOT
ATOM      1  C1  UNL d   1       1.314   0.517  -0.342  0.00  0.00     0.143 A 
ATOM      2  C2  UNL d   1       1.500  -0.869  -0.342  0.00  0.00    -0.057 A 
ATOM      3  C3  UNL d   1       2.726  -1.437   0.025  0.00  0.00     0.033 A 
ATOM      4  C4  UNL d   1       3.800  -0.624   0.372  0.00  0.00    -0.042 A 
ATOM      5  C5  UNL d   1       3.646   0.757   0.355  0.00  0.00     0.033 A 
ATOM      6  C6  UNL d   1       2.417   1.318  -0.006  0.00  0.00    -0.057 A 
ENDROOT
BRANCH   1   7
ATOM      7  N   UNL d   1       0.150   1.145  -0.791  0.00  0.00    -0.732 N 
ATOM      8  C   UNL d   1      -0.415   0.815  -2.082  0.00  0.00     0.284 C 
ATOM      9  H3  UNL d   1      -0.540   1.259  -0.052  0.00  0.00     0.395 HD
ENDBRANCH   1   7
TORSDOF 1
ENDMDL
