MODEL 1
REMARK minimizedAffinity 4.95513916
REMARK minimizedRMSD -1
REMARK  1 active torsions:
REMARK  status: ('A' for Active; 'I' for Inactive)
REMARK    1  A    between atoms: N_2  and  C1_3 
ROOT
ATOM      1  C1  UNL d   1       2.347  -0.507   0.372  0.00  0.00     0.143 A 
ATOM      2  C2  UNL d   1       1.579   0.586   0.787  0.00  0.00    -0.057 A 
ATOM      3  C3  UNL d   1       2.088   1.890   0.740  0.00  0.00     0.033 A 
ATOM      4  C4  UNL d   1       3.388   2.121   0.304  0.00  0.00    -0.042 A 
ATOM      5  C5  UNL d   1       4.178   1.046  -0.090  0.00  0.00     0.033 A 
ATOM      6  C6  UNL d   1       3.662  -0.252  -0.048  0.00  0.00    -0.057 A 
ENDROOT
BRANCH   1   7
ATOM      7  N   UNL d   1       1.933  -1.837   0.486  0.00  0.00    -0.732 N 
ATOM      8  C   UNL d   1       1.162  -2.462  -0.566  0.00  0.00     0.284 C 
ATOM      9  H3  UNL d   1       2.654  -2.435   0.885  0.00  0.00     0.395 HD
ENDBRANCH   1   7
TORSDOF 1
ENDMDL
