MODEL 1
REMARK minimizedAffinity 0.982917666
REMARK minimizedRMSD -1
REMARK  1 active torsions:
REMARK  status: ('A' for Active; 'I' for Inactive)
REMARK    1  A    between atoms: N_2  and  C1_3 
ROOT
ATOM      1  C1  UNL d   1       2.224  -1.817  -0.128  0.00  0.00     0.143 A 
ATOM      2  C2  UNL d   1       1.381  -0.741  -0.426  0.00  0.00    -0.057 A 
ATOM      3  C3  UNL d   1       1.793   0.582  -0.223  0.00  0.00     0.033 A 
ATOM      4  C4  UNL d   1       3.049   0.851   0.312  0.00  0.00    -0.042 A 
ATOM      5  C5  UNL d   1       3.894  -0.204   0.639  0.00  0.00     0.033 A 
ATOM      6  C6  UNL d   1       3.479  -1.522   0.427  0.00  0.00    -0.057 A 
ENDROOT
BRANCH   1   7
ATOM      7  N   UNL d   1       1.836  -3.156  -0.216  0.00  0.00    -0.732 N 
ATOM      8  C   UNL d   1       0.608  -3.525  -0.886  0.00  0.00     0.284 C 
ATOM      9  H3  UNL d   1       2.619  -3.776  -0.412  0.00  0.00     0.395 HD
ENDBRANCH   1   7
TORSDOF 1
ENDMDL
