MODEL 1
REMARK minimizedAffinity -2.16593027
REMARK minimizedRMSD -1
REMARK  0 active torsions:
REMARK  status: ('A' for Active; 'I' for Inactive)
ROOT
ATOM      1  O1  BZF d   1      -0.324  -0.754   2.590  0.00  0.00    -0.204 OA
ATOM      2  C2  BZF d   1       0.602  -1.703   2.978  0.00  0.00     0.174 A 
ATOM      3  C3  BZF d   1       1.425  -2.013   1.955  0.00  0.00    -0.012 A 
ATOM      4  C3A BZF d   1       1.044  -1.140   0.887  0.00  0.00    -0.107 A 
ATOM      5  C4  BZF d   1       1.503  -0.959  -0.386  0.00  0.00     0.055 A 
ATOM      6  C5  BZF d   1       0.865  -0.076  -1.199  0.00  0.00    -0.016 A 
ATOM      7  C6  BZF d   1      -0.237   0.637  -0.773  0.00  0.00     0.022 A 
ATOM      8  C7  BZF d   1      -0.725   0.495   0.483  0.00  0.00     0.029 A 
ATOM      9  C7A BZF d   1      -0.062  -0.372   1.317  0.00  0.00     0.058 A 
ENDROOT
TORSDOF 0
ENDMDL
