MODEL 1
REMARK minimizedAffinity 3.99897766
REMARK minimizedRMSD -1
REMARK  0 active torsions:
REMARK  status: ('A' for Active; 'I' for Inactive)
ROOT
ATOM      1  O1  BZF d   1       2.135  -3.390  -0.101  0.00  0.00    -0.204 OA
ATOM      2  C2  BZF d   1       1.557  -4.609  -0.396  0.00  0.00     0.174 A 
ATOM      3  C3  BZF d   1       1.783  -4.948  -1.681  0.00  0.00    -0.012 A 
ATOM      4  C3A BZF d   1       2.630  -3.918  -2.199  0.00  0.00    -0.107 A 
ATOM      5  C4  BZF d   1       3.210  -3.702  -3.416  0.00  0.00     0.055 A 
ATOM      6  C5  BZF d   1       3.920  -2.560  -3.617  0.00  0.00    -0.016 A 
ATOM      7  C6  BZF d   1       4.065  -1.612  -2.625  0.00  0.00     0.022 A 
ATOM      8  C7  BZF d   1       3.512  -1.784  -1.400  0.00  0.00     0.029 A 
ATOM      9  C7A BZF d   1       2.822  -2.952  -1.184  0.00  0.00     0.058 A 
ENDROOT
TORSDOF 0
ENDMDL
