MODEL 1
REMARK minimizedAffinity 15.7248087
REMARK minimizedRMSD -1
REMARK  0 active torsions:
REMARK  status: ('A' for Active; 'I' for Inactive)
ROOT
ATOM      1  O1  BZF d   1       3.207  -2.285  -1.853  0.00  0.00    -0.204 OA
ATOM      2  C2  BZF d   1       3.490  -1.425  -2.896  0.00  0.00     0.174 A 
ATOM      3  C3  BZF d   1       4.119  -2.076  -3.896  0.00  0.00    -0.012 A 
ATOM      4  C3A BZF d   1       4.153  -3.447  -3.488  0.00  0.00    -0.107 A 
ATOM      5  C4  BZF d   1       4.636  -4.587  -4.067  0.00  0.00     0.055 A 
ATOM      6  C5  BZF d   1       4.578  -5.754  -3.374  0.00  0.00    -0.016 A 
ATOM      7  C6  BZF d   1       4.050  -5.818  -2.101  0.00  0.00     0.022 A 
ATOM      8  C7  BZF d   1       3.555  -4.715  -1.488  0.00  0.00     0.029 A 
ATOM      9  C7A BZF d   1       3.582  -3.540  -2.198  0.00  0.00     0.058 A 
ENDROOT
TORSDOF 0
ENDMDL
