MODEL 1
REMARK minimizedAffinity 2.35241127
REMARK minimizedRMSD -1
REMARK  0 active torsions:
REMARK  status: ('A' for Active; 'I' for Inactive)
ROOT
ATOM      1  O1  BZF d   1       3.929  -2.613  -3.242  0.00  0.00    -0.204 OA
ATOM      2  C2  BZF d   1       3.014  -3.050  -4.179  0.00  0.00     0.174 A 
ATOM      3  C3  BZF d   1       2.761  -4.366  -4.023  0.00  0.00    -0.012 A 
ATOM      4  C3A BZF d   1       3.499  -4.755  -2.861  0.00  0.00    -0.107 A 
ATOM      5  C4  BZF d   1       3.639  -5.937  -2.190  0.00  0.00     0.055 A 
ATOM      6  C5  BZF d   1       4.492  -5.999  -1.134  0.00  0.00    -0.016 A 
ATOM      7  C6  BZF d   1       5.223  -4.903  -0.726  0.00  0.00     0.022 A 
ATOM      8  C7  BZF d   1       5.114  -3.709  -1.356  0.00  0.00     0.029 A 
ATOM      9  C7A BZF d   1       4.228  -3.634  -2.403  0.00  0.00     0.058 A 
ENDROOT
TORSDOF 0
ENDMDL
