MODEL 1
REMARK minimizedAffinity 6.95267773
REMARK minimizedRMSD -1
REMARK  0 active torsions:
REMARK  status: ('A' for Active; 'I' for Inactive)
ROOT
ATOM      1  O1  BZF d   1       1.500  -5.090  -0.603  0.00  0.00    -0.204 OA
ATOM      2  C2  BZF d   1       1.347  -6.000  -1.631  0.00  0.00     0.174 A 
ATOM      3  C3  BZF d   1       2.237  -5.763  -2.616  0.00  0.00    -0.012 A 
ATOM      4  C3A BZF d   1       3.055  -4.692  -2.135  0.00  0.00    -0.107 A 
ATOM      5  C4  BZF d   1       4.125  -4.021  -2.654  0.00  0.00     0.055 A 
ATOM      6  C5  BZF d   1       4.649  -2.977  -1.961  0.00  0.00    -0.016 A 
ATOM      7  C6  BZF d   1       4.127  -2.573  -0.750  0.00  0.00     0.022 A 
ATOM      8  C7  BZF d   1       3.069  -3.211  -0.192  0.00  0.00     0.029 A 
ATOM      9  C7A BZF d   1       2.558  -4.288  -0.874  0.00  0.00     0.058 A 
ENDROOT
TORSDOF 0
ENDMDL
