MODEL 1
REMARK minimizedAffinity 3.97744513
REMARK minimizedRMSD -1
REMARK  0 active torsions:
REMARK  status: ('A' for Active; 'I' for Inactive)
ROOT
ATOM      1  O1  BZF d   1      -1.694   4.066  -2.330  0.00  0.00    -0.204 OA
ATOM      2  C2  BZF d   1      -0.654   4.342  -1.464  0.00  0.00     0.174 A 
ATOM      3  C3  BZF d   1      -0.410   3.288  -0.658  0.00  0.00    -0.012 A 
ATOM      4  C3A BZF d   1      -1.295   2.258  -1.107  0.00  0.00    -0.107 A 
ATOM      5  C4  BZF d   1      -1.512   0.969  -0.712  0.00  0.00     0.055 A 
ATOM      6  C5  BZF d   1      -2.501   0.253  -1.310  0.00  0.00    -0.016 A 
ATOM      7  C6  BZF d   1      -3.293   0.795  -2.300  0.00  0.00     0.022 A 
ATOM      8  C7  BZF d   1      -3.112   2.068  -2.728  0.00  0.00     0.029 A 
ATOM      9  C7A BZF d   1      -2.093   2.784  -2.150  0.00  0.00     0.058 A 
ENDROOT
TORSDOF 0
ENDMDL
