MODEL 1
REMARK minimizedAffinity 4.51881218
REMARK minimizedRMSD -1
REMARK  0 active torsions:
REMARK  status: ('A' for Active; 'I' for Inactive)
ROOT
ATOM      1  O1  BZF d   1       3.463  -2.622  -3.757  0.00  0.00    -0.204 OA
ATOM      2  C2  BZF d   1       3.421  -1.730  -2.703  0.00  0.00     0.174 A 
ATOM      3  C3  BZF d   1       3.850  -2.313  -1.565  0.00  0.00    -0.012 A 
ATOM      4  C3A BZF d   1       4.267  -3.627  -1.950  0.00  0.00    -0.107 A 
ATOM      5  C4  BZF d   1       4.803  -4.680  -1.265  0.00  0.00     0.055 A 
ATOM      6  C5  BZF d   1       5.029  -5.848  -1.922  0.00  0.00    -0.016 A 
ATOM      7  C6  BZF d   1       4.728  -5.999  -3.259  0.00  0.00     0.022 A 
ATOM      8  C7  BZF d   1       4.200  -4.981  -3.982  0.00  0.00     0.029 A 
ATOM      9  C7A BZF d   1       4.001  -3.789  -3.329  0.00  0.00     0.058 A 
ENDROOT
TORSDOF 0
ENDMDL
