MODEL 1
REMARK minimizedAffinity 2.05121732
REMARK minimizedRMSD -1
REMARK  0 active torsions:
REMARK  status: ('A' for Active; 'I' for Inactive)
ROOT
ATOM      1  O1  BZF d   1       4.849  -0.494   0.274  0.00  0.00    -0.204 OA
ATOM      2  C2  BZF d   1       3.894  -0.234   1.237  0.00  0.00     0.174 A 
ATOM      3  C3  BZF d   1       3.134  -1.325   1.464  0.00  0.00    -0.012 A 
ATOM      4  C3A BZF d   1       3.706  -2.357   0.654  0.00  0.00    -0.107 A 
ATOM      5  C4  BZF d   1       3.403  -3.674   0.460  0.00  0.00     0.055 A 
ATOM      6  C5  BZF d   1       4.112  -4.387  -0.454  0.00  0.00    -0.016 A 
ATOM      7  C6  BZF d   1       5.126  -3.814  -1.194  0.00  0.00     0.022 A 
ATOM      8  C7  BZF d   1       5.466  -2.512  -1.033  0.00  0.00     0.029 A 
ATOM      9  C7A BZF d   1       4.773  -1.798  -0.086  0.00  0.00     0.058 A 
ENDROOT
TORSDOF 0
ENDMDL
