MODEL 1
REMARK minimizedAffinity -1.33837771
REMARK minimizedRMSD -1
REMARK  0 active torsions:
REMARK  status: ('A' for Active; 'I' for Inactive)
ROOT
ATOM      1  O1  BZF d   1       5.150  -5.480  -3.336  0.00  0.00    -0.204 OA
ATOM      2  C2  BZF d   1       4.403  -5.266  -4.479  0.00  0.00     0.174 A 
ATOM      3  C3  BZF d   1       3.672  -4.138  -4.368  0.00  0.00    -0.012 A 
ATOM      4  C3A BZF d   1       4.052  -3.565  -3.114  0.00  0.00    -0.107 A 
ATOM      5  C4  BZF d   1       3.683  -2.430  -2.450  0.00  0.00     0.055 A 
ATOM      6  C5  BZF d   1       4.187  -2.197  -1.209  0.00  0.00    -0.016 A 
ATOM      7  C6  BZF d   1       5.055  -3.079  -0.601  0.00  0.00     0.022 A 
ATOM      8  C7  BZF d   1       5.454  -4.216  -1.222  0.00  0.00     0.029 A 
ATOM      9  C7A BZF d   1       4.973  -4.438  -2.489  0.00  0.00     0.058 A 
ENDROOT
TORSDOF 0
ENDMDL
