MODEL 1
REMARK minimizedAffinity -4.74889421
REMARK minimizedRMSD -1
REMARK  0 active torsions:
REMARK  status: ('A' for Active; 'I' for Inactive)
ROOT
ATOM      1  O1  BZF d   1       4.050  -1.407  -1.244  0.00  0.00    -0.204 OA
ATOM      2  C2  BZF d   1       4.115  -1.850   0.063  0.00  0.00     0.174 A 
ATOM      3  C3  BZF d   1       3.835  -3.167   0.137  0.00  0.00    -0.012 A 
ATOM      4  C3A BZF d   1       3.668  -3.592  -1.219  0.00  0.00    -0.107 A 
ATOM      5  C4  BZF d   1       3.391  -4.798  -1.797  0.00  0.00     0.055 A 
ATOM      6  C5  BZF d   1       3.222  -4.861  -3.144  0.00  0.00    -0.016 A 
ATOM      7  C6  BZF d   1       3.317  -3.739  -3.942  0.00  0.00     0.022 A 
ATOM      8  C7  BZF d   1       3.596  -2.522  -3.414  0.00  0.00     0.029 A 
ATOM      9  C7A BZF d   1       3.800  -2.461  -2.057  0.00  0.00     0.058 A 
ENDROOT
TORSDOF 0
ENDMDL
