MODEL 1
REMARK minimizedAffinity -0.20717679
REMARK minimizedRMSD -1
REMARK  0 active torsions:
REMARK  status: ('A' for Active; 'I' for Inactive)
ROOT
ATOM      1  O1  BZF d   1       5.038  -5.521  -2.705  0.00  0.00    -0.204 OA
ATOM      2  C2  BZF d   1       4.128  -5.457  -3.742  0.00  0.00     0.174 A 
ATOM      3  C3  BZF d   1       3.311  -4.394  -3.596  0.00  0.00    -0.012 A 
ATOM      4  C3A BZF d   1       3.796  -3.701  -2.443  0.00  0.00    -0.107 A 
ATOM      5  C4  BZF d   1       3.410  -2.559  -1.802  0.00  0.00     0.055 A 
ATOM      6  C5  BZF d   1       4.049  -2.194  -0.659  0.00  0.00    -0.016 A 
ATOM      7  C6  BZF d   1       5.074  -2.949  -0.128  0.00  0.00     0.022 A 
ATOM      8  C7  BZF d   1       5.496  -4.087  -0.731  0.00  0.00     0.029 A 
ATOM      9  C7A BZF d   1       4.874  -4.441  -1.903  0.00  0.00     0.058 A 
ENDROOT
TORSDOF 0
ENDMDL
