MODEL 1
REMARK minimizedAffinity 5.74155474
REMARK minimizedRMSD -1
REMARK  0 active torsions:
REMARK  status: ('A' for Active; 'I' for Inactive)
ROOT
ATOM      1  O1  BZF d   1       3.633  -2.872  -3.493  0.00  0.00    -0.204 OA
ATOM      2  C2  BZF d   1       3.709  -1.692  -2.779  0.00  0.00     0.174 A 
ATOM      3  C3  BZF d   1       4.203  -1.911  -1.544  0.00  0.00    -0.012 A 
ATOM      4  C3A BZF d   1       4.538  -3.302  -1.514  0.00  0.00    -0.107 A 
ATOM      5  C4  BZF d   1       5.084  -4.116  -0.563  0.00  0.00     0.055 A 
ATOM      6  C5  BZF d   1       5.213  -5.443  -0.824  0.00  0.00    -0.016 A 
ATOM      7  C6  BZF d   1       4.802  -5.991  -2.022  0.00  0.00     0.022 A 
ATOM      8  C7  BZF d   1       4.259  -5.222  -2.998  0.00  0.00     0.029 A 
ATOM      9  C7A BZF d   1       4.157  -3.875  -2.749  0.00  0.00     0.058 A 
ENDROOT
TORSDOF 0
ENDMDL
