MODEL 1
REMARK minimizedAffinity 9.81093502
REMARK minimizedRMSD -1
REMARK  1 active torsions:
REMARK  status: ('A' for Active; 'I' for Inactive)
REMARK    1  A    between atoms: C1_2  and  C2_3 
ROOT
ATOM      1  C2  UNL d   1       2.692   1.029   1.129  0.00  0.00    -0.081 A 
ATOM      2  C3  UNL d   1       2.883   2.175   0.347  0.00  0.00     0.006 A 
ATOM      3  C4  UNL d   1       1.950   3.213   0.372  0.00  0.00     0.002 A 
ATOM      4  C5  UNL d   1       0.814   3.128   1.185  0.00  0.00    -0.080 A 
ATOM      5  C6  UNL d   1      -0.180   4.249   1.245  0.00  0.00     0.076 C 
ATOM      6  C7  UNL d   1       0.614   1.975   1.953  0.00  0.00     0.002 A 
ATOM      7  C8  UNL d   1       1.547   0.936   1.927  0.00  0.00     0.006 A 
ENDROOT
BRANCH   1   8
ATOM      8  C1  UNL d   1       3.729  -0.065   1.152  0.00  0.00     0.054 C 
ATOM      9  C   UNL d   1       4.309  -0.247   2.548  0.00  0.00     0.018 C 
ENDBRANCH   1   8
TORSDOF 1
ENDMDL
