MODEL 1
REMARK minimizedAffinity 11.4738903
REMARK minimizedRMSD -1
REMARK  1 active torsions:
REMARK  status: ('A' for Active; 'I' for Inactive)
REMARK    1  A    between atoms: C1_2  and  C2_3 
ROOT
ATOM      1  C2  UNL d   1      -0.253  -4.254  -5.100  0.00  0.00    -0.081 A 
ATOM      2  C3  UNL d   1      -1.032  -3.106  -5.289  0.00  0.00     0.006 A 
ATOM      3  C4  UNL d   1      -2.085  -2.813  -4.418  0.00  0.00     0.002 A 
ATOM      4  C5  UNL d   1      -2.370  -3.659  -3.340  0.00  0.00    -0.080 A 
ATOM      5  C6  UNL d   1      -3.478  -3.341  -2.381  0.00  0.00     0.076 C 
ATOM      6  C7  UNL d   1      -1.602  -4.815  -3.162  0.00  0.00     0.002 A 
ATOM      7  C8  UNL d   1      -0.550  -5.108  -4.033  0.00  0.00     0.006 A 
ENDROOT
BRANCH   1   8
ATOM      8  C1  UNL d   1       0.924  -4.537  -5.999  0.00  0.00     0.054 C 
ATOM      9  C   UNL d   1       1.913  -3.381  -5.997  0.00  0.00     0.018 C 
ENDBRANCH   1   8
TORSDOF 1
ENDMDL
