MODEL 1
REMARK minimizedAffinity 13.2336063
REMARK minimizedRMSD -1
REMARK  1 active torsions:
REMARK  status: ('A' for Active; 'I' for Inactive)
REMARK    1  A    between atoms: C1_2  and  C2_3 
ROOT
ATOM      1  C2  UNL d   1       3.006   1.578  -1.207  0.00  0.00    -0.081 A 
ATOM      2  C3  UNL d   1       3.206   0.332  -0.599  0.00  0.00     0.006 A 
ATOM      3  C4  UNL d   1       2.487  -0.021   0.545  0.00  0.00     0.002 A 
ATOM      4  C5  UNL d   1       1.551   0.860   1.096  0.00  0.00    -0.080 A 
ATOM      5  C6  UNL d   1       0.751   0.481   2.306  0.00  0.00     0.076 C 
ATOM      6  C7  UNL d   1       1.364   2.112   0.499  0.00  0.00     0.002 A 
ATOM      7  C8  UNL d   1       2.083   2.466  -0.645  0.00  0.00     0.006 A 
ENDROOT
BRANCH   1   8
ATOM      8  C1  UNL d   1       3.733   1.936  -2.478  0.00  0.00     0.054 C 
ATOM      9  C   UNL d   1       3.870   0.729  -3.396  0.00  0.00     0.018 C 
ENDBRANCH   1   8
TORSDOF 1
ENDMDL
