MODEL 1
REMARK minimizedAffinity 9.05665207
REMARK minimizedRMSD -1
REMARK  1 active torsions:
REMARK  status: ('A' for Active; 'I' for Inactive)
REMARK    1  A    between atoms: C1_2  and  C2_3 
ROOT
ATOM      1  C2  UNL d   1      -2.898  -3.112  -1.775  0.00  0.00    -0.081 A 
ATOM      2  C3  UNL d   1      -2.652  -4.480  -1.608  0.00  0.00     0.006 A 
ATOM      3  C4  UNL d   1      -3.657  -5.417  -1.861  0.00  0.00     0.002 A 
ATOM      4  C5  UNL d   1      -4.921  -5.002  -2.293  0.00  0.00    -0.080 A 
ATOM      5  C6  UNL d   1      -5.999  -5.999  -2.597  0.00  0.00     0.076 C 
ATOM      6  C7  UNL d   1      -5.173  -3.634  -2.443  0.00  0.00     0.002 A 
ATOM      7  C8  UNL d   1      -4.169  -2.697  -2.190  0.00  0.00     0.006 A 
ENDROOT
BRANCH   1   8
ATOM      8  C1  UNL d   1      -1.797  -2.104  -1.565  0.00  0.00     0.054 C 
ATOM      9  C   UNL d   1      -1.166  -2.252  -0.189  0.00  0.00     0.018 C 
ENDBRANCH   1   8
TORSDOF 1
ENDMDL
