MODEL 1
REMARK minimizedAffinity 1.03913224
REMARK minimizedRMSD -1
REMARK  1 active torsions:
REMARK  status: ('A' for Active; 'I' for Inactive)
REMARK    1  A    between atoms: C1_2  and  C2_3 
ROOT
ATOM      1  C2  UNL d   1       4.524   1.723   0.425  0.00  0.00    -0.081 A 
ATOM      2  C3  UNL d   1       4.537   0.430   0.963  0.00  0.00     0.006 A 
ATOM      3  C4  UNL d   1       3.373  -0.126   1.499  0.00  0.00     0.002 A 
ATOM      4  C5  UNL d   1       2.176   0.598   1.499  0.00  0.00    -0.080 A 
ATOM      5  C6  UNL d   1       0.912   0.002   2.043  0.00  0.00     0.076 C 
ATOM      6  C7  UNL d   1       2.167   1.896   0.977  0.00  0.00     0.002 A 
ATOM      7  C8  UNL d   1       3.330   2.453   0.442  0.00  0.00     0.006 A 
ENDROOT
BRANCH   1   8
ATOM      8  C1  UNL d   1       5.762   2.300  -0.212  0.00  0.00     0.054 C 
ATOM      9  C   UNL d   1       5.409   3.337  -1.269  0.00  0.00     0.018 C 
ENDBRANCH   1   8
TORSDOF 1
ENDMDL
