MODEL 1
REMARK minimizedAffinity 15.3478422
REMARK minimizedRMSD -1
REMARK  1 active torsions:
REMARK  status: ('A' for Active; 'I' for Inactive)
REMARK    1  A    between atoms: C1_2  and  C2_3 
ROOT
ATOM      1  C2  UNL d   1       2.788   0.461   2.081  0.00  0.00    -0.081 A 
ATOM      2  C3  UNL d   1       2.832   1.380   1.026  0.00  0.00     0.006 A 
ATOM      3  C4  UNL d   1       1.850   2.365   0.903  0.00  0.00     0.002 A 
ATOM      4  C5  UNL d   1       0.811   2.453   1.836  0.00  0.00    -0.080 A 
ATOM      5  C6  UNL d   1      -0.233   3.524   1.732  0.00  0.00     0.076 C 
ATOM      6  C7  UNL d   1       0.757   1.523   2.881  0.00  0.00     0.002 A 
ATOM      7  C8  UNL d   1       1.738   0.538   3.004  0.00  0.00     0.006 A 
ENDROOT
BRANCH   1   8
ATOM      8  C1  UNL d   1       3.881  -0.562   2.254  0.00  0.00     0.054 C 
ATOM      9  C   UNL d   1       4.216  -0.772   3.724  0.00  0.00     0.018 C 
ENDBRANCH   1   8
TORSDOF 1
ENDMDL
