MODEL 1
REMARK minimizedAffinity 10.9711075
REMARK minimizedRMSD -1
REMARK  1 active torsions:
REMARK  status: ('A' for Active; 'I' for Inactive)
REMARK    1  A    between atoms: C1_2  and  C2_3 
ROOT
ATOM      1  C2  UNL d   1      -2.598  -3.056  -2.957  0.00  0.00    -0.081 A 
ATOM      2  C3  UNL d   1      -1.776  -2.336  -3.832  0.00  0.00     0.006 A 
ATOM      3  C4  UNL d   1      -0.711  -2.964  -4.482  0.00  0.00     0.002 A 
ATOM      4  C5  UNL d   1      -0.456  -4.324  -4.276  0.00  0.00    -0.080 A 
ATOM      5  C6  UNL d   1       0.665  -5.018  -4.991  0.00  0.00     0.076 C 
ATOM      6  C7  UNL d   1      -1.267  -5.040  -3.389  0.00  0.00     0.002 A 
ATOM      7  C8  UNL d   1      -2.331  -4.412  -2.737  0.00  0.00     0.006 A 
ENDROOT
BRANCH   1   8
ATOM      8  C1  UNL d   1      -3.786  -2.397  -2.304  0.00  0.00     0.054 C 
ATOM      9  C   UNL d   1      -5.092  -2.873  -2.923  0.00  0.00     0.018 C 
ENDBRANCH   1   8
TORSDOF 1
ENDMDL
