MODEL 1
REMARK minimizedAffinity 17.6754341
REMARK minimizedRMSD -1
REMARK  1 active torsions:
REMARK  status: ('A' for Active; 'I' for Inactive)
REMARK    1  A    between atoms: C1_2  and  C2_3 
ROOT
ATOM      1  C2  UNL d   1       3.421   0.283   1.186  0.00  0.00    -0.081 A 
ATOM      2  C3  UNL d   1       3.474   1.536   0.564  0.00  0.00     0.006 A 
ATOM      3  C4  UNL d   1       2.410   2.434   0.688  0.00  0.00     0.002 A 
ATOM      4  C5  UNL d   1       1.282   2.097   1.442  0.00  0.00    -0.080 A 
ATOM      5  C6  UNL d   1       0.146   3.063   1.609  0.00  0.00     0.076 C 
ATOM      6  C7  UNL d   1       1.221   0.838   2.050  0.00  0.00     0.002 A 
ATOM      7  C8  UNL d   1       2.284  -0.060   1.925  0.00  0.00     0.006 A 
ENDROOT
BRANCH   1   8
ATOM      8  C1  UNL d   1       4.593  -0.661   1.108  0.00  0.00     0.054 C 
ATOM      9  C   UNL d   1       5.244  -0.850   2.471  0.00  0.00     0.018 C 
ENDBRANCH   1   8
TORSDOF 1
ENDMDL
