MODEL 1
REMARK minimizedAffinity 8.12495708
REMARK minimizedRMSD -1
REMARK  1 active torsions:
REMARK  status: ('A' for Active; 'I' for Inactive)
REMARK    1  A    between atoms: C1_2  and  C2_3 
ROOT
ATOM      1  C2  UNL d   1      -5.203  -4.923  -0.019  0.00  0.00    -0.081 A 
ATOM      2  C3  UNL d   1      -3.803  -4.900  -0.030  0.00  0.00     0.006 A 
ATOM      3  C4  UNL d   1      -3.116  -3.896  -0.717  0.00  0.00     0.002 A 
ATOM      4  C5  UNL d   1      -3.817  -2.894  -1.396  0.00  0.00    -0.080 A 
ATOM      5  C6  UNL d   1      -3.092  -1.793  -2.112  0.00  0.00     0.076 C 
ATOM      6  C7  UNL d   1      -5.215  -2.926  -1.400  0.00  0.00     0.002 A 
ATOM      7  C8  UNL d   1      -5.903  -3.930  -0.715  0.00  0.00     0.006 A 
ENDROOT
BRANCH   1   8
ATOM      8  C1  UNL d   1      -5.946  -5.967   0.774  0.00  0.00     0.054 C 
ATOM      9  C   UNL d   1      -5.983  -5.615   2.254  0.00  0.00     0.018 C 
ENDBRANCH   1   8
TORSDOF 1
ENDMDL
