MODEL 1
REMARK minimizedAffinity 1.86265421
REMARK minimizedRMSD -1
REMARK  1 active torsions:
REMARK  status: ('A' for Active; 'I' for Inactive)
REMARK    1  A    between atoms: C1_2  and  C2_3 
ROOT
ATOM      1  C2  UNL d   1      -1.781   0.504   2.448  0.00  0.00    -0.081 A 
ATOM      2  C3  UNL d   1      -0.705  -0.386   2.553  0.00  0.00     0.006 A 
ATOM      3  C4  UNL d   1       0.606   0.066   2.386  0.00  0.00     0.002 A 
ATOM      4  C5  UNL d   1       0.863   1.415   2.119  0.00  0.00    -0.080 A 
ATOM      5  C6  UNL d   1       2.268   1.919   1.967  0.00  0.00     0.076 C 
ATOM      6  C7  UNL d   1      -0.213   2.301   1.997  0.00  0.00     0.002 A 
ATOM      7  C8  UNL d   1      -1.524   1.849   2.164  0.00  0.00     0.006 A 
ENDROOT
BRANCH   1   8
ATOM      8  C1  UNL d   1      -3.192   0.032   2.692  0.00  0.00     0.054 C 
ATOM      9  C   UNL d   1      -4.001   1.074   3.452  0.00  0.00     0.018 C 
ENDBRANCH   1   8
TORSDOF 1
ENDMDL
