MODEL 1
REMARK minimizedAffinity 3.45949006
REMARK minimizedRMSD -1
REMARK  1 active torsions:
REMARK  status: ('A' for Active; 'I' for Inactive)
REMARK    1  A    between atoms: C1_2  and  C2_3 
ROOT
ATOM      1  C2  UNL d   1      -4.040  -2.802  -3.546  0.00  0.00    -0.081 A 
ATOM      2  C3  UNL d   1      -3.568  -3.456  -2.401  0.00  0.00     0.006 A 
ATOM      3  C4  UNL d   1      -4.191  -3.261  -1.166  0.00  0.00     0.002 A 
ATOM      4  C5  UNL d   1      -5.300  -2.416  -1.056  0.00  0.00    -0.080 A 
ATOM      5  C6  UNL d   1      -5.996  -2.221   0.258  0.00  0.00     0.076 C 
ATOM      6  C7  UNL d   1      -5.761  -1.748  -2.196  0.00  0.00     0.002 A 
ATOM      7  C8  UNL d   1      -5.138  -1.942  -3.431  0.00  0.00     0.006 A 
ENDROOT
BRANCH   1   8
ATOM      8  C1  UNL d   1      -3.410  -3.060  -4.891  0.00  0.00     0.054 C 
ATOM      9  C   UNL d   1      -4.384  -3.752  -5.834  0.00  0.00     0.018 C 
ENDBRANCH   1   8
TORSDOF 1
ENDMDL
