MODEL 1
REMARK minimizedAffinity -1.00865269
REMARK minimizedRMSD -1
REMARK  1 active torsions:
REMARK  status: ('A' for Active; 'I' for Inactive)
REMARK    1  A    between atoms: C1_2  and  C2_3 
ROOT
ATOM      1  C2  UNL d   1       4.779   3.867   3.780  0.00  0.00    -0.073 A 
ATOM      2  C3  UNL d   1       3.694   3.188   4.345  0.00  0.00    -0.002 A 
ATOM      3  C4  UNL d   1       2.699   2.647   3.530  0.00  0.00     0.004 A 
ATOM      4  C5  UNL d   1       2.782   2.773   2.143  0.00  0.00    -0.004 A 
ATOM      5  C6  UNL d   1       3.866   3.437   1.559  0.00  0.00    -0.075 A 
ATOM      6  C7  UNL d   1       3.969   3.583   0.069  0.00  0.00     0.076 C 
ATOM      7  C8  UNL d   1       4.859   3.980   2.385  0.00  0.00     0.001 A 
ENDROOT
BRANCH   1   8
ATOM      8  C1  UNL d   1       5.859   4.447   4.657  0.00  0.00     0.053 C 
ATOM      9  C   UNL d   1       5.975   5.955   4.496  0.00  0.00     0.018 C 
ENDBRANCH   1   8
TORSDOF 1
ENDMDL
