MODEL 1
REMARK minimizedAffinity -5.38004351
REMARK minimizedRMSD -1
REMARK  1 active torsions:
REMARK  status: ('A' for Active; 'I' for Inactive)
REMARK    1  A    between atoms: C1_2  and  C2_3 
ROOT
ATOM      1  C2  UNL d   1      -1.170  -0.683  -0.407  0.00  0.00    -0.073 A 
ATOM      2  C3  UNL d   1      -0.141  -0.044  -1.107  0.00  0.00    -0.002 A 
ATOM      3  C4  UNL d   1       1.171  -0.095  -0.634  0.00  0.00     0.004 A 
ATOM      4  C5  UNL d   1       1.468  -0.790   0.538  0.00  0.00    -0.004 A 
ATOM      5  C6  UNL d   1       0.455  -1.445   1.246  0.00  0.00    -0.075 A 
ATOM      6  C7  UNL d   1       0.757  -2.195   2.509  0.00  0.00     0.076 C 
ATOM      7  C8  UNL d   1      -0.861  -1.387   0.765  0.00  0.00     0.001 A 
ENDROOT
BRANCH   1   8
ATOM      8  C1  UNL d   1      -2.587  -0.636  -0.918  0.00  0.00     0.053 C 
ATOM      9  C   UNL d   1      -3.413  -1.811  -0.417  0.00  0.00     0.018 C 
ENDBRANCH   1   8
TORSDOF 1
ENDMDL
