MODEL 1
REMARK minimizedAffinity 8.50907516
REMARK minimizedRMSD -1
REMARK  1 active torsions:
REMARK  status: ('A' for Active; 'I' for Inactive)
REMARK    1  A    between atoms: C1_2  and  C2_3 
ROOT
ATOM      1  C2  UNL d   1      -1.821   0.751  -2.273  0.00  0.00    -0.073 A 
ATOM      2  C3  UNL d   1      -0.919  -0.319  -2.282  0.00  0.00    -0.002 A 
ATOM      3  C4  UNL d   1      -1.209  -1.492  -1.584  0.00  0.00     0.004 A 
ATOM      4  C5  UNL d   1      -2.405  -1.610  -0.876  0.00  0.00    -0.004 A 
ATOM      5  C6  UNL d   1      -3.325  -0.557  -0.864  0.00  0.00    -0.075 A 
ATOM      6  C7  UNL d   1      -4.615  -0.667  -0.106  0.00  0.00     0.076 C 
ATOM      7  C8  UNL d   1      -3.025   0.619  -1.566  0.00  0.00     0.001 A 
ENDROOT
BRANCH   1   8
ATOM      8  C1  UNL d   1      -1.515   2.017  -3.030  0.00  0.00     0.053 C 
ATOM      9  C   UNL d   1      -2.692   2.472  -3.878  0.00  0.00     0.018 C 
ENDBRANCH   1   8
TORSDOF 1
ENDMDL
