MODEL 1
REMARK minimizedAffinity 6.43593931
REMARK minimizedRMSD -1
REMARK  1 active torsions:
REMARK  status: ('A' for Active; 'I' for Inactive)
REMARK    1  A    between atoms: C1_2  and  C2_3 
ROOT
ATOM      1  C2  UNL d   1      -2.957  -1.595   4.242  0.00  0.00    -0.073 A 
ATOM      2  C3  UNL d   1      -2.943  -0.201   4.374  0.00  0.00    -0.002 A 
ATOM      3  C4  UNL d   1      -1.910   0.550   3.812  0.00  0.00     0.004 A 
ATOM      4  C5  UNL d   1      -0.885  -0.083   3.109  0.00  0.00    -0.004 A 
ATOM      5  C6  UNL d   1      -0.887  -1.473   2.956  0.00  0.00    -0.075 A 
ATOM      6  C7  UNL d   1       0.209  -2.169   2.205  0.00  0.00     0.076 C 
ATOM      7  C8  UNL d   1      -1.927  -2.220   3.526  0.00  0.00     0.001 A 
ENDROOT
BRANCH   1   8
ATOM      8  C1  UNL d   1      -4.074  -2.409   4.842  0.00  0.00     0.053 C 
ATOM      9  C   UNL d   1      -3.570  -3.378   5.899  0.00  0.00     0.018 C 
ENDBRANCH   1   8
TORSDOF 1
ENDMDL
