MODEL 1
REMARK minimizedAffinity -6.46734047
REMARK minimizedRMSD -1
REMARK  1 active torsions:
REMARK  status: ('A' for Active; 'I' for Inactive)
REMARK    1  A    between atoms: C1_2  and  C2_3 
ROOT
ATOM      1  C2  UNL d   1       0.418   0.082   0.731  0.00  0.00    -0.073 A 
ATOM      2  C3  UNL d   1       0.803   0.485  -0.552  0.00  0.00    -0.002 A 
ATOM      3  C4  UNL d   1      -0.116   0.471  -1.602  0.00  0.00     0.004 A 
ATOM      4  C5  UNL d   1      -1.431   0.060  -1.378  0.00  0.00    -0.004 A 
ATOM      5  C6  UNL d   1      -1.838  -0.335  -0.100  0.00  0.00    -0.075 A 
ATOM      6  C7  UNL d   1      -3.247  -0.782   0.157  0.00  0.00     0.076 C 
ATOM      7  C8  UNL d   1      -0.908  -0.321   0.948  0.00  0.00     0.001 A 
ENDROOT
BRANCH   1   8
ATOM      8  C1  UNL d   1       1.405   0.101   1.869  0.00  0.00     0.053 C 
ATOM      9  C   UNL d   1       1.883   1.510   2.184  0.00  0.00     0.018 C 
ENDBRANCH   1   8
TORSDOF 1
ENDMDL
