MODEL 1
REMARK minimizedAffinity 6.32995176
REMARK minimizedRMSD -1
REMARK  1 active torsions:
REMARK  status: ('A' for Active; 'I' for Inactive)
REMARK    1  A    between atoms: C1_2  and  C2_3 
ROOT
ATOM      1  C2  UNL d   1      -1.054  -0.283  -0.184  0.00  0.00    -0.073 A 
ATOM      2  C3  UNL d   1       0.238  -0.593   0.255  0.00  0.00    -0.002 A 
ATOM      3  C4  UNL d   1       1.323  -0.489  -0.617  0.00  0.00     0.004 A 
ATOM      4  C5  UNL d   1       1.128  -0.068  -1.932  0.00  0.00    -0.004 A 
ATOM      5  C6  UNL d   1      -0.154   0.258  -2.387  0.00  0.00    -0.075 A 
ATOM      6  C7  UNL d   1      -0.380   0.710  -3.799  0.00  0.00     0.076 C 
ATOM      7  C8  UNL d   1      -1.238   0.148  -1.506  0.00  0.00     0.001 A 
ENDROOT
BRANCH   1   8
ATOM      8  C1  UNL d   1      -2.227  -0.387   0.755  0.00  0.00     0.053 C 
ATOM      9  C   UNL d   1      -1.836  -0.083   2.193  0.00  0.00     0.018 C 
ENDBRANCH   1   8
TORSDOF 1
ENDMDL
