MODEL 1
REMARK minimizedAffinity 6.01898575
REMARK minimizedRMSD -1
REMARK  1 active torsions:
REMARK  status: ('A' for Active; 'I' for Inactive)
REMARK    1  A    between atoms: C1_2  and  C2_3 
ROOT
ATOM      1  C2  UNL d   1      -5.514   5.408   1.100  0.00  0.00    -0.073 A 
ATOM      2  C3  UNL d   1      -5.944   5.997  -0.094  0.00  0.00    -0.002 A 
ATOM      3  C4  UNL d   1      -5.585   5.443  -1.324  0.00  0.00     0.004 A 
ATOM      4  C5  UNL d   1      -4.798   4.293  -1.372  0.00  0.00    -0.004 A 
ATOM      5  C6  UNL d   1      -4.368   3.682  -0.189  0.00  0.00    -0.075 A 
ATOM      6  C7  UNL d   1      -3.519   2.445  -0.223  0.00  0.00     0.076 C 
ATOM      7  C8  UNL d   1      -4.731   4.246   1.042  0.00  0.00     0.001 A 
ENDROOT
BRANCH   1   8
ATOM      8  C1  UNL d   1      -5.905   5.999   2.430  0.00  0.00     0.053 C 
ATOM      9  C   UNL d   1      -4.748   5.999   3.416  0.00  0.00     0.018 C 
ENDBRANCH   1   8
TORSDOF 1
ENDMDL
