MODEL 1
REMARK minimizedAffinity 5.90581656
REMARK minimizedRMSD -1
REMARK  1 active torsions:
REMARK  status: ('A' for Active; 'I' for Inactive)
REMARK    1  A    between atoms: C1_2  and  C2_3 
ROOT
ATOM      1  C2  UNL d   1      -3.996   3.182   4.985  0.00  0.00    -0.073 A 
ATOM      2  C3  UNL d   1      -4.911   3.490   5.998  0.00  0.00    -0.002 A 
ATOM      3  C4  UNL d   1      -5.895   4.458   5.789  0.00  0.00     0.004 A 
ATOM      4  C5  UNL d   1      -5.978   5.121   4.565  0.00  0.00    -0.004 A 
ATOM      5  C6  UNL d   1      -5.080   4.819   3.536  0.00  0.00    -0.075 A 
ATOM      6  C7  UNL d   1      -5.156   5.525   2.214  0.00  0.00     0.076 C 
ATOM      7  C8  UNL d   1      -4.094   3.848   3.755  0.00  0.00     0.001 A 
ENDROOT
BRANCH   1   8
ATOM      8  C1  UNL d   1      -2.936   2.134   5.203  0.00  0.00     0.053 C 
ATOM      9  C   UNL d   1      -3.530   0.809   5.655  0.00  0.00     0.018 C 
ENDBRANCH   1   8
TORSDOF 1
ENDMDL
