MODEL 1
REMARK minimizedAffinity -2.23563337
REMARK minimizedRMSD -1
REMARK  1 active torsions:
REMARK  status: ('A' for Active; 'I' for Inactive)
REMARK    1  A    between atoms: C1_2  and  C2_3 
ROOT
ATOM      1  C2  UNL d   1      -0.144  -1.547   0.641  0.00  0.00    -0.073 A 
ATOM      2  C3  UNL d   1      -1.119  -2.550   0.589  0.00  0.00    -0.002 A 
ATOM      3  C4  UNL d   1      -2.012  -2.611  -0.482  0.00  0.00     0.004 A 
ATOM      4  C5  UNL d   1      -1.934  -1.677  -1.514  0.00  0.00    -0.004 A 
ATOM      5  C6  UNL d   1      -0.959  -0.675  -1.487  0.00  0.00    -0.075 A 
ATOM      6  C7  UNL d   1      -0.863   0.339  -2.589  0.00  0.00     0.076 C 
ATOM      7  C8  UNL d   1      -0.068  -0.618  -0.407  0.00  0.00     0.001 A 
ENDROOT
BRANCH   1   8
ATOM      8  C1  UNL d   1       0.826  -1.481   1.792  0.00  0.00     0.053 C 
ATOM      9  C   UNL d   1       0.244  -0.740   2.985  0.00  0.00     0.018 C 
ENDBRANCH   1   8
TORSDOF 1
ENDMDL
