MODEL 1
REMARK minimizedAffinity -5.22181034
REMARK minimizedRMSD -1
REMARK  1 active torsions:
REMARK  status: ('A' for Active; 'I' for Inactive)
REMARK    1  A    between atoms: C1_2  and  C2_3 
ROOT
ATOM      1  C2  UNL d   1       1.531   0.976   1.810  0.00  0.00    -0.073 A 
ATOM      2  C3  UNL d   1       1.605   1.012   0.413  0.00  0.00    -0.002 A 
ATOM      3  C4  UNL d   1       0.933   0.059  -0.354  0.00  0.00     0.004 A 
ATOM      4  C5  UNL d   1       0.175  -0.934   0.267  0.00  0.00    -0.004 A 
ATOM      5  C6  UNL d   1       0.079  -0.979   1.662  0.00  0.00    -0.075 A 
ATOM      6  C7  UNL d   1      -0.730  -2.042   2.345  0.00  0.00     0.076 C 
ATOM      7  C8  UNL d   1       0.759  -0.021   2.425  0.00  0.00     0.001 A 
ENDROOT
BRANCH   1   8
ATOM      8  C1  UNL d   1       2.249   2.007   2.642  0.00  0.00     0.053 C 
ATOM      9  C   UNL d   1       2.847   3.113   1.787  0.00  0.00     0.018 C 
ENDBRANCH   1   8
TORSDOF 1
ENDMDL
