MODEL 1
REMARK minimizedAffinity -0.772728324
REMARK minimizedRMSD -1
REMARK  1 active torsions:
REMARK  status: ('A' for Active; 'I' for Inactive)
REMARK    1  A    between atoms: C1_2  and  C2_3 
ROOT
ATOM      1  C2  UNL d   1       1.996   1.233   1.212  0.00  0.00    -0.073 A 
ATOM      2  C3  UNL d   1       2.192  -0.040   0.666  0.00  0.00    -0.002 A 
ATOM      3  C4  UNL d   1       1.346  -1.094   1.012  0.00  0.00     0.004 A 
ATOM      4  C5  UNL d   1       0.292  -0.885   1.902  0.00  0.00    -0.004 A 
ATOM      5  C6  UNL d   1       0.073   0.383   2.450  0.00  0.00    -0.075 A 
ATOM      6  C7  UNL d   1      -1.055   0.624   3.410  0.00  0.00     0.076 C 
ATOM      7  C8  UNL d   1       0.928   1.436   2.099  0.00  0.00     0.001 A 
ENDROOT
BRANCH   1   8
ATOM      8  C1  UNL d   1       2.903   2.376   0.836  0.00  0.00     0.053 C 
ATOM      9  C   UNL d   1       3.199   2.402  -0.655  0.00  0.00     0.018 C 
ENDBRANCH   1   8
TORSDOF 1
ENDMDL
