MODEL 1
REMARK minimizedAffinity -0.24289161
REMARK minimizedRMSD -1
REMARK  0 active torsions:
REMARK  status: ('A' for Active; 'I' for Inactive)
ROOT
ATOM      1  C4' PXY d   1       2.589  -0.735  -1.051  0.00  0.00     0.077 C 
ATOM      2  C1' PXY d   1      -2.779  -0.679   1.092  0.00  0.00     0.077 C 
ATOM      3  C1  PXY d   1      -1.367  -0.690   0.542  0.00  0.00    -0.082 A 
ATOM      4  C2  PXY d   1      -1.170  -0.537  -0.758  0.00  0.00     0.003 A 
ATOM      5  C3  PXY d   1       0.099  -0.577  -1.276  0.00  0.00     0.003 A 
ATOM      6  C4  PXY d   1       1.181  -0.721  -0.450  0.00  0.00    -0.082 A 
ATOM      7  C5  PXY d   1       0.989  -0.867   0.879  0.00  0.00     0.003 A 
ATOM      8  C6  PXY d   1      -0.309  -0.865   1.380  0.00  0.00     0.003 A 
ENDROOT
TORSDOF 0
ENDMDL
