MODEL 1
REMARK minimizedAffinity 2.99577451
REMARK minimizedRMSD -1
REMARK  0 active torsions:
REMARK  status: ('A' for Active; 'I' for Inactive)
ROOT
ATOM      1  C4' PXY d   1      -1.424   0.885   1.189  0.00  0.00     0.077 C 
ATOM      2  C1' PXY d   1       1.441  -4.004   2.329  0.00  0.00     0.077 C 
ATOM      3  C1  PXY d   1       0.700  -2.717   2.024  0.00  0.00    -0.082 A 
ATOM      4  C2  PXY d   1      -0.293  -2.332   2.809  0.00  0.00     0.003 A 
ATOM      5  C3  PXY d   1      -0.994  -1.188   2.529  0.00  0.00     0.003 A 
ATOM      6  C4  PXY d   1      -0.642  -0.402   1.464  0.00  0.00    -0.082 A 
ATOM      7  C5  PXY d   1       0.377  -0.783   0.665  0.00  0.00     0.003 A 
ATOM      8  C6  PXY d   1       1.050  -1.969   0.942  0.00  0.00     0.003 A 
ENDROOT
TORSDOF 0
ENDMDL
