MODEL 1
REMARK minimizedAffinity 4.06612492
REMARK minimizedRMSD -1
REMARK  0 active torsions:
REMARK  status: ('A' for Active; 'I' for Inactive)
ROOT
ATOM      1  C4' PXY d   1       1.753  -3.792   1.871  0.00  0.00     0.077 C 
ATOM      2  C1' PXY d   1      -1.804   0.740   1.401  0.00  0.00     0.077 C 
ATOM      3  C1  PXY d   1      -0.873  -0.448   1.537  0.00  0.00    -0.082 A 
ATOM      4  C2  PXY d   1       0.001  -0.707   0.578  0.00  0.00     0.003 A 
ATOM      5  C3  PXY d   1       0.829  -1.797   0.671  0.00  0.00     0.003 A 
ATOM      6  C4  PXY d   1       0.799  -2.598   1.780  0.00  0.00    -0.082 A 
ATOM      7  C5  PXY d   1      -0.082  -2.333   2.768  0.00  0.00     0.003 A 
ATOM      8  C6  PXY d   1      -0.942  -1.247   2.636  0.00  0.00     0.003 A 
ENDROOT
TORSDOF 0
ENDMDL
