MODEL 1
REMARK minimizedAffinity 6.55071354
REMARK minimizedRMSD -1
REMARK  0 active torsions:
REMARK  status: ('A' for Active; 'I' for Inactive)
ROOT
ATOM      1  C4' PXY d   1       0.984  -3.508   2.230  0.00  0.00     0.077 C 
ATOM      2  C1' PXY d   1      -2.053   1.406   2.031  0.00  0.00     0.077 C 
ATOM      3  C1  PXY d   1      -1.258   0.118   2.096  0.00  0.00    -0.082 A 
ATOM      4  C2  PXY d   1      -0.451  -0.204   1.098  0.00  0.00     0.003 A 
ATOM      5  C3  PXY d   1       0.251  -1.381   1.126  0.00  0.00     0.003 A 
ATOM      6  C4  PXY d   1       0.169  -2.212   2.211  0.00  0.00    -0.082 A 
ATOM      7  C5  PXY d   1      -0.643  -1.885   3.239  0.00  0.00     0.003 A 
ATOM      8  C6  PXY d   1      -1.380  -0.706   3.173  0.00  0.00     0.003 A 
ENDROOT
TORSDOF 0
ENDMDL
