MODEL 1
REMARK minimizedAffinity -4.02849054
REMARK minimizedRMSD -1
REMARK  0 active torsions:
REMARK  status: ('A' for Active; 'I' for Inactive)
ROOT
ATOM      1  C4' PXY d   1       5.999   5.569   1.090  0.00  0.00     0.077 C 
ATOM      2  C1' PXY d   1       2.949   5.685   5.999  0.00  0.00     0.077 C 
ATOM      3  C1  PXY d   1       3.758   5.663   4.717  0.00  0.00    -0.082 A 
ATOM      4  C2  PXY d   1       3.176   5.308   3.583  0.00  0.00     0.003 A 
ATOM      5  C3  PXY d   1       3.899   5.252   2.419  0.00  0.00     0.003 A 
ATOM      6  C4  PXY d   1       5.220   5.614   2.407  0.00  0.00    -0.082 A 
ATOM      7  C5  PXY d   1       5.818   5.988   3.558  0.00  0.00     0.003 A 
ATOM      8  C6  PXY d   1       5.076   5.999   4.735  0.00  0.00     0.003 A 
ENDROOT
TORSDOF 0
ENDMDL
