MODEL 1
REMARK minimizedAffinity -2.65317655
REMARK minimizedRMSD -1
REMARK  0 active torsions:
REMARK  status: ('A' for Active; 'I' for Inactive)
ROOT
ATOM      1  C4' PXY d   1       1.537  -4.295   1.574  0.00  0.00     0.077 C 
ATOM      2  C1' PXY d   1      -0.644   0.994   0.746  0.00  0.00     0.077 C 
ATOM      3  C1  PXY d   1      -0.074  -0.392   0.976  0.00  0.00    -0.082 A 
ATOM      4  C2  PXY d   1       0.740  -0.922   0.077  0.00  0.00     0.003 A 
ATOM      5  C3  PXY d   1       1.239  -2.186   0.254  0.00  0.00     0.003 A 
ATOM      6  C4  PXY d   1       0.945  -2.895   1.388  0.00  0.00    -0.082 A 
ATOM      7  C5  PXY d   1       0.124  -2.357   2.315  0.00  0.00     0.003 A 
ATOM      8  C6  PXY d   1      -0.405  -1.089   2.097  0.00  0.00     0.003 A 
ENDROOT
TORSDOF 0
ENDMDL
