MODEL 1
REMARK minimizedAffinity -2.71532488
REMARK minimizedRMSD -1
REMARK  0 active torsions:
REMARK  status: ('A' for Active; 'I' for Inactive)
ROOT
ATOM      1  C4' PXY d   1      -1.833   0.341   0.665  0.00  0.00     0.077 C 
ATOM      2  C1' PXY d   1       2.009  -3.676   2.253  0.00  0.00     0.077 C 
ATOM      3  C1  PXY d   1       1.010  -2.618   1.828  0.00  0.00    -0.082 A 
ATOM      4  C2  PXY d   1       0.062  -2.237   2.669  0.00  0.00     0.003 A 
ATOM      5  C3  PXY d   1      -0.869  -1.305   2.289  0.00  0.00     0.003 A 
ATOM      6  C4  PXY d   1      -0.797  -0.717   1.055  0.00  0.00    -0.082 A 
ATOM      7  C5  PXY d   1       0.174  -1.092   0.195  0.00  0.00     0.003 A 
ATOM      8  C6  PXY d   1       1.084  -2.070   0.584  0.00  0.00     0.003 A 
ENDROOT
TORSDOF 0
ENDMDL
