MODEL 1
REMARK minimizedAffinity -3.30821085
REMARK minimizedRMSD -1
REMARK  0 active torsions:
REMARK  status: ('A' for Active; 'I' for Inactive)
ROOT
ATOM      1  C4' PXY d   1       1.996  -3.740   1.537  0.00  0.00     0.077 C 
ATOM      2  C1' PXY d   1      -2.083   0.351   1.738  0.00  0.00     0.077 C 
ATOM      3  C1  PXY d   1      -1.016  -0.724   1.672  0.00  0.00    -0.082 A 
ATOM      4  C2  PXY d   1      -0.661  -1.361   2.776  0.00  0.00     0.003 A 
ATOM      5  C3  PXY d   1       0.325  -2.314   2.741  0.00  0.00     0.003 A 
ATOM      6  C4  PXY d   1       0.916  -2.655   1.554  0.00  0.00    -0.082 A 
ATOM      7  C5  PXY d   1       0.552  -2.016   0.422  0.00  0.00     0.003 A 
ATOM      8  C6  PXY d   1      -0.421  -1.024   0.486  0.00  0.00     0.003 A 
ENDROOT
TORSDOF 0
ENDMDL
