MODEL 1
REMARK minimizedAffinity 2.08797264
REMARK minimizedRMSD -1
REMARK  0 active torsions:
REMARK  status: ('A' for Active; 'I' for Inactive)
ROOT
ATOM      1  C4' PXY d   1       2.315   0.369   0.453  0.00  0.00     0.077 C 
ATOM      2  C1' PXY d   1      -3.178  -0.699   1.901  0.00  0.00     0.077 C 
ATOM      3  C1  PXY d   1      -1.741  -0.419   1.509  0.00  0.00    -0.082 A 
ATOM      4  C2  PXY d   1      -0.760  -0.767   2.326  0.00  0.00     0.003 A 
ATOM      5  C3  PXY d   1       0.543  -0.492   2.001  0.00  0.00     0.003 A 
ATOM      6  C4  PXY d   1       0.850   0.097   0.804  0.00  0.00    -0.082 A 
ATOM      7  C5  PXY d   1      -0.145   0.445  -0.040  0.00  0.00     0.003 A 
ATOM      8  C6  PXY d   1      -1.464   0.195   0.327  0.00  0.00     0.003 A 
ENDROOT
TORSDOF 0
ENDMDL
