MODEL 1
REMARK minimizedAffinity -1.95936453
REMARK minimizedRMSD -1
REMARK  0 active torsions:
REMARK  status: ('A' for Active; 'I' for Inactive)
ROOT
ATOM      1  C4' PXY d   1       1.925  -4.556   1.667  0.00  0.00     0.077 C 
ATOM      2  C1' PXY d   1      -1.893  -0.260   2.287  0.00  0.00     0.077 C 
ATOM      3  C1  PXY d   1      -0.892  -1.388   2.138  0.00  0.00    -0.082 A 
ATOM      4  C2  PXY d   1      -0.131  -1.449   1.056  0.00  0.00     0.003 A 
ATOM      5  C3  PXY d   1       0.757  -2.480   0.890  0.00  0.00     0.003 A 
ATOM      6  C4  PXY d   1       0.906  -3.430   1.865  0.00  0.00    -0.082 A 
ATOM      7  C5  PXY d   1       0.142  -3.369   2.976  0.00  0.00     0.003 A 
ATOM      8  C6  PXY d   1      -0.783  -2.337   3.107  0.00  0.00     0.003 A 
ENDROOT
TORSDOF 0
ENDMDL
