MODEL 1
REMARK minimizedAffinity 1.38794994
REMARK minimizedRMSD -1
REMARK  0 active torsions:
REMARK  status: ('A' for Active; 'I' for Inactive)
ROOT
ATOM      1  C4' PXY d   1      -4.859  -0.472   1.408  0.00  0.00     0.077 C 
ATOM      2  C1' PXY d   1       0.861  -0.574   0.575  0.00  0.00     0.077 C 
ATOM      3  C1  PXY d   1      -0.641  -0.541   0.782  0.00  0.00    -0.082 A 
ATOM      4  C2  PXY d   1      -1.133  -0.596   2.009  0.00  0.00     0.003 A 
ATOM      5  C3  PXY d   1      -2.489  -0.600   2.212  0.00  0.00     0.003 A 
ATOM      6  C4  PXY d   1      -3.349  -0.493   1.152  0.00  0.00    -0.082 A 
ATOM      7  C5  PXY d   1      -2.854  -0.425  -0.102  0.00  0.00     0.003 A 
ATOM      8  C6  PXY d   1      -1.476  -0.464  -0.290  0.00  0.00     0.003 A 
ENDROOT
TORSDOF 0
ENDMDL
