MODEL 1
REMARK minimizedAffinity 0.511508048
REMARK minimizedRMSD -1
REMARK  0 active torsions:
REMARK  status: ('A' for Active; 'I' for Inactive)
ROOT
ATOM      1  C   UNL d   1       3.784  -4.695  -5.993  0.00  0.00     0.172 C 
ATOM      2  N   UNL d   1       3.865  -3.403  -5.352  0.00  0.00    -0.070 N 
ATOM      3  C1  UNL d   1       3.688  -3.163  -4.016  0.00  0.00    -0.004 A 
ATOM      4  C2  UNL d   1       3.846  -1.810  -3.806  0.00  0.00    -0.047 A 
ATOM      5  C3  UNL d   1       4.126  -1.217  -5.060  0.00  0.00    -0.047 A 
ATOM      6  C4  UNL d   1       4.132  -2.226  -6.000  0.00  0.00    -0.004 A 
ENDROOT
TORSDOF 0
ENDMDL
