MODEL 1
REMARK minimizedAffinity -3.01550603
REMARK minimizedRMSD -1
REMARK  0 active torsions:
REMARK  status: ('A' for Active; 'I' for Inactive)
ROOT
ATOM      1  C   UNL d   1      -0.112   2.010   0.152  0.00  0.00     0.172 C 
ATOM      2  N   UNL d   1       0.805   1.030   0.686  0.00  0.00    -0.070 N 
ATOM      3  C1  UNL d   1       0.484  -0.251   1.048  0.00  0.00    -0.004 A 
ATOM      4  C2  UNL d   1       1.631  -0.861   1.507  0.00  0.00    -0.047 A 
ATOM      5  C3  UNL d   1       2.679   0.087   1.417  0.00  0.00    -0.047 A 
ATOM      6  C4  UNL d   1       2.140   1.248   0.906  0.00  0.00    -0.004 A 
ENDROOT
TORSDOF 0
ENDMDL
