MODEL 1
REMARK minimizedAffinity 6.03580713
REMARK minimizedRMSD -1
REMARK  0 active torsions:
REMARK  status: ('A' for Active; 'I' for Inactive)
ROOT
ATOM      1  C   UNL d   1      -2.399  -1.117  -3.336  0.00  0.00     0.172 C 
ATOM      2  N   UNL d   1      -3.031   0.129  -3.699  0.00  0.00    -0.070 N 
ATOM      3  C1  UNL d   1      -3.120   1.241  -2.904  0.00  0.00    -0.004 A 
ATOM      4  C2  UNL d   1      -3.793   2.213  -3.612  0.00  0.00    -0.047 A 
ATOM      5  C3  UNL d   1      -4.121   1.667  -4.875  0.00  0.00    -0.047 A 
ATOM      6  C4  UNL d   1      -3.638   0.376  -4.903  0.00  0.00    -0.004 A 
ENDROOT
TORSDOF 0
ENDMDL
