MODEL 1
REMARK minimizedAffinity 1.13410437
REMARK minimizedRMSD -1
REMARK  0 active torsions:
REMARK  status: ('A' for Active; 'I' for Inactive)
ROOT
ATOM      1  C   UNL d   1       1.504   2.608  -0.614  0.00  0.00     0.172 C 
ATOM      2  N   UNL d   1       1.974   1.437   0.088  0.00  0.00    -0.070 N 
ATOM      3  C1  UNL d   1       3.285   1.123   0.329  0.00  0.00    -0.004 A 
ATOM      4  C2  UNL d   1       3.313  -0.068   1.023  0.00  0.00    -0.047 A 
ATOM      5  C3  UNL d   1       1.973  -0.485   1.203  0.00  0.00    -0.047 A 
ATOM      6  C4  UNL d   1       1.164   0.465   0.615  0.00  0.00    -0.004 A 
ENDROOT
TORSDOF 0
ENDMDL
