MODEL 1
REMARK minimizedAffinity 0.229996011
REMARK minimizedRMSD -1
REMARK  0 active torsions:
REMARK  status: ('A' for Active; 'I' for Inactive)
ROOT
ATOM      1  C   UNL d   1      -2.257  -2.475  -2.682  0.00  0.00     0.172 C 
ATOM      2  N   UNL d   1      -2.724  -1.143  -2.986  0.00  0.00    -0.070 N 
ATOM      3  C1  UNL d   1      -3.202  -0.722  -4.198  0.00  0.00    -0.004 A 
ATOM      4  C2  UNL d   1      -3.543   0.608  -4.078  0.00  0.00    -0.047 A 
ATOM      5  C3  UNL d   1      -3.259   1.000  -2.748  0.00  0.00    -0.047 A 
ATOM      6  C4  UNL d   1      -2.753  -0.104  -2.094  0.00  0.00    -0.004 A 
ENDROOT
TORSDOF 0
ENDMDL
