MODEL 1
REMARK minimizedAffinity 4.31865883
REMARK minimizedRMSD -1
REMARK  0 active torsions:
REMARK  status: ('A' for Active; 'I' for Inactive)
ROOT
ATOM      1  C   UNL d   1       5.759  -1.907  -5.999  0.00  0.00     0.172 C 
ATOM      2  N   UNL d   1       5.254  -0.610  -5.613  0.00  0.00    -0.070 N 
ATOM      3  C1  UNL d   1       4.167  -0.383  -4.812  0.00  0.00    -0.004 A 
ATOM      4  C2  UNL d   1       4.015   0.981  -4.684  0.00  0.00    -0.047 A 
ATOM      5  C3  UNL d   1       5.045   1.594  -5.435  0.00  0.00    -0.047 A 
ATOM      6  C4  UNL d   1       5.798   0.586  -6.000  0.00  0.00    -0.004 A 
ENDROOT
TORSDOF 0
ENDMDL
