MODEL 1
REMARK minimizedAffinity 1.26672411
REMARK minimizedRMSD -1
REMARK  0 active torsions:
REMARK  status: ('A' for Active; 'I' for Inactive)
ROOT
ATOM      1  C   UNL d   1       1.600  -2.198   3.975  0.00  0.00     0.172 C 
ATOM      2  N   UNL d   1       1.925  -3.480   4.555  0.00  0.00    -0.070 N 
ATOM      3  C1  UNL d   1       2.890  -4.339   4.103  0.00  0.00    -0.004 A 
ATOM      4  C2  UNL d   1       2.888  -5.447   4.922  0.00  0.00    -0.047 A 
ATOM      5  C3  UNL d   1       1.885  -5.247   5.901  0.00  0.00    -0.047 A 
ATOM      6  C4  UNL d   1       1.304  -4.022   5.650  0.00  0.00    -0.004 A 
ENDROOT
TORSDOF 0
ENDMDL
