MODEL 1
REMARK minimizedAffinity -2.30072904
REMARK minimizedRMSD -1
REMARK  0 active torsions:
REMARK  status: ('A' for Active; 'I' for Inactive)
ROOT
ATOM      1  C   UNL d   1       4.282  -4.326  -5.933  0.00  0.00     0.172 C 
ATOM      2  N   UNL d   1       4.700  -2.944  -5.908  0.00  0.00    -0.070 N 
ATOM      3  C1  UNL d   1       3.870  -1.861  -5.792  0.00  0.00    -0.004 A 
ATOM      4  C2  UNL d   1       4.653  -0.726  -5.808  0.00  0.00    -0.047 A 
ATOM      5  C3  UNL d   1       5.999  -1.142  -5.938  0.00  0.00    -0.047 A 
ATOM      6  C4  UNL d   1       5.999  -2.520  -5.998  0.00  0.00    -0.004 A 
ENDROOT
TORSDOF 0
ENDMDL
