MODEL 1
REMARK minimizedAffinity -2.23775578
REMARK minimizedRMSD -1
REMARK  0 active torsions:
REMARK  status: ('A' for Active; 'I' for Inactive)
ROOT
ATOM      1  C   UNL d   1       2.464  -0.400   3.424  0.00  0.00     0.172 C 
ATOM      2  N   UNL d   1       1.889   0.167   2.226  0.00  0.00    -0.070 N 
ATOM      3  C1  UNL d   1       2.401   1.220   1.516  0.00  0.00    -0.004 A 
ATOM      4  C2  UNL d   1       1.564   1.454   0.446  0.00  0.00    -0.047 A 
ATOM      5  C3  UNL d   1       0.512   0.510   0.517  0.00  0.00    -0.047 A 
ATOM      6  C4  UNL d   1       0.738  -0.274   1.628  0.00  0.00    -0.004 A 
ENDROOT
TORSDOF 0
ENDMDL
