MODEL 1
REMARK minimizedAffinity -0.988135219
REMARK minimizedRMSD -1
REMARK  0 active torsions:
REMARK  status: ('A' for Active; 'I' for Inactive)
ROOT
ATOM      1  C   UNL d   1       2.817   1.231   1.622  0.00  0.00     0.172 C 
ATOM      2  N   UNL d   1       1.472   0.814   1.304  0.00  0.00    -0.070 N 
ATOM      3  C1  UNL d   1       0.523   1.583   0.685  0.00  0.00    -0.004 A 
ATOM      4  C2  UNL d   1      -0.621   0.825   0.564  0.00  0.00    -0.047 A 
ATOM      5  C3  UNL d   1      -0.351  -0.444   1.130  0.00  0.00    -0.047 A 
ATOM      6  C4  UNL d   1       0.952  -0.423   1.581  0.00  0.00    -0.004 A 
ENDROOT
TORSDOF 0
ENDMDL
