MODEL 1
REMARK minimizedAffinity -2.89068103
REMARK minimizedRMSD -1
REMARK  0 active torsions:
REMARK  status: ('A' for Active; 'I' for Inactive)
ROOT
ATOM      1  C   UNL d   1       1.451   1.463   1.855  0.00  0.00     0.078 C 
ATOM      2  C1  UNL d   1       1.408   1.311   0.364  0.00  0.00    -0.077 A 
ATOM      3  C2  UNL d   1       1.097   0.080  -0.227  0.00  0.00    -0.001 A 
ATOM      4  C3  UNL d   1       1.070  -0.049  -1.616  0.00  0.00     0.003 A 
ATOM      5  C4  UNL d   1       1.355   1.048  -2.427  0.00  0.00    -0.005 A 
ATOM      6  C5  UNL d   1       1.667   2.276  -1.848  0.00  0.00     0.003 A 
ATOM      7  C6  UNL d   1       1.695   2.407  -0.459  0.00  0.00    -0.001 A 
ENDROOT
TORSDOF 0
ENDMDL
