MODEL 1
REMARK minimizedAffinity -3.63060546
REMARK minimizedRMSD -1
REMARK  0 active torsions:
REMARK  status: ('A' for Active; 'I' for Inactive)
ROOT
ATOM      1  C   UNL d   1       0.916  -2.475   0.244  0.00  0.00     0.078 C 
ATOM      2  C1  UNL d   1       1.191  -1.133  -0.366  0.00  0.00    -0.077 A 
ATOM      3  C2  UNL d   1       0.799  -0.843  -1.678  0.00  0.00    -0.001 A 
ATOM      4  C3  UNL d   1       1.070   0.408  -2.235  0.00  0.00     0.003 A 
ATOM      5  C4  UNL d   1       1.736   1.377  -1.488  0.00  0.00    -0.005 A 
ATOM      6  C5  UNL d   1       2.132   1.097  -0.182  0.00  0.00     0.003 A 
ATOM      7  C6  UNL d   1       1.862  -0.153   0.377  0.00  0.00    -0.001 A 
ENDROOT
TORSDOF 0
ENDMDL
