MODEL 1
REMARK minimizedAffinity -5.39547443
REMARK minimizedRMSD -1
REMARK  0 active torsions:
REMARK  status: ('A' for Active; 'I' for Inactive)
ROOT
ATOM      1  C   UNL d   1       1.927   4.306  -1.134  0.00  0.00     0.078 C 
ATOM      2  C1  UNL d   1       1.547   2.858  -1.217  0.00  0.00    -0.077 A 
ATOM      3  C2  UNL d   1       1.086   2.300  -2.415  0.00  0.00    -0.001 A 
ATOM      4  C3  UNL d   1       0.726   0.953  -2.475  0.00  0.00     0.003 A 
ATOM      5  C4  UNL d   1       0.824   0.152  -1.339  0.00  0.00    -0.005 A 
ATOM      6  C5  UNL d   1       1.280   0.698  -0.141  0.00  0.00     0.003 A 
ATOM      7  C6  UNL d   1       1.639   2.045  -0.079  0.00  0.00    -0.001 A 
ENDROOT
TORSDOF 0
ENDMDL
