MODEL 1
REMARK minimizedAffinity 4.35359716
REMARK minimizedRMSD -1
REMARK  0 active torsions:
REMARK  status: ('A' for Active; 'I' for Inactive)
ROOT
ATOM      1  C   UNL d   1      -1.601   1.767  -2.273  0.00  0.00     0.078 C 
ATOM      2  C1  UNL d   1      -0.214   1.459  -1.795  0.00  0.00    -0.077 A 
ATOM      3  C2  UNL d   1       0.040   0.342  -0.990  0.00  0.00    -0.001 A 
ATOM      4  C3  UNL d   1       1.335   0.073  -0.544  0.00  0.00     0.003 A 
ATOM      5  C4  UNL d   1       2.386   0.917  -0.897  0.00  0.00    -0.005 A 
ATOM      6  C5  UNL d   1       2.143   2.032  -1.696  0.00  0.00     0.003 A 
ATOM      7  C6  UNL d   1       0.849   2.303  -2.143  0.00  0.00    -0.001 A 
ENDROOT
TORSDOF 0
ENDMDL
