MODEL 1
REMARK minimizedAffinity 3.63374615
REMARK minimizedRMSD -1
REMARK  0 active torsions:
REMARK  status: ('A' for Active; 'I' for Inactive)
ROOT
ATOM      1  C   UNL d   1       1.663  -2.693   0.243  0.00  0.00     0.078 C 
ATOM      2  C1  UNL d   1       1.478  -1.313  -0.312  0.00  0.00    -0.077 A 
ATOM      3  C2  UNL d   1       0.811  -1.106  -1.526  0.00  0.00    -0.001 A 
ATOM      4  C3  UNL d   1       0.655   0.184  -2.035  0.00  0.00     0.003 A 
ATOM      5  C4  UNL d   1       1.163   1.278  -1.338  0.00  0.00    -0.005 A 
ATOM      6  C5  UNL d   1       1.830   1.082  -0.130  0.00  0.00     0.003 A 
ATOM      7  C6  UNL d   1       1.988  -0.207   0.381  0.00  0.00    -0.001 A 
ENDROOT
TORSDOF 0
ENDMDL
