MODEL 1
REMARK minimizedAffinity -0.723850191
REMARK minimizedRMSD -1
REMARK  0 active torsions:
REMARK  status: ('A' for Active; 'I' for Inactive)
ROOT
ATOM      1  C   UNL d   1       1.830   1.626   1.575  0.00  0.00     0.078 C 
ATOM      2  C1  UNL d   1       1.532   1.304   0.141  0.00  0.00    -0.077 A 
ATOM      3  C2  UNL d   1       1.032   0.050  -0.228  0.00  0.00    -0.001 A 
ATOM      4  C3  UNL d   1       0.768  -0.239  -1.568  0.00  0.00     0.003 A 
ATOM      5  C4  UNL d   1       1.003   0.721  -2.550  0.00  0.00    -0.005 A 
ATOM      6  C5  UNL d   1       1.502   1.972  -2.193  0.00  0.00     0.003 A 
ATOM      7  C6  UNL d   1       1.767   2.262  -0.853  0.00  0.00    -0.001 A 
ENDROOT
TORSDOF 0
ENDMDL
