MODEL 1
REMARK minimizedAffinity 0.793807924
REMARK minimizedRMSD -1
REMARK  0 active torsions:
REMARK  status: ('A' for Active; 'I' for Inactive)
ROOT
ATOM      1  C   UNL d   1       1.882   1.508   1.678  0.00  0.00     0.078 C 
ATOM      2  C1  UNL d   1       1.588   1.148   0.252  0.00  0.00    -0.077 A 
ATOM      3  C2  UNL d   1       1.783   2.073  -0.781  0.00  0.00    -0.001 A 
ATOM      4  C3  UNL d   1       1.496   1.728  -2.102  0.00  0.00     0.003 A 
ATOM      5  C4  UNL d   1       1.010   0.457  -2.403  0.00  0.00    -0.005 A 
ATOM      6  C5  UNL d   1       0.811  -0.470  -1.382  0.00  0.00     0.003 A 
ATOM      7  C6  UNL d   1       1.097  -0.126  -0.060  0.00  0.00    -0.001 A 
ENDROOT
TORSDOF 0
ENDMDL
