MODEL 1
REMARK minimizedAffinity -3.64400005
REMARK minimizedRMSD -1
REMARK  0 active torsions:
REMARK  status: ('A' for Active; 'I' for Inactive)
ROOT
ATOM      1  C   UNL d   1       2.465   4.257  -1.387  0.00  0.00     0.078 C 
ATOM      2  C1  UNL d   1       1.945   2.894  -1.039  0.00  0.00    -0.077 A 
ATOM      3  C2  UNL d   1       1.672   2.544   0.289  0.00  0.00    -0.001 A 
ATOM      4  C3  UNL d   1       1.198   1.269   0.600  0.00  0.00     0.003 A 
ATOM      5  C4  UNL d   1       0.994   0.332  -0.412  0.00  0.00    -0.005 A 
ATOM      6  C5  UNL d   1       1.265   0.671  -1.736  0.00  0.00     0.003 A 
ATOM      7  C6  UNL d   1       1.739   1.946  -2.049  0.00  0.00    -0.001 A 
ENDROOT
TORSDOF 0
ENDMDL
