MODEL 1
REMARK minimizedAffinity -3.98221898
REMARK minimizedRMSD -1
REMARK  0 active torsions:
REMARK  status: ('A' for Active; 'I' for Inactive)
ROOT
ATOM      1  C   UNL d   1       1.799   3.530  -1.798  0.00  0.00     0.078 C 
ATOM      2  C1  UNL d   1       1.483   2.277  -1.038  0.00  0.00    -0.077 A 
ATOM      3  C2  UNL d   1       1.379   1.043  -1.693  0.00  0.00    -0.001 A 
ATOM      4  C3  UNL d   1       1.075  -0.114  -0.975  0.00  0.00     0.003 A 
ATOM      5  C4  UNL d   1       0.872  -0.050   0.402  0.00  0.00    -0.005 A 
ATOM      6  C5  UNL d   1       0.971   1.174   1.062  0.00  0.00     0.003 A 
ATOM      7  C6  UNL d   1       1.275   2.332   0.345  0.00  0.00    -0.001 A 
ENDROOT
TORSDOF 0
ENDMDL
