MODEL 1
REMARK minimizedAffinity 3.82046199
REMARK minimizedRMSD -1
REMARK  0 active torsions:
REMARK  status: ('A' for Active; 'I' for Inactive)
ROOT
ATOM      1  C   UNL d   1      -1.901   1.505   5.081  0.00  0.00     0.078 C 
ATOM      2  C1  UNL d   1      -2.418   2.077   3.796  0.00  0.00    -0.077 A 
ATOM      3  C2  UNL d   1      -3.536   1.525   3.159  0.00  0.00    -0.001 A 
ATOM      4  C3  UNL d   1      -4.001   2.062   1.957  0.00  0.00     0.003 A 
ATOM      5  C4  UNL d   1      -3.353   3.153   1.382  0.00  0.00    -0.005 A 
ATOM      6  C5  UNL d   1      -2.239   3.708   2.007  0.00  0.00     0.003 A 
ATOM      7  C6  UNL d   1      -1.773   3.173   3.209  0.00  0.00    -0.001 A 
ENDROOT
TORSDOF 0
ENDMDL
