MODEL 1
REMARK minimizedAffinity -4.7152071
REMARK minimizedRMSD -1
REMARK  0 active torsions:
REMARK  status: ('A' for Active; 'I' for Inactive)
ROOT
ATOM      1  C   UNL d   1      -0.563   0.744   1.411  0.00  0.00     0.078 C 
ATOM      2  C1  UNL d   1       0.271   0.598   0.173  0.00  0.00    -0.077 A 
ATOM      3  C2  UNL d   1      -0.176  -0.164  -0.913  0.00  0.00    -0.001 A 
ATOM      4  C3  UNL d   1       0.615  -0.299  -2.054  0.00  0.00     0.003 A 
ATOM      5  C4  UNL d   1       1.859   0.325  -2.121  0.00  0.00    -0.005 A 
ATOM      6  C5  UNL d   1       2.314   1.084  -1.045  0.00  0.00     0.003 A 
ATOM      7  C6  UNL d   1       1.524   1.220   0.098  0.00  0.00    -0.001 A 
ENDROOT
TORSDOF 0
ENDMDL
