MODEL 1
REMARK minimizedAffinity -2.52368474
REMARK minimizedRMSD -1
REMARK  0 active torsions:
REMARK  status: ('A' for Active; 'I' for Inactive)
ROOT
ATOM      1  C   UNL d   1       1.954   4.520  -1.384  0.00  0.00     0.078 C 
ATOM      2  C1  UNL d   1       1.825   3.048  -1.126  0.00  0.00    -0.077 A 
ATOM      3  C2  UNL d   1       1.892   2.124  -2.176  0.00  0.00    -0.001 A 
ATOM      4  C3  UNL d   1       1.761   0.757  -1.922  0.00  0.00     0.003 A 
ATOM      5  C4  UNL d   1       1.561   0.303  -0.620  0.00  0.00    -0.005 A 
ATOM      6  C5  UNL d   1       1.491   1.216   0.430  0.00  0.00     0.003 A 
ATOM      7  C6  UNL d   1       1.622   2.583   0.179  0.00  0.00    -0.001 A 
ENDROOT
TORSDOF 0
ENDMDL
