MODEL 1
REMARK minimizedAffinity 7.55869341
REMARK minimizedRMSD -1
REMARK  0 active torsions:
REMARK  status: ('A' for Active; 'I' for Inactive)
ROOT
ATOM      1  C   UNL d   1       1.860   1.413   1.030  0.00  0.00     0.078 C 
ATOM      2  C1  UNL d   1       1.421   1.912  -0.314  0.00  0.00    -0.077 A 
ATOM      3  C2  UNL d   1       0.382   1.284  -1.012  0.00  0.00    -0.001 A 
ATOM      4  C3  UNL d   1      -0.010   1.754  -2.267  0.00  0.00     0.003 A 
ATOM      5  C4  UNL d   1       0.631   2.854  -2.834  0.00  0.00    -0.005 A 
ATOM      6  C5  UNL d   1       1.667   3.484  -2.147  0.00  0.00     0.003 A 
ATOM      7  C6  UNL d   1       2.061   3.015  -0.893  0.00  0.00    -0.001 A 
ENDROOT
TORSDOF 0
ENDMDL
