MODEL 1
REMARK minimizedAffinity 2.27139521
REMARK minimizedRMSD -1
REMARK  0 active torsions:
REMARK  status: ('A' for Active; 'I' for Inactive)
ROOT
ATOM      1  C   UNL d   1       2.190   3.619  -1.261  0.00  0.00     0.078 C 
ATOM      2  C1  UNL d   1       1.771   2.245  -0.831  0.00  0.00    -0.077 A 
ATOM      3  C2  UNL d   1       1.899   1.836   0.502  0.00  0.00    -0.001 A 
ATOM      4  C3  UNL d   1       1.514   0.551   0.886  0.00  0.00     0.003 A 
ATOM      5  C4  UNL d   1       1.000  -0.336  -0.057  0.00  0.00    -0.005 A 
ATOM      6  C5  UNL d   1       0.870   0.061  -1.386  0.00  0.00     0.003 A 
ATOM      7  C6  UNL d   1       1.255   1.346  -1.772  0.00  0.00    -0.001 A 
ENDROOT
TORSDOF 0
ENDMDL
