MODEL 1
REMARK minimizedAffinity -0.632902861
REMARK minimizedRMSD -1
REMARK  0 active torsions:
REMARK  status: ('A' for Active; 'I' for Inactive)
ROOT
ATOM      1  C   UNL d   1       0.219  -2.572  -1.558  0.00  0.00     0.078 C 
ATOM      2  C1  UNL d   1       0.529  -1.240  -0.942  0.00  0.00    -0.077 A 
ATOM      3  C2  UNL d   1       0.189  -0.048  -1.593  0.00  0.00    -0.001 A 
ATOM      4  C3  UNL d   1       0.492   1.185  -1.012  0.00  0.00     0.003 A 
ATOM      5  C4  UNL d   1       1.138   1.237   0.221  0.00  0.00    -0.005 A 
ATOM      6  C5  UNL d   1       1.483   0.056   0.875  0.00  0.00     0.003 A 
ATOM      7  C6  UNL d   1       1.180  -1.178   0.296  0.00  0.00    -0.001 A 
ENDROOT
TORSDOF 0
ENDMDL
