MODEL 1
REMARK minimizedAffinity -2.87010574
REMARK minimizedRMSD -1
REMARK  0 active torsions:
REMARK  status: ('A' for Active; 'I' for Inactive)
ROOT
ATOM      1  C   UNL d   1       1.321  -2.160  -0.666  0.00  0.00     0.078 C 
ATOM      2  C1  UNL d   1       1.418  -0.680  -0.442  0.00  0.00    -0.077 A 
ATOM      3  C2  UNL d   1       2.116  -0.161   0.655  0.00  0.00    -0.001 A 
ATOM      4  C3  UNL d   1       2.190   1.218   0.856  0.00  0.00     0.003 A 
ATOM      5  C4  UNL d   1       1.567   2.090  -0.036  0.00  0.00    -0.005 A 
ATOM      6  C5  UNL d   1       0.868   1.582  -1.129  0.00  0.00     0.003 A 
ATOM      7  C6  UNL d   1       0.793   0.203  -1.331  0.00  0.00    -0.001 A 
ENDROOT
TORSDOF 0
ENDMDL
