MODEL 1
REMARK minimizedAffinity -4.73348141
REMARK minimizedRMSD -1
REMARK  0 active torsions:
REMARK  status: ('A' for Active; 'I' for Inactive)
ROOT
ATOM      1  C   UNL d   1      -1.125   3.886   0.588  0.00  0.00     0.023 A 
ATOM      2  C1  UNL d   1      -0.695   3.038   1.609  0.00  0.00     0.003 A 
ATOM      3  C2  UNL d   1      -0.220   1.761   1.304  0.00  0.00     0.048 A 
ATOM      4  C3  UNL d   1      -0.177   1.338  -0.024  0.00  0.00     0.023 A 
ATOM      5  C4  UNL d   1      -0.605   2.183  -1.049  0.00  0.00     0.048 A 
ATOM      6  C5  UNL d   1      -1.080   3.459  -0.739  0.00  0.00     0.003 A 
ATOM      7  I   UNL d   1       0.530  -0.562  -0.480  0.00  0.00    -0.146 I 
ENDROOT
TORSDOF 0
ENDMDL
