MODEL 1
REMARK minimizedAffinity -0.737959027
REMARK minimizedRMSD -1
REMARK  0 active torsions:
REMARK  status: ('A' for Active; 'I' for Inactive)
ROOT
ATOM      1  C   UNL d   1      -1.684   2.852  -0.763  0.00  0.00     0.023 A 
ATOM      2  C1  UNL d   1      -0.854   2.478  -1.820  0.00  0.00     0.003 A 
ATOM      3  C2  UNL d   1      -0.146   1.276  -1.762  0.00  0.00     0.048 A 
ATOM      4  C3  UNL d   1      -0.274   0.452  -0.645  0.00  0.00     0.023 A 
ATOM      5  C4  UNL d   1      -1.104   0.821   0.415  0.00  0.00     0.048 A 
ATOM      6  C5  UNL d   1      -1.809   2.024   0.353  0.00  0.00     0.003 A 
ATOM      7  I   UNL d   1       0.779  -1.338  -0.556  0.00  0.00    -0.146 I 
ENDROOT
TORSDOF 0
ENDMDL
