MODEL 1
REMARK minimizedAffinity -1.15551126
REMARK minimizedRMSD -1
REMARK  0 active torsions:
REMARK  status: ('A' for Active; 'I' for Inactive)
ROOT
ATOM      1  C   UNL d   1       0.144  -0.068   1.688  0.00  0.00     0.023 A 
ATOM      2  C1  UNL d   1       0.131   1.245   2.159  0.00  0.00     0.003 A 
ATOM      3  C2  UNL d   1      -0.034   2.307   1.268  0.00  0.00     0.048 A 
ATOM      4  C3  UNL d   1      -0.187   2.049  -0.094  0.00  0.00     0.023 A 
ATOM      5  C4  UNL d   1      -0.176   0.737  -0.570  0.00  0.00     0.048 A 
ATOM      6  C5  UNL d   1      -0.010  -0.322   0.325  0.00  0.00     0.003 A 
ATOM      7  I   UNL d   1      -0.434   3.627  -1.423  0.00  0.00    -0.146 I 
ENDROOT
TORSDOF 0
ENDMDL
