MODEL 1
REMARK minimizedAffinity -2.71812177
REMARK minimizedRMSD -1
REMARK  0 active torsions:
REMARK  status: ('A' for Active; 'I' for Inactive)
ROOT
ATOM      1  C   UNL d   1      -0.618   2.195   1.736  0.00  0.00     0.023 A 
ATOM      2  C1  UNL d   1      -1.422   1.950   0.622  0.00  0.00     0.003 A 
ATOM      3  C2  UNL d   1      -1.188   0.828  -0.175  0.00  0.00     0.048 A 
ATOM      4  C3  UNL d   1      -0.150  -0.045   0.147  0.00  0.00     0.023 A 
ATOM      5  C4  UNL d   1       0.656   0.195   1.261  0.00  0.00     0.048 A 
ATOM      6  C5  UNL d   1       0.419   1.318   2.055  0.00  0.00     0.003 A 
ATOM      7  I   UNL d   1       0.200  -1.716  -1.039  0.00  0.00    -0.146 I 
ENDROOT
TORSDOF 0
ENDMDL
