MODEL 1
REMARK minimizedAffinity -2.98783779
REMARK minimizedRMSD -1
REMARK  0 active torsions:
REMARK  status: ('A' for Active; 'I' for Inactive)
ROOT
ATOM      1  C   UNL d   1      -1.320   3.016   1.225  0.00  0.00     0.023 A 
ATOM      2  C1  UNL d   1      -0.611   2.178   2.086  0.00  0.00     0.003 A 
ATOM      3  C2  UNL d   1      -0.015   1.014   1.596  0.00  0.00     0.048 A 
ATOM      4  C3  UNL d   1      -0.131   0.694   0.244  0.00  0.00     0.023 A 
ATOM      5  C4  UNL d   1      -0.839   1.530  -0.622  0.00  0.00     0.048 A 
ATOM      6  C5  UNL d   1      -1.434   2.692  -0.127  0.00  0.00     0.003 A 
ATOM      7  I   UNL d   1       0.756  -1.037  -0.487  0.00  0.00    -0.146 I 
ENDROOT
TORSDOF 0
ENDMDL
