MODEL 1
REMARK minimizedAffinity -3.38125634
REMARK minimizedRMSD -1
REMARK  0 active torsions:
REMARK  status: ('A' for Active; 'I' for Inactive)
ROOT
ATOM      1  C   UNL d   1      -1.357   3.489   1.147  0.00  0.00     0.023 A 
ATOM      2  C1  UNL d   1      -1.090   2.377   1.947  0.00  0.00     0.003 A 
ATOM      3  C2  UNL d   1      -0.582   1.209   1.374  0.00  0.00     0.048 A 
ATOM      4  C3  UNL d   1      -0.341   1.160   0.002  0.00  0.00     0.023 A 
ATOM      5  C4  UNL d   1      -0.606   2.270  -0.802  0.00  0.00     0.048 A 
ATOM      6  C5  UNL d   1      -1.115   3.435  -0.225  0.00  0.00     0.003 A 
ATOM      7  I   UNL d   1       0.416  -0.577  -0.852  0.00  0.00    -0.146 I 
ENDROOT
TORSDOF 0
ENDMDL
