MODEL 1
REMARK minimizedAffinity 11.3196287
REMARK minimizedRMSD -1
REMARK  3 active torsions:
REMARK  status: ('A' for Active; 'I' for Inactive)
REMARK    1  A    between atoms: C3'_2  and  C2'_3 
REMARK    2  A    between atoms: C2'_3  and  C1'_4 
REMARK    3  A    between atoms: C1'_4  and  C1_5 
ROOT
ATOM      1  C1  N4B d   1       3.186   0.624   0.610  0.00  0.00    -0.075 A 
ATOM      2  C2  N4B d   1       3.127   1.126  -0.709  0.00  0.00     0.002 A 
ATOM      3  C3  N4B d   1       2.611   0.349  -1.717  0.00  0.00     0.002 A 
ATOM      4  C4  N4B d   1       2.167  -0.934  -1.435  0.00  0.00    -0.004 A 
ATOM      5  C5  N4B d   1       2.203  -1.402  -0.154  0.00  0.00     0.002 A 
ATOM      6  C6  N4B d   1       2.716  -0.631   0.870  0.00  0.00     0.002 A 
ENDROOT
BRANCH   1   7
ATOM      7  C1' N4B d   1       3.820   1.404   1.729  0.00  0.00     0.057 C 
BRANCH   7   8
ATOM      8  C2' N4B d   1       3.107   2.745   1.872  0.00  0.00     0.009 C 
BRANCH   8   9
ATOM      9  C3' N4B d   1       3.450   3.433   3.182  0.00  0.00     0.004 C 
ATOM     10  C4' N4B d   1       2.234   3.879   3.939  0.00  0.00     0.003 C 
ENDBRANCH   8   9
ENDBRANCH   7   8
ENDBRANCH   1   7
TORSDOF 3
ENDMDL
