MODEL 1
REMARK minimizedAffinity 16.9695339
REMARK minimizedRMSD -1
REMARK  3 active torsions:
REMARK  status: ('A' for Active; 'I' for Inactive)
REMARK    1  A    between atoms: C3'_2  and  C2'_3 
REMARK    2  A    between atoms: C2'_3  and  C1'_4 
REMARK    3  A    between atoms: C1'_4  and  C1_5 
ROOT
ATOM      1  C1  N4B d   1       4.931   3.470  -2.651  0.00  0.00    -0.075 A 
ATOM      2  C2  N4B d   1       5.465   4.242  -3.707  0.00  0.00     0.002 A 
ATOM      3  C3  N4B d   1       5.999   5.481  -3.449  0.00  0.00     0.002 A 
ATOM      4  C4  N4B d   1       5.994   5.974  -2.153  0.00  0.00    -0.004 A 
ATOM      5  C5  N4B d   1       5.500   5.212  -1.136  0.00  0.00     0.002 A 
ATOM      6  C6  N4B d   1       4.963   3.964  -1.379  0.00  0.00     0.002 A 
ENDROOT
BRANCH   1   7
ATOM      7  C1' N4B d   1       4.259   2.147  -2.896  0.00  0.00     0.057 C 
BRANCH   7   8
ATOM      8  C2' N4B d   1       4.323   1.821  -4.385  0.00  0.00     0.009 C 
BRANCH   8   9
ATOM      9  C3' N4B d   1       5.754   1.756  -4.892  0.00  0.00     0.004 C 
ATOM     10  C4' N4B d   1       5.992   0.596  -5.811  0.00  0.00     0.003 C 
ENDBRANCH   8   9
ENDBRANCH   7   8
ENDBRANCH   1   7
TORSDOF 3
ENDMDL
