MODEL 1
REMARK minimizedAffinity 16.969326
REMARK minimizedRMSD -1
REMARK  3 active torsions:
REMARK  status: ('A' for Active; 'I' for Inactive)
REMARK    1  A    between atoms: C3'_2  and  C2'_3 
REMARK    2  A    between atoms: C2'_3  and  C1'_4 
REMARK    3  A    between atoms: C1'_4  and  C1_5 
ROOT
ATOM      1  C1  N4B d   1       2.675  -0.379  -2.654  0.00  0.00    -0.075 A 
ATOM      2  C2  N4B d   1       3.572   0.309  -3.501  0.00  0.00     0.002 A 
ATOM      3  C3  N4B d   1       4.096   1.517  -3.110  0.00  0.00     0.002 A 
ATOM      4  C4  N4B d   1       3.726   2.062  -1.890  0.00  0.00    -0.004 A 
ATOM      5  C5  N4B d   1       2.880   1.379  -1.066  0.00  0.00     0.002 A 
ATOM      6  C6  N4B d   1       2.348   0.163  -1.445  0.00  0.00     0.002 A 
ENDROOT
BRANCH   1   7
ATOM      7  C1' N4B d   1       2.009  -1.660  -3.075  0.00  0.00     0.057 C 
BRANCH   7   8
ATOM      8  C2' N4B d   1       2.579  -2.814  -2.255  0.00  0.00     0.009 C 
BRANCH   8   9
ATOM      9  C3' N4B d   1       2.053  -2.811  -0.829  0.00  0.00     0.004 C 
ATOM     10  C4' N4B d   1       1.161  -3.980  -0.537  0.00  0.00     0.003 C 
ENDBRANCH   8   9
ENDBRANCH   7   8
ENDBRANCH   1   7
TORSDOF 3
ENDMDL
