MODEL 1
REMARK minimizedAffinity 10.9530048
REMARK minimizedRMSD -1
REMARK  3 active torsions:
REMARK  status: ('A' for Active; 'I' for Inactive)
REMARK    1  A    between atoms: C3'_2  and  C2'_3 
REMARK    2  A    between atoms: C2'_3  and  C1'_4 
REMARK    3  A    between atoms: C1'_4  and  C1_5 
ROOT
ATOM      1  C1  N4B d   1       2.936   1.439  -1.521  0.00  0.00    -0.075 A 
ATOM      2  C2  N4B d   1       2.946   2.806  -1.168  0.00  0.00     0.002 A 
ATOM      3  C3  N4B d   1       3.718   3.693  -1.879  0.00  0.00     0.002 A 
ATOM      4  C4  N4B d   1       4.498   3.234  -2.929  0.00  0.00    -0.004 A 
ATOM      5  C5  N4B d   1       4.463   1.916  -3.280  0.00  0.00     0.002 A 
ATOM      6  C6  N4B d   1       3.689   1.014  -2.577  0.00  0.00     0.002 A 
ENDROOT
BRANCH   1   7
ATOM      7  C1' N4B d   1       2.175   0.418  -0.720  0.00  0.00     0.057 C 
BRANCH   7   8
ATOM      8  C2' N4B d   1       2.758   0.351   0.688  0.00  0.00     0.009 C 
BRANCH   8   9
ATOM      9  C3' N4B d   1       1.859   1.031   1.708  0.00  0.00     0.004 C 
ATOM     10  C4' N4B d   1       0.834   0.103   2.288  0.00  0.00     0.003 C 
ENDBRANCH   8   9
ENDBRANCH   7   8
ENDBRANCH   1   7
TORSDOF 3
ENDMDL
