MODEL 1
REMARK minimizedAffinity 4.3261447
REMARK minimizedRMSD -1
REMARK  3 active torsions:
REMARK  status: ('A' for Active; 'I' for Inactive)
REMARK    1  A    between atoms: C3'_2  and  C2'_3 
REMARK    2  A    between atoms: C2'_3  and  C1'_4 
REMARK    3  A    between atoms: C1'_4  and  C1_5 
ROOT
ATOM      1  C1  N4B d   1      -4.845   4.479   3.255  0.00  0.00    -0.075 A 
ATOM      2  C2  N4B d   1      -6.000   4.254   4.036  0.00  0.00     0.002 A 
ATOM      3  C3  N4B d   1      -5.985   4.535   5.380  0.00  0.00     0.002 A 
ATOM      4  C4  N4B d   1      -4.826   5.023   5.966  0.00  0.00    -0.004 A 
ATOM      5  C5  N4B d   1      -3.723   5.262   5.199  0.00  0.00     0.002 A 
ATOM      6  C6  N4B d   1      -3.725   4.987   3.847  0.00  0.00     0.002 A 
ENDROOT
BRANCH   1   7
ATOM      7  C1' N4B d   1      -4.787   4.106   1.798  0.00  0.00     0.057 C 
BRANCH   7   8
ATOM      8  C2' N4B d   1      -3.792   2.964   1.614  0.00  0.00     0.009 C 
BRANCH   8   9
ATOM      9  C3' N4B d   1      -3.915   2.320   0.243  0.00  0.00     0.004 C 
ATOM     10  C4' N4B d   1      -3.114   1.058   0.121  0.00  0.00     0.003 C 
ENDBRANCH   8   9
ENDBRANCH   7   8
ENDBRANCH   1   7
TORSDOF 3
ENDMDL
