MODEL 1
REMARK minimizedAffinity -0.227482796
REMARK minimizedRMSD -1
REMARK  0 active torsions:
REMARK  status: ('A' for Active; 'I' for Inactive)
ROOT
ATOM      1  C   UNL d   1       4.112  -5.821  -1.931  0.00  0.00     0.078 C 
ATOM      2  C1  UNL d   1       3.623  -5.817  -3.349  0.00  0.00    -0.077 A 
ATOM      3  C2  UNL d   1       4.507  -5.621  -4.417  0.00  0.00    -0.001 A 
ATOM      4  C3  UNL d   1       4.036  -5.610  -5.730  0.00  0.00     0.003 A 
ATOM      5  C4  UNL d   1       2.679  -5.793  -5.989  0.00  0.00    -0.005 A 
ATOM      6  C5  UNL d   1       1.791  -5.987  -4.933  0.00  0.00     0.003 A 
ATOM      7  C6  UNL d   1       2.261  -5.998  -3.618  0.00  0.00    -0.001 A 
ENDROOT
TORSDOF 0
ENDMDL
