MODEL 1
REMARK minimizedAffinity -1.83628523
REMARK minimizedRMSD -1
REMARK  0 active torsions:
REMARK  status: ('A' for Active; 'I' for Inactive)
ROOT
ATOM      1  C   UNL d   1       3.766  -5.994  -1.748  0.00  0.00     0.078 C 
ATOM      2  C1  UNL d   1       3.521  -5.999  -3.227  0.00  0.00    -0.077 A 
ATOM      3  C2  UNL d   1       4.588  -5.993  -4.134  0.00  0.00    -0.001 A 
ATOM      4  C3  UNL d   1       4.345  -5.988  -5.509  0.00  0.00     0.003 A 
ATOM      5  C4  UNL d   1       3.037  -5.989  -5.989  0.00  0.00    -0.005 A 
ATOM      6  C5  UNL d   1       1.969  -5.994  -5.093  0.00  0.00     0.003 A 
ATOM      7  C6  UNL d   1       2.210  -5.998  -3.719  0.00  0.00    -0.001 A 
ENDROOT
TORSDOF 0
ENDMDL
