MODEL 1
REMARK minimizedAffinity 0.514941335
REMARK minimizedRMSD -1
REMARK  0 active torsions:
REMARK  status: ('A' for Active; 'I' for Inactive)
ROOT
ATOM      1  C   UNL d   1       1.844  -6.000  -4.890  0.00  0.00     0.078 C 
ATOM      2  C1  UNL d   1       3.066  -5.995  -4.021  0.00  0.00    -0.077 A 
ATOM      3  C2  UNL d   1       2.958  -5.972  -2.625  0.00  0.00    -0.001 A 
ATOM      4  C3  UNL d   1       4.104  -5.958  -1.829  0.00  0.00     0.003 A 
ATOM      5  C4  UNL d   1       5.367  -5.965  -2.419  0.00  0.00    -0.005 A 
ATOM      6  C5  UNL d   1       5.484  -5.985  -3.807  0.00  0.00     0.003 A 
ATOM      7  C6  UNL d   1       4.339  -5.999  -4.605  0.00  0.00    -0.001 A 
ENDROOT
TORSDOF 0
ENDMDL
