MODEL 1
REMARK minimizedAffinity 6.74575329
REMARK minimizedRMSD -1
REMARK  0 active torsions:
REMARK  status: ('A' for Active; 'I' for Inactive)
ROOT
ATOM      1  C   UNL d   1      -5.998   5.550  -0.992  0.00  0.00     0.078 C 
ATOM      2  C1  UNL d   1      -5.973   4.180  -0.383  0.00  0.00    -0.077 A 
ATOM      3  C2  UNL d   1      -5.986   3.033  -1.186  0.00  0.00    -0.001 A 
ATOM      4  C3  UNL d   1      -5.973   1.764  -0.604  0.00  0.00     0.003 A 
ATOM      5  C4  UNL d   1      -5.948   1.630   0.783  0.00  0.00    -0.005 A 
ATOM      6  C5  UNL d   1      -5.937   2.766   1.590  0.00  0.00     0.003 A 
ATOM      7  C6  UNL d   1      -5.951   4.035   1.010  0.00  0.00    -0.001 A 
ENDROOT
TORSDOF 0
ENDMDL
