MODEL 1
REMARK minimizedAffinity 3.23023558
REMARK minimizedRMSD -1
REMARK  0 active torsions:
REMARK  status: ('A' for Active; 'I' for Inactive)
ROOT
ATOM      1  C   UNL d   1       5.322  -2.781   4.428  0.00  0.00     0.078 C 
ATOM      2  C1  UNL d   1       3.893  -2.945   4.004  0.00  0.00    -0.077 A 
ATOM      3  C2  UNL d   1       3.194  -1.890   3.403  0.00  0.00    -0.001 A 
ATOM      4  C3  UNL d   1       1.861  -2.053   3.023  0.00  0.00     0.003 A 
ATOM      5  C4  UNL d   1       1.215  -3.269   3.239  0.00  0.00    -0.005 A 
ATOM      6  C5  UNL d   1       1.901  -4.323   3.838  0.00  0.00     0.003 A 
ATOM      7  C6  UNL d   1       3.234  -4.162   4.220  0.00  0.00    -0.001 A 
ENDROOT
TORSDOF 0
ENDMDL
