MODEL 1
REMARK minimizedAffinity -1.07494962
REMARK minimizedRMSD -1
REMARK  0 active torsions:
REMARK  status: ('A' for Active; 'I' for Inactive)
ROOT
ATOM      1  C   UNL d   1       3.969  -0.938  -1.404  0.00  0.00     0.078 C 
ATOM      2  C1  UNL d   1       4.475  -0.508  -2.749  0.00  0.00    -0.077 A 
ATOM      3  C2  UNL d   1       3.905   0.581  -3.419  0.00  0.00    -0.001 A 
ATOM      4  C3  UNL d   1       4.379   0.964  -4.675  0.00  0.00     0.003 A 
ATOM      5  C4  UNL d   1       5.425   0.263  -5.272  0.00  0.00    -0.005 A 
ATOM      6  C5  UNL d   1       5.997  -0.824  -4.613  0.00  0.00     0.003 A 
ATOM      7  C6  UNL d   1       5.524  -1.208  -3.358  0.00  0.00    -0.001 A 
ENDROOT
TORSDOF 0
ENDMDL
