MODEL 1
REMARK minimizedAffinity 0.71849215
REMARK minimizedRMSD -1
REMARK  0 active torsions:
REMARK  status: ('A' for Active; 'I' for Inactive)
ROOT
ATOM      1  C   UNL d   1       1.847  -0.612   2.393  0.00  0.00     0.078 C 
ATOM      2  C1  UNL d   1       1.821  -1.956   3.057  0.00  0.00    -0.077 A 
ATOM      3  C2  UNL d   1       1.017  -2.191   4.180  0.00  0.00    -0.001 A 
ATOM      4  C3  UNL d   1       1.010  -3.444   4.794  0.00  0.00     0.003 A 
ATOM      5  C4  UNL d   1       1.806  -4.473   4.294  0.00  0.00    -0.005 A 
ATOM      6  C5  UNL d   1       2.611  -4.248   3.179  0.00  0.00     0.003 A 
ATOM      7  C6  UNL d   1       2.619  -2.996   2.564  0.00  0.00    -0.001 A 
ENDROOT
TORSDOF 0
ENDMDL
