MODEL 1
REMARK minimizedAffinity -2.08063388
REMARK minimizedRMSD -1
REMARK  1 active torsions:
REMARK  status: ('A' for Active; 'I' for Inactive)
REMARK    1  A    between atoms: N_2  and  C1_3 
ROOT
ATOM      1  C1  UNL d   1      -0.516  -0.368  -0.336  0.00  0.00     0.143 A 
ATOM      2  C2  UNL d   1      -1.158  -1.116   0.657  0.00  0.00    -0.057 A 
ATOM      3  C3  UNL d   1      -1.434  -2.477   0.477  0.00  0.00     0.033 A 
ATOM      4  C4  UNL d   1      -1.098  -3.109  -0.715  0.00  0.00    -0.042 A 
ATOM      5  C5  UNL d   1      -0.481  -2.379  -1.726  0.00  0.00     0.033 A 
ATOM      6  C6  UNL d   1      -0.203  -1.022  -1.537  0.00  0.00    -0.057 A 
ENDROOT
BRANCH   1   7
ATOM      7  N   UNL d   1      -0.303   1.010  -0.256  0.00  0.00    -0.732 N 
ATOM      8  C   UNL d   1       0.942   1.535   0.263  0.00  0.00     0.284 C 
ATOM      9  H3  UNL d   1      -0.655   1.506  -1.072  0.00  0.00     0.395 HD
ENDBRANCH   1   7
TORSDOF 1
ENDMDL
