MODEL 1
REMARK minimizedAffinity -4.81662035
REMARK minimizedRMSD -1
REMARK  1 active torsions:
REMARK  status: ('A' for Active; 'I' for Inactive)
REMARK    1  A    between atoms: N_2  and  C1_3 
ROOT
ATOM      1  C1  UNL d   1      -0.299  -0.524  -0.112  0.00  0.00     0.143 A 
ATOM      2  C2  UNL d   1      -1.132  -0.512   1.012  0.00  0.00    -0.057 A 
ATOM      3  C3  UNL d   1      -1.553  -1.702   1.617  0.00  0.00     0.033 A 
ATOM      4  C4  UNL d   1      -1.171  -2.931   1.089  0.00  0.00    -0.042 A 
ATOM      5  C5  UNL d   1      -0.364  -2.967  -0.043  0.00  0.00     0.033 A 
ATOM      6  C6  UNL d   1       0.059  -1.775  -0.638  0.00  0.00    -0.057 A 
ENDROOT
BRANCH   1   7
ATOM      7  N   UNL d   1       0.073   0.623  -0.817  0.00  0.00    -0.732 N 
ATOM      8  C   UNL d   1       0.690   1.740  -0.134  0.00  0.00     0.284 C 
ATOM      9  H3  UNL d   1       0.490   0.406  -1.719  0.00  0.00     0.395 HD
ENDBRANCH   1   7
TORSDOF 1
ENDMDL
