MODEL 1
REMARK minimizedAffinity -4.56660223
REMARK minimizedRMSD -1
REMARK  1 active torsions:
REMARK  status: ('A' for Active; 'I' for Inactive)
REMARK    1  A    between atoms: N_2  and  C1_3 
ROOT
ATOM      1  C1  UNL d   1       0.319  -0.828  -0.157  0.00  0.00     0.143 A 
ATOM      2  C2  UNL d   1       0.313  -1.600  -1.324  0.00  0.00    -0.057 A 
ATOM      3  C3  UNL d   1       0.122  -2.986  -1.277  0.00  0.00     0.033 A 
ATOM      4  C4  UNL d   1      -0.038  -3.631  -0.055  0.00  0.00    -0.042 A 
ATOM      5  C5  UNL d   1      -0.010  -2.888   1.120  0.00  0.00     0.033 A 
ATOM      6  C6  UNL d   1       0.174  -1.503   1.066  0.00  0.00    -0.057 A 
ENDROOT
BRANCH   1   7
ATOM      7  N   UNL d   1       0.602   0.540  -0.130  0.00  0.00    -0.732 N 
ATOM      8  C   UNL d   1      -0.441   1.503   0.147  0.00  0.00     0.284 C 
ATOM      9  H3  UNL d   1       1.488   0.744   0.327  0.00  0.00     0.395 HD
ENDBRANCH   1   7
TORSDOF 1
ENDMDL
