MODEL 1
REMARK minimizedAffinity -3.01817489
REMARK minimizedRMSD -1
REMARK  1 active torsions:
REMARK  status: ('A' for Active; 'I' for Inactive)
REMARK    1  A    between atoms: N_2  and  C1_3 
ROOT
ATOM      1  C1  UNL d   1      -0.618  -0.047  -0.293  0.00  0.00     0.143 A 
ATOM      2  C2  UNL d   1      -0.123  -1.059  -1.122  0.00  0.00    -0.057 A 
ATOM      3  C3  UNL d   1      -0.328  -2.411  -0.819  0.00  0.00     0.033 A 
ATOM      4  C4  UNL d   1      -1.009  -2.775   0.338  0.00  0.00    -0.042 A 
ATOM      5  C5  UNL d   1      -1.488  -1.786   1.189  0.00  0.00     0.033 A 
ATOM      6  C6  UNL d   1      -1.286  -0.438   0.878  0.00  0.00    -0.057 A 
ENDROOT
BRANCH   1   7
ATOM      7  N   UNL d   1      -0.362   1.313  -0.488  0.00  0.00    -0.732 N 
ATOM      8  C   UNL d   1       0.771   1.948   0.150  0.00  0.00     0.284 C 
ATOM      9  H3  UNL d   1      -0.513   1.602  -1.452  0.00  0.00     0.395 HD
ENDBRANCH   1   7
TORSDOF 1
ENDMDL
