MODEL 1
REMARK minimizedAffinity -5.31812668
REMARK minimizedRMSD -1
REMARK  1 active torsions:
REMARK  status: ('A' for Active; 'I' for Inactive)
REMARK    1  A    between atoms: N_2  and  C1_3 
ROOT
ATOM      1  C1  UNL d   1      -0.254  -0.137   0.099  0.00  0.00     0.143 A 
ATOM      2  C2  UNL d   1      -1.110  -0.898   0.903  0.00  0.00    -0.057 A 
ATOM      3  C3  UNL d   1      -1.127  -2.296   0.825  0.00  0.00     0.033 A 
ATOM      4  C4  UNL d   1      -0.306  -2.958  -0.081  0.00  0.00    -0.042 A 
ATOM      5  C5  UNL d   1       0.535  -2.221  -0.907  0.00  0.00     0.033 A 
ATOM      6  C6  UNL d   1       0.552  -0.825  -0.821  0.00  0.00    -0.057 A 
ENDROOT
BRANCH   1   7
ATOM      7  N   UNL d   1      -0.262   1.259   0.060  0.00  0.00    -0.732 N 
ATOM      8  C   UNL d   1       0.980   2.003   0.049  0.00  0.00     0.284 C 
ATOM      9  H3  UNL d   1      -0.971   1.627  -0.570  0.00  0.00     0.395 HD
ENDBRANCH   1   7
TORSDOF 1
ENDMDL
