MODEL 1
REMARK minimizedAffinity -4.39226198
REMARK minimizedRMSD -1
REMARK  1 active torsions:
REMARK  status: ('A' for Active; 'I' for Inactive)
REMARK    1  A    between atoms: N_2  and  C1_3 
ROOT
ATOM      1  C1  UNL d   1       0.054  -0.475   0.300  0.00  0.00     0.143 A 
ATOM      2  C2  UNL d   1       0.745  -1.329  -0.567  0.00  0.00    -0.057 A 
ATOM      3  C3  UNL d   1       0.390  -2.677  -0.693  0.00  0.00     0.033 A 
ATOM      4  C4  UNL d   1      -0.646  -3.205   0.070  0.00  0.00    -0.042 A 
ATOM      5  C5  UNL d   1      -1.330  -2.380   0.957  0.00  0.00     0.033 A 
ATOM      6  C6  UNL d   1      -0.976  -1.033   1.073  0.00  0.00    -0.057 A 
ENDROOT
BRANCH   1   7
ATOM      7  N   UNL d   1       0.422   0.851   0.542  0.00  0.00    -0.732 N 
ATOM      8  C   UNL d   1      -0.119   1.925  -0.263  0.00  0.00     0.284 C 
ATOM      9  H3  UNL d   1       0.477   1.063   1.536  0.00  0.00     0.395 HD
ENDBRANCH   1   7
TORSDOF 1
ENDMDL
