MODEL 1
REMARK minimizedAffinity -4.61406088
REMARK minimizedRMSD -1
REMARK  1 active torsions:
REMARK  status: ('A' for Active; 'I' for Inactive)
REMARK    1  A    between atoms: N_2  and  C1_3 
ROOT
ATOM      1  C1  UNL d   1      -0.403  -1.824  -0.798  0.00  0.00     0.143 A 
ATOM      2  C2  UNL d   1      -0.276  -0.443  -0.614  0.00  0.00    -0.057 A 
ATOM      3  C3  UNL d   1      -0.597   0.159   0.609  0.00  0.00     0.033 A 
ATOM      4  C4  UNL d   1      -1.080  -0.609   1.663  0.00  0.00    -0.042 A 
ATOM      5  C5  UNL d   1      -1.239  -1.980   1.495  0.00  0.00     0.033 A 
ATOM      6  C6  UNL d   1      -0.910  -2.576   0.273  0.00  0.00    -0.057 A 
ENDROOT
BRANCH   1   7
ATOM      7  N   UNL d   1      -0.194  -2.468  -2.020  0.00  0.00    -0.732 N 
ATOM      8  C   UNL d   1       0.105  -1.706  -3.213  0.00  0.00     0.284 C 
ATOM      9  H3  UNL d   1       0.356  -3.319  -1.921  0.00  0.00     0.395 HD
ENDBRANCH   1   7
TORSDOF 1
ENDMDL
