MODEL 1
REMARK minimizedAffinity -3.99290991
REMARK minimizedRMSD -1
REMARK  1 active torsions:
REMARK  status: ('A' for Active; 'I' for Inactive)
REMARK    1  A    between atoms: N_2  and  C1_3 
ROOT
ATOM      1  C1  UNL d   1       0.559   0.917   0.566  0.00  0.00     0.143 A 
ATOM      2  C2  UNL d   1       1.721   0.547   1.250  0.00  0.00    -0.057 A 
ATOM      3  C3  UNL d   1       2.745   1.471   1.493  0.00  0.00     0.033 A 
ATOM      4  C4  UNL d   1       2.636   2.778   1.029  0.00  0.00    -0.042 A 
ATOM      5  C5  UNL d   1       1.500   3.160   0.325  0.00  0.00     0.033 A 
ATOM      6  C6  UNL d   1       0.478   2.235   0.091  0.00  0.00    -0.057 A 
ENDROOT
BRANCH   1   7
ATOM      7  N   UNL d   1      -0.451   0.020   0.207  0.00  0.00    -0.732 N 
ATOM      8  C   UNL d   1      -1.229  -0.658   1.221  0.00  0.00     0.284 C 
ATOM      9  H3  UNL d   1      -0.997   0.347  -0.587  0.00  0.00     0.395 HD
ENDBRANCH   1   7
TORSDOF 1
ENDMDL
