MODEL 1
REMARK minimizedAffinity -3.79719019
REMARK minimizedRMSD -1
REMARK  1 active torsions:
REMARK  status: ('A' for Active; 'I' for Inactive)
REMARK    1  A    between atoms: N_2  and  C1_3 
ROOT
ATOM      1  C1  UNL d   1      -0.324  -0.213  -0.373  0.00  0.00     0.143 A 
ATOM      2  C2  UNL d   1       0.437  -1.292  -0.834  0.00  0.00    -0.057 A 
ATOM      3  C3  UNL d   1       0.215  -2.592  -0.364  0.00  0.00     0.033 A 
ATOM      4  C4  UNL d   1      -0.757  -2.831   0.602  0.00  0.00    -0.042 A 
ATOM      5  C5  UNL d   1      -1.509  -1.770   1.094  0.00  0.00     0.033 A 
ATOM      6  C6  UNL d   1      -1.287  -0.475   0.615  0.00  0.00    -0.057 A 
ENDROOT
BRANCH   1   7
ATOM      7  N   UNL d   1      -0.085   1.117  -0.729  0.00  0.00    -0.732 N 
ATOM      8  C   UNL d   1       0.462   2.050   0.232  0.00  0.00     0.284 C 
ATOM      9  H3  UNL d   1       0.308   1.204  -1.664  0.00  0.00     0.395 HD
ENDBRANCH   1   7
TORSDOF 1
ENDMDL
