MODEL 1
REMARK minimizedAffinity -1.82861567
REMARK minimizedRMSD -1
REMARK  1 active torsions:
REMARK  status: ('A' for Active; 'I' for Inactive)
REMARK    1  A    between atoms: N_2  and  C1_3 
ROOT
ATOM      1  C1  UNL d   1      -0.726  -0.150   0.061  0.00  0.00     0.143 A 
ATOM      2  C2  UNL d   1      -0.568  -1.443  -0.450  0.00  0.00    -0.057 A 
ATOM      3  C3  UNL d   1      -0.866  -2.571   0.325  0.00  0.00     0.033 A 
ATOM      4  C4  UNL d   1      -1.301  -2.425   1.638  0.00  0.00    -0.042 A 
ATOM      5  C5  UNL d   1      -1.441  -1.150   2.175  0.00  0.00     0.033 A 
ATOM      6  C6  UNL d   1      -1.148  -0.028   1.394  0.00  0.00    -0.057 A 
ENDROOT
BRANCH   1   7
ATOM      7  N   UNL d   1      -0.353   1.008  -0.626  0.00  0.00    -0.732 N 
ATOM      8  C   UNL d   1       0.215   2.135   0.084  0.00  0.00     0.284 C 
ATOM      9  H3  UNL d   1       0.101   0.805  -1.513  0.00  0.00     0.395 HD
ENDBRANCH   1   7
TORSDOF 1
ENDMDL
