MODEL 1
REMARK minimizedAffinity -1.44285381
REMARK minimizedRMSD -1
REMARK  1 active torsions:
REMARK  status: ('A' for Active; 'I' for Inactive)
REMARK    1  A    between atoms: N_2  and  C1_3 
ROOT
ATOM      1  C1  UNL d   1       0.715   1.481   0.236  0.00  0.00     0.143 A 
ATOM      2  C2  UNL d   1       0.461   2.158   1.434  0.00  0.00    -0.057 A 
ATOM      3  C3  UNL d   1       1.285   3.206   1.864  0.00  0.00     0.033 A 
ATOM      4  C4  UNL d   1       2.397   3.576   1.116  0.00  0.00    -0.042 A 
ATOM      5  C5  UNL d   1       2.683   2.900  -0.065  0.00  0.00     0.033 A 
ATOM      6  C6  UNL d   1       1.853   1.860  -0.493  0.00  0.00    -0.057 A 
ENDROOT
BRANCH   1   7
ATOM      7  N   UNL d   1      -0.010   0.367  -0.196  0.00  0.00    -0.732 N 
ATOM      8  C   UNL d   1      -0.735  -0.453   0.751  0.00  0.00     0.284 C 
ATOM      9  H3  UNL d   1      -0.511   0.543  -1.063  0.00  0.00     0.395 HD
ENDBRANCH   1   7
TORSDOF 1
ENDMDL
