MODEL 1
REMARK minimizedAffinity -1.48469627
REMARK minimizedRMSD -1
REMARK  0 active torsions:
REMARK  status: ('A' for Active; 'I' for Inactive)
ROOT
ATOM      1  C   UNL d   1      -1.237   0.327  -5.897  0.00  0.00     0.172 C 
ATOM      2  N   UNL d   1      -0.284   0.260  -4.814  0.00  0.00    -0.070 N 
ATOM      3  C1  UNL d   1       0.522   1.286  -4.396  0.00  0.00    -0.004 A 
ATOM      4  C2  UNL d   1       1.282   0.822  -3.343  0.00  0.00    -0.047 A 
ATOM      5  C3  UNL d   1       0.921  -0.528  -3.122  0.00  0.00    -0.047 A 
ATOM      6  C4  UNL d   1      -0.050  -0.850  -4.047  0.00  0.00    -0.004 A 
ENDROOT
TORSDOF 0
ENDMDL
