MODEL 1
REMARK minimizedAffinity -1.72064435
REMARK minimizedRMSD -1
REMARK  0 active torsions:
REMARK  status: ('A' for Active; 'I' for Inactive)
ROOT
ATOM      1  C   UNL d   1       1.541  -1.323  -1.194  0.00  0.00     0.172 C 
ATOM      2  N   UNL d   1       1.207  -0.632  -2.417  0.00  0.00    -0.070 N 
ATOM      3  C1  UNL d   1       2.073   0.106  -3.179  0.00  0.00    -0.004 A 
ATOM      4  C2  UNL d   1       1.371   0.598  -4.259  0.00  0.00    -0.047 A 
ATOM      5  C3  UNL d   1       0.037   0.140  -4.141  0.00  0.00    -0.047 A 
ATOM      6  C4  UNL d   1      -0.036  -0.619  -2.992  0.00  0.00    -0.004 A 
ENDROOT
TORSDOF 0
ENDMDL
