MODEL 1
REMARK minimizedAffinity -3.19200659
REMARK minimizedRMSD -1
REMARK  0 active torsions:
REMARK  status: ('A' for Active; 'I' for Inactive)
ROOT
ATOM      1  C   UNL d   1       0.382  -0.124  -1.430  0.00  0.00     0.172 C 
ATOM      2  N   UNL d   1      -0.515   0.088  -0.318  0.00  0.00    -0.070 N 
ATOM      3  C1  UNL d   1      -0.143   0.439   0.952  0.00  0.00    -0.004 A 
ATOM      4  C2  UNL d   1      -1.288   0.544   1.713  0.00  0.00    -0.047 A 
ATOM      5  C3  UNL d   1      -2.385   0.245   0.871  0.00  0.00    -0.047 A 
ATOM      6  C4  UNL d   1      -1.878  -0.033  -0.381  0.00  0.00    -0.004 A 
ENDROOT
TORSDOF 0
ENDMDL
