MODEL 1
REMARK minimizedAffinity -3.86147332
REMARK minimizedRMSD -1
REMARK  0 active torsions:
REMARK  status: ('A' for Active; 'I' for Inactive)
ROOT
ATOM      1  C   UNL d   1       1.043  -0.352  -0.239  0.00  0.00     0.172 C 
ATOM      2  N   UNL d   1       0.219   0.087   0.863  0.00  0.00    -0.070 N 
ATOM      3  C1  UNL d   1      -1.088   0.486   0.773  0.00  0.00    -0.004 A 
ATOM      4  C2  UNL d   1      -1.514   0.825   2.039  0.00  0.00    -0.047 A 
ATOM      5  C3  UNL d   1      -0.425   0.624   2.920  0.00  0.00    -0.047 A 
ATOM      6  C4  UNL d   1       0.635   0.167   2.166  0.00  0.00    -0.004 A 
ENDROOT
TORSDOF 0
ENDMDL
