MODEL 1
REMARK minimizedAffinity -3.70685673
REMARK minimizedRMSD -1
REMARK  0 active torsions:
REMARK  status: ('A' for Active; 'I' for Inactive)
ROOT
ATOM      1  C   UNL d   1       0.303  -0.027  -0.768  0.00  0.00     0.172 C 
ATOM      2  N   UNL d   1      -0.217   0.144   0.569  0.00  0.00    -0.070 N 
ATOM      3  C1  UNL d   1      -1.541   0.156   0.915  0.00  0.00    -0.004 A 
ATOM      4  C2  UNL d   1      -1.620   0.341   2.278  0.00  0.00    -0.047 A 
ATOM      5  C3  UNL d   1      -0.296   0.445   2.768  0.00  0.00    -0.047 A 
ATOM      6  C4  UNL d   1       0.552   0.319   1.689  0.00  0.00    -0.004 A 
ENDROOT
TORSDOF 0
ENDMDL
