MODEL 1
REMARK minimizedAffinity -2.82903266
REMARK minimizedRMSD -1
REMARK  0 active torsions:
REMARK  status: ('A' for Active; 'I' for Inactive)
ROOT
ATOM      1  C   UNL d   1       0.796   0.274  -4.419  0.00  0.00     0.172 C 
ATOM      2  N   UNL d   1       1.034   0.099  -3.006  0.00  0.00    -0.070 N 
ATOM      3  C1  UNL d   1       2.114   0.578  -2.313  0.00  0.00    -0.004 A 
ATOM      4  C2  UNL d   1       1.971   0.201  -0.995  0.00  0.00    -0.047 A 
ATOM      5  C3  UNL d   1       0.763  -0.530  -0.892  0.00  0.00    -0.047 A 
ATOM      6  C4  UNL d   1       0.204  -0.578  -2.152  0.00  0.00    -0.004 A 
ENDROOT
TORSDOF 0
ENDMDL
