MODEL 1
REMARK minimizedAffinity -2.11227942
REMARK minimizedRMSD -1
REMARK  0 active torsions:
REMARK  status: ('A' for Active; 'I' for Inactive)
ROOT
ATOM      1  C   UNL d   1       1.142   0.273  -2.918  0.00  0.00     0.172 C 
ATOM      2  N   UNL d   1       0.308   0.008  -1.770  0.00  0.00    -0.070 N 
ATOM      3  C1  UNL d   1       0.028   0.895  -0.765  0.00  0.00    -0.004 A 
ATOM      4  C2  UNL d   1      -0.800   0.263   0.138  0.00  0.00    -0.047 A 
ATOM      5  C3  UNL d   1      -1.023  -1.050  -0.341  0.00  0.00    -0.047 A 
ATOM      6  C4  UNL d   1      -0.326  -1.181  -1.523  0.00  0.00    -0.004 A 
ENDROOT
TORSDOF 0
ENDMDL
