MODEL 1
REMARK minimizedAffinity -2.21731544
REMARK minimizedRMSD -1
REMARK  0 active torsions:
REMARK  status: ('A' for Active; 'I' for Inactive)
ROOT
ATOM      1  C   UNL d   1      -1.430   0.242   2.602  0.00  0.00     0.172 C 
ATOM      2  N   UNL d   1      -0.304  -0.009   1.733  0.00  0.00    -0.070 N 
ATOM      3  C1  UNL d   1      -0.316   0.074   0.367  0.00  0.00    -0.004 A 
ATOM      4  C2  UNL d   1       0.948  -0.238  -0.086  0.00  0.00    -0.047 A 
ATOM      5  C3  UNL d   1       1.747  -0.519   1.048  0.00  0.00    -0.047 A 
ATOM      6  C4  UNL d   1       0.946  -0.370   2.161  0.00  0.00    -0.004 A 
ENDROOT
TORSDOF 0
ENDMDL
