MODEL 1
REMARK minimizedAffinity -2.51145601
REMARK minimizedRMSD -1
REMARK  0 active torsions:
REMARK  status: ('A' for Active; 'I' for Inactive)
ROOT
ATOM      1  C   UNL d   1       0.540  -0.222  -0.750  0.00  0.00     0.172 C 
ATOM      2  N   UNL d   1      -0.138   0.142   0.472  0.00  0.00    -0.070 N 
ATOM      3  C1  UNL d   1      -1.422   0.609   0.564  0.00  0.00    -0.004 A 
ATOM      4  C2  UNL d   1      -1.694   0.839   1.895  0.00  0.00    -0.047 A 
ATOM      5  C3  UNL d   1      -0.532   0.499   2.629  0.00  0.00    -0.047 A 
ATOM      6  C4  UNL d   1       0.415   0.071   1.723  0.00  0.00    -0.004 A 
ENDROOT
TORSDOF 0
ENDMDL
