MODEL 1
REMARK minimizedAffinity 3.04913497
REMARK minimizedRMSD -1
REMARK  0 active torsions:
REMARK  status: ('A' for Active; 'I' for Inactive)
ROOT
ATOM      1  C4' PXY d   1       4.603   0.426  -5.200  0.00  0.00     0.077 C 
ATOM      2  C1' PXY d   1      -0.087  -2.858  -5.995  0.00  0.00     0.077 C 
ATOM      3  C1  PXY d   1       1.150  -2.007  -5.784  0.00  0.00    -0.082 A 
ATOM      4  C2  PXY d   1       1.020  -0.744  -5.411  0.00  0.00     0.003 A 
ATOM      5  C3  PXY d   1       2.127   0.048  -5.247  0.00  0.00     0.003 A 
ATOM      6  C4  PXY d   1       3.382  -0.473  -5.415  0.00  0.00    -0.082 A 
ATOM      7  C5  PXY d   1       3.524  -1.763  -5.785  0.00  0.00     0.003 A 
ATOM      8  C6  PXY d   1       2.386  -2.539  -5.987  0.00  0.00     0.003 A 
ENDROOT
TORSDOF 0
ENDMDL
