MODEL 1
REMARK minimizedAffinity 12.5049572
REMARK minimizedRMSD -1
REMARK  0 active torsions:
REMARK  status: ('A' for Active; 'I' for Inactive)
ROOT
ATOM      1  C4' PXY d   1       1.946  -1.739   4.247  0.00  0.00     0.077 C 
ATOM      2  C1' PXY d   1      -1.036   2.838   2.354  0.00  0.00     0.077 C 
ATOM      3  C1  PXY d   1      -0.262   1.630   2.844  0.00  0.00    -0.082 A 
ATOM      4  C2  PXY d   1       0.453   1.717   3.954  0.00  0.00     0.003 A 
ATOM      5  C3  PXY d   1       1.184   0.644   4.394  0.00  0.00     0.003 A 
ATOM      6  C4  PXY d   1       1.141  -0.547   3.720  0.00  0.00    -0.082 A 
ATOM      7  C5  PXY d   1       0.406  -0.647   2.592  0.00  0.00     0.003 A 
ATOM      8  C6  PXY d   1      -0.296   0.466   2.140  0.00  0.00     0.003 A 
ENDROOT
TORSDOF 0
ENDMDL
