MODEL 1
REMARK minimizedAffinity 11.7417736
REMARK minimizedRMSD -1
REMARK  0 active torsions:
REMARK  status: ('A' for Active; 'I' for Inactive)
ROOT
ATOM      1  C4' PXY d   1       2.290  -2.619   6.000  0.00  0.00     0.077 C 
ATOM      2  C1' PXY d   1       1.354   1.365   1.917  0.00  0.00     0.077 C 
ATOM      3  C1  PXY d   1       1.609   0.328   2.993  0.00  0.00    -0.082 A 
ATOM      4  C2  PXY d   1       1.315  -0.941   2.761  0.00  0.00     0.003 A 
ATOM      5  C3  PXY d   1       1.508  -1.887   3.735  0.00  0.00     0.003 A 
ATOM      6  C4  PXY d   1       2.058  -1.539   4.939  0.00  0.00    -0.082 A 
ATOM      7  C5  PXY d   1       2.371  -0.248   5.180  0.00  0.00     0.003 A 
ATOM      8  C6  PXY d   1       2.128   0.703   4.193  0.00  0.00     0.003 A 
ENDROOT
TORSDOF 0
ENDMDL
