MODEL 1
REMARK minimizedAffinity 7.84319687
REMARK minimizedRMSD -1
REMARK  0 active torsions:
REMARK  status: ('A' for Active; 'I' for Inactive)
ROOT
ATOM      1  C4' PXY d   1       3.796  -1.061   5.998  0.00  0.00     0.077 C 
ATOM      2  C1' PXY d   1      -0.306   0.486   2.230  0.00  0.00     0.077 C 
ATOM      3  C1  PXY d   1       0.772   0.093   3.220  0.00  0.00    -0.082 A 
ATOM      4  C2  PXY d   1       1.326  -1.106   3.142  0.00  0.00     0.003 A 
ATOM      5  C3  PXY d   1       2.280  -1.490   4.050  0.00  0.00     0.003 A 
ATOM      6  C4  PXY d   1       2.710  -0.618   5.014  0.00  0.00    -0.082 A 
ATOM      7  C5  PXY d   1       2.157   0.611   5.093  0.00  0.00     0.003 A 
ATOM      8  C6  PXY d   1       1.161   0.967   4.188  0.00  0.00     0.003 A 
ENDROOT
TORSDOF 0
ENDMDL
