MODEL 1
REMARK minimizedAffinity 13.994298
REMARK minimizedRMSD -1
REMARK  0 active torsions:
REMARK  status: ('A' for Active; 'I' for Inactive)
ROOT
ATOM      1  C4' PXY d   1       5.247  -1.134   6.000  0.00  0.00     0.077 C 
ATOM      2  C1' PXY d   1       0.457  -0.027   2.960  0.00  0.00     0.077 C 
ATOM      3  C1  PXY d   1       1.720  -0.309   3.750  0.00  0.00    -0.082 A 
ATOM      4  C2  PXY d   1       1.832  -1.444   4.420  0.00  0.00     0.003 A 
ATOM      5  C3  PXY d   1       2.954  -1.701   5.165  0.00  0.00     0.003 A 
ATOM      6  C4  PXY d   1       3.994  -0.811   5.181  0.00  0.00    -0.082 A 
ATOM      7  C5  PXY d   1       3.891   0.345   4.491  0.00  0.00     0.003 A 
ATOM      8  C6  PXY d   1       2.727   0.605   3.774  0.00  0.00     0.003 A 
ENDROOT
TORSDOF 0
ENDMDL
