MODEL 1
REMARK minimizedAffinity 6.35953522
REMARK minimizedRMSD -1
REMARK  0 active torsions:
REMARK  status: ('A' for Active; 'I' for Inactive)
ROOT
ATOM      1  C4' PXY d   1      -1.886  -5.087  -5.876  0.00  0.00     0.077 C 
ATOM      2  C1' PXY d   1      -0.577  -2.165  -1.063  0.00  0.00     0.077 C 
ATOM      3  C1  PXY d   1      -0.915  -2.942  -2.320  0.00  0.00    -0.082 A 
ATOM      4  C2  PXY d   1      -1.040  -2.302  -3.471  0.00  0.00     0.003 A 
ATOM      5  C3  PXY d   1      -1.377  -2.985  -4.612  0.00  0.00     0.003 A 
ATOM      6  C4  PXY d   1      -1.536  -4.344  -4.584  0.00  0.00    -0.082 A 
ATOM      7  C5  PXY d   1      -1.400  -5.006  -3.415  0.00  0.00     0.003 A 
ATOM      8  C6  PXY d   1      -1.098  -4.289  -2.261  0.00  0.00     0.003 A 
ENDROOT
TORSDOF 0
ENDMDL
