MODEL 1
REMARK minimizedAffinity 5.33811378
REMARK minimizedRMSD -1
REMARK  0 active torsions:
REMARK  status: ('A' for Active; 'I' for Inactive)
ROOT
ATOM      1  C4' PXY d   1       2.419   0.683  -5.105  0.00  0.00     0.077 C 
ATOM      2  C1' PXY d   1      -1.496  -2.635  -2.444  0.00  0.00     0.077 C 
ATOM      3  C1  PXY d   1      -0.462  -1.775  -3.145  0.00  0.00    -0.082 A 
ATOM      4  C2  PXY d   1      -0.330  -0.503  -2.804  0.00  0.00     0.003 A 
ATOM      5  C3  PXY d   1       0.578   0.296  -3.450  0.00  0.00     0.003 A 
ATOM      6  C4  PXY d   1       1.395  -0.224  -4.418  0.00  0.00    -0.082 A 
ATOM      7  C5  PXY d   1       1.273  -1.523  -4.763  0.00  0.00     0.003 A 
ATOM      8  C6  PXY d   1       0.317  -2.308  -4.124  0.00  0.00     0.003 A 
ENDROOT
TORSDOF 0
ENDMDL
