MODEL 1
REMARK minimizedAffinity 3.23013425
REMARK minimizedRMSD -1
REMARK  0 active torsions:
REMARK  status: ('A' for Active; 'I' for Inactive)
ROOT
ATOM      1  C4' PXY d   1       1.915  -0.583   3.766  0.00  0.00     0.077 C 
ATOM      2  C1' PXY d   1      -3.065   0.784   1.169  0.00  0.00     0.077 C 
ATOM      3  C1  PXY d   1      -1.762   0.413   1.849  0.00  0.00    -0.082 A 
ATOM      4  C2  PXY d   1      -1.181   1.277   2.665  0.00  0.00     0.003 A 
ATOM      5  C3  PXY d   1       0.014   0.970   3.263  0.00  0.00     0.003 A 
ATOM      6  C4  PXY d   1       0.594  -0.254   3.066  0.00  0.00    -0.082 A 
ATOM      7  C5  PXY d   1       0.002  -1.145   2.242  0.00  0.00     0.003 A 
ATOM      8  C6  PXY d   1      -1.190  -0.799   1.612  0.00  0.00     0.003 A 
ENDROOT
TORSDOF 0
ENDMDL
