MODEL 1
REMARK minimizedAffinity 10.1352901
REMARK minimizedRMSD -1
REMARK  0 active torsions:
REMARK  status: ('A' for Active; 'I' for Inactive)
ROOT
ATOM      1  C4' PXY d   1       2.062  -0.229   3.782  0.00  0.00     0.077 C 
ATOM      2  C1' PXY d   1      -0.886  -1.559  -1.009  0.00  0.00     0.077 C 
ATOM      3  C1  PXY d   1      -0.115  -1.198   0.245  0.00  0.00    -0.082 A 
ATOM      4  C2  PXY d   1       0.776  -2.046   0.733  0.00  0.00     0.003 A 
ATOM      5  C3  PXY d   1       1.459  -1.749   1.884  0.00  0.00     0.003 A 
ATOM      6  C4  PXY d   1       1.267  -0.548   2.513  0.00  0.00    -0.082 A 
ATOM      7  C5  PXY d   1       0.368   0.328   2.016  0.00  0.00     0.003 A 
ATOM      8  C6  PXY d   1      -0.345  -0.011   0.869  0.00  0.00     0.003 A 
ENDROOT
TORSDOF 0
ENDMDL
