MODEL 1
REMARK minimizedAffinity 6.72598314
REMARK minimizedRMSD -1
REMARK  0 active torsions:
REMARK  status: ('A' for Active; 'I' for Inactive)
ROOT
ATOM      1  C4' PXY d   1       5.234  -4.500   6.000  0.00  0.00     0.077 C 
ATOM      2  C1' PXY d   1       2.507  -0.065   3.488  0.00  0.00     0.077 C 
ATOM      3  C1  PXY d   1       3.211  -1.234   4.150  0.00  0.00    -0.082 A 
ATOM      4  C2  PXY d   1       4.449  -1.086   4.592  0.00  0.00     0.003 A 
ATOM      5  C3  PXY d   1       5.112  -2.142   5.164  0.00  0.00     0.003 A 
ATOM      6  C4  PXY d   1       4.481  -3.345   5.334  0.00  0.00    -0.082 A 
ATOM      7  C5  PXY d   1       3.214  -3.501   4.895  0.00  0.00     0.003 A 
ATOM      8  C6  PXY d   1       2.574  -2.429   4.280  0.00  0.00     0.003 A 
ENDROOT
TORSDOF 0
ENDMDL
