MODEL 1
REMARK minimizedAffinity 14.8438101
REMARK minimizedRMSD -1
REMARK  0 active torsions:
REMARK  status: ('A' for Active; 'I' for Inactive)
ROOT
ATOM      1  C4' PXY d   1       2.153  -2.490   3.225  0.00  0.00     0.077 C 
ATOM      2  C1' PXY d   1       5.124   2.454   3.618  0.00  0.00     0.077 C 
ATOM      3  C1  PXY d   1       4.334   1.164   3.514  0.00  0.00    -0.082 A 
ATOM      4  C2  PXY d   1       4.815   0.056   4.053  0.00  0.00     0.003 A 
ATOM      5  C3  PXY d   1       4.129  -1.125   3.940  0.00  0.00     0.003 A 
ATOM      6  C4  PXY d   1       2.912  -1.163   3.314  0.00  0.00    -0.082 A 
ATOM      7  C5  PXY d   1       2.409  -0.035   2.770  0.00  0.00     0.003 A 
ATOM      8  C6  PXY d   1       3.140   1.146   2.860  0.00  0.00     0.003 A 
ENDROOT
TORSDOF 0
ENDMDL
