MODEL 1
REMARK minimizedAffinity -1.6095717
REMARK minimizedRMSD -1
REMARK  0 active torsions:
REMARK  status: ('A' for Active; 'I' for Inactive)
ROOT
ATOM      1  O1  BZF d   1       3.912  -0.001   3.929  0.00  0.00    -0.204 OA
ATOM      2  C2  BZF d   1       4.986   0.332   3.127  0.00  0.00     0.174 A 
ATOM      3  C3  BZF d   1       5.989  -0.557   3.278  0.00  0.00    -0.012 A 
ATOM      4  C3A BZF d   1       5.476  -1.557   4.164  0.00  0.00    -0.107 A 
ATOM      5  C4  BZF d   1       5.996  -2.709   4.681  0.00  0.00     0.055 A 
ATOM      6  C5  BZF d   1       5.262  -3.421   5.576  0.00  0.00    -0.016 A 
ATOM      7  C6  BZF d   1       4.009  -3.009   5.979  0.00  0.00     0.022 A 
ATOM      8  C7  BZF d   1       3.449  -1.875   5.490  0.00  0.00     0.029 A 
ATOM      9  C7A BZF d   1       4.175  -1.171   4.561  0.00  0.00     0.058 A 
ENDROOT
TORSDOF 0
ENDMDL
