MODEL 1
REMARK minimizedAffinity -2.60257339
REMARK minimizedRMSD -1
REMARK  0 active torsions:
REMARK  status: ('A' for Active; 'I' for Inactive)
ROOT
ATOM      1  O1  BZF d   1      -1.716   0.048   3.910  0.00  0.00    -0.204 OA
ATOM      2  C2  BZF d   1      -2.593   1.025   4.342  0.00  0.00     0.174 A 
ATOM      3  C3  BZF d   1      -2.991   1.800   3.313  0.00  0.00    -0.012 A 
ATOM      4  C3A BZF d   1      -2.393   1.218   2.151  0.00  0.00    -0.107 A 
ATOM      5  C4  BZF d   1      -2.428   1.529   0.821  0.00  0.00     0.055 A 
ATOM      6  C5  BZF d   1      -1.675   0.804  -0.047  0.00  0.00    -0.016 A 
ATOM      7  C6  BZF d   1      -0.871  -0.232   0.380  0.00  0.00     0.022 A 
ATOM      8  C7  BZF d   1      -0.807  -0.581   1.688  0.00  0.00     0.029 A 
ATOM      9  C7A BZF d   1      -1.593   0.128   2.563  0.00  0.00     0.058 A 
ENDROOT
TORSDOF 0
ENDMDL
