MODEL 1
REMARK minimizedAffinity 2.81281304
REMARK minimizedRMSD -1
REMARK  0 active torsions:
REMARK  status: ('A' for Active; 'I' for Inactive)
ROOT
ATOM      1  O1  BZF d   1       1.059  -1.371  -3.324  0.00  0.00    -0.204 OA
ATOM      2  C2  BZF d   1       1.257  -0.121  -3.877  0.00  0.00     0.174 A 
ATOM      3  C3  BZF d   1       0.861   0.847  -3.026  0.00  0.00    -0.012 A 
ATOM      4  C3A BZF d   1       0.473   0.162  -1.831  0.00  0.00    -0.107 A 
ATOM      5  C4  BZF d   1       0.004   0.581  -0.619  0.00  0.00     0.055 A 
ATOM      6  C5  BZF d   1      -0.351  -0.347   0.309  0.00  0.00    -0.016 A 
ATOM      7  C6  BZF d   1      -0.254  -1.699   0.056  0.00  0.00     0.022 A 
ATOM      8  C7  BZF d   1       0.210  -2.163  -1.130  0.00  0.00     0.029 A 
ATOM      9  C7A BZF d   1       0.600  -1.228  -2.057  0.00  0.00     0.058 A 
ENDROOT
TORSDOF 0
ENDMDL
