MODEL 1
REMARK minimizedAffinity -5.83267069
REMARK minimizedRMSD -1
REMARK  0 active torsions:
REMARK  status: ('A' for Active; 'I' for Inactive)
ROOT
ATOM      1  O1  BZF d   1      -3.221   2.394   6.000  0.00  0.00    -0.204 OA
ATOM      2  C2  BZF d   1      -3.175   1.437   5.005  0.00  0.00     0.174 A 
ATOM      3  C3  BZF d   1      -3.375   1.995   3.794  0.00  0.00    -0.012 A 
ATOM      4  C3A BZF d   1      -3.465   3.402   4.039  0.00  0.00    -0.107 A 
ATOM      5  C4  BZF d   1      -3.645   4.486   3.228  0.00  0.00     0.055 A 
ATOM      6  C5  BZF d   1      -3.761   5.718   3.789  0.00  0.00    -0.016 A 
ATOM      7  C6  BZF d   1      -3.707   5.902   5.155  0.00  0.00     0.022 A 
ATOM      8  C7  BZF d   1      -3.525   4.858   6.000  0.00  0.00     0.029 A 
ATOM      9  C7A BZF d   1      -3.374   3.615   5.434  0.00  0.00     0.058 A 
ENDROOT
TORSDOF 0
ENDMDL
