MODEL 1
REMARK minimizedAffinity 2.17473364
REMARK minimizedRMSD -1
REMARK  0 active torsions:
REMARK  status: ('A' for Active; 'I' for Inactive)
ROOT
ATOM      1  O1  BZF d   1       5.930  -0.246  -2.619  0.00  0.00    -0.204 OA
ATOM      2  C2  BZF d   1       5.878   1.015  -3.181  0.00  0.00     0.174 A 
ATOM      3  C3  BZF d   1       5.876   0.939  -4.528  0.00  0.00    -0.012 A 
ATOM      4  C3A BZF d   1       5.836  -0.460  -4.826  0.00  0.00    -0.107 A 
ATOM      5  C4  BZF d   1       5.801  -1.171  -5.991  0.00  0.00     0.055 A 
ATOM      6  C5  BZF d   1       5.842  -2.529  -5.938  0.00  0.00    -0.016 A 
ATOM      7  C6  BZF d   1       5.924  -3.206  -4.739  0.00  0.00     0.022 A 
ATOM      8  C7  BZF d   1       5.957  -2.544  -3.557  0.00  0.00     0.029 A 
ATOM      9  C7A BZF d   1       5.882  -1.174  -3.605  0.00  0.00     0.058 A 
ENDROOT
TORSDOF 0
ENDMDL
