MODEL 1
REMARK minimizedAffinity 7.78363085
REMARK minimizedRMSD -1
REMARK  0 active torsions:
REMARK  status: ('A' for Active; 'I' for Inactive)
ROOT
ATOM      1  O1  BZF d   1       3.735   1.721  -0.534  0.00  0.00    -0.204 OA
ATOM      2  C2  BZF d   1       3.236   2.470   0.515  0.00  0.00     0.174 A 
ATOM      3  C3  BZF d   1       1.892   2.369   0.578  0.00  0.00    -0.012 A 
ATOM      4  C3A BZF d   1       1.537   1.430  -0.442  0.00  0.00    -0.107 A 
ATOM      5  C4  BZF d   1       0.348   0.904  -0.861  0.00  0.00     0.055 A 
ATOM      6  C5  BZF d   1       0.337   0.067  -1.931  0.00  0.00    -0.016 A 
ATOM      7  C6  BZF d   1       1.494  -0.260  -2.609  0.00  0.00     0.022 A 
ATOM      8  C7  BZF d   1       2.697   0.233  -2.227  0.00  0.00     0.029 A 
ATOM      9  C7A BZF d   1       2.716   1.053  -1.125  0.00  0.00     0.058 A 
ENDROOT
TORSDOF 0
ENDMDL
