MODEL 1
REMARK minimizedAffinity 12.2286043
REMARK minimizedRMSD -1
REMARK  0 active torsions:
REMARK  status: ('A' for Active; 'I' for Inactive)
ROOT
ATOM      1  O1  BZF d   1       0.455  -2.571  -1.850  0.00  0.00    -0.204 OA
ATOM      2  C2  BZF d   1       0.850  -3.141  -3.044  0.00  0.00     0.174 A 
ATOM      3  C3  BZF d   1       1.146  -2.190  -3.953  0.00  0.00    -0.012 A 
ATOM      4  C3A BZF d   1       1.010  -0.948  -3.257  0.00  0.00    -0.107 A 
ATOM      5  C4  BZF d   1       1.186   0.357  -3.620  0.00  0.00     0.055 A 
ATOM      6  C5  BZF d   1       0.900   1.336  -2.723  0.00  0.00    -0.016 A 
ATOM      7  C6  BZF d   1       0.431   1.048  -1.458  0.00  0.00     0.022 A 
ATOM      8  C7  BZF d   1       0.245  -0.231  -1.050  0.00  0.00     0.029 A 
ATOM      9  C7A BZF d   1       0.565  -1.224  -1.943  0.00  0.00     0.058 A 
ENDROOT
TORSDOF 0
ENDMDL
