MODEL 1
REMARK minimizedAffinity 2.93741894
REMARK minimizedRMSD -1
REMARK  0 active torsions:
REMARK  status: ('A' for Active; 'I' for Inactive)
ROOT
ATOM      1  O1  BZF d   1       4.674   2.722   2.867  0.00  0.00    -0.204 OA
ATOM      2  C2  BZF d   1       3.684   2.583   1.914  0.00  0.00     0.174 A 
ATOM      3  C3  BZF d   1       3.376   1.282   1.731  0.00  0.00    -0.012 A 
ATOM      4  C3A BZF d   1       4.161   0.571   2.693  0.00  0.00    -0.107 A 
ATOM      5  C4  BZF d   1       4.282  -0.751   3.012  0.00  0.00     0.055 A 
ATOM      6  C5  BZF d   1       5.192  -1.123   3.951  0.00  0.00    -0.016 A 
ATOM      7  C6  BZF d   1       6.000  -0.201   4.584  0.00  0.00     0.022 A 
ATOM      8  C7  BZF d   1       5.912   1.122   4.304  0.00  0.00     0.029 A 
ATOM      9  C7A BZF d   1       4.971   1.504   3.380  0.00  0.00     0.058 A 
ENDROOT
TORSDOF 0
ENDMDL
