MODEL 1
REMARK minimizedAffinity 12.5883741
REMARK minimizedRMSD -1
REMARK  0 active torsions:
REMARK  status: ('A' for Active; 'I' for Inactive)
ROOT
ATOM      1  O1  BZF d   1      -5.693   5.994   4.697  0.00  0.00    -0.204 OA
ATOM      2  C2  BZF d   1      -5.196   5.989   5.986  0.00  0.00     0.174 A 
ATOM      3  C3  BZF d   1      -3.905   5.600   6.000  0.00  0.00    -0.012 A 
ATOM      4  C3A BZF d   1      -3.547   5.434   4.625  0.00  0.00    -0.107 A 
ATOM      5  C4  BZF d   1      -2.391   5.075   3.992  0.00  0.00     0.055 A 
ATOM      6  C5  BZF d   1      -2.394   4.936   2.640  0.00  0.00    -0.016 A 
ATOM      7  C6  BZF d   1      -3.533   5.144   1.891  0.00  0.00     0.022 A 
ATOM      8  C7  BZF d   1      -4.702   5.507   2.473  0.00  0.00     0.029 A 
ATOM      9  C7A BZF d   1      -4.695   5.680   3.836  0.00  0.00     0.058 A 
ENDROOT
TORSDOF 0
ENDMDL
