MODEL 1
REMARK minimizedAffinity 8.2624464
REMARK minimizedRMSD -1
REMARK  0 active torsions:
REMARK  status: ('A' for Active; 'I' for Inactive)
ROOT
ATOM      1  O1  BZF d   1       0.900  -2.565  -2.698  0.00  0.00    -0.204 OA
ATOM      2  C2  BZF d   1       1.155  -2.285  -4.027  0.00  0.00     0.174 A 
ATOM      3  C3  BZF d   1       0.991  -0.970  -4.279  0.00  0.00    -0.012 A 
ATOM      4  C3A BZF d   1       0.700  -0.377  -3.010  0.00  0.00    -0.107 A 
ATOM      5  C4  BZF d   1       0.453   0.904  -2.606  0.00  0.00     0.055 A 
ATOM      6  C5  BZF d   1       0.131   1.137  -1.307  0.00  0.00    -0.016 A 
ATOM      7  C6  BZF d   1       0.042   0.113  -0.386  0.00  0.00     0.022 A 
ATOM      8  C7  BZF d   1       0.283  -1.173  -0.738  0.00  0.00     0.029 A 
ATOM      9  C7A BZF d   1       0.641  -1.408  -2.043  0.00  0.00     0.058 A 
ENDROOT
TORSDOF 0
ENDMDL
