MODEL 1
REMARK minimizedAffinity 0.955680013
REMARK minimizedRMSD -1
REMARK  0 active torsions:
REMARK  status: ('A' for Active; 'I' for Inactive)
ROOT
ATOM      1  O1  BZF d   1      -2.613   2.145   4.934  0.00  0.00    -0.204 OA
ATOM      2  C2  BZF d   1      -3.631   1.306   5.344  0.00  0.00     0.174 A 
ATOM      3  C3  BZF d   1      -4.653   2.013   5.868  0.00  0.00    -0.012 A 
ATOM      4  C3A BZF d   1      -4.287   3.386   5.695  0.00  0.00    -0.107 A 
ATOM      5  C4  BZF d   1      -4.902   4.567   6.000  0.00  0.00     0.055 A 
ATOM      6  C5  BZF d   1      -4.244   5.733   5.767  0.00  0.00    -0.016 A 
ATOM      7  C6  BZF d   1      -2.971   5.755   5.235  0.00  0.00     0.022 A 
ATOM      8  C7  BZF d   1      -2.323   4.610   4.912  0.00  0.00     0.029 A 
ATOM      9  C7A BZF d   1      -2.998   3.431   5.116  0.00  0.00     0.058 A 
ENDROOT
TORSDOF 0
ENDMDL
