MODEL 1
REMARK minimizedAffinity 3.0523982
REMARK minimizedRMSD -1
REMARK  0 active torsions:
REMARK  status: ('A' for Active; 'I' for Inactive)
ROOT
ATOM      1  O1  BZF d   1       3.596   4.112  -5.262  0.00  0.00    -0.204 OA
ATOM      2  C2  BZF d   1       4.349   4.897  -4.410  0.00  0.00     0.174 A 
ATOM      3  C3  BZF d   1       5.348   4.179  -3.857  0.00  0.00    -0.012 A 
ATOM      4  C3A BZF d   1       5.267   2.888  -4.467  0.00  0.00    -0.107 A 
ATOM      5  C4  BZF d   1       6.000   1.742  -4.341  0.00  0.00     0.055 A 
ATOM      6  C5  BZF d   1       5.614   0.633  -5.025  0.00  0.00    -0.016 A 
ATOM      7  C6  BZF d   1       4.500   0.633  -5.839  0.00  0.00     0.022 A 
ATOM      8  C7  BZF d   1       3.745   1.747  -5.999  0.00  0.00     0.029 A 
ATOM      9  C7A BZF d   1       4.151   2.878  -5.335  0.00  0.00     0.058 A 
ENDROOT
TORSDOF 0
ENDMDL
