MODEL 1
REMARK minimizedAffinity 8.94704151
REMARK minimizedRMSD -1
REMARK  0 active torsions:
REMARK  status: ('A' for Active; 'I' for Inactive)
ROOT
ATOM      1  O1  BZF d   1      -3.380   1.399   6.000  0.00  0.00    -0.204 OA
ATOM      2  C2  BZF d   1      -3.735   2.483   5.219  0.00  0.00     0.174 A 
ATOM      3  C3  BZF d   1      -3.964   2.100   3.946  0.00  0.00    -0.012 A 
ATOM      4  C3A BZF d   1      -3.828   0.676   3.951  0.00  0.00    -0.107 A 
ATOM      5  C4  BZF d   1      -3.954  -0.282   2.986  0.00  0.00     0.055 A 
ATOM      6  C5  BZF d   1      -3.683  -1.576   3.301  0.00  0.00    -0.016 A 
ATOM      7  C6  BZF d   1      -3.281  -1.946   4.567  0.00  0.00     0.022 A 
ATOM      8  C7  BZF d   1      -3.147  -1.032   5.559  0.00  0.00     0.029 A 
ATOM      9  C7A BZF d   1      -3.451   0.272   5.252  0.00  0.00     0.058 A 
ENDROOT
TORSDOF 0
ENDMDL
