MODEL 1
REMARK minimizedAffinity 9.92203808
REMARK minimizedRMSD -1
REMARK  0 active torsions:
REMARK  status: ('A' for Active; 'I' for Inactive)
ROOT
ATOM      1  O1  BZF d   1       4.708   2.020  -5.999  0.00  0.00    -0.204 OA
ATOM      2  C2  BZF d   1       5.894   1.969  -5.292  0.00  0.00     0.174 A 
ATOM      3  C3  BZF d   1       6.000   3.025  -4.460  0.00  0.00    -0.012 A 
ATOM      4  C3A BZF d   1       4.764   3.734  -4.591  0.00  0.00    -0.107 A 
ATOM      5  C4  BZF d   1       4.262   4.862  -4.008  0.00  0.00     0.055 A 
ATOM      6  C5  BZF d   1       3.052   5.331  -4.410  0.00  0.00    -0.016 A 
ATOM      7  C6  BZF d   1       2.320   4.701  -5.395  0.00  0.00     0.022 A 
ATOM      8  C7  BZF d   1       2.774   3.576  -6.000  0.00  0.00     0.029 A 
ATOM      9  C7A BZF d   1       3.982   3.081  -5.572  0.00  0.00     0.058 A 
ENDROOT
TORSDOF 0
ENDMDL
