MODEL 1
REMARK minimizedAffinity 8.32150745
REMARK minimizedRMSD -1
REMARK  0 active torsions:
REMARK  status: ('A' for Active; 'I' for Inactive)
ROOT
ATOM      1  O1  BZF d   1      -1.712   5.710   3.812  0.00  0.00    -0.204 OA
ATOM      2  C2  BZF d   1      -1.879   5.572   2.448  0.00  0.00     0.174 A 
ATOM      3  C3  BZF d   1      -3.188   5.522   2.129  0.00  0.00    -0.012 A 
ATOM      4  C3A BZF d   1      -3.884   5.728   3.362  0.00  0.00    -0.107 A 
ATOM      5  C4  BZF d   1      -5.207   5.800   3.692  0.00  0.00     0.055 A 
ATOM      6  C5  BZF d   1      -5.555   5.937   4.999  0.00  0.00    -0.016 A 
ATOM      7  C6  BZF d   1      -4.608   5.999   6.000  0.00  0.00     0.022 A 
ATOM      8  C7  BZF d   1      -3.283   5.937   5.720  0.00  0.00     0.029 A 
ATOM      9  C7A BZF d   1      -2.927   5.832   4.398  0.00  0.00     0.058 A 
ENDROOT
TORSDOF 0
ENDMDL
