MODEL 1
REMARK minimizedAffinity 9.80318832
REMARK minimizedRMSD -1
REMARK  0 active torsions:
REMARK  status: ('A' for Active; 'I' for Inactive)
ROOT
ATOM      1  O1  BZF d   1       2.954   5.108  -4.429  0.00  0.00    -0.204 OA
ATOM      2  C2  BZF d   1       1.872   4.778  -5.222  0.00  0.00     0.174 A 
ATOM      3  C3  BZF d   1       2.155   3.712  -5.998  0.00  0.00    -0.012 A 
ATOM      4  C3A BZF d   1       3.466   3.296  -5.603  0.00  0.00    -0.107 A 
ATOM      5  C4  BZF d   1       4.288   2.280  -6.000  0.00  0.00     0.055 A 
ATOM      6  C5  BZF d   1       5.535   2.194  -5.467  0.00  0.00    -0.016 A 
ATOM      7  C6  BZF d   1       5.994   3.107  -4.541  0.00  0.00     0.022 A 
ATOM      8  C7  BZF d   1       5.213   4.129  -4.113  0.00  0.00     0.029 A 
ATOM      9  C7A BZF d   1       3.940   4.200  -4.625  0.00  0.00     0.058 A 
ENDROOT
TORSDOF 0
ENDMDL
