MODEL 1
REMARK minimizedAffinity 13.0469389
REMARK minimizedRMSD -1
REMARK  0 active torsions:
REMARK  status: ('A' for Active; 'I' for Inactive)
ROOT
ATOM      1  O1  BZF d   1       4.176  -0.074   3.927  0.00  0.00    -0.204 OA
ATOM      2  C2  BZF d   1       5.110  -0.400   4.892  0.00  0.00     0.174 A 
ATOM      3  C3  BZF d   1       5.999   0.600   5.054  0.00  0.00    -0.012 A 
ATOM      4  C3A BZF d   1       5.543   1.652   4.199  0.00  0.00    -0.107 A 
ATOM      5  C4  BZF d   1       5.999   2.912   3.933  0.00  0.00     0.055 A 
ATOM      6  C5  BZF d   1       5.366   3.659   2.992  0.00  0.00    -0.016 A 
ATOM      7  C6  BZF d   1       4.278   3.177   2.293  0.00  0.00     0.022 A 
ATOM      8  C7  BZF d   1       3.785   1.936   2.526  0.00  0.00     0.029 A 
ATOM      9  C7A BZF d   1       4.403   1.191   3.500  0.00  0.00     0.058 A 
ENDROOT
TORSDOF 0
ENDMDL
