MODEL 1
REMARK minimizedAffinity -0.311860681
REMARK minimizedRMSD -1
REMARK  0 active torsions:
REMARK  status: ('A' for Active; 'I' for Inactive)
ROOT
ATOM      1  O1  BZF d   1      -0.246  -0.527  -1.343  0.00  0.00    -0.204 OA
ATOM      2  C2  BZF d   1       0.200  -1.603  -0.600  0.00  0.00     0.174 A 
ATOM      3  C3  BZF d   1       1.301  -1.274   0.106  0.00  0.00    -0.012 A 
ATOM      4  C3A BZF d   1       1.507   0.119  -0.146  0.00  0.00    -0.107 A 
ATOM      5  C4  BZF d   1       2.434   1.024   0.286  0.00  0.00     0.055 A 
ATOM      6  C5  BZF d   1       2.398   2.291  -0.204  0.00  0.00    -0.016 A 
ATOM      7  C6  BZF d   1       1.455   2.685  -1.131  0.00  0.00     0.022 A 
ATOM      8  C7  BZF d   1       0.512   1.824  -1.585  0.00  0.00     0.029 A 
ATOM      9  C7A BZF d   1       0.524   0.552  -1.066  0.00  0.00     0.058 A 
ENDROOT
TORSDOF 0
ENDMDL
