MODEL 1
REMARK minimizedAffinity 15.6051302
REMARK minimizedRMSD -1
REMARK  0 active torsions:
REMARK  status: ('A' for Active; 'I' for Inactive)
ROOT
ATOM      1  O1  BZF d   1       0.542   0.648  -2.915  0.00  0.00    -0.204 OA
ATOM      2  C2  BZF d   1       0.458   0.956  -1.571  0.00  0.00     0.174 A 
ATOM      3  C3  BZF d   1       0.462  -0.166  -0.822  0.00  0.00    -0.012 A 
ATOM      4  C3A BZF d   1       0.647  -1.238  -1.751  0.00  0.00    -0.107 A 
ATOM      5  C4  BZF d   1       0.751  -2.593  -1.613  0.00  0.00     0.055 A 
ATOM      6  C5  BZF d   1       0.853  -3.364  -2.727  0.00  0.00    -0.016 A 
ATOM      7  C6  BZF d   1       0.849  -2.816  -3.993  0.00  0.00     0.022 A 
ATOM      8  C7  BZF d   1       0.753  -1.477  -4.180  0.00  0.00     0.029 A 
ATOM      9  C7A BZF d   1       0.683  -0.692  -3.055  0.00  0.00     0.058 A 
ENDROOT
TORSDOF 0
ENDMDL
