MODEL 1
REMARK minimizedAffinity -2.01080108
REMARK minimizedRMSD -1
REMARK  1 active torsions:
REMARK  status: ('A' for Active; 'I' for Inactive)
REMARK    1  A    between atoms: C3_4  and  O_7 
ROOT
ATOM      1  C   UNL d   1       2.205  -1.443  -0.614  0.00  0.00    -0.033 A 
ATOM      2  C1  UNL d   1       1.406  -0.704  -1.488  0.00  0.00     0.039 A 
ATOM      3  C2  UNL d   1       1.492   0.689  -1.506  0.00  0.00    -0.080 A 
ATOM      4  C3  UNL d   1       2.380   1.331  -0.647  0.00  0.00     0.150 A 
ATOM      5  C4  UNL d   1       3.182   0.600   0.224  0.00  0.00    -0.007 A 
ATOM      6  C5  UNL d   1       3.094  -0.791   0.241  0.00  0.00     0.039 A 
ENDROOT
BRANCH   4   7
ATOM      7  O   UNL d   1       2.495   2.689  -0.625  0.00  0.00    -0.526 OA
ATOM      8  H5  UNL d   1       1.860   3.062  -1.259  0.00  0.00     0.418 HD
ENDBRANCH   4   7
TORSDOF 1
ENDMDL
