MODEL 1
REMARK minimizedAffinity 1.61408365
REMARK minimizedRMSD -1
REMARK  1 active torsions:
REMARK  status: ('A' for Active; 'I' for Inactive)
REMARK    1  A    between atoms: C3_4  and  O_7 
ROOT
ATOM      1  C   UNL d   1       1.889  -0.875  -1.212  0.00  0.00    -0.033 A 
ATOM      2  C1  UNL d   1       1.270   0.168  -1.904  0.00  0.00     0.039 A 
ATOM      3  C2  UNL d   1       1.641   1.490  -1.655  0.00  0.00    -0.080 A 
ATOM      4  C3  UNL d   1       2.632   1.757  -0.714  0.00  0.00     0.150 A 
ATOM      5  C4  UNL d   1       3.256   0.722  -0.024  0.00  0.00    -0.007 A 
ATOM      6  C5  UNL d   1       2.883  -0.598  -0.273  0.00  0.00     0.039 A 
ENDROOT
BRANCH   4   7
ATOM      7  O   UNL d   1       3.024   3.032  -0.433  0.00  0.00    -0.526 OA
ATOM      8  H5  UNL d   1       2.487   3.643  -0.964  0.00  0.00     0.418 HD
ENDBRANCH   4   7
TORSDOF 1
ENDMDL
