MODEL 1
REMARK minimizedAffinity 2.1175983
REMARK minimizedRMSD -1
REMARK  1 active torsions:
REMARK  status: ('A' for Active; 'I' for Inactive)
REMARK    1  A    between atoms: C3_4  and  O_7 
ROOT
ATOM      1  C   UNL d   1      -3.769   1.968  -5.434  0.00  0.00    -0.033 A 
ATOM      2  C1  UNL d   1      -3.055   0.910  -6.000  0.00  0.00     0.039 A 
ATOM      3  C2  UNL d   1      -3.339  -0.405  -5.626  0.00  0.00    -0.080 A 
ATOM      4  C3  UNL d   1      -4.338  -0.649  -4.687  0.00  0.00     0.150 A 
ATOM      5  C4  UNL d   1      -5.055   0.400  -4.122  0.00  0.00    -0.007 A 
ATOM      6  C5  UNL d   1      -4.770   1.713  -4.496  0.00  0.00     0.039 A 
ENDROOT
BRANCH   4   7
ATOM      7  O   UNL d   1      -4.647  -1.915  -4.288  0.00  0.00    -0.526 OA
ATOM      8  H5  UNL d   1      -4.051  -2.535  -4.740  0.00  0.00     0.418 HD
ENDBRANCH   4   7
TORSDOF 1
ENDMDL
