MODEL 1
REMARK minimizedAffinity 0.93765384
REMARK minimizedRMSD -1
REMARK  1 active torsions:
REMARK  status: ('A' for Active; 'I' for Inactive)
REMARK    1  A    between atoms: C3_4  and  O_7 
ROOT
ATOM      1  C   UNL d   1       3.117  -2.228  -0.046  0.00  0.00    -0.033 A 
ATOM      2  C1  UNL d   1       3.207  -2.822   1.215  0.00  0.00     0.039 A 
ATOM      3  C2  UNL d   1       2.367  -2.400   2.248  0.00  0.00    -0.080 A 
ATOM      4  C3  UNL d   1       1.443  -1.387   2.007  0.00  0.00     0.150 A 
ATOM      5  C4  UNL d   1       1.346  -0.794   0.752  0.00  0.00    -0.007 A 
ATOM      6  C5  UNL d   1       2.186  -1.216  -0.277  0.00  0.00     0.039 A 
ENDROOT
BRANCH   4   7
ATOM      7  O   UNL d   1       0.606  -0.939   2.985  0.00  0.00    -0.526 OA
ATOM      8  H5  UNL d   1       0.806  -1.420   3.806  0.00  0.00     0.418 HD
ENDBRANCH   4   7
TORSDOF 1
ENDMDL
