MODEL 1
REMARK minimizedAffinity -0.0750209093
REMARK minimizedRMSD -1
REMARK  1 active torsions:
REMARK  status: ('A' for Active; 'I' for Inactive)
REMARK    1  A    between atoms: C3_4  and  O_7 
ROOT
ATOM      1  C   UNL d   1      -0.251  -0.326   2.120  0.00  0.00    -0.033 A 
ATOM      2  C1  UNL d   1       0.640  -0.940   3.003  0.00  0.00     0.039 A 
ATOM      3  C2  UNL d   1       1.734  -1.654   2.511  0.00  0.00    -0.080 A 
ATOM      4  C3  UNL d   1       1.926  -1.747   1.135  0.00  0.00     0.150 A 
ATOM      5  C4  UNL d   1       1.045  -1.135   0.249  0.00  0.00    -0.007 A 
ATOM      6  C5  UNL d   1      -0.047  -0.422   0.743  0.00  0.00     0.039 A 
ENDROOT
BRANCH   4   7
ATOM      7  O   UNL d   1       2.976  -2.437   0.607  0.00  0.00    -0.526 OA
ATOM      8  H5  UNL d   1       3.484  -2.830   1.336  0.00  0.00     0.418 HD
ENDBRANCH   4   7
TORSDOF 1
ENDMDL
