MODEL 1
REMARK minimizedAffinity 3.0251441
REMARK minimizedRMSD -1
REMARK  1 active torsions:
REMARK  status: ('A' for Active; 'I' for Inactive)
REMARK    1  A    between atoms: C3_4  and  O_7 
ROOT
ATOM      1  C   UNL d   1      -0.224  -1.201   1.343  0.00  0.00    -0.033 A 
ATOM      2  C1  UNL d   1       1.142  -1.430   1.522  0.00  0.00     0.039 A 
ATOM      3  C2  UNL d   1       1.806  -0.876   2.618  0.00  0.00    -0.080 A 
ATOM      4  C3  UNL d   1       1.094  -0.097   3.526  0.00  0.00     0.150 A 
ATOM      5  C4  UNL d   1      -0.267   0.132   3.356  0.00  0.00    -0.007 A 
ATOM      6  C5  UNL d   1      -0.929  -0.422   2.260  0.00  0.00     0.039 A 
ENDROOT
BRANCH   4   7
ATOM      7  O   UNL d   1       1.700   0.469   4.609  0.00  0.00    -0.526 OA
ATOM      8  H5  UNL d   1       2.646   0.249   4.581  0.00  0.00     0.418 HD
ENDBRANCH   4   7
TORSDOF 1
ENDMDL
