MODEL 1
REMARK minimizedAffinity 5.00200796
REMARK minimizedRMSD -1
REMARK  1 active torsions:
REMARK  status: ('A' for Active; 'I' for Inactive)
REMARK    1  A    between atoms: C3_4  and  O_7 
ROOT
ATOM      1  C   UNL d   1      -0.742  -0.620   3.164  0.00  0.00    -0.033 A 
ATOM      2  C1  UNL d   1       0.408  -1.382   3.375  0.00  0.00     0.039 A 
ATOM      3  C2  UNL d   1       1.268  -1.661   2.311  0.00  0.00    -0.080 A 
ATOM      4  C3  UNL d   1       0.968  -1.172   1.043  0.00  0.00     0.150 A 
ATOM      5  C4  UNL d   1      -0.175  -0.409   0.826  0.00  0.00    -0.007 A 
ATOM      6  C5  UNL d   1      -1.033  -0.132   1.889  0.00  0.00     0.039 A 
ENDROOT
BRANCH   4   7
ATOM      7  O   UNL d   1       1.775  -1.423  -0.027  0.00  0.00    -0.526 OA
ATOM      8  H5  UNL d   1       2.510  -1.986   0.267  0.00  0.00     0.418 HD
ENDBRANCH   4   7
TORSDOF 1
ENDMDL
