MODEL 1
REMARK minimizedAffinity 3.90286112
REMARK minimizedRMSD -1
REMARK  1 active torsions:
REMARK  status: ('A' for Active; 'I' for Inactive)
REMARK    1  A    between atoms: C3_4  and  O_7 
ROOT
ATOM      1  C   UNL d   1       1.685  -1.206   2.918  0.00  0.00    -0.033 A 
ATOM      2  C1  UNL d   1       0.338  -0.841   2.885  0.00  0.00     0.039 A 
ATOM      3  C2  UNL d   1      -0.287  -0.580   1.664  0.00  0.00    -0.080 A 
ATOM      4  C3  UNL d   1       0.445  -0.687   0.485  0.00  0.00     0.150 A 
ATOM      5  C4  UNL d   1       1.787  -1.054   0.510  0.00  0.00    -0.007 A 
ATOM      6  C5  UNL d   1       2.409  -1.314   1.730  0.00  0.00     0.039 A 
ENDROOT
BRANCH   4   7
ATOM      7  O   UNL d   1      -0.120  -0.437  -0.730  0.00  0.00    -0.526 OA
ATOM      8  H5  UNL d   1      -1.043  -0.167  -0.591  0.00  0.00     0.418 HD
ENDBRANCH   4   7
TORSDOF 1
ENDMDL
