MODEL 1
REMARK minimizedAffinity -3.2518816
REMARK minimizedRMSD -1
REMARK  0 active torsions:
REMARK  status: ('A' for Active; 'I' for Inactive)
ROOT
ATOM      1  C1  BNZ d   1       5.060  -4.664   4.148  0.00  0.00     0.000 A 
ATOM      2  C2  BNZ d   1       5.405  -4.571   2.826  0.00  0.00     0.000 A 
ATOM      3  C3  BNZ d   1       5.748  -3.368   2.275  0.00  0.00     0.000 A 
ATOM      4  C4  BNZ d   1       5.707  -2.255   3.035  0.00  0.00     0.000 A 
ATOM      5  C5  BNZ d   1       5.352  -2.331   4.367  0.00  0.00     0.000 A 
ATOM      6  C6  BNZ d   1       5.045  -3.549   4.928  0.00  0.00     0.000 A 
ENDROOT
TORSDOF 0
ENDMDL
