MODEL 1
REMARK minimizedAffinity -2.38531446
REMARK minimizedRMSD -1
REMARK  0 active torsions:
REMARK  status: ('A' for Active; 'I' for Inactive)
ROOT
ATOM      1  C1  BNZ d   1       5.863  -3.957   3.249  0.00  0.00     0.000 A 
ATOM      2  C2  BNZ d   1       5.999  -4.796   4.322  0.00  0.00     0.000 A 
ATOM      3  C3  BNZ d   1       5.944  -4.312   5.600  0.00  0.00     0.000 A 
ATOM      4  C4  BNZ d   1       5.793  -2.987   5.801  0.00  0.00     0.000 A 
ATOM      5  C5  BNZ d   1       5.664  -2.127   4.729  0.00  0.00     0.000 A 
ATOM      6  C6  BNZ d   1       5.680  -2.623   3.445  0.00  0.00     0.000 A 
ENDROOT
TORSDOF 0
ENDMDL
