MODEL 1
REMARK minimizedAffinity -2.29200935
REMARK minimizedRMSD -1
REMARK  0 active torsions:
REMARK  status: ('A' for Active; 'I' for Inactive)
ROOT
ATOM      1  C1  BNZ d   1       5.619  -2.985   2.999  0.00  0.00     0.000 A 
ATOM      2  C2  BNZ d   1       5.268  -3.923   3.933  0.00  0.00     0.000 A 
ATOM      3  C3  BNZ d   1       5.304  -5.256   3.632  0.00  0.00     0.000 A 
ATOM      4  C4  BNZ d   1       5.652  -5.647   2.389  0.00  0.00     0.000 A 
ATOM      5  C5  BNZ d   1       5.999  -4.712   1.434  0.00  0.00     0.000 A 
ATOM      6  C6  BNZ d   1       5.999  -3.373   1.752  0.00  0.00     0.000 A 
ENDROOT
TORSDOF 0
ENDMDL
