MODEL 1
REMARK minimizedAffinity -3.11763191
REMARK minimizedRMSD -1
REMARK  0 active torsions:
REMARK  status: ('A' for Active; 'I' for Inactive)
ROOT
ATOM      1  C1  BNZ d   1       5.041  -4.301   3.692  0.00  0.00     0.000 A 
ATOM      2  C2  BNZ d   1       4.643  -4.789   4.908  0.00  0.00     0.000 A 
ATOM      3  C3  BNZ d   1       4.554  -3.967   5.997  0.00  0.00     0.000 A 
ATOM      4  C4  BNZ d   1       4.901  -2.669   5.878  0.00  0.00     0.000 A 
ATOM      5  C5  BNZ d   1       5.313  -2.164   4.661  0.00  0.00     0.000 A 
ATOM      6  C6  BNZ d   1       5.364  -2.985   3.558  0.00  0.00     0.000 A 
ENDROOT
TORSDOF 0
ENDMDL
