MODEL 1
REMARK minimizedAffinity -3.41663599
REMARK minimizedRMSD -1
REMARK  0 active torsions:
REMARK  status: ('A' for Active; 'I' for Inactive)
ROOT
ATOM      1  C1  BNZ d   1       5.477  -2.353   2.220  0.00  0.00     0.000 A 
ATOM      2  C2  BNZ d   1       5.662  -3.676   1.920  0.00  0.00     0.000 A 
ATOM      3  C3  BNZ d   1       5.875  -4.595   2.909  0.00  0.00     0.000 A 
ATOM      4  C4  BNZ d   1       5.942  -4.185   4.192  0.00  0.00     0.000 A 
ATOM      5  C5  BNZ d   1       5.766  -2.852   4.510  0.00  0.00     0.000 A 
ATOM      6  C6  BNZ d   1       5.514  -1.936   3.515  0.00  0.00     0.000 A 
ENDROOT
TORSDOF 0
ENDMDL
