MODEL 1
REMARK minimizedAffinity -2.81978703
REMARK minimizedRMSD -1
REMARK  0 active torsions:
REMARK  status: ('A' for Active; 'I' for Inactive)
ROOT
ATOM      1  C1  BNZ d   1       5.572  -4.890   4.072  0.00  0.00     0.000 A 
ATOM      2  C2  BNZ d   1       5.527  -5.040   2.711  0.00  0.00     0.000 A 
ATOM      3  C3  BNZ d   1       5.677  -3.964   1.883  0.00  0.00     0.000 A 
ATOM      4  C4  BNZ d   1       5.831  -2.734   2.415  0.00  0.00     0.000 A 
ATOM      5  C5  BNZ d   1       5.870  -2.565   3.785  0.00  0.00     0.000 A 
ATOM      6  C6  BNZ d   1       5.758  -3.656   4.615  0.00  0.00     0.000 A 
ENDROOT
TORSDOF 0
ENDMDL
