MODEL 1
REMARK minimizedAffinity -3.22337484
REMARK minimizedRMSD -1
REMARK  0 active torsions:
REMARK  status: ('A' for Active; 'I' for Inactive)
ROOT
ATOM      1  C1  BNZ d   1       5.285  -2.598   5.247  0.00  0.00     0.000 A 
ATOM      2  C2  BNZ d   1       5.976  -2.112   4.169  0.00  0.00     0.000 A 
ATOM      3  C3  BNZ d   1       5.927  -2.749   2.961  0.00  0.00     0.000 A 
ATOM      4  C4  BNZ d   1       5.221  -3.892   2.842  0.00  0.00     0.000 A 
ATOM      5  C5  BNZ d   1       4.527  -4.400   3.922  0.00  0.00     0.000 A 
ATOM      6  C6  BNZ d   1       4.547  -3.735   5.126  0.00  0.00     0.000 A 
ENDROOT
TORSDOF 0
ENDMDL
