MODEL 1
REMARK minimizedAffinity -3.38176084
REMARK minimizedRMSD -1
REMARK  0 active torsions:
REMARK  status: ('A' for Active; 'I' for Inactive)
ROOT
ATOM      1  C1  BNZ d   1       5.788  -3.060   2.502  0.00  0.00     0.000 A 
ATOM      2  C2  BNZ d   1       5.882  -1.992   3.355  0.00  0.00     0.000 A 
ATOM      3  C3  BNZ d   1       5.449  -2.089   4.648  0.00  0.00     0.000 A 
ATOM      4  C4  BNZ d   1       4.886  -3.238   5.074  0.00  0.00     0.000 A 
ATOM      5  C5  BNZ d   1       4.776  -4.320   4.224  0.00  0.00     0.000 A 
ATOM      6  C6  BNZ d   1       5.249  -4.232   2.935  0.00  0.00     0.000 A 
ENDROOT
TORSDOF 0
ENDMDL
