MODEL 1
REMARK minimizedAffinity -2.38295889
REMARK minimizedRMSD -1
REMARK  0 active torsions:
REMARK  status: ('A' for Active; 'I' for Inactive)
ROOT
ATOM      1  C1  BNZ d   1       5.431  -2.624   4.070  0.00  0.00     0.000 A 
ATOM      2  C2  BNZ d   1       5.995  -3.548   3.231  0.00  0.00     0.000 A 
ATOM      3  C3  BNZ d   1       6.000  -4.876   3.553  0.00  0.00     0.000 A 
ATOM      4  C4  BNZ d   1       5.477  -5.274   4.730  0.00  0.00     0.000 A 
ATOM      5  C5  BNZ d   1       4.912  -4.354   5.591  0.00  0.00     0.000 A 
ATOM      6  C6  BNZ d   1       4.874  -3.023   5.246  0.00  0.00     0.000 A 
ENDROOT
TORSDOF 0
ENDMDL
