MODEL 1
REMARK minimizedAffinity -3.1602962
REMARK minimizedRMSD -1
REMARK  0 active torsions:
REMARK  status: ('A' for Active; 'I' for Inactive)
ROOT
ATOM      1  C1  BNZ d   1       5.654  -4.884   3.605  0.00  0.00     0.000 A 
ATOM      2  C2  BNZ d   1       5.999  -4.498   2.337  0.00  0.00     0.000 A 
ATOM      3  C3  BNZ d   1       5.997  -3.179   1.981  0.00  0.00     0.000 A 
ATOM      4  C4  BNZ d   1       5.611  -2.250   2.881  0.00  0.00     0.000 A 
ATOM      5  C5  BNZ d   1       5.251  -2.624   4.160  0.00  0.00     0.000 A 
ATOM      6  C6  BNZ d   1       5.292  -3.949   4.526  0.00  0.00     0.000 A 
ENDROOT
TORSDOF 0
ENDMDL
