MODEL 1
REMARK minimizedAffinity -2.81099916
REMARK minimizedRMSD -1
REMARK  0 active torsions:
REMARK  status: ('A' for Active; 'I' for Inactive)
ROOT
ATOM      1  C1  BNZ d   1       5.034  -2.450   4.738  0.00  0.00     0.000 A 
ATOM      2  C2  BNZ d   1       5.252  -2.975   3.492  0.00  0.00     0.000 A 
ATOM      3  C3  BNZ d   1       5.367  -4.324   3.312  0.00  0.00     0.000 A 
ATOM      4  C4  BNZ d   1       5.305  -5.144   4.381  0.00  0.00     0.000 A 
ATOM      5  C5  BNZ d   1       5.095  -4.630   5.645  0.00  0.00     0.000 A 
ATOM      6  C6  BNZ d   1       4.940  -3.274   5.818  0.00  0.00     0.000 A 
ENDROOT
TORSDOF 0
ENDMDL
