MODEL 1
REMARK minimizedAffinity -3.15268159
REMARK minimizedRMSD -1
REMARK  0 active torsions:
REMARK  status: ('A' for Active; 'I' for Inactive)
ROOT
ATOM      1  C1  BNZ d   1       5.184  -2.539   4.440  0.00  0.00     0.000 A 
ATOM      2  C2  BNZ d   1       5.380  -2.577   3.085  0.00  0.00     0.000 A 
ATOM      3  C3  BNZ d   1       5.506  -3.770   2.430  0.00  0.00     0.000 A 
ATOM      4  C4  BNZ d   1       5.477  -4.920   3.134  0.00  0.00     0.000 A 
ATOM      5  C5  BNZ d   1       5.289  -4.897   4.502  0.00  0.00     0.000 A 
ATOM      6  C6  BNZ d   1       5.123  -3.697   5.153  0.00  0.00     0.000 A 
ENDROOT
TORSDOF 0
ENDMDL
