MODEL 1
REMARK minimizedAffinity -2.30792046
REMARK minimizedRMSD -1
REMARK  0 active torsions:
REMARK  status: ('A' for Active; 'I' for Inactive)
ROOT
ATOM      1  C1  BNZ d   1       5.633  -1.511   2.898  0.00  0.00     0.000 A 
ATOM      2  C2  BNZ d   1       5.827  -2.276   1.779  0.00  0.00     0.000 A 
ATOM      3  C3  BNZ d   1       5.991  -3.629   1.875  0.00  0.00     0.000 A 
ATOM      4  C4  BNZ d   1       6.000  -4.211   3.092  0.00  0.00     0.000 A 
ATOM      5  C5  BNZ d   1       5.814  -3.453   4.230  0.00  0.00     0.000 A 
ATOM      6  C6  BNZ d   1       5.611  -2.096   4.127  0.00  0.00     0.000 A 
ENDROOT
TORSDOF 0
ENDMDL
