MODEL 1
REMARK minimizedAffinity -2.46498847
REMARK minimizedRMSD -1
REMARK  0 active torsions:
REMARK  status: ('A' for Active; 'I' for Inactive)
ROOT
ATOM      1  C1  BNZ d   1       6.000  -2.164   4.667  0.00  0.00     0.000 A 
ATOM      2  C2  BNZ d   1       5.983  -3.001   3.583  0.00  0.00     0.000 A 
ATOM      3  C3  BNZ d   1       5.398  -4.234   3.659  0.00  0.00     0.000 A 
ATOM      4  C4  BNZ d   1       4.866  -4.644   4.828  0.00  0.00     0.000 A 
ATOM      5  C5  BNZ d   1       4.883  -3.816   5.933  0.00  0.00     0.000 A 
ATOM      6  C6  BNZ d   1       5.439  -2.560   5.842  0.00  0.00     0.000 A 
ENDROOT
TORSDOF 0
ENDMDL
