MODEL 1
REMARK minimizedAffinity -3.45853615
REMARK minimizedRMSD -1
REMARK  0 active torsions:
REMARK  status: ('A' for Active; 'I' for Inactive)
ROOT
ATOM      1  C1  BNZ d   1       5.998  -4.678   4.156  0.00  0.00     0.000 A 
ATOM      2  C2  BNZ d   1       5.999  -3.851   5.247  0.00  0.00     0.000 A 
ATOM      3  C3  BNZ d   1       5.659  -2.533   5.126  0.00  0.00     0.000 A 
ATOM      4  C4  BNZ d   1       5.357  -2.035   3.910  0.00  0.00     0.000 A 
ATOM      5  C5  BNZ d   1       5.360  -2.854   2.798  0.00  0.00     0.000 A 
ATOM      6  C6  BNZ d   1       5.666  -4.189   2.930  0.00  0.00     0.000 A 
ENDROOT
TORSDOF 0
ENDMDL
