MODEL 1
REMARK minimizedAffinity -2.52203751
REMARK minimizedRMSD -1
REMARK  0 active torsions:
REMARK  status: ('A' for Active; 'I' for Inactive)
ROOT
ATOM      1  C1  BNZ d   1       5.896  -4.507   2.609  0.00  0.00     0.000 A 
ATOM      2  C2  BNZ d   1       5.218  -5.011   3.686  0.00  0.00     0.000 A 
ATOM      3  C3  BNZ d   1       4.628  -4.177   4.594  0.00  0.00     0.000 A 
ATOM      4  C4  BNZ d   1       4.749  -2.842   4.445  0.00  0.00     0.000 A 
ATOM      5  C5  BNZ d   1       5.438  -2.318   3.369  0.00  0.00     0.000 A 
ATOM      6  C6  BNZ d   1       5.998  -3.161   2.436  0.00  0.00     0.000 A 
ENDROOT
TORSDOF 0
ENDMDL
