MODEL 1
REMARK minimizedAffinity -3.37271953
REMARK minimizedRMSD -1
REMARK  0 active torsions:
REMARK  status: ('A' for Active; 'I' for Inactive)
ROOT
ATOM      1  C1  BNZ d   1       6.000  -2.671   2.472  0.00  0.00     0.000 A 
ATOM      2  C2  BNZ d   1       5.956  -3.816   1.722  0.00  0.00     0.000 A 
ATOM      3  C3  BNZ d   1       5.512  -4.990   2.262  0.00  0.00     0.000 A 
ATOM      4  C4  BNZ d   1       5.150  -5.027   3.561  0.00  0.00     0.000 A 
ATOM      5  C5  BNZ d   1       5.197  -3.884   4.333  0.00  0.00     0.000 A 
ATOM      6  C6  BNZ d   1       5.608  -2.695   3.775  0.00  0.00     0.000 A 
ENDROOT
TORSDOF 0
ENDMDL
