MODEL 1
REMARK minimizedAffinity -2.98953247
REMARK minimizedRMSD -1
REMARK  0 active torsions:
REMARK  status: ('A' for Active; 'I' for Inactive)
ROOT
ATOM      1  C1  BNZ d   1       4.344  -2.662   5.830  0.00  0.00     0.000 A 
ATOM      2  C2  BNZ d   1       4.746  -1.876   4.783  0.00  0.00     0.000 A 
ATOM      3  C3  BNZ d   1       5.355  -2.425   3.690  0.00  0.00     0.000 A 
ATOM      4  C4  BNZ d   1       5.597  -3.751   3.662  0.00  0.00     0.000 A 
ATOM      5  C5  BNZ d   1       5.206  -4.556   4.714  0.00  0.00     0.000 A 
ATOM      6  C6  BNZ d   1       4.559  -4.005   5.796  0.00  0.00     0.000 A 
ENDROOT
TORSDOF 0
ENDMDL
