MODEL 1
REMARK minimizedAffinity 11.943181
REMARK minimizedRMSD -1
REMARK  0 active torsions:
REMARK  status: ('A' for Active; 'I' for Inactive)
ROOT
ATOM      1  C   UNL d   1      -4.184  -6.000   0.077  0.00  0.00     0.023 A 
ATOM      2  C1  UNL d   1      -5.470  -5.502  -0.136  0.00  0.00     0.003 A 
ATOM      3  C2  UNL d   1      -5.983  -4.510   0.701  0.00  0.00     0.048 A 
ATOM      4  C3  UNL d   1      -5.206  -4.019   1.749  0.00  0.00     0.023 A 
ATOM      5  C4  UNL d   1      -3.918  -4.513   1.966  0.00  0.00     0.048 A 
ATOM      6  C5  UNL d   1      -3.409  -5.506   1.127  0.00  0.00     0.003 A 
ATOM      7  I   UNL d   1      -5.968  -2.541   2.996  0.00  0.00    -0.146 I 
ENDROOT
TORSDOF 0
ENDMDL
