MODEL 1
REMARK minimizedAffinity 7.16388416
REMARK minimizedRMSD -1
REMARK  0 active torsions:
REMARK  status: ('A' for Active; 'I' for Inactive)
ROOT
ATOM      1  C   UNL d   1      -2.731   0.013   3.745  0.00  0.00     0.023 A 
ATOM      2  C1  UNL d   1      -2.761   0.062   5.138  0.00  0.00     0.003 A 
ATOM      3  C2  UNL d   1      -3.388   1.128   5.787  0.00  0.00     0.048 A 
ATOM      4  C3  UNL d   1      -3.984   2.141   5.036  0.00  0.00     0.023 A 
ATOM      5  C4  UNL d   1      -3.957   2.095   3.641  0.00  0.00     0.048 A 
ATOM      6  C5  UNL d   1      -3.328   1.028   2.997  0.00  0.00     0.003 A 
ATOM      7  I   UNL d   1      -4.917   3.728   6.000  0.00  0.00    -0.146 I 
ENDROOT
TORSDOF 0
ENDMDL
