MODEL 1
REMARK minimizedAffinity 20.7076244
REMARK minimizedRMSD -1
REMARK  0 active torsions:
REMARK  status: ('A' for Active; 'I' for Inactive)
ROOT
ATOM      1  C   UNL d   1      -4.131   3.379   5.928  0.00  0.00     0.023 A 
ATOM      2  C1  UNL d   1      -3.159   2.381   6.000  0.00  0.00     0.003 A 
ATOM      3  C2  UNL d   1      -2.935   1.542   4.907  0.00  0.00     0.048 A 
ATOM      4  C3  UNL d   1      -3.687   1.707   3.743  0.00  0.00     0.023 A 
ATOM      5  C4  UNL d   1      -4.659   2.705   3.666  0.00  0.00     0.048 A 
ATOM      6  C5  UNL d   1      -4.880   3.541   4.762  0.00  0.00     0.003 A 
ATOM      7  I   UNL d   1      -3.355   0.459   2.115  0.00  0.00    -0.146 I 
ENDROOT
TORSDOF 0
ENDMDL
