MODEL 1
REMARK minimizedAffinity 9.77583694
REMARK minimizedRMSD -1
REMARK  0 active torsions:
REMARK  status: ('A' for Active; 'I' for Inactive)
ROOT
ATOM      1  C   UNL d   1       2.458   0.615  -2.053  0.00  0.00     0.023 A 
ATOM      2  C1  UNL d   1       1.889  -0.424  -1.314  0.00  0.00     0.003 A 
ATOM      3  C2  UNL d   1       1.377  -0.176  -0.039  0.00  0.00     0.048 A 
ATOM      4  C3  UNL d   1       1.434   1.112   0.491  0.00  0.00     0.023 A 
ATOM      5  C4  UNL d   1       2.001   2.154  -0.244  0.00  0.00     0.048 A 
ATOM      6  C5  UNL d   1       2.514   1.902  -1.518  0.00  0.00     0.003 A 
ATOM      7  I   UNL d   1       0.671   1.483   2.388  0.00  0.00    -0.146 I 
ENDROOT
TORSDOF 0
ENDMDL
