MODEL 1
REMARK minimizedAffinity 8.04347229
REMARK minimizedRMSD -1
REMARK  0 active torsions:
REMARK  status: ('A' for Active; 'I' for Inactive)
ROOT
ATOM      1  C   UNL d   1      -3.067  -2.145  -5.297  0.00  0.00     0.023 A 
ATOM      2  C1  UNL d   1      -2.534  -3.342  -5.774  0.00  0.00     0.003 A 
ATOM      3  C2  UNL d   1      -3.364  -4.447  -5.975  0.00  0.00     0.048 A 
ATOM      4  C3  UNL d   1      -4.727  -4.347  -5.699  0.00  0.00     0.023 A 
ATOM      5  C4  UNL d   1      -5.266  -3.151  -5.223  0.00  0.00     0.048 A 
ATOM      6  C5  UNL d   1      -4.432  -2.049  -5.022  0.00  0.00     0.003 A 
ATOM      7  I   UNL d   1      -5.964  -5.990  -5.999  0.00  0.00    -0.146 I 
ENDROOT
TORSDOF 0
ENDMDL
