MODEL 1
REMARK minimizedAffinity 17.1499786
REMARK minimizedRMSD -1
REMARK  0 active torsions:
REMARK  status: ('A' for Active; 'I' for Inactive)
ROOT
ATOM      1  C   UNL d   1       1.648   1.132   5.554  0.00  0.00     0.023 A 
ATOM      2  C1  UNL d   1       1.839   0.764   4.222  0.00  0.00     0.003 A 
ATOM      3  C2  UNL d   1       0.762   0.773   3.333  0.00  0.00     0.048 A 
ATOM      4  C3  UNL d   1      -0.503   1.151   3.782  0.00  0.00     0.023 A 
ATOM      5  C4  UNL d   1      -0.698   1.521   5.114  0.00  0.00     0.048 A 
ATOM      6  C5  UNL d   1       0.382   1.509   6.000  0.00  0.00     0.003 A 
ATOM      7  I   UNL d   1      -2.107   1.166   2.461  0.00  0.00    -0.146 I 
ENDROOT
TORSDOF 0
ENDMDL
