MODEL 1
REMARK minimizedAffinity 17.131609
REMARK minimizedRMSD -1
REMARK  0 active torsions:
REMARK  status: ('A' for Active; 'I' for Inactive)
ROOT
ATOM      1  C   UNL d   1       4.351   2.136   0.170  0.00  0.00     0.023 A 
ATOM      2  C1  UNL d   1       3.954   0.898   0.676  0.00  0.00     0.003 A 
ATOM      3  C2  UNL d   1       3.168   0.044  -0.101  0.00  0.00     0.048 A 
ATOM      4  C3  UNL d   1       2.783   0.433  -1.383  0.00  0.00     0.023 A 
ATOM      5  C4  UNL d   1       3.179   1.671  -1.894  0.00  0.00     0.048 A 
ATOM      6  C5  UNL d   1       3.963   2.522  -1.114  0.00  0.00     0.003 A 
ATOM      7  I   UNL d   1       1.614  -0.836  -2.541  0.00  0.00    -0.146 I 
ENDROOT
TORSDOF 0
ENDMDL
