MODEL 1
REMARK minimizedAffinity 7.80905914
REMARK minimizedRMSD -1
REMARK  0 active torsions:
REMARK  status: ('A' for Active; 'I' for Inactive)
ROOT
ATOM      1  C   UNL d   1       3.216  -2.176  -0.726  0.00  0.00     0.023 A 
ATOM      2  C1  UNL d   1       4.487  -1.995  -0.180  0.00  0.00     0.003 A 
ATOM      3  C2  UNL d   1       5.111  -0.748  -0.260  0.00  0.00     0.048 A 
ATOM      4  C3  UNL d   1       4.459   0.313  -0.888  0.00  0.00     0.023 A 
ATOM      5  C4  UNL d   1       3.188   0.136  -1.435  0.00  0.00     0.048 A 
ATOM      6  C5  UNL d   1       2.567  -1.112  -1.353  0.00  0.00     0.003 A 
ATOM      7  I   UNL d   1       5.387   2.168  -1.009  0.00  0.00    -0.146 I 
ENDROOT
TORSDOF 0
ENDMDL
