MODEL 1
REMARK minimizedAffinity 15.354207
REMARK minimizedRMSD -1
REMARK  0 active torsions:
REMARK  status: ('A' for Active; 'I' for Inactive)
ROOT
ATOM      1  C   UNL d   1       0.955   1.578   2.925  0.00  0.00     0.023 A 
ATOM      2  C1  UNL d   1      -0.158   2.323   2.534  0.00  0.00     0.003 A 
ATOM      3  C2  UNL d   1       0.001   3.438   1.709  0.00  0.00     0.048 A 
ATOM      4  C3  UNL d   1       1.276   3.803   1.278  0.00  0.00     0.023 A 
ATOM      5  C4  UNL d   1       2.393   3.060   1.666  0.00  0.00     0.048 A 
ATOM      6  C5  UNL d   1       2.229   1.947   2.491  0.00  0.00     0.003 A 
ATOM      7  I   UNL d   1       1.515   5.462   0.049  0.00  0.00    -0.146 I 
ENDROOT
TORSDOF 0
ENDMDL
