MODEL 1
REMARK minimizedAffinity 17.7190533
REMARK minimizedRMSD -1
REMARK  0 active torsions:
REMARK  status: ('A' for Active; 'I' for Inactive)
ROOT
ATOM      1  C   UNL d   1      -5.559   2.754   5.343  0.00  0.00     0.023 A 
ATOM      2  C1  UNL d   1      -5.647   2.654   3.955  0.00  0.00     0.003 A 
ATOM      3  C2  UNL d   1      -4.567   2.160   3.220  0.00  0.00     0.048 A 
ATOM      4  C3  UNL d   1      -3.403   1.768   3.879  0.00  0.00     0.023 A 
ATOM      5  C4  UNL d   1      -3.311   1.866   5.269  0.00  0.00     0.048 A 
ATOM      6  C5  UNL d   1      -4.393   2.361   6.000  0.00  0.00     0.003 A 
ATOM      7  I   UNL d   1      -1.795   1.033   2.787  0.00  0.00    -0.146 I 
ENDROOT
TORSDOF 0
ENDMDL
