MODEL 1
REMARK minimizedAffinity 9.46657753
REMARK minimizedRMSD -1
REMARK  0 active torsions:
REMARK  status: ('A' for Active; 'I' for Inactive)
ROOT
ATOM      1  C   UNL d   1       5.089   3.128   0.645  0.00  0.00     0.023 A 
ATOM      2  C1  UNL d   1       5.335   2.354  -0.489  0.00  0.00     0.003 A 
ATOM      3  C2  UNL d   1       4.408   1.392  -0.894  0.00  0.00     0.048 A 
ATOM      4  C3  UNL d   1       3.235   1.210  -0.162  0.00  0.00     0.023 A 
ATOM      5  C4  UNL d   1       2.984   1.983   0.973  0.00  0.00     0.048 A 
ATOM      6  C5  UNL d   1       3.915   2.943   1.375  0.00  0.00     0.003 A 
ATOM      7  I   UNL d   1       1.853  -0.221  -0.763  0.00  0.00    -0.146 I 
ENDROOT
TORSDOF 0
ENDMDL
