MODEL 1
REMARK minimizedAffinity 5.57714033
REMARK minimizedRMSD -1
REMARK  0 active torsions:
REMARK  status: ('A' for Active; 'I' for Inactive)
ROOT
ATOM      1  C   UNL d   1      -3.442   5.999  -5.250  0.00  0.00     0.023 A 
ATOM      2  C1  UNL d   1      -3.742   4.858  -5.994  0.00  0.00     0.003 A 
ATOM      3  C2  UNL d   1      -2.949   3.716  -5.874  0.00  0.00     0.048 A 
ATOM      4  C3  UNL d   1      -1.857   3.720  -5.007  0.00  0.00     0.023 A 
ATOM      5  C4  UNL d   1      -1.553   4.859  -4.259  0.00  0.00     0.048 A 
ATOM      6  C5  UNL d   1      -2.348   6.000  -4.384  0.00  0.00     0.003 A 
ATOM      7  I   UNL d   1      -0.675   2.020  -4.825  0.00  0.00    -0.146 I 
ENDROOT
TORSDOF 0
ENDMDL
