MODEL 1
REMARK minimizedAffinity 6.88106251
REMARK minimizedRMSD -1
REMARK  0 active torsions:
REMARK  status: ('A' for Active; 'I' for Inactive)
ROOT
ATOM      1  C   UNL d   1       1.408  -1.271  -1.813  0.00  0.00     0.023 A 
ATOM      2  C1  UNL d   1       1.958  -1.225  -0.531  0.00  0.00     0.003 A 
ATOM      3  C2  UNL d   1       2.725  -2.293  -0.061  0.00  0.00     0.048 A 
ATOM      4  C3  UNL d   1       2.939  -3.403  -0.877  0.00  0.00     0.023 A 
ATOM      5  C4  UNL d   1       2.392  -3.452  -2.160  0.00  0.00     0.048 A 
ATOM      6  C5  UNL d   1       1.625  -2.383  -2.626  0.00  0.00     0.003 A 
ATOM      7  I   UNL d   1       4.081  -4.993  -0.179  0.00  0.00    -0.146 I 
ENDROOT
TORSDOF 0
ENDMDL
