MODEL 1
REMARK minimizedAffinity 11.7910357
REMARK minimizedRMSD -1
REMARK  0 active torsions:
REMARK  status: ('A' for Active; 'I' for Inactive)
ROOT
ATOM      1  C   UNL d   1       1.276  -2.578  -1.834  0.00  0.00     0.023 A 
ATOM      2  C1  UNL d   1       1.112  -1.285  -2.330  0.00  0.00     0.003 A 
ATOM      3  C2  UNL d   1       1.585  -0.191  -1.603  0.00  0.00     0.048 A 
ATOM      4  C3  UNL d   1       2.223  -0.397  -0.380  0.00  0.00     0.023 A 
ATOM      5  C4  UNL d   1       2.391  -1.689   0.120  0.00  0.00     0.048 A 
ATOM      6  C5  UNL d   1       1.915  -2.780  -0.610  0.00  0.00     0.003 A 
ATOM      7  I   UNL d   1       2.928   1.230   0.704  0.00  0.00    -0.146 I 
ENDROOT
TORSDOF 0
ENDMDL
