MODEL 1
REMARK minimizedAffinity 1.28948438
REMARK minimizedRMSD -1
REMARK  0 active torsions:
REMARK  status: ('A' for Active; 'I' for Inactive)
ROOT
ATOM      1  C   UNL d   1      -5.580  -2.830  -5.669  0.00  0.00     0.023 A 
ATOM      2  C1  UNL d   1      -4.300  -2.400  -5.318  0.00  0.00     0.003 A 
ATOM      3  C2  UNL d   1      -3.239  -3.308  -5.297  0.00  0.00     0.048 A 
ATOM      4  C3  UNL d   1      -3.465  -4.643  -5.628  0.00  0.00     0.023 A 
ATOM      5  C4  UNL d   1      -4.744  -5.078  -5.981  0.00  0.00     0.048 A 
ATOM      6  C5  UNL d   1      -5.802  -4.167  -6.000  0.00  0.00     0.003 A 
ATOM      7  I   UNL d   1      -1.887  -5.996  -5.597  0.00  0.00    -0.146 I 
ENDROOT
TORSDOF 0
ENDMDL
