MODEL 1
REMARK minimizedAffinity 11.9826717
REMARK minimizedRMSD -1
REMARK  0 active torsions:
REMARK  status: ('A' for Active; 'I' for Inactive)
ROOT
ATOM      1  C   UNL d   1       4.241   0.865  -1.226  0.00  0.00     0.023 A 
ATOM      2  C1  UNL d   1       2.976   0.282  -1.298  0.00  0.00     0.003 A 
ATOM      3  C2  UNL d   1       2.075   0.433  -0.242  0.00  0.00     0.048 A 
ATOM      4  C3  UNL d   1       2.445   1.170   0.882  0.00  0.00     0.023 A 
ATOM      5  C4  UNL d   1       3.709   1.756   0.958  0.00  0.00     0.048 A 
ATOM      6  C5  UNL d   1       4.607   1.602  -0.100  0.00  0.00     0.003 A 
ATOM      7  I   UNL d   1       1.106   1.397   2.456  0.00  0.00    -0.146 I 
ENDROOT
TORSDOF 0
ENDMDL
