MODEL 1
REMARK minimizedAffinity 16.0871716
REMARK minimizedRMSD -1
REMARK  0 active torsions:
REMARK  status: ('A' for Active; 'I' for Inactive)
ROOT
ATOM      1  C   UNL d   1      -4.874  -3.793  -5.997  0.00  0.00     0.023 A 
ATOM      2  C1  UNL d   1      -4.574  -2.795  -5.070  0.00  0.00     0.003 A 
ATOM      3  C2  UNL d   1      -3.548  -2.989  -4.142  0.00  0.00     0.048 A 
ATOM      4  C3  UNL d   1      -2.827  -4.182  -4.148  0.00  0.00     0.023 A 
ATOM      5  C4  UNL d   1      -3.123  -5.183  -5.075  0.00  0.00     0.048 A 
ATOM      6  C5  UNL d   1      -4.150  -4.985  -6.000  0.00  0.00     0.003 A 
ATOM      7  I   UNL d   1      -1.300  -4.472  -2.768  0.00  0.00    -0.146 I 
ENDROOT
TORSDOF 0
ENDMDL
