MODEL 1
REMARK minimizedAffinity 11.7465067
REMARK minimizedRMSD -1
REMARK  0 active torsions:
REMARK  status: ('A' for Active; 'I' for Inactive)
ROOT
ATOM      1  C   UNL d   1      -3.991   2.030   4.765  0.00  0.00     0.023 A 
ATOM      2  C1  UNL d   1      -3.627   1.164   5.796  0.00  0.00     0.003 A 
ATOM      3  C2  UNL d   1      -3.506  -0.205   5.551  0.00  0.00     0.048 A 
ATOM      4  C3  UNL d   1      -3.750  -0.702   4.271  0.00  0.00     0.023 A 
ATOM      5  C4  UNL d   1      -4.113   0.160   3.235  0.00  0.00     0.048 A 
ATOM      6  C5  UNL d   1      -4.234   1.528   3.486  0.00  0.00     0.003 A 
ATOM      7  I   UNL d   1      -3.570  -2.740   3.903  0.00  0.00    -0.146 I 
ENDROOT
TORSDOF 0
ENDMDL
