MODEL 1
REMARK minimizedAffinity 2.61460018
REMARK minimizedRMSD -1
REMARK  0 active torsions:
REMARK  status: ('A' for Active; 'I' for Inactive)
ROOT
ATOM      1  C   UNL d   1      -4.951   5.285  -5.956  0.00  0.00     0.023 A 
ATOM      2  C1  UNL d   1      -3.783   6.000  -5.691  0.00  0.00     0.003 A 
ATOM      3  C2  UNL d   1      -2.583   5.321  -5.469  0.00  0.00     0.048 A 
ATOM      4  C3  UNL d   1      -2.558   3.928  -5.514  0.00  0.00     0.023 A 
ATOM      5  C4  UNL d   1      -3.724   3.209  -5.780  0.00  0.00     0.048 A 
ATOM      6  C5  UNL d   1      -4.922   3.891  -6.000  0.00  0.00     0.003 A 
ATOM      7  I   UNL d   1      -0.773   2.916  -5.184  0.00  0.00    -0.146 I 
ENDROOT
TORSDOF 0
ENDMDL
