MODEL 1
REMARK minimizedAffinity -3.51107264
REMARK minimizedRMSD -1
REMARK  0 active torsions:
REMARK  status: ('A' for Active; 'I' for Inactive)
ROOT
ATOM      1  C   UNL d   1      -2.558  -2.033  -2.150  0.00  0.00    -0.002 A 
ATOM      2  C1  UNL d   1      -2.054  -1.001  -2.928  0.00  0.00     0.010 A 
ATOM      3  C2  UNL d   1      -1.167  -0.070  -2.385  0.00  0.00     0.041 A 
ATOM      4  C3  UNL d   1      -0.790  -0.195  -1.034  0.00  0.00    -0.075 A 
ATOM      5  S   UNL d   1       0.284   0.828  -0.155  0.00  0.00     0.015 SA
ATOM      6  C4  UNL d   1       0.100  -0.082   1.275  0.00  0.00     0.022 A 
ATOM      7  C5  UNL d   1      -0.757  -1.143   1.104  0.00  0.00     0.026 A 
ATOM      8  C6  UNL d   1      -1.283  -1.227  -0.229  0.00  0.00    -0.082 A 
ATOM      9  C7  UNL d   1      -2.182  -2.154  -0.809  0.00  0.00     0.045 A 
ENDROOT
TORSDOF 0
ENDMDL
