MODEL 1
REMARK minimizedAffinity -3.33920693
REMARK minimizedRMSD -1
REMARK  0 active torsions:
REMARK  status: ('A' for Active; 'I' for Inactive)
ROOT
ATOM      1  C   UNL d   1       1.121   2.826   1.154  0.00  0.00    -0.002 A 
ATOM      2  C1  UNL d   1       0.075   2.113   1.722  0.00  0.00     0.010 A 
ATOM      3  C2  UNL d   1      -0.167   0.790   1.350  0.00  0.00     0.041 A 
ATOM      4  C3  UNL d   1       0.669   0.188   0.389  0.00  0.00    -0.075 A 
ATOM      5  S   UNL d   1       0.563  -1.422  -0.220  0.00  0.00     0.015 SA
ATOM      6  C4  UNL d   1       1.904  -1.201  -1.248  0.00  0.00     0.022 A 
ATOM      7  C5  UNL d   1       2.432   0.064  -1.143  0.00  0.00     0.026 A 
ATOM      8  C6  UNL d   1       1.729   0.885  -0.197  0.00  0.00    -0.082 A 
ATOM      9  C7  UNL d   1       1.948   2.226   0.201  0.00  0.00     0.045 A 
ENDROOT
TORSDOF 0
ENDMDL
