MODEL 1
REMARK minimizedAffinity -2.29612923
REMARK minimizedRMSD -1
REMARK  0 active torsions:
REMARK  status: ('A' for Active; 'I' for Inactive)
ROOT
ATOM      1  C   UNL d   1       0.852   2.865   1.675  0.00  0.00    -0.002 A 
ATOM      2  C1  UNL d   1       1.502   2.872   0.449  0.00  0.00     0.010 A 
ATOM      3  C2  UNL d   1       1.399   1.781  -0.416  0.00  0.00     0.041 A 
ATOM      4  C3  UNL d   1       0.623   0.672  -0.024  0.00  0.00    -0.075 A 
ATOM      5  S   UNL d   1       0.354  -0.776  -0.921  0.00  0.00     0.015 SA
ATOM      6  C4  UNL d   1      -0.631  -1.438   0.303  0.00  0.00     0.022 A 
ATOM      7  C5  UNL d   1      -0.761  -0.589   1.376  0.00  0.00     0.026 A 
ATOM      8  C6  UNL d   1      -0.041   0.641   1.205  0.00  0.00    -0.082 A 
ATOM      9  C7  UNL d   1       0.083   1.763   2.060  0.00  0.00     0.045 A 
ENDROOT
TORSDOF 0
ENDMDL
