MODEL 1
REMARK minimizedAffinity -2.30758643
REMARK minimizedRMSD -1
REMARK  0 active torsions:
REMARK  status: ('A' for Active; 'I' for Inactive)
ROOT
ATOM      1  C   UNL d   1       1.394   2.605   1.695  0.00  0.00    -0.002 A 
ATOM      2  C1  UNL d   1       2.082   2.516   0.493  0.00  0.00     0.010 A 
ATOM      3  C2  UNL d   1       1.787   1.502  -0.421  0.00  0.00     0.041 A 
ATOM      4  C3  UNL d   1       0.778   0.572  -0.104  0.00  0.00    -0.075 A 
ATOM      5  S   UNL d   1       0.245  -0.753  -1.070  0.00  0.00     0.015 SA
ATOM      6  C4  UNL d   1      -0.909  -1.231   0.090  0.00  0.00     0.022 A 
ATOM      7  C5  UNL d   1      -0.902  -0.411   1.193  0.00  0.00     0.026 A 
ATOM      8  C6  UNL d   1       0.070   0.642   1.100  0.00  0.00    -0.082 A 
ATOM      9  C7  UNL d   1       0.393   1.681   2.005  0.00  0.00     0.045 A 
ENDROOT
TORSDOF 0
ENDMDL
