MODEL 1
REMARK minimizedAffinity -5.05129766
REMARK minimizedRMSD -1
REMARK  0 active torsions:
REMARK  status: ('A' for Active; 'I' for Inactive)
ROOT
ATOM      1  C   UNL d   1       0.302   2.786   1.484  0.00  0.00    -0.002 A 
ATOM      2  C1  UNL d   1       1.115   2.709   0.361  0.00  0.00     0.010 A 
ATOM      3  C2  UNL d   1       1.158   1.543  -0.405  0.00  0.00     0.041 A 
ATOM      4  C3  UNL d   1       0.361   0.446  -0.022  0.00  0.00    -0.075 A 
ATOM      5  S   UNL d   1       0.251  -1.084  -0.810  0.00  0.00     0.015 SA
ATOM      6  C4  UNL d   1      -0.878  -1.670   0.324  0.00  0.00     0.022 A 
ATOM      7  C5  UNL d   1      -1.175  -0.735   1.287  0.00  0.00     0.026 A 
ATOM      8  C6  UNL d   1      -0.466   0.500   1.103  0.00  0.00    -0.082 A 
ATOM      9  C7  UNL d   1      -0.486   1.696   1.860  0.00  0.00     0.045 A 
ENDROOT
TORSDOF 0
ENDMDL
