MODEL 1
REMARK minimizedAffinity -2.91676784
REMARK minimizedRMSD -1
REMARK  0 active torsions:
REMARK  status: ('A' for Active; 'I' for Inactive)
ROOT
ATOM      1  C   UNL d   1       1.453   2.867   0.700  0.00  0.00    -0.002 A 
ATOM      2  C1  UNL d   1       2.542   2.213   0.141  0.00  0.00     0.010 A 
ATOM      3  C2  UNL d   1       2.401   0.932  -0.398  0.00  0.00     0.041 A 
ATOM      4  C3  UNL d   1       1.135   0.315  -0.366  0.00  0.00    -0.075 A 
ATOM      5  S   UNL d   1       0.725  -1.248  -0.967  0.00  0.00     0.015 SA
ATOM      6  C4  UNL d   1      -0.905  -1.083  -0.497  0.00  0.00     0.022 A 
ATOM      7  C5  UNL d   1      -1.148   0.128   0.106  0.00  0.00     0.026 A 
ATOM      8  C6  UNL d   1       0.023   0.954   0.191  0.00  0.00    -0.082 A 
ATOM      9  C7  UNL d   1       0.199   2.252   0.729  0.00  0.00     0.045 A 
ENDROOT
TORSDOF 0
ENDMDL
