MODEL 1
REMARK minimizedAffinity -0.797606111
REMARK minimizedRMSD -1
REMARK  0 active torsions:
REMARK  status: ('A' for Active; 'I' for Inactive)
ROOT
ATOM      1  C   UNL d   1       0.153   2.166   2.008  0.00  0.00    -0.002 A 
ATOM      2  C1  UNL d   1       1.497   2.059   1.678  0.00  0.00     0.010 A 
ATOM      3  C2  UNL d   1       1.937   1.063   0.805  0.00  0.00     0.041 A 
ATOM      4  C3  UNL d   1       0.995   0.167   0.263  0.00  0.00    -0.075 A 
ATOM      5  S   UNL d   1       1.303  -1.132  -0.828  0.00  0.00     0.015 SA
ATOM      6  C4  UNL d   1      -0.341  -1.576  -0.882  0.00  0.00     0.022 A 
ATOM      7  C5  UNL d   1      -1.121  -0.764  -0.093  0.00  0.00     0.026 A 
ATOM      8  C6  UNL d   1      -0.364   0.254   0.579  0.00  0.00    -0.082 A 
ATOM      9  C7  UNL d   1      -0.779   1.275   1.468  0.00  0.00     0.045 A 
ENDROOT
TORSDOF 0
ENDMDL
