MODEL 1
REMARK minimizedAffinity 9.17348099
REMARK minimizedRMSD -1
REMARK  0 active torsions:
REMARK  status: ('A' for Active; 'I' for Inactive)
ROOT
ATOM      1  C2' OXE d   1       3.430   4.083  -4.503  0.00  0.00     0.078 C 
ATOM      2  C1' OXE d   1       1.459   3.348  -2.644  0.00  0.00     0.078 C 
ATOM      3  C1  OXE d   1       1.037   4.193  -3.820  0.00  0.00    -0.078 A 
ATOM      4  C2  OXE d   1       2.017   4.588  -4.699  0.00  0.00    -0.078 A 
ATOM      5  C3  OXE d   1       1.673   5.322  -5.831  0.00  0.00     0.003 A 
ATOM      6  C4  OXE d   1       0.365   5.793  -6.000  0.00  0.00    -0.002 A 
ATOM      7  C5  OXE d   1      -0.640   5.436  -5.095  0.00  0.00    -0.002 A 
ATOM      8  C6  OXE d   1      -0.330   4.604  -4.025  0.00  0.00     0.003 A 
ENDROOT
TORSDOF 0
ENDMDL
