MODEL 1
REMARK minimizedAffinity -0.39810583
REMARK minimizedRMSD -1
REMARK  0 active torsions:
REMARK  status: ('A' for Active; 'I' for Inactive)
ROOT
ATOM      1  C2' OXE d   1      -2.049  -4.358  -2.427  0.00  0.00     0.078 C 
ATOM      2  C1' OXE d   1      -3.916  -2.312  -1.972  0.00  0.00     0.078 C 
ATOM      3  C1  OXE d   1      -3.697  -3.321  -0.873  0.00  0.00    -0.078 A 
ATOM      4  C2  OXE d   1      -2.816  -4.346  -1.122  0.00  0.00    -0.078 A 
ATOM      5  C3  OXE d   1      -2.535  -5.273  -0.123  0.00  0.00     0.003 A 
ATOM      6  C4  OXE d   1      -3.256  -5.260   1.078  0.00  0.00    -0.002 A 
ATOM      7  C5  OXE d   1      -4.186  -4.249   1.337  0.00  0.00    -0.002 A 
ATOM      8  C6  OXE d   1      -4.387  -3.249   0.391  0.00  0.00     0.003 A 
ENDROOT
TORSDOF 0
ENDMDL
