MODEL 1
REMARK minimizedAffinity 4.5660882
REMARK minimizedRMSD -1
REMARK  0 active torsions:
REMARK  status: ('A' for Active; 'I' for Inactive)
ROOT
ATOM      1  C2' OXE d   1       1.774   2.705  -1.975  0.00  0.00     0.078 C 
ATOM      2  C1' OXE d   1       2.065   3.345   0.742  0.00  0.00     0.078 C 
ATOM      3  C1  OXE d   1       2.416   1.944   0.308  0.00  0.00    -0.078 A 
ATOM      4  C2  OXE d   1       2.227   1.626  -1.015  0.00  0.00    -0.078 A 
ATOM      5  C3  OXE d   1       2.586   0.364  -1.479  0.00  0.00     0.003 A 
ATOM      6  C4  OXE d   1       2.994  -0.631  -0.583  0.00  0.00    -0.002 A 
ATOM      7  C5  OXE d   1       3.157  -0.340   0.776  0.00  0.00    -0.002 A 
ATOM      8  C6  OXE d   1       2.913   0.952   1.229  0.00  0.00     0.003 A 
ENDROOT
TORSDOF 0
ENDMDL
