MODEL 1
REMARK minimizedAffinity 1.1027689
REMARK minimizedRMSD -1
REMARK  0 active torsions:
REMARK  status: ('A' for Active; 'I' for Inactive)
ROOT
ATOM      1  C2' OXE d   1      -5.964   4.817  -3.383  0.00  0.00     0.078 C 
ATOM      2  C1' OXE d   1      -5.998   2.554  -1.721  0.00  0.00     0.078 C 
ATOM      3  C1  OXE d   1      -5.966   2.331  -3.212  0.00  0.00    -0.078 A 
ATOM      4  C2  OXE d   1      -5.997   3.444  -4.019  0.00  0.00    -0.078 A 
ATOM      5  C3  OXE d   1      -5.914   3.296  -5.400  0.00  0.00     0.003 A 
ATOM      6  C4  OXE d   1      -5.954   2.023  -5.981  0.00  0.00    -0.002 A 
ATOM      7  C5  OXE d   1      -5.963   0.877  -5.179  0.00  0.00    -0.002 A 
ATOM      8  C6  OXE d   1      -5.926   1.013  -3.795  0.00  0.00     0.003 A 
ENDROOT
TORSDOF 0
ENDMDL
