MODEL 1
REMARK minimizedAffinity -1.33128417
REMARK minimizedRMSD -1
REMARK  0 active torsions:
REMARK  status: ('A' for Active; 'I' for Inactive)
ROOT
ATOM      1  C2' OXE d   1       0.749   2.997  -2.913  0.00  0.00     0.078 C 
ATOM      2  C1' OXE d   1       2.844   3.955  -4.516  0.00  0.00     0.078 C 
ATOM      3  C1  OXE d   1       1.460   4.499  -4.769  0.00  0.00    -0.078 A 
ATOM      4  C2  OXE d   1       0.433   3.990  -4.011  0.00  0.00    -0.078 A 
ATOM      5  C3  OXE d   1      -0.854   4.496  -4.166  0.00  0.00     0.003 A 
ATOM      6  C4  OXE d   1      -1.139   5.407  -5.190  0.00  0.00    -0.002 A 
ATOM      7  C5  OXE d   1      -0.115   5.909  -6.000  0.00  0.00    -0.002 A 
ATOM      8  C6  OXE d   1       1.195   5.498  -5.775  0.00  0.00     0.003 A 
ENDROOT
TORSDOF 0
ENDMDL
