MODEL 1
REMARK minimizedAffinity 3.02769995
REMARK minimizedRMSD -1
REMARK  0 active torsions:
REMARK  status: ('A' for Active; 'I' for Inactive)
ROOT
ATOM      1  C2' OXE d   1      -2.995  -5.826  -2.256  0.00  0.00     0.078 C 
ATOM      2  C1' OXE d   1      -1.560  -5.969  -4.665  0.00  0.00     0.078 C 
ATOM      3  C1  OXE d   1      -3.066  -5.942  -4.744  0.00  0.00    -0.078 A 
ATOM      4  C2  OXE d   1      -3.761  -5.919  -3.558  0.00  0.00    -0.078 A 
ATOM      5  C3  OXE d   1      -5.150  -5.838  -3.575  0.00  0.00     0.003 A 
ATOM      6  C4  OXE d   1      -5.851  -5.935  -4.783  0.00  0.00    -0.002 A 
ATOM      7  C5  OXE d   1      -5.164  -6.000  -6.000  0.00  0.00    -0.002 A 
ATOM      8  C6  OXE d   1      -3.774  -5.961  -6.000  0.00  0.00     0.003 A 
ENDROOT
TORSDOF 0
ENDMDL
