MODEL 1
REMARK minimizedAffinity 8.89101696
REMARK minimizedRMSD -1
REMARK  0 active torsions:
REMARK  status: ('A' for Active; 'I' for Inactive)
ROOT
ATOM      1  C2' OXE d   1       0.629   2.774  -1.993  0.00  0.00     0.078 C 
ATOM      2  C1' OXE d   1       0.532   3.274   0.767  0.00  0.00     0.078 C 
ATOM      3  C1  OXE d   1       1.545   2.274   0.268  0.00  0.00    -0.078 A 
ATOM      4  C2  OXE d   1       1.554   2.001  -1.078  0.00  0.00    -0.078 A 
ATOM      5  C3  OXE d   1       2.504   1.127  -1.599  0.00  0.00     0.003 A 
ATOM      6  C4  OXE d   1       3.349   0.408  -0.744  0.00  0.00    -0.002 A 
ATOM      7  C5  OXE d   1       3.330   0.642   0.635  0.00  0.00    -0.002 A 
ATOM      8  C6  OXE d   1       2.465   1.600   1.152  0.00  0.00     0.003 A 
ENDROOT
TORSDOF 0
ENDMDL
