MODEL 1
REMARK minimizedAffinity 9.85503578
REMARK minimizedRMSD -1
REMARK  0 active torsions:
REMARK  status: ('A' for Active; 'I' for Inactive)
ROOT
ATOM      1  C2' OXE d   1      -5.956   1.720  -2.284  0.00  0.00     0.078 C 
ATOM      2  C1' OXE d   1      -5.963  -1.085  -2.169  0.00  0.00     0.078 C 
ATOM      3  C1  OXE d   1      -5.956  -0.437  -3.531  0.00  0.00    -0.078 A 
ATOM      4  C2  OXE d   1      -6.000   0.935  -3.578  0.00  0.00    -0.078 A 
ATOM      5  C3  OXE d   1      -5.940   1.585  -4.807  0.00  0.00     0.003 A 
ATOM      6  C4  OXE d   1      -5.991   0.853  -6.000  0.00  0.00    -0.002 A 
ATOM      7  C5  OXE d   1      -5.987  -0.546  -5.974  0.00  0.00    -0.002 A 
ATOM      8  C6  OXE d   1      -5.927  -1.205  -4.751  0.00  0.00     0.003 A 
ENDROOT
TORSDOF 0
ENDMDL
