MODEL 1
REMARK minimizedAffinity 2.54730201
REMARK minimizedRMSD -1
REMARK  0 active torsions:
REMARK  status: ('A' for Active; 'I' for Inactive)
ROOT
ATOM      1  C2' OXE d   1      -5.976   2.869  -2.981  0.00  0.00     0.078 C 
ATOM      2  C1' OXE d   1      -5.894   0.373  -1.699  0.00  0.00     0.078 C 
ATOM      3  C1  OXE d   1      -5.913   0.389  -3.207  0.00  0.00    -0.078 A 
ATOM      4  C2  OXE d   1      -6.000   1.613  -3.825  0.00  0.00    -0.078 A 
ATOM      5  C3  OXE d   1      -5.965   1.687  -5.215  0.00  0.00     0.003 A 
ATOM      6  C4  OXE d   1      -5.998   0.520  -5.988  0.00  0.00    -0.002 A 
ATOM      7  C5  OXE d   1      -5.950  -0.737  -5.378  0.00  0.00    -0.002 A 
ATOM      8  C6  OXE d   1      -5.864  -0.820  -3.992  0.00  0.00     0.003 A 
ENDROOT
TORSDOF 0
ENDMDL
