MODEL 1
REMARK minimizedAffinity 4.83720112
REMARK minimizedRMSD -1
REMARK  0 active torsions:
REMARK  status: ('A' for Active; 'I' for Inactive)
ROOT
ATOM      1  C2' OXE d   1      -4.485  -0.429   0.994  0.00  0.00     0.078 C 
ATOM      2  C1' OXE d   1      -5.406   0.866   3.308  0.00  0.00     0.078 C 
ATOM      3  C1  OXE d   1      -4.023   0.264   3.342  0.00  0.00    -0.078 A 
ATOM      4  C2  OXE d   1      -3.599  -0.408   2.221  0.00  0.00    -0.078 A 
ATOM      5  C3  OXE d   1      -2.311  -0.936   2.180  0.00  0.00     0.003 A 
ATOM      6  C4  OXE d   1      -1.502  -0.921   3.322  0.00  0.00    -0.002 A 
ATOM      7  C5  OXE d   1      -1.930  -0.276   4.487  0.00  0.00    -0.002 A 
ATOM      8  C6  OXE d   1      -3.168   0.357   4.500  0.00  0.00     0.003 A 
ENDROOT
TORSDOF 0
ENDMDL
