MODEL 1
REMARK minimizedAffinity 7.39365864
REMARK minimizedRMSD -1
REMARK  0 active torsions:
REMARK  status: ('A' for Active; 'I' for Inactive)
ROOT
ATOM      1  C2' OXE d   1      -5.958  -0.055  -5.827  0.00  0.00     0.078 C 
ATOM      2  C1' OXE d   1      -5.983  -2.256  -4.086  0.00  0.00     0.078 C 
ATOM      3  C1  OXE d   1      -5.971  -0.877  -3.476  0.00  0.00    -0.078 A 
ATOM      4  C2  OXE d   1      -5.912   0.194  -4.335  0.00  0.00    -0.078 A 
ATOM      5  C3  OXE d   1      -5.954   1.489  -3.827  0.00  0.00     0.003 A 
ATOM      6  C4  OXE d   1      -5.901   1.711  -2.445  0.00  0.00    -0.002 A 
ATOM      7  C5  OXE d   1      -5.921   0.634  -1.553  0.00  0.00    -0.002 A 
ATOM      8  C6  OXE d   1      -5.998  -0.663  -2.050  0.00  0.00     0.003 A 
ENDROOT
TORSDOF 0
ENDMDL
