MODEL 1
REMARK minimizedAffinity 1.22157335
REMARK minimizedRMSD -1
REMARK  0 active torsions:
REMARK  status: ('A' for Active; 'I' for Inactive)
ROOT
ATOM      1  C2' OXE d   1      -4.298  -1.125   2.255  0.00  0.00     0.078 C 
ATOM      2  C1' OXE d   1      -1.595  -0.378   2.395  0.00  0.00     0.078 C 
ATOM      3  C1  OXE d   1      -2.426  -0.254   3.648  0.00  0.00    -0.078 A 
ATOM      4  C2  OXE d   1      -3.758  -0.577   3.559  0.00  0.00    -0.078 A 
ATOM      5  C3  OXE d   1      -4.556  -0.533   4.698  0.00  0.00     0.003 A 
ATOM      6  C4  OXE d   1      -4.052  -0.015   5.897  0.00  0.00    -0.002 A 
ATOM      7  C5  OXE d   1      -2.708   0.357   6.000  0.00  0.00    -0.002 A 
ATOM      8  C6  OXE d   1      -1.872   0.205   4.899  0.00  0.00     0.003 A 
ENDROOT
TORSDOF 0
ENDMDL
