MODEL 1
REMARK minimizedAffinity 1.58272231
REMARK minimizedRMSD -1
REMARK  0 active torsions:
REMARK  status: ('A' for Active; 'I' for Inactive)
ROOT
ATOM      1  C2' OXE d   1      -6.000   0.214  -1.606  0.00  0.00     0.078 C 
ATOM      2  C1' OXE d   1      -5.987   2.527  -3.197  0.00  0.00     0.078 C 
ATOM      3  C1  OXE d   1      -5.983   1.192  -3.897  0.00  0.00    -0.078 A 
ATOM      4  C2  OXE d   1      -5.942   0.065  -3.111  0.00  0.00    -0.078 A 
ATOM      5  C3  OXE d   1      -5.993  -1.192  -3.706  0.00  0.00     0.003 A 
ATOM      6  C4  OXE d   1      -5.929  -1.321  -5.098  0.00  0.00    -0.002 A 
ATOM      7  C5  OXE d   1      -5.930  -0.187  -5.917  0.00  0.00    -0.002 A 
ATOM      8  C6  OXE d   1      -6.000   1.074  -5.335  0.00  0.00     0.003 A 
ENDROOT
TORSDOF 0
ENDMDL
