MODEL 1
REMARK minimizedAffinity 3.77398491
REMARK minimizedRMSD -1
REMARK  0 active torsions:
REMARK  status: ('A' for Active; 'I' for Inactive)
ROOT
ATOM      1  C2' OXE d   1      -5.879   0.035  -5.627  0.00  0.00     0.078 C 
ATOM      2  C1' OXE d   1      -5.856  -2.232  -3.970  0.00  0.00     0.078 C 
ATOM      3  C1  OXE d   1      -5.923  -0.878  -3.309  0.00  0.00    -0.078 A 
ATOM      4  C2  OXE d   1      -5.886   0.227  -4.126  0.00  0.00    -0.078 A 
ATOM      5  C3  OXE d   1      -6.000   1.498  -3.571  0.00  0.00     0.003 A 
ATOM      6  C4  OXE d   1      -5.996   1.668  -2.181  0.00  0.00    -0.002 A 
ATOM      7  C5  OXE d   1      -5.993   0.558  -1.330  0.00  0.00    -0.002 A 
ATOM      8  C6  OXE d   1      -6.000  -0.720  -1.878  0.00  0.00     0.003 A 
ENDROOT
TORSDOF 0
ENDMDL
