MODEL 1
REMARK minimizedAffinity 8.59640789
REMARK minimizedRMSD -1
REMARK  0 active torsions:
REMARK  status: ('A' for Active; 'I' for Inactive)
ROOT
ATOM      1  C2' OXE d   1      -5.656  -1.932  -4.640  0.00  0.00     0.078 C 
ATOM      2  C1' OXE d   1      -5.984   0.508  -5.989  0.00  0.00     0.078 C 
ATOM      3  C1  OXE d   1      -5.922   0.540  -4.482  0.00  0.00    -0.078 A 
ATOM      4  C2  OXE d   1      -5.808  -0.663  -3.828  0.00  0.00    -0.078 A 
ATOM      5  C3  OXE d   1      -5.691  -0.686  -2.441  0.00  0.00     0.003 A 
ATOM      6  C4  OXE d   1      -5.843   0.491  -1.698  0.00  0.00    -0.002 A 
ATOM      7  C5  OXE d   1      -6.000   1.722  -2.342  0.00  0.00    -0.002 A 
ATOM      8  C6  OXE d   1      -5.998   1.769  -3.732  0.00  0.00     0.003 A 
ENDROOT
TORSDOF 0
ENDMDL
