MODEL 1
REMARK minimizedAffinity 0.380260944
REMARK minimizedRMSD -1
REMARK  0 active torsions:
REMARK  status: ('A' for Active; 'I' for Inactive)
ROOT
ATOM      1  C2' OXE d   1      -5.096  -2.159   2.652  0.00  0.00     0.078 C 
ATOM      2  C1' OXE d   1      -2.735  -2.356   1.146  0.00  0.00     0.078 C 
ATOM      3  C1  OXE d   1      -2.690  -1.553   2.422  0.00  0.00    -0.078 A 
ATOM      4  C2  OXE d   1      -3.861  -1.423   3.129  0.00  0.00    -0.078 A 
ATOM      5  C3  OXE d   1      -3.863  -0.739   4.341  0.00  0.00     0.003 A 
ATOM      6  C4  OXE d   1      -2.720  -0.054   4.770  0.00  0.00    -0.002 A 
ATOM      7  C5  OXE d   1      -1.527  -0.140   4.044  0.00  0.00    -0.002 A 
ATOM      8  C6  OXE d   1      -1.484  -0.919   2.893  0.00  0.00     0.003 A 
ENDROOT
TORSDOF 0
ENDMDL
