MODEL 1
REMARK minimizedAffinity 2.23175383
REMARK minimizedRMSD -1
REMARK  0 active torsions:
REMARK  status: ('A' for Active; 'I' for Inactive)
ROOT
ATOM      1  C2' OXE d   1      -1.526  -0.431   2.738  0.00  0.00     0.078 C 
ATOM      2  C1' OXE d   1      -3.603  -0.359   4.625  0.00  0.00     0.078 C 
ATOM      3  C1  OXE d   1      -3.795  -1.217   3.400  0.00  0.00    -0.078 A 
ATOM      4  C2  OXE d   1      -2.793  -1.210   2.460  0.00  0.00    -0.078 A 
ATOM      5  C3  OXE d   1      -2.894  -2.027   1.337  0.00  0.00     0.003 A 
ATOM      6  C4  OXE d   1      -4.074  -2.737   1.082  0.00  0.00    -0.002 A 
ATOM      7  C5  OXE d   1      -5.123  -2.727   2.007  0.00  0.00    -0.002 A 
ATOM      8  C6  OXE d   1      -4.982  -2.008   3.189  0.00  0.00     0.003 A 
ENDROOT
TORSDOF 0
ENDMDL
