MODEL 1
REMARK minimizedAffinity 5.56174374
REMARK minimizedRMSD -1
REMARK  0 active torsions:
REMARK  status: ('A' for Active; 'I' for Inactive)
ROOT
ATOM      1  C2' OXE d   1      -5.918   4.212   0.744  0.00  0.00     0.078 C 
ATOM      2  C1' OXE d   1      -6.000   1.431   1.111  0.00  0.00     0.078 C 
ATOM      3  C1  OXE d   1      -5.972   1.953  -0.304  0.00  0.00    -0.078 A 
ATOM      4  C2  OXE d   1      -5.979   3.316  -0.475  0.00  0.00    -0.078 A 
ATOM      5  C3  OXE d   1      -5.899   3.851  -1.757  0.00  0.00     0.003 A 
ATOM      6  C4  OXE d   1      -5.966   3.015  -2.879  0.00  0.00    -0.002 A 
ATOM      7  C5  OXE d   1      -5.999   1.625  -2.727  0.00  0.00    -0.002 A 
ATOM      8  C6  OXE d   1      -5.960   1.077  -1.450  0.00  0.00     0.003 A 
ENDROOT
TORSDOF 0
ENDMDL
