MODEL 1
REMARK minimizedAffinity 5.8595233
REMARK minimizedRMSD -1
REMARK  0 active torsions:
REMARK  status: ('A' for Active; 'I' for Inactive)
ROOT
ATOM      1  C   UNL d   1       3.401   2.083   5.957  0.00  0.00     0.078 C 
ATOM      2  C1  UNL d   1       4.017   3.450   5.958  0.00  0.00    -0.077 A 
ATOM      3  C2  UNL d   1       3.219   4.601   5.961  0.00  0.00    -0.001 A 
ATOM      4  C3  UNL d   1       3.806   5.867   5.953  0.00  0.00     0.003 A 
ATOM      5  C4  UNL d   1       5.194   5.995   5.940  0.00  0.00    -0.005 A 
ATOM      6  C5  UNL d   1       5.996   4.856   5.935  0.00  0.00     0.003 A 
ATOM      7  C6  UNL d   1       5.410   3.589   5.943  0.00  0.00    -0.001 A 
ENDROOT
TORSDOF 0
ENDMDL
