MODEL 1
REMARK minimizedAffinity 13.8100595
REMARK minimizedRMSD -1
REMARK  0 active torsions:
REMARK  status: ('A' for Active; 'I' for Inactive)
ROOT
ATOM      1  C   UNL d   1       5.869  -0.698  -2.977  0.00  0.00     0.078 C 
ATOM      2  C1  UNL d   1       4.650  -0.173  -2.280  0.00  0.00    -0.077 A 
ATOM      3  C2  UNL d   1       4.242   1.156  -2.444  0.00  0.00    -0.001 A 
ATOM      4  C3  UNL d   1       3.110   1.634  -1.781  0.00  0.00     0.003 A 
ATOM      5  C4  UNL d   1       2.377   0.789  -0.950  0.00  0.00    -0.005 A 
ATOM      6  C5  UNL d   1       2.777  -0.535  -0.780  0.00  0.00     0.003 A 
ATOM      7  C6  UNL d   1       3.908  -1.014  -1.441  0.00  0.00    -0.001 A 
ENDROOT
TORSDOF 0
ENDMDL
