MODEL 1
REMARK minimizedAffinity 3.76030326
REMARK minimizedRMSD -1
REMARK  0 active torsions:
REMARK  status: ('A' for Active; 'I' for Inactive)
ROOT
ATOM      1  C   UNL d   1       5.935   2.617   3.668  0.00  0.00     0.078 C 
ATOM      2  C1  UNL d   1       5.279   3.686   4.489  0.00  0.00    -0.077 A 
ATOM      3  C2  UNL d   1       4.125   3.416   5.236  0.00  0.00    -0.001 A 
ATOM      4  C3  UNL d   1       3.519   4.424   5.988  0.00  0.00     0.003 A 
ATOM      5  C4  UNL d   1       4.059   5.708   6.000  0.00  0.00    -0.005 A 
ATOM      6  C5  UNL d   1       5.205   5.987   5.258  0.00  0.00     0.003 A 
ATOM      7  C6  UNL d   1       5.812   4.981   4.506  0.00  0.00    -0.001 A 
ENDROOT
TORSDOF 0
ENDMDL
