MODEL 1
REMARK minimizedAffinity 9.62235832
REMARK minimizedRMSD -1
REMARK  0 active torsions:
REMARK  status: ('A' for Active; 'I' for Inactive)
ROOT
ATOM      1  C   UNL d   1      -2.145   0.178  -3.187  0.00  0.00     0.078 C 
ATOM      2  C1  UNL d   1      -1.642   1.197  -4.165  0.00  0.00    -0.077 A 
ATOM      3  C2  UNL d   1      -2.507   1.800  -5.087  0.00  0.00    -0.001 A 
ATOM      4  C3  UNL d   1      -2.024   2.740  -5.998  0.00  0.00     0.003 A 
ATOM      5  C4  UNL d   1      -0.673   3.084  -5.998  0.00  0.00    -0.005 A 
ATOM      6  C5  UNL d   1       0.195   2.487  -5.087  0.00  0.00     0.003 A 
ATOM      7  C6  UNL d   1      -0.287   1.547  -4.174  0.00  0.00    -0.001 A 
ENDROOT
TORSDOF 0
ENDMDL
