MODEL 1
REMARK minimizedAffinity 10.6558542
REMARK minimizedRMSD -1
REMARK  0 active torsions:
REMARK  status: ('A' for Active; 'I' for Inactive)
ROOT
ATOM      1  C   UNL d   1      -1.163  -5.024  -1.007  0.00  0.00     0.078 C 
ATOM      2  C1  UNL d   1      -1.597  -3.631  -1.351  0.00  0.00    -0.077 A 
ATOM      3  C2  UNL d   1      -1.292  -3.067  -2.596  0.00  0.00    -0.001 A 
ATOM      4  C3  UNL d   1      -1.694  -1.765  -2.899  0.00  0.00     0.003 A 
ATOM      5  C4  UNL d   1      -2.402  -1.016  -1.962  0.00  0.00    -0.005 A 
ATOM      6  C5  UNL d   1      -2.708  -1.567  -0.720  0.00  0.00     0.003 A 
ATOM      7  C6  UNL d   1      -2.307  -2.869  -0.415  0.00  0.00    -0.001 A 
ENDROOT
TORSDOF 0
ENDMDL
