MODEL 1
REMARK minimizedAffinity 7.73604345
REMARK minimizedRMSD -1
REMARK  0 active torsions:
REMARK  status: ('A' for Active; 'I' for Inactive)
ROOT
ATOM      1  C   UNL d   1       1.825   5.524   5.692  0.00  0.00     0.078 C 
ATOM      2  C1  UNL d   1       3.256   5.078   5.688  0.00  0.00    -0.077 A 
ATOM      3  C2  UNL d   1       4.292   5.974   5.982  0.00  0.00    -0.001 A 
ATOM      4  C3  UNL d   1       5.620   5.548   5.965  0.00  0.00     0.003 A 
ATOM      5  C4  UNL d   1       5.927   4.224   5.654  0.00  0.00    -0.005 A 
ATOM      6  C5  UNL d   1       4.903   3.326   5.358  0.00  0.00     0.003 A 
ATOM      7  C6  UNL d   1       3.574   3.751   5.375  0.00  0.00    -0.001 A 
ENDROOT
TORSDOF 0
ENDMDL
