MODEL 1
REMARK minimizedAffinity 17.4922256
REMARK minimizedRMSD -1
REMARK  0 active torsions:
REMARK  status: ('A' for Active; 'I' for Inactive)
ROOT
ATOM      1  C   UNL d   1       5.978   5.998   5.981  0.00  0.00     0.078 C 
ATOM      2  C1  UNL d   1       5.416   4.757   5.354  0.00  0.00    -0.077 A 
ATOM      3  C2  UNL d   1       4.396   4.030   5.981  0.00  0.00    -0.001 A 
ATOM      4  C3  UNL d   1       3.889   2.872   5.391  0.00  0.00     0.003 A 
ATOM      5  C4  UNL d   1       4.396   2.429   4.171  0.00  0.00    -0.005 A 
ATOM      6  C5  UNL d   1       5.412   3.144   3.540  0.00  0.00     0.003 A 
ATOM      7  C6  UNL d   1       5.920   4.303   4.129  0.00  0.00    -0.001 A 
ENDROOT
TORSDOF 0
ENDMDL
