MODEL 1
REMARK minimizedAffinity 6.9624877
REMARK minimizedRMSD -1
REMARK  0 active torsions:
REMARK  status: ('A' for Active; 'I' for Inactive)
ROOT
ATOM      1  C   UNL d   1       5.594   2.164   4.143  0.00  0.00     0.078 C 
ATOM      2  C1  UNL d   1       5.115   3.425   4.797  0.00  0.00    -0.077 A 
ATOM      3  C2  UNL d   1       3.786   3.559   5.218  0.00  0.00    -0.001 A 
ATOM      4  C3  UNL d   1       3.351   4.742   5.818  0.00  0.00     0.003 A 
ATOM      5  C4  UNL d   1       4.239   5.801   6.000  0.00  0.00    -0.005 A 
ATOM      6  C5  UNL d   1       5.562   5.678   5.582  0.00  0.00     0.003 A 
ATOM      7  C6  UNL d   1       5.999   4.495   4.983  0.00  0.00    -0.001 A 
ENDROOT
TORSDOF 0
ENDMDL
