MODEL 1
REMARK minimizedAffinity 10.1829834
REMARK minimizedRMSD -1
REMARK  0 active torsions:
REMARK  status: ('A' for Active; 'I' for Inactive)
ROOT
ATOM      1  C   UNL d   1       5.974   2.477   4.566  0.00  0.00     0.078 C 
ATOM      2  C1  UNL d   1       5.259   3.695   5.070  0.00  0.00    -0.077 A 
ATOM      3  C2  UNL d   1       3.861   3.728   5.153  0.00  0.00    -0.001 A 
ATOM      4  C3  UNL d   1       3.209   4.872   5.615  0.00  0.00     0.003 A 
ATOM      5  C4  UNL d   1       3.945   5.992   5.997  0.00  0.00    -0.005 A 
ATOM      6  C5  UNL d   1       5.336   5.969   5.916  0.00  0.00     0.003 A 
ATOM      7  C6  UNL d   1       5.990   4.826   5.454  0.00  0.00    -0.001 A 
ENDROOT
TORSDOF 0
ENDMDL
