MODEL 1
REMARK minimizedAffinity 6.63836622
REMARK minimizedRMSD -1
REMARK  0 active torsions:
REMARK  status: ('A' for Active; 'I' for Inactive)
ROOT
ATOM      1  C   UNL d   1      -2.115  -2.206  -2.231  0.00  0.00     0.078 C 
ATOM      2  C1  UNL d   1      -1.819  -2.268  -0.763  0.00  0.00    -0.077 A 
ATOM      3  C2  UNL d   1      -1.123  -3.351  -0.213  0.00  0.00    -0.001 A 
ATOM      4  C3  UNL d   1      -0.862  -3.401   1.158  0.00  0.00     0.003 A 
ATOM      5  C4  UNL d   1      -1.296  -2.371   1.990  0.00  0.00    -0.005 A 
ATOM      6  C5  UNL d   1      -1.992  -1.290   1.452  0.00  0.00     0.003 A 
ATOM      7  C6  UNL d   1      -2.253  -1.238   0.082  0.00  0.00    -0.001 A 
ENDROOT
TORSDOF 0
ENDMDL
