MODEL 1
REMARK minimizedAffinity 7.88581324
REMARK minimizedRMSD -1
REMARK  0 active torsions:
REMARK  status: ('A' for Active; 'I' for Inactive)
ROOT
ATOM      1  C   UNL d   1       2.140   5.746   5.760  0.00  0.00     0.078 C 
ATOM      2  C1  UNL d   1       3.476   5.069   5.815  0.00  0.00    -0.077 A 
ATOM      3  C2  UNL d   1       4.663   5.811   5.775  0.00  0.00    -0.001 A 
ATOM      4  C3  UNL d   1       5.900   5.166   5.818  0.00  0.00     0.003 A 
ATOM      5  C4  UNL d   1       5.963   3.777   5.899  0.00  0.00    -0.005 A 
ATOM      6  C5  UNL d   1       4.788   3.030   5.938  0.00  0.00     0.003 A 
ATOM      7  C6  UNL d   1       3.549   3.672   5.895  0.00  0.00    -0.001 A 
ENDROOT
TORSDOF 0
ENDMDL
