MODEL 1
REMARK minimizedAffinity 4.58806038
REMARK minimizedRMSD -1
REMARK  0 active torsions:
REMARK  status: ('A' for Active; 'I' for Inactive)
ROOT
ATOM      1  C   UNL d   1      -0.009  -6.000   3.896  0.00  0.00     0.078 C 
ATOM      2  C1  UNL d   1      -0.341  -5.316   2.603  0.00  0.00    -0.077 A 
ATOM      3  C2  UNL d   1       0.047  -3.991   2.368  0.00  0.00    -0.001 A 
ATOM      4  C3  UNL d   1      -0.278  -3.364   1.164  0.00  0.00     0.003 A 
ATOM      5  C4  UNL d   1      -0.993  -4.053   0.187  0.00  0.00    -0.005 A 
ATOM      6  C5  UNL d   1      -1.386  -5.371   0.413  0.00  0.00     0.003 A 
ATOM      7  C6  UNL d   1      -1.062  -6.000   1.616  0.00  0.00    -0.001 A 
ENDROOT
TORSDOF 0
ENDMDL
