MODEL 1
REMARK minimizedAffinity 3.84895945
REMARK minimizedRMSD -1
REMARK  0 active torsions:
REMARK  status: ('A' for Active; 'I' for Inactive)
ROOT
ATOM      1  C   UNL d   1       3.702   1.923   5.843  0.00  0.00     0.078 C 
ATOM      2  C1  UNL d   1       4.190   3.341   5.874  0.00  0.00    -0.077 A 
ATOM      3  C2  UNL d   1       5.557   3.631   5.961  0.00  0.00    -0.001 A 
ATOM      4  C3  UNL d   1       5.997   4.955   5.999  0.00  0.00     0.003 A 
ATOM      5  C4  UNL d   1       5.076   5.999   5.953  0.00  0.00    -0.005 A 
ATOM      6  C5  UNL d   1       3.713   5.721   5.868  0.00  0.00     0.003 A 
ATOM      7  C6  UNL d   1       3.272   4.397   5.830  0.00  0.00    -0.001 A 
ENDROOT
TORSDOF 0
ENDMDL
