MODEL 1
REMARK minimizedAffinity 3.45438886
REMARK minimizedRMSD -1
REMARK  0 active torsions:
REMARK  status: ('A' for Active; 'I' for Inactive)
ROOT
ATOM      1  C   UNL d   1       2.079   5.999   5.573  0.00  0.00     0.078 C 
ATOM      2  C1  UNL d   1       3.391   5.286   5.704  0.00  0.00    -0.077 A 
ATOM      3  C2  UNL d   1       4.584   5.998   5.886  0.00  0.00    -0.001 A 
ATOM      4  C3  UNL d   1       5.799   5.321   5.997  0.00  0.00     0.003 A 
ATOM      5  C4  UNL d   1       5.835   3.930   5.927  0.00  0.00    -0.005 A 
ATOM      6  C5  UNL d   1       4.654   3.214   5.745  0.00  0.00     0.003 A 
ATOM      7  C6  UNL d   1       3.437   3.888   5.633  0.00  0.00    -0.001 A 
ENDROOT
TORSDOF 0
ENDMDL
