MODEL 1
REMARK minimizedAffinity 5.70859003
REMARK minimizedRMSD -1
REMARK  0 active torsions:
REMARK  status: ('A' for Active; 'I' for Inactive)
ROOT
ATOM      1  C   UNL d   1       5.649   2.408   4.113  0.00  0.00     0.078 C 
ATOM      2  C1  UNL d   1       5.141   3.653   4.778  0.00  0.00    -0.077 A 
ATOM      3  C2  UNL d   1       3.812   3.750   5.208  0.00  0.00    -0.001 A 
ATOM      4  C3  UNL d   1       3.351   4.919   5.816  0.00  0.00     0.003 A 
ATOM      5  C4  UNL d   1       4.212   5.999   5.999  0.00  0.00    -0.005 A 
ATOM      6  C5  UNL d   1       5.535   5.913   5.572  0.00  0.00     0.003 A 
ATOM      7  C6  UNL d   1       5.998   4.745   4.963  0.00  0.00    -0.001 A 
ENDROOT
TORSDOF 0
ENDMDL
