MODEL 1
REMARK minimizedAffinity -4.50785828
REMARK minimizedRMSD -1
REMARK  0 active torsions:
REMARK  status: ('A' for Active; 'I' for Inactive)
ROOT
ATOM      1  C2' OXE d   1      -2.138  -0.807   1.324  0.00  0.00     0.078 C 
ATOM      2  C1' OXE d   1      -0.345   0.069  -0.651  0.00  0.00     0.078 C 
ATOM      3  C1  OXE d   1       0.194  -0.152   0.740  0.00  0.00    -0.078 A 
ATOM      4  C2  OXE d   1      -0.700  -0.536   1.711  0.00  0.00    -0.078 A 
ATOM      5  C3  OXE d   1      -0.245  -0.807   2.998  0.00  0.00     0.003 A 
ATOM      6  C4  OXE d   1       1.084  -0.544   3.351  0.00  0.00    -0.002 A 
ATOM      7  C5  OXE d   1       2.002  -0.115   2.387  0.00  0.00    -0.002 A 
ATOM      8  C6  OXE d   1       1.584   0.045   1.070  0.00  0.00     0.003 A 
ENDROOT
TORSDOF 0
ENDMDL
