MODEL 1
REMARK minimizedAffinity -5.58918285
REMARK minimizedRMSD -1
REMARK  0 active torsions:
REMARK  status: ('A' for Active; 'I' for Inactive)
ROOT
ATOM      1  C2' OXE d   1      -1.623   0.512   1.887  0.00  0.00     0.078 C 
ATOM      2  C1' OXE d   1      -0.488  -0.278  -0.556  0.00  0.00     0.078 C 
ATOM      3  C1  OXE d   1       0.316  -0.507   0.699  0.00  0.00    -0.078 A 
ATOM      4  C2  OXE d   1      -0.227  -0.074   1.885  0.00  0.00    -0.078 A 
ATOM      5  C3  OXE d   1       0.448  -0.310   3.079  0.00  0.00     0.003 A 
ATOM      6  C4  OXE d   1       1.743  -0.843   3.068  0.00  0.00    -0.002 A 
ATOM      7  C5  OXE d   1       2.331  -1.253   1.867  0.00  0.00    -0.002 A 
ATOM      8  C6  OXE d   1       1.616  -1.132   0.681  0.00  0.00     0.003 A 
ENDROOT
TORSDOF 0
ENDMDL
