MODEL 1
REMARK minimizedAffinity -5.6787014
REMARK minimizedRMSD -1
REMARK  0 active torsions:
REMARK  status: ('A' for Active; 'I' for Inactive)
ROOT
ATOM      1  C2' OXE d   1      -1.446   0.281   2.196  0.00  0.00     0.078 C 
ATOM      2  C1' OXE d   1       1.130  -0.540   2.953  0.00  0.00     0.078 C 
ATOM      3  C1  OXE d   1       0.803  -0.518   1.480  0.00  0.00    -0.078 A 
ATOM      4  C2  OXE d   1      -0.475  -0.160   1.122  0.00  0.00    -0.078 A 
ATOM      5  C3  OXE d   1      -0.813  -0.070  -0.225  0.00  0.00     0.003 A 
ATOM      6  C4  OXE d   1       0.088  -0.489  -1.212  0.00  0.00    -0.002 A 
ATOM      7  C5  OXE d   1       1.381  -0.895  -0.866  0.00  0.00    -0.002 A 
ATOM      8  C6  OXE d   1       1.767  -0.875   0.470  0.00  0.00     0.003 A 
ENDROOT
TORSDOF 0
ENDMDL
