MODEL 1
REMARK minimizedAffinity -3.3153255
REMARK minimizedRMSD -1
REMARK  0 active torsions:
REMARK  status: ('A' for Active; 'I' for Inactive)
ROOT
ATOM      1  C2' OXE d   1       1.101  -0.894   2.872  0.00  0.00     0.078 C 
ATOM      2  C1' OXE d   1       2.652  -1.156   0.548  0.00  0.00     0.078 C 
ATOM      3  C1  OXE d   1       1.210  -0.745   0.388  0.00  0.00    -0.078 A 
ATOM      4  C2  OXE d   1       0.446  -0.664   1.527  0.00  0.00    -0.078 A 
ATOM      5  C3  OXE d   1      -0.876  -0.236   1.442  0.00  0.00     0.003 A 
ATOM      6  C4  OXE d   1      -1.477  -0.036   0.193  0.00  0.00    -0.002 A 
ATOM      7  C5  OXE d   1      -0.727  -0.151  -0.982  0.00  0.00    -0.002 A 
ATOM      8  C6  OXE d   1       0.626  -0.462  -0.900  0.00  0.00     0.003 A 
ENDROOT
TORSDOF 0
ENDMDL
