MODEL 1
REMARK minimizedAffinity -3.20431566
REMARK minimizedRMSD -1
REMARK  0 active torsions:
REMARK  status: ('A' for Active; 'I' for Inactive)
ROOT
ATOM      1  C2' OXE d   1      -0.400  -1.214   2.583  0.00  0.00     0.078 C 
ATOM      2  C1' OXE d   1       1.778   0.508   2.167  0.00  0.00     0.078 C 
ATOM      3  C1  OXE d   1       0.788   0.341   1.041  0.00  0.00    -0.078 A 
ATOM      4  C2  OXE d   1      -0.249  -0.539   1.236  0.00  0.00    -0.078 A 
ATOM      5  C3  OXE d   1      -1.220  -0.690   0.251  0.00  0.00     0.003 A 
ATOM      6  C4  OXE d   1      -1.067  -0.070  -0.995  0.00  0.00    -0.002 A 
ATOM      7  C5  OXE d   1       0.003   0.799  -1.229  0.00  0.00    -0.002 A 
ATOM      8  C6  OXE d   1       0.915   1.048  -0.209  0.00  0.00     0.003 A 
ENDROOT
TORSDOF 0
ENDMDL
