MODEL 1
REMARK minimizedAffinity -2.52882028
REMARK minimizedRMSD -1
REMARK  0 active torsions:
REMARK  status: ('A' for Active; 'I' for Inactive)
ROOT
ATOM      1  C2' OXE d   1       2.639  -0.510   0.100  0.00  0.00     0.078 C 
ATOM      2  C1' OXE d   1       1.738  -0.099   2.726  0.00  0.00     0.078 C 
ATOM      3  C1  OXE d   1       0.704  -0.172   1.631  0.00  0.00    -0.078 A 
ATOM      4  C2  OXE d   1       1.157  -0.326   0.343  0.00  0.00    -0.078 A 
ATOM      5  C3  OXE d   1       0.242  -0.454  -0.699  0.00  0.00     0.003 A 
ATOM      6  C4  OXE d   1      -1.127  -0.273  -0.467  0.00  0.00    -0.002 A 
ATOM      7  C5  OXE d   1      -1.606  -0.075   0.833  0.00  0.00    -0.002 A 
ATOM      8  C6  OXE d   1      -0.710  -0.064   1.896  0.00  0.00     0.003 A 
ENDROOT
TORSDOF 0
ENDMDL
