MODEL 1
REMARK minimizedAffinity -4.08303118
REMARK minimizedRMSD -1
REMARK  0 active torsions:
REMARK  status: ('A' for Active; 'I' for Inactive)
ROOT
ATOM      1  C2' OXE d   1       2.615  -0.405   0.366  0.00  0.00     0.078 C 
ATOM      2  C1' OXE d   1       1.549  -0.588   2.957  0.00  0.00     0.078 C 
ATOM      3  C1  OXE d   1       0.600  -0.280   1.826  0.00  0.00    -0.078 A 
ATOM      4  C2  OXE d   1       1.137  -0.146   0.568  0.00  0.00    -0.078 A 
ATOM      5  C3  OXE d   1       0.299   0.084  -0.519  0.00  0.00     0.003 A 
ATOM      6  C4  OXE d   1      -1.065   0.333  -0.322  0.00  0.00    -0.002 A 
ATOM      7  C5  OXE d   1      -1.626   0.240   0.956  0.00  0.00    -0.002 A 
ATOM      8  C6  OXE d   1      -0.817  -0.106   2.032  0.00  0.00     0.003 A 
ENDROOT
TORSDOF 0
ENDMDL
