MODEL 1
REMARK minimizedAffinity 9.82933426
REMARK minimizedRMSD -1
REMARK  2 active torsions:
REMARK  status: ('A' for Active; 'I' for Inactive)
REMARK    1  A    between atoms: C1_2  and  C2_3 
REMARK    2  A    between atoms: C2_3  and  C3_4 
ROOT
ATOM      1  C3  UNL d   1       2.679   4.755   3.768  0.00  0.00    -0.075 A 
ATOM      2  C4  UNL d   1       3.483   3.673   3.379  0.00  0.00     0.002 A 
ATOM      3  C5  UNL d   1       4.872   3.752   3.480  0.00  0.00     0.002 A 
ATOM      4  C6  UNL d   1       5.475   4.913   3.959  0.00  0.00    -0.004 A 
ATOM      5  C7  UNL d   1       4.686   6.000   4.332  0.00  0.00     0.002 A 
ATOM      6  C8  UNL d   1       3.296   5.922   4.237  0.00  0.00     0.002 A 
ENDROOT
BRANCH   1   7
ATOM      7  C2  UNL d   1       1.173   4.665   3.689  0.00  0.00     0.056 C 
BRANCH   7   8
ATOM      8  C1  UNL d   1       0.485   5.999   3.380  0.00  0.00     0.007 C 
ATOM      9  C   UNL d   1      -0.840   5.835   2.648  0.00  0.00     0.009 C 
ENDBRANCH   7   8
ENDBRANCH   1   7
TORSDOF 2
ENDMDL
