MODEL 1
REMARK minimizedAffinity 2.60009336
REMARK minimizedRMSD -1
REMARK  2 active torsions:
REMARK  status: ('A' for Active; 'I' for Inactive)
REMARK    1  A    between atoms: C1_2  and  C2_3 
REMARK    2  A    between atoms: C2_3  and  C3_4 
ROOT
ATOM      1  C3  UNL d   1      -0.550   1.765   0.041  0.00  0.00    -0.075 A 
ATOM      2  C4  UNL d   1       0.421   1.237   0.905  0.00  0.00     0.002 A 
ATOM      3  C5  UNL d   1       1.351   2.075   1.521  0.00  0.00     0.002 A 
ATOM      4  C6  UNL d   1       1.330   3.446   1.274  0.00  0.00    -0.004 A 
ATOM      5  C7  UNL d   1       0.380   3.979   0.404  0.00  0.00     0.002 A 
ATOM      6  C8  UNL d   1      -0.554   3.144  -0.210  0.00  0.00     0.002 A 
ENDROOT
BRANCH   1   7
ATOM      7  C2  UNL d   1      -1.578   0.868  -0.606  0.00  0.00     0.056 C 
BRANCH   7   8
ATOM      8  C1  UNL d   1      -2.703   0.428   0.336  0.00  0.00     0.007 C 
ATOM      9  C   UNL d   1      -3.955   1.288   0.217  0.00  0.00     0.009 C 
ENDBRANCH   7   8
ENDBRANCH   1   7
TORSDOF 2
ENDMDL
