MODEL 1
REMARK minimizedAffinity 6.54244804
REMARK minimizedRMSD -1
REMARK  2 active torsions:
REMARK  status: ('A' for Active; 'I' for Inactive)
REMARK    1  A    between atoms: C1_2  and  C2_3 
REMARK    2  A    between atoms: C2_3  and  C3_4 
ROOT
ATOM      1  C3  UNL d   1       1.599   0.389   0.589  0.00  0.00    -0.075 A 
ATOM      2  C4  UNL d   1       0.345   0.460  -0.035  0.00  0.00     0.002 A 
ATOM      3  C5  UNL d   1       0.124  -0.180  -1.255  0.00  0.00     0.002 A 
ATOM      4  C6  UNL d   1       1.154  -0.889  -1.870  0.00  0.00    -0.004 A 
ATOM      5  C7  UNL d   1       2.408  -0.952  -1.267  0.00  0.00     0.002 A 
ATOM      6  C8  UNL d   1       2.631  -0.317  -0.044  0.00  0.00     0.002 A 
ENDROOT
BRANCH   1   7
ATOM      7  C2  UNL d   1       1.836   1.054   1.924  0.00  0.00     0.056 C 
BRANCH   7   8
ATOM      8  C1  UNL d   1       1.987   2.577   1.843  0.00  0.00     0.007 C 
ATOM      9  C   UNL d   1       2.175   3.235   3.204  0.00  0.00     0.009 C 
ENDBRANCH   7   8
ENDBRANCH   1   7
TORSDOF 2
ENDMDL
