MODEL 1
REMARK minimizedAffinity 7.18456984
REMARK minimizedRMSD -1
REMARK  2 active torsions:
REMARK  status: ('A' for Active; 'I' for Inactive)
REMARK    1  A    between atoms: C1_2  and  C2_3 
REMARK    2  A    between atoms: C2_3  and  C3_4 
ROOT
ATOM      1  C3  UNL d   1      -4.190   4.808   4.104  0.00  0.00    -0.075 A 
ATOM      2  C4  UNL d   1      -4.500   4.812   5.472  0.00  0.00     0.002 A 
ATOM      3  C5  UNL d   1      -5.387   3.873   6.000  0.00  0.00     0.002 A 
ATOM      4  C6  UNL d   1      -5.981   2.927   5.168  0.00  0.00    -0.004 A 
ATOM      5  C7  UNL d   1      -5.693   2.924   3.805  0.00  0.00     0.002 A 
ATOM      6  C8  UNL d   1      -4.802   3.859   3.275  0.00  0.00     0.002 A 
ENDROOT
BRANCH   1   7
ATOM      7  C2  UNL d   1      -3.208   5.802   3.532  0.00  0.00     0.056 C 
BRANCH   7   8
ATOM      8  C1  UNL d   1      -1.983   5.160   2.872  0.00  0.00     0.007 C 
ATOM      9  C   UNL d   1      -1.840   5.513   1.398  0.00  0.00     0.009 C 
ENDBRANCH   7   8
ENDBRANCH   1   7
TORSDOF 2
ENDMDL
