MODEL 1
REMARK minimizedAffinity 0.330930799
REMARK minimizedRMSD -1
REMARK  2 active torsions:
REMARK  status: ('A' for Active; 'I' for Inactive)
REMARK    1  A    between atoms: C1_2  and  C2_3 
REMARK    2  A    between atoms: C2_3  and  C3_4 
ROOT
ATOM      1  C3  UNL d   1      -3.754  -0.568  -0.685  0.00  0.00    -0.075 A 
ATOM      2  C4  UNL d   1      -2.486  -0.744  -1.259  0.00  0.00     0.002 A 
ATOM      3  C5  UNL d   1      -2.034   0.121  -2.256  0.00  0.00     0.002 A 
ATOM      4  C6  UNL d   1      -2.845   1.164  -2.698  0.00  0.00    -0.004 A 
ATOM      5  C7  UNL d   1      -4.113   1.337  -2.147  0.00  0.00     0.002 A 
ATOM      6  C8  UNL d   1      -4.566   0.476  -1.147  0.00  0.00     0.002 A 
ENDROOT
BRANCH   1   7
ATOM      7  C2  UNL d   1      -4.237  -1.483   0.415  0.00  0.00     0.056 C 
BRANCH   7   8
ATOM      8  C1  UNL d   1      -5.727  -1.333   0.741  0.00  0.00     0.007 C 
ATOM      9  C   UNL d   1      -6.000  -0.333   1.856  0.00  0.00     0.009 C 
ENDBRANCH   7   8
ENDBRANCH   1   7
TORSDOF 2
ENDMDL
