MODEL 1
REMARK minimizedAffinity -2.77808905
REMARK minimizedRMSD -1
REMARK  2 active torsions:
REMARK  status: ('A' for Active; 'I' for Inactive)
REMARK    1  A    between atoms: C1_2  and  C2_3 
REMARK    2  A    between atoms: C2_3  and  C3_4 
ROOT
ATOM      1  C3  UNL d   1       0.965  -1.392  -1.424  0.00  0.00    -0.075 A 
ATOM      2  C4  UNL d   1       2.322  -1.040  -1.474  0.00  0.00     0.002 A 
ATOM      3  C5  UNL d   1       2.707   0.301  -1.475  0.00  0.00     0.002 A 
ATOM      4  C6  UNL d   1       1.743   1.305  -1.435  0.00  0.00    -0.004 A 
ATOM      5  C7  UNL d   1       0.392   0.968  -1.402  0.00  0.00     0.002 A 
ATOM      6  C8  UNL d   1       0.004  -0.373  -1.397  0.00  0.00     0.002 A 
ENDROOT
BRANCH   1   7
ATOM      7  C2  UNL d   1       0.543  -2.841  -1.394  0.00  0.00     0.056 C 
BRANCH   7   8
ATOM      8  C1  UNL d   1       1.670  -3.811  -1.024  0.00  0.00     0.007 C 
ATOM      9  C   UNL d   1       1.548  -5.164  -1.713  0.00  0.00     0.009 C 
ENDBRANCH   7   8
ENDBRANCH   1   7
TORSDOF 2
ENDMDL
