MODEL 1
REMARK minimizedAffinity -3.99003792
REMARK minimizedRMSD -1
REMARK  0 active torsions:
REMARK  status: ('A' for Active; 'I' for Inactive)
ROOT
ATOM      1  C   UNL d   1      -0.597  -0.741   3.085  0.00  0.00     0.078 C 
ATOM      2  C1  UNL d   1      -0.433  -0.029   1.775  0.00  0.00    -0.077 A 
ATOM      3  C2  UNL d   1       0.804   0.505   1.394  0.00  0.00    -0.001 A 
ATOM      4  C3  UNL d   1       0.940   1.173   0.177  0.00  0.00     0.003 A 
ATOM      5  C4  UNL d   1      -0.158   1.315  -0.669  0.00  0.00    -0.005 A 
ATOM      6  C5  UNL d   1      -1.394   0.789  -0.298  0.00  0.00     0.003 A 
ATOM      7  C6  UNL d   1      -1.531   0.120   0.919  0.00  0.00    -0.001 A 
ENDROOT
TORSDOF 0
ENDMDL
