MODEL 1
REMARK minimizedAffinity -4.02313948
REMARK minimizedRMSD -1
REMARK  0 active torsions:
REMARK  status: ('A' for Active; 'I' for Inactive)
ROOT
ATOM      1  C   UNL d   1       0.266   0.010  -1.154  0.00  0.00     0.078 C 
ATOM      2  C1  UNL d   1      -0.074  -0.185   0.294  0.00  0.00    -0.077 A 
ATOM      3  C2  UNL d   1      -1.390  -0.442   0.697  0.00  0.00    -0.001 A 
ATOM      4  C3  UNL d   1      -1.694  -0.612   2.049  0.00  0.00     0.003 A 
ATOM      5  C4  UNL d   1      -0.687  -0.526   3.008  0.00  0.00    -0.005 A 
ATOM      6  C5  UNL d   1       0.625  -0.268   2.616  0.00  0.00     0.003 A 
ATOM      7  C6  UNL d   1       0.931  -0.098   1.265  0.00  0.00    -0.001 A 
ENDROOT
TORSDOF 0
ENDMDL
