MODEL 1
REMARK minimizedAffinity -2.01752663
REMARK minimizedRMSD -1
REMARK  0 active torsions:
REMARK  status: ('A' for Active; 'I' for Inactive)
ROOT
ATOM      1  C   UNL d   1       0.759  -0.994  -1.124  0.00  0.00     0.078 C 
ATOM      2  C1  UNL d   1       0.375  -0.766   0.308  0.00  0.00    -0.077 A 
ATOM      3  C2  UNL d   1       0.791   0.383   0.992  0.00  0.00    -0.001 A 
ATOM      4  C3  UNL d   1       0.435   0.578   2.327  0.00  0.00     0.003 A 
ATOM      5  C4  UNL d   1      -0.339  -0.372   2.990  0.00  0.00    -0.005 A 
ATOM      6  C5  UNL d   1      -0.756  -1.520   2.319  0.00  0.00     0.003 A 
ATOM      7  C6  UNL d   1      -0.400  -1.716   0.984  0.00  0.00    -0.001 A 
ENDROOT
TORSDOF 0
ENDMDL
