MODEL 1
REMARK minimizedAffinity -4.96287537
REMARK minimizedRMSD -1
REMARK  0 active torsions:
REMARK  status: ('A' for Active; 'I' for Inactive)
ROOT
ATOM      1  C   UNL d   1      -0.842  -1.100   2.646  0.00  0.00     0.078 C 
ATOM      2  C1  UNL d   1      -0.401  -0.335   1.435  0.00  0.00    -0.077 A 
ATOM      3  C2  UNL d   1      -1.202  -0.275   0.288  0.00  0.00    -0.001 A 
ATOM      4  C3  UNL d   1      -0.774   0.433  -0.836  0.00  0.00     0.003 A 
ATOM      5  C4  UNL d   1       0.457   1.085  -0.825  0.00  0.00    -0.005 A 
ATOM      6  C5  UNL d   1       1.263   1.029   0.310  0.00  0.00     0.003 A 
ATOM      7  C6  UNL d   1       0.836   0.322   1.435  0.00  0.00    -0.001 A 
ENDROOT
TORSDOF 0
ENDMDL
