MODEL 1
REMARK minimizedAffinity -4.01654387
REMARK minimizedRMSD -1
REMARK  0 active torsions:
REMARK  status: ('A' for Active; 'I' for Inactive)
ROOT
ATOM      1  C   UNL d   1      -0.883  -1.174   2.553  0.00  0.00     0.078 C 
ATOM      2  C1  UNL d   1      -0.734  -0.620   1.168  0.00  0.00    -0.077 A 
ATOM      3  C2  UNL d   1      -1.853  -0.386   0.360  0.00  0.00    -0.001 A 
ATOM      4  C3  UNL d   1      -1.698   0.120  -0.931  0.00  0.00     0.003 A 
ATOM      5  C4  UNL d   1      -0.426   0.397  -1.426  0.00  0.00    -0.005 A 
ATOM      6  C5  UNL d   1       0.694   0.165  -0.631  0.00  0.00     0.003 A 
ATOM      7  C6  UNL d   1       0.542  -0.341   0.661  0.00  0.00    -0.001 A 
ENDROOT
TORSDOF 0
ENDMDL
