MODEL 1
REMARK minimizedAffinity -4.52450466
REMARK minimizedRMSD -1
REMARK  0 active torsions:
REMARK  status: ('A' for Active; 'I' for Inactive)
ROOT
ATOM      1  C   UNL d   1       0.349   0.209  -1.129  0.00  0.00     0.078 C 
ATOM      2  C1  UNL d   1       0.024  -0.031   0.315  0.00  0.00    -0.077 A 
ATOM      3  C2  UNL d   1       0.707   0.648   1.331  0.00  0.00    -0.001 A 
ATOM      4  C3  UNL d   1       0.401   0.407   2.671  0.00  0.00     0.003 A 
ATOM      5  C4  UNL d   1      -0.589  -0.514   3.008  0.00  0.00    -0.005 A 
ATOM      6  C5  UNL d   1      -1.273  -1.197   2.004  0.00  0.00     0.003 A 
ATOM      7  C6  UNL d   1      -0.968  -0.957   0.663  0.00  0.00    -0.001 A 
ENDROOT
TORSDOF 0
ENDMDL
