MODEL 1
REMARK minimizedAffinity -4.81940556
REMARK minimizedRMSD -1
REMARK  0 active torsions:
REMARK  status: ('A' for Active; 'I' for Inactive)
ROOT
ATOM      1  C   UNL d   1      -0.255   0.781  -1.254  0.00  0.00     0.078 C 
ATOM      2  C1  UNL d   1       0.016   0.496   0.193  0.00  0.00    -0.077 A 
ATOM      3  C2  UNL d   1       1.270   0.761   0.758  0.00  0.00    -0.001 A 
ATOM      4  C3  UNL d   1       1.511   0.482   2.104  0.00  0.00     0.003 A 
ATOM      5  C4  UNL d   1       0.503  -0.064   2.897  0.00  0.00    -0.005 A 
ATOM      6  C5  UNL d   1      -0.747  -0.334   2.343  0.00  0.00     0.003 A 
ATOM      7  C6  UNL d   1      -0.990  -0.056   0.997  0.00  0.00    -0.001 A 
ENDROOT
TORSDOF 0
ENDMDL
