MODEL 1
REMARK minimizedAffinity -5.44188404
REMARK minimizedRMSD -1
REMARK  0 active torsions:
REMARK  status: ('A' for Active; 'I' for Inactive)
ROOT
ATOM      1  C   UNL d   1      -0.606  -0.739   3.447  0.00  0.00     0.078 C 
ATOM      2  C1  UNL d   1      -0.149  -0.392   2.061  0.00  0.00    -0.077 A 
ATOM      3  C2  UNL d   1       1.148   0.080   1.826  0.00  0.00    -0.001 A 
ATOM      4  C3  UNL d   1       1.556   0.408   0.532  0.00  0.00     0.003 A 
ATOM      5  C4  UNL d   1       0.673   0.268  -0.537  0.00  0.00    -0.005 A 
ATOM      6  C5  UNL d   1      -0.620  -0.199  -0.312  0.00  0.00     0.003 A 
ATOM      7  C6  UNL d   1      -1.030  -0.527   0.981  0.00  0.00    -0.001 A 
ENDROOT
TORSDOF 0
ENDMDL
