MODEL 1
REMARK minimizedAffinity -5.38519764
REMARK minimizedRMSD -1
REMARK  0 active torsions:
REMARK  status: ('A' for Active; 'I' for Inactive)
ROOT
ATOM      1  C   UNL d   1      -0.842  -1.256   3.157  0.00  0.00     0.078 C 
ATOM      2  C1  UNL d   1      -0.292  -0.615   1.918  0.00  0.00    -0.077 A 
ATOM      3  C2  UNL d   1      -0.956  -0.730   0.691  0.00  0.00    -0.001 A 
ATOM      4  C3  UNL d   1      -0.427  -0.137  -0.457  0.00  0.00     0.003 A 
ATOM      5  C4  UNL d   1       0.769   0.575  -0.389  0.00  0.00    -0.005 A 
ATOM      6  C5  UNL d   1       1.438   0.693   0.828  0.00  0.00     0.003 A 
ATOM      7  C6  UNL d   1       0.911   0.100   1.976  0.00  0.00    -0.001 A 
ENDROOT
TORSDOF 0
ENDMDL
