MODEL 1
REMARK minimizedAffinity -4.02019787
REMARK minimizedRMSD -1
REMARK  0 active torsions:
REMARK  status: ('A' for Active; 'I' for Inactive)
ROOT
ATOM      1  C   UNL d   1      -0.403  -0.638   2.893  0.00  0.00     0.078 C 
ATOM      2  C1  UNL d   1      -0.041  -0.312   1.475  0.00  0.00    -0.077 A 
ATOM      3  C2  UNL d   1       1.249   0.120   1.141  0.00  0.00    -0.001 A 
ATOM      4  C3  UNL d   1       1.569   0.429  -0.181  0.00  0.00     0.003 A 
ATOM      5  C4  UNL d   1       0.606   0.311  -1.181  0.00  0.00    -0.005 A 
ATOM      6  C5  UNL d   1      -0.681  -0.115  -0.858  0.00  0.00     0.003 A 
ATOM      7  C6  UNL d   1      -1.003  -0.425   0.464  0.00  0.00    -0.001 A 
ENDROOT
TORSDOF 0
ENDMDL
