MODEL 1
REMARK minimizedAffinity -4.8837328
REMARK minimizedRMSD -1
REMARK  0 active torsions:
REMARK  status: ('A' for Active; 'I' for Inactive)
ROOT
ATOM      1  C   UNL d   1      -0.024   0.270  -1.919  0.00  0.00     0.078 C 
ATOM      2  C1  UNL d   1      -0.092  -0.013  -0.448  0.00  0.00    -0.077 A 
ATOM      3  C2  UNL d   1       1.057   0.044   0.351  0.00  0.00    -0.001 A 
ATOM      4  C3  UNL d   1       0.980  -0.231   1.717  0.00  0.00     0.003 A 
ATOM      5  C4  UNL d   1      -0.242  -0.565   2.296  0.00  0.00    -0.005 A 
ATOM      6  C5  UNL d   1      -1.390  -0.626   1.509  0.00  0.00     0.003 A 
ATOM      7  C6  UNL d   1      -1.316  -0.352   0.142  0.00  0.00    -0.001 A 
ENDROOT
TORSDOF 0
ENDMDL
