MODEL 1
REMARK minimizedAffinity -4.14409447
REMARK minimizedRMSD -1
REMARK  0 active torsions:
REMARK  status: ('A' for Active; 'I' for Inactive)
ROOT
ATOM      1  C   UNL d   1      -0.868  -0.592   3.282  0.00  0.00     0.078 C 
ATOM      2  C1  UNL d   1      -0.448  -0.289   1.875  0.00  0.00    -0.077 A 
ATOM      3  C2  UNL d   1      -1.356  -0.388   0.813  0.00  0.00    -0.001 A 
ATOM      4  C3  UNL d   1      -0.948  -0.112  -0.493  0.00  0.00     0.003 A 
ATOM      5  C4  UNL d   1       0.368   0.264  -0.750  0.00  0.00    -0.005 A 
ATOM      6  C5  UNL d   1       1.280   0.364   0.300  0.00  0.00     0.003 A 
ATOM      7  C6  UNL d   1       0.874   0.088   1.606  0.00  0.00    -0.001 A 
ENDROOT
TORSDOF 0
ENDMDL
