MODEL 1
REMARK minimizedAffinity -2.1011858
REMARK minimizedRMSD -1
REMARK  0 active torsions:
REMARK  status: ('A' for Active; 'I' for Inactive)
ROOT
ATOM      1  C   UNL d   1      -0.448   0.497  -1.902  0.00  0.00     0.078 C 
ATOM      2  C1  UNL d   1       0.471  -0.419  -2.655  0.00  0.00    -0.077 A 
ATOM      3  C2  UNL d   1       0.372  -1.809  -2.520  0.00  0.00    -0.001 A 
ATOM      4  C3  UNL d   1       1.240  -2.649  -3.219  0.00  0.00     0.003 A 
ATOM      5  C4  UNL d   1       2.214  -2.109  -4.057  0.00  0.00    -0.005 A 
ATOM      6  C5  UNL d   1       2.321  -0.727  -4.196  0.00  0.00     0.003 A 
ATOM      7  C6  UNL d   1       1.454   0.115  -3.497  0.00  0.00    -0.001 A 
ENDROOT
TORSDOF 0
ENDMDL
