MODEL 1
REMARK minimizedAffinity -4.17820787
REMARK minimizedRMSD -1
REMARK  1 active torsions:
REMARK  status: ('A' for Active; 'I' for Inactive)
REMARK    1  A    between atoms: C1_2  and  C2_3 
ROOT
ATOM      1  C2  UNL d   1      -0.951  -0.924   0.475  0.00  0.00    -0.076 A 
ATOM      2  C3  UNL d   1      -0.391  -1.670   1.526  0.00  0.00     0.004 A 
ATOM      3  C4  UNL d   1      -1.073  -2.750   2.083  0.00  0.00    -0.003 A 
ATOM      4  C5  UNL d   1      -2.328  -3.102   1.597  0.00  0.00     0.000 A 
ATOM      5  C6  UNL d   1      -2.891  -2.384   0.542  0.00  0.00     0.000 A 
ATOM      6  C7  UNL d   1      -2.209  -1.303  -0.041  0.00  0.00    -0.073 A 
ATOM      7  C8  UNL d   1      -2.867  -0.560  -1.171  0.00  0.00     0.078 C 
ENDROOT
BRANCH   1   8
ATOM      8  C1  UNL d   1      -0.176   0.254  -0.071  0.00  0.00     0.053 C 
ATOM      9  C   UNL d   1       1.324   0.114   0.142  0.00  0.00     0.018 C 
ENDBRANCH   1   8
TORSDOF 1
ENDMDL
