MODEL 1
REMARK minimizedAffinity -6.11467648
REMARK minimizedRMSD -1
REMARK  1 active torsions:
REMARK  status: ('A' for Active; 'I' for Inactive)
REMARK    1  A    between atoms: C1_2  and  C2_3 
ROOT
ATOM      1  C2  UNL d   1      -0.512  -0.806   0.884  0.00  0.00    -0.076 A 
ATOM      2  C3  UNL d   1      -1.262  -1.458   1.879  0.00  0.00     0.004 A 
ATOM      3  C4  UNL d   1      -2.628  -1.680   1.717  0.00  0.00    -0.003 A 
ATOM      4  C5  UNL d   1      -3.267  -1.256   0.557  0.00  0.00     0.000 A 
ATOM      5  C6  UNL d   1      -2.535  -0.623  -0.448  0.00  0.00     0.000 A 
ATOM      6  C7  UNL d   1      -1.154  -0.406  -0.307  0.00  0.00    -0.073 A 
ATOM      7  C8  UNL d   1      -0.415   0.286  -1.420  0.00  0.00     0.078 C 
ENDROOT
BRANCH   1   8
ATOM      8  C1  UNL d   1       0.961  -0.568   1.128  0.00  0.00     0.053 C 
ATOM      9  C   UNL d   1       1.226   0.726   1.881  0.00  0.00     0.018 C 
ENDBRANCH   1   8
TORSDOF 1
ENDMDL
