MODEL 1
REMARK minimizedAffinity -5.22285557
REMARK minimizedRMSD -1
REMARK  1 active torsions:
REMARK  status: ('A' for Active; 'I' for Inactive)
REMARK    1  A    between atoms: C1_2  and  C2_3 
ROOT
ATOM      1  C2  UNL d   1      -0.119  -0.619   0.083  0.00  0.00    -0.076 A 
ATOM      2  C3  UNL d   1      -0.465  -1.547   1.081  0.00  0.00     0.004 A 
ATOM      3  C4  UNL d   1      -1.785  -1.961   1.250  0.00  0.00    -0.003 A 
ATOM      4  C5  UNL d   1      -2.782  -1.453   0.423  0.00  0.00     0.000 A 
ATOM      5  C6  UNL d   1      -2.454  -0.545  -0.583  0.00  0.00     0.000 A 
ATOM      6  C7  UNL d   1      -1.126  -0.130  -0.777  0.00  0.00    -0.073 A 
ATOM      7  C8  UNL d   1      -0.830   0.856  -1.874  0.00  0.00     0.078 C 
ENDROOT
BRANCH   1   8
ATOM      8  C1  UNL d   1       1.325  -0.186  -0.035  0.00  0.00     0.053 C 
ATOM      9  C   UNL d   1       1.597   1.133   0.670  0.00  0.00     0.018 C 
ENDBRANCH   1   8
TORSDOF 1
ENDMDL
