MODEL 1
REMARK minimizedAffinity -6.17797756
REMARK minimizedRMSD -1
REMARK  1 active torsions:
REMARK  status: ('A' for Active; 'I' for Inactive)
REMARK    1  A    between atoms: C1_2  and  C2_3 
ROOT
ATOM      1  C2  UNL d   1      -0.278  -0.254   0.288  0.00  0.00    -0.076 A 
ATOM      2  C3  UNL d   1      -1.060  -0.569   1.414  0.00  0.00     0.004 A 
ATOM      3  C4  UNL d   1      -2.426  -0.816   1.292  0.00  0.00    -0.003 A 
ATOM      4  C5  UNL d   1      -3.033  -0.753   0.043  0.00  0.00     0.000 A 
ATOM      5  C6  UNL d   1      -2.270  -0.459  -1.087  0.00  0.00     0.000 A 
ATOM      6  C7  UNL d   1      -0.889  -0.223  -0.984  0.00  0.00    -0.073 A 
ATOM      7  C8  UNL d   1      -0.116   0.095  -2.234  0.00  0.00     0.078 C 
ENDROOT
BRANCH   1   8
ATOM      8  C1  UNL d   1       1.193   0.032   0.485  0.00  0.00     0.053 C 
ATOM      9  C   UNL d   1       1.443   1.385   1.134  0.00  0.00     0.018 C 
ENDBRANCH   1   8
TORSDOF 1
ENDMDL
