MODEL 1
REMARK minimizedAffinity -2.89140701
REMARK minimizedRMSD -1
REMARK  1 active torsions:
REMARK  status: ('A' for Active; 'I' for Inactive)
REMARK    1  A    between atoms: C1_2  and  C2_3 
ROOT
ATOM      1  C2  UNL d   1      -0.931  -0.552  -0.271  0.00  0.00    -0.076 A 
ATOM      2  C3  UNL d   1      -0.989  -0.713   1.124  0.00  0.00     0.004 A 
ATOM      3  C4  UNL d   1      -2.029  -1.422   1.722  0.00  0.00    -0.003 A 
ATOM      4  C5  UNL d   1      -3.028  -1.983   0.935  0.00  0.00     0.000 A 
ATOM      5  C6  UNL d   1      -2.977  -1.849  -0.452  0.00  0.00     0.000 A 
ATOM      6  C7  UNL d   1      -1.926  -1.151  -1.072  0.00  0.00    -0.073 A 
ATOM      7  C8  UNL d   1      -1.925  -1.032  -2.572  0.00  0.00     0.078 C 
ENDROOT
BRANCH   1   8
ATOM      8  C1  UNL d   1       0.207   0.250  -0.861  0.00  0.00     0.053 C 
ATOM      9  C   UNL d   1       1.377   0.396   0.099  0.00  0.00     0.018 C 
ENDBRANCH   1   8
TORSDOF 1
ENDMDL
