MODEL 1
REMARK minimizedAffinity 1.12563932
REMARK minimizedRMSD -1
REMARK  1 active torsions:
REMARK  status: ('A' for Active; 'I' for Inactive)
REMARK    1  A    between atoms: C1_2  and  C2_3 
ROOT
ATOM      1  C2  UNL d   1       0.367  -0.375   0.101  0.00  0.00    -0.076 A 
ATOM      2  C3  UNL d   1      -0.345  -1.065  -0.896  0.00  0.00     0.004 A 
ATOM      3  C4  UNL d   1      -0.928  -0.384  -1.963  0.00  0.00    -0.003 A 
ATOM      4  C5  UNL d   1      -0.808   0.998  -2.051  0.00  0.00     0.000 A 
ATOM      5  C6  UNL d   1      -0.091   1.697  -1.081  0.00  0.00     0.000 A 
ATOM      6  C7  UNL d   1       0.517   1.024  -0.008  0.00  0.00    -0.073 A 
ATOM      7  C8  UNL d   1       1.274   1.829   1.013  0.00  0.00     0.078 C 
ENDROOT
BRANCH   1   8
ATOM      8  C1  UNL d   1       0.955  -1.164   1.249  0.00  0.00     0.053 C 
ATOM      9  C   UNL d   1      -0.094  -1.972   1.997  0.00  0.00     0.018 C 
ENDBRANCH   1   8
TORSDOF 1
ENDMDL
