MODEL 1
REMARK minimizedAffinity -3.50893235
REMARK minimizedRMSD -1
REMARK  1 active torsions:
REMARK  status: ('A' for Active; 'I' for Inactive)
REMARK    1  A    between atoms: C1_2  and  C2_3 
ROOT
ATOM      1  C2  UNL d   1      -1.650  -0.747  -0.023  0.00  0.00    -0.076 A 
ATOM      2  C3  UNL d   1      -1.084   0.085  -1.005  0.00  0.00     0.004 A 
ATOM      3  C4  UNL d   1       0.284   0.355  -1.014  0.00  0.00    -0.003 A 
ATOM      4  C5  UNL d   1       1.107  -0.204  -0.042  0.00  0.00     0.000 A 
ATOM      5  C6  UNL d   1       0.564  -1.045   0.928  0.00  0.00     0.000 A 
ATOM      6  C7  UNL d   1      -0.810  -1.341   0.942  0.00  0.00    -0.073 A 
ATOM      7  C8  UNL d   1      -1.342  -2.250   2.016  0.00  0.00     0.078 C 
ENDROOT
BRANCH   1   8
ATOM      8  C1  UNL d   1      -3.144  -0.982  -0.048  0.00  0.00     0.053 C 
ATOM      9  C   UNL d   1      -3.511  -2.336  -0.634  0.00  0.00     0.018 C 
ENDBRANCH   1   8
TORSDOF 1
ENDMDL
