MODEL 1
REMARK minimizedAffinity 0.621021271
REMARK minimizedRMSD -1
REMARK  1 active torsions:
REMARK  status: ('A' for Active; 'I' for Inactive)
REMARK    1  A    between atoms: C1_2  and  C2_3 
ROOT
ATOM      1  C2  UNL d   1       0.017  -1.058  -0.242  0.00  0.00    -0.076 A 
ATOM      2  C3  UNL d   1       1.010  -0.080  -0.058  0.00  0.00     0.004 A 
ATOM      3  C4  UNL d   1       1.069   1.046  -0.878  0.00  0.00    -0.003 A 
ATOM      4  C5  UNL d   1       0.137   1.212  -1.896  0.00  0.00     0.000 A 
ATOM      5  C6  UNL d   1      -0.866   0.260  -2.082  0.00  0.00     0.000 A 
ATOM      6  C7  UNL d   1      -0.950  -0.872  -1.253  0.00  0.00    -0.073 A 
ATOM      7  C8  UNL d   1      -2.048  -1.869  -1.503  0.00  0.00     0.078 C 
ENDROOT
BRANCH   1   8
ATOM      8  C1  UNL d   1       0.019  -2.271   0.661  0.00  0.00     0.053 C 
ATOM      9  C   UNL d   1       0.609  -1.976   2.031  0.00  0.00     0.018 C 
ENDBRANCH   1   8
TORSDOF 1
ENDMDL
