MODEL 1
REMARK minimizedAffinity -1.06508112
REMARK minimizedRMSD -1
REMARK  1 active torsions:
REMARK  status: ('A' for Active; 'I' for Inactive)
REMARK    1  A    between atoms: C1_2  and  C2_3 
ROOT
ATOM      1  C2  UNL d   1      -0.062  -0.816   0.025  0.00  0.00    -0.076 A 
ATOM      2  C3  UNL d   1      -1.191  -1.454  -0.517  0.00  0.00     0.004 A 
ATOM      3  C4  UNL d   1      -1.920  -0.867  -1.550  0.00  0.00    -0.003 A 
ATOM      4  C5  UNL d   1      -1.531   0.367  -2.058  0.00  0.00     0.000 A 
ATOM      5  C6  UNL d   1      -0.404   1.006  -1.545  0.00  0.00     0.000 A 
ATOM      6  C7  UNL d   1       0.352   0.421  -0.514  0.00  0.00    -0.073 A 
ATOM      7  C8  UNL d   1       1.556   1.157   0.006  0.00  0.00     0.078 C 
ENDROOT
BRANCH   1   8
ATOM      8  C1  UNL d   1       0.673  -1.488   1.163  0.00  0.00     0.053 C 
ATOM      9  C   UNL d   1      -0.184  -2.517   1.883  0.00  0.00     0.018 C 
ENDBRANCH   1   8
TORSDOF 1
ENDMDL
