MODEL 1
REMARK minimizedAffinity -6.1704669
REMARK minimizedRMSD -1
REMARK  1 active torsions:
REMARK  status: ('A' for Active; 'I' for Inactive)
REMARK    1  A    between atoms: C1_2  and  C2_3 
ROOT
ATOM      1  C2  UNL d   1      -0.907  -0.820   0.171  0.00  0.00    -0.076 A 
ATOM      2  C3  UNL d   1      -2.191  -0.334  -0.128  0.00  0.00     0.004 A 
ATOM      3  C4  UNL d   1      -3.332  -0.989   0.333  0.00  0.00    -0.003 A 
ATOM      4  C5  UNL d   1      -3.206  -2.141   1.102  0.00  0.00     0.000 A 
ATOM      5  C6  UNL d   1      -1.939  -2.627   1.423  0.00  0.00     0.000 A 
ATOM      6  C7  UNL d   1      -0.779  -1.969   0.979  0.00  0.00    -0.073 A 
ATOM      7  C8  UNL d   1       0.562  -2.541   1.350  0.00  0.00     0.078 C 
ENDROOT
BRANCH   1   8
ATOM      8  C1  UNL d   1       0.293  -0.083  -0.380  0.00  0.00     0.053 C 
ATOM      9  C   UNL d   1       0.665   1.132   0.456  0.00  0.00     0.018 C 
ENDBRANCH   1   8
TORSDOF 1
ENDMDL
