MODEL 1
REMARK minimizedAffinity -4.8334012
REMARK minimizedRMSD -1
REMARK  1 active torsions:
REMARK  status: ('A' for Active; 'I' for Inactive)
REMARK    1  A    between atoms: C1_2  and  C2_3 
ROOT
ATOM      1  C2  UNL d   1      -0.867  -0.750   0.524  0.00  0.00    -0.076 A 
ATOM      2  C3  UNL d   1      -1.625   0.029  -0.367  0.00  0.00     0.004 A 
ATOM      3  C4  UNL d   1      -2.918  -0.347  -0.727  0.00  0.00    -0.003 A 
ATOM      4  C5  UNL d   1      -3.475  -1.507  -0.200  0.00  0.00     0.000 A 
ATOM      5  C6  UNL d   1      -2.744  -2.282   0.700  0.00  0.00     0.000 A 
ATOM      6  C7  UNL d   1      -1.445  -1.909   1.085  0.00  0.00    -0.073 A 
ATOM      7  C8  UNL d   1      -0.699  -2.786   2.053  0.00  0.00     0.078 C 
ENDROOT
BRANCH   1   8
ATOM      8  C1  UNL d   1       0.540  -0.308   0.856  0.00  0.00     0.053 C 
ATOM      9  C   UNL d   1       1.249   0.321  -0.334  0.00  0.00     0.018 C 
ENDBRANCH   1   8
TORSDOF 1
ENDMDL
