MODEL 1
REMARK minimizedAffinity -3.14811873
REMARK minimizedRMSD -1
REMARK  1 active torsions:
REMARK  status: ('A' for Active; 'I' for Inactive)
REMARK    1  A    between atoms: C1_2  and  C2_3 
ROOT
ATOM      1  C2  UNL d   1      -2.118  -1.778  -1.191  0.00  0.00    -0.076 A 
ATOM      2  C3  UNL d   1      -0.843  -1.195  -1.282  0.00  0.00     0.004 A 
ATOM      3  C4  UNL d   1      -0.341  -0.402  -0.251  0.00  0.00    -0.003 A 
ATOM      4  C5  UNL d   1      -1.107  -0.180   0.888  0.00  0.00     0.000 A 
ATOM      5  C6  UNL d   1      -2.367  -0.766   1.003  0.00  0.00     0.000 A 
ATOM      6  C7  UNL d   1      -2.881  -1.581  -0.020  0.00  0.00    -0.073 A 
ATOM      7  C8  UNL d   1      -4.249  -2.183   0.154  0.00  0.00     0.078 C 
ENDROOT
BRANCH   1   8
ATOM      8  C1  UNL d   1      -2.620  -2.606  -2.352  0.00  0.00     0.053 C 
ATOM      9  C   UNL d   1      -1.865  -3.918  -2.502  0.00  0.00     0.018 C 
ENDBRANCH   1   8
TORSDOF 1
ENDMDL
