MODEL 1
REMARK minimizedAffinity -2.07829142
REMARK minimizedRMSD -1
REMARK  1 active torsions:
REMARK  status: ('A' for Active; 'I' for Inactive)
REMARK    1  A    between atoms: C1_2  and  C2_3 
ROOT
ATOM      1  C2  UNL d   1      -1.664  -1.014  -0.048  0.00  0.00    -0.076 A 
ATOM      2  C3  UNL d   1      -1.270  -1.925   0.948  0.00  0.00     0.004 A 
ATOM      3  C4  UNL d   1      -0.005  -1.850   1.529  0.00  0.00    -0.003 A 
ATOM      4  C5  UNL d   1       0.886  -0.862   1.124  0.00  0.00     0.000 A 
ATOM      5  C6  UNL d   1       0.505   0.061   0.151  0.00  0.00     0.000 A 
ATOM      6  C7  UNL d   1      -0.772   0.009  -0.433  0.00  0.00    -0.073 A 
ATOM      7  C8  UNL d   1      -1.128   1.026  -1.483  0.00  0.00     0.078 C 
ENDROOT
BRANCH   1   8
ATOM      8  C1  UNL d   1      -3.038  -1.162  -0.661  0.00  0.00     0.053 C 
ATOM      9  C   UNL d   1      -3.344  -2.595  -1.067  0.00  0.00     0.018 C 
ENDBRANCH   1   8
TORSDOF 1
ENDMDL
