MODEL 1
REMARK minimizedAffinity -4.1236124
REMARK minimizedRMSD -1
REMARK  0 active torsions:
REMARK  status: ('A' for Active; 'I' for Inactive)
ROOT
ATOM      1  C   UNL d   1       3.014   0.418  -2.222  0.00  0.00     0.023 A 
ATOM      2  C1  UNL d   1       2.147   1.508  -2.312  0.00  0.00     0.003 A 
ATOM      3  C2  UNL d   1       0.980   1.538  -1.545  0.00  0.00     0.048 A 
ATOM      4  C3  UNL d   1       0.686   0.476  -0.691  0.00  0.00     0.023 A 
ATOM      5  C4  UNL d   1       1.551  -0.616  -0.598  0.00  0.00     0.048 A 
ATOM      6  C5  UNL d   1       2.716  -0.642  -1.367  0.00  0.00     0.003 A 
ATOM      7  I   UNL d   1      -1.050   0.519   0.451  0.00  0.00    -0.146 I 
ENDROOT
TORSDOF 0
ENDMDL
