MODEL 1
REMARK minimizedAffinity -4.79267979
REMARK minimizedRMSD -1
REMARK  0 active torsions:
REMARK  status: ('A' for Active; 'I' for Inactive)
ROOT
ATOM      1  C   UNL d   1       2.417  -0.767  -1.613  0.00  0.00     0.023 A 
ATOM      2  C1  UNL d   1       1.901   0.527  -1.680  0.00  0.00     0.003 A 
ATOM      3  C2  UNL d   1       0.794   0.879  -0.906  0.00  0.00     0.048 A 
ATOM      4  C3  UNL d   1       0.208  -0.067  -0.065  0.00  0.00     0.023 A 
ATOM      5  C4  UNL d   1       0.722  -1.363   0.005  0.00  0.00     0.048 A 
ATOM      6  C5  UNL d   1       1.829  -1.711  -0.772  0.00  0.00     0.003 A 
ATOM      7  I   UNL d   1      -1.440   0.455   1.088  0.00  0.00    -0.146 I 
ENDROOT
TORSDOF 0
ENDMDL
