MODEL 1
REMARK minimizedAffinity -3.66982865
REMARK minimizedRMSD -1
REMARK  0 active torsions:
REMARK  status: ('A' for Active; 'I' for Inactive)
ROOT
ATOM      1  C   UNL d   1       2.471   0.849  -2.583  0.00  0.00     0.023 A 
ATOM      2  C1  UNL d   1       1.489   1.834  -2.469  0.00  0.00     0.003 A 
ATOM      3  C2  UNL d   1       0.505   1.730  -1.484  0.00  0.00     0.048 A 
ATOM      4  C3  UNL d   1       0.509   0.638  -0.616  0.00  0.00     0.023 A 
ATOM      5  C4  UNL d   1       1.490  -0.349  -0.725  0.00  0.00     0.048 A 
ATOM      6  C5  UNL d   1       2.471  -0.240  -1.712  0.00  0.00     0.003 A 
ATOM      7  I   UNL d   1      -0.955   0.481   0.851  0.00  0.00    -0.146 I 
ENDROOT
TORSDOF 0
ENDMDL
