MODEL 1
REMARK minimizedAffinity -4.93837214
REMARK minimizedRMSD -1
REMARK  0 active torsions:
REMARK  status: ('A' for Active; 'I' for Inactive)
ROOT
ATOM      1  C   UNL d   1       2.801   0.212  -2.163  0.00  0.00     0.023 A 
ATOM      2  C1  UNL d   1       2.537  -0.794  -1.232  0.00  0.00     0.003 A 
ATOM      3  C2  UNL d   1       1.405  -0.714  -0.419  0.00  0.00     0.048 A 
ATOM      4  C3  UNL d   1       0.540   0.373  -0.542  0.00  0.00     0.023 A 
ATOM      5  C4  UNL d   1       0.800   1.381  -1.472  0.00  0.00     0.048 A 
ATOM      6  C5  UNL d   1       1.934   1.298  -2.282  0.00  0.00     0.003 A 
ATOM      7  I   UNL d   1      -1.146   0.494   0.668  0.00  0.00    -0.146 I 
ENDROOT
TORSDOF 0
ENDMDL
