MODEL 1
REMARK minimizedAffinity -2.03181005
REMARK minimizedRMSD -1
REMARK  0 active torsions:
REMARK  status: ('A' for Active; 'I' for Inactive)
ROOT
ATOM      1  C   UNL d   1       2.852  -0.988  -1.412  0.00  0.00     0.023 A 
ATOM      2  C1  UNL d   1       2.411   0.334  -1.475  0.00  0.00     0.003 A 
ATOM      3  C2  UNL d   1       1.215   0.702  -0.857  0.00  0.00     0.048 A 
ATOM      4  C3  UNL d   1       0.464  -0.256  -0.177  0.00  0.00     0.023 A 
ATOM      5  C4  UNL d   1       0.901  -1.580  -0.111  0.00  0.00     0.048 A 
ATOM      6  C5  UNL d   1       2.098  -1.944  -0.731  0.00  0.00     0.003 A 
ATOM      7  I   UNL d   1      -1.318   0.290   0.743  0.00  0.00    -0.146 I 
ENDROOT
TORSDOF 0
ENDMDL
