MODEL 1
REMARK minimizedAffinity -2.6439538
REMARK minimizedRMSD -1
REMARK  0 active torsions:
REMARK  status: ('A' for Active; 'I' for Inactive)
ROOT
ATOM      1  C   UNL d   1      -1.844   0.057   0.474  0.00  0.00     0.023 A 
ATOM      2  C1  UNL d   1      -1.373  -1.230   0.210  0.00  0.00     0.003 A 
ATOM      3  C2  UNL d   1      -0.031  -1.430  -0.120  0.00  0.00     0.048 A 
ATOM      4  C3  UNL d   1       0.835  -0.339  -0.182  0.00  0.00     0.023 A 
ATOM      5  C4  UNL d   1       0.369   0.950   0.082  0.00  0.00     0.048 A 
ATOM      6  C5  UNL d   1      -0.974   1.145   0.410  0.00  0.00     0.003 A 
ATOM      7  I   UNL d   1       2.833  -0.634  -0.672  0.00  0.00    -0.146 I 
ENDROOT
TORSDOF 0
ENDMDL
