MODEL 1
REMARK minimizedAffinity 0.0309985466
REMARK minimizedRMSD -1
REMARK  0 active torsions:
REMARK  status: ('A' for Active; 'I' for Inactive)
ROOT
ATOM      1  C   UNL d   1       2.681  -0.395  -2.758  0.00  0.00     0.023 A 
ATOM      2  C1  UNL d   1       2.260  -1.286  -1.770  0.00  0.00     0.003 A 
ATOM      3  C2  UNL d   1       1.217  -0.936  -0.911  0.00  0.00     0.048 A 
ATOM      4  C3  UNL d   1       0.598   0.307  -1.045  0.00  0.00     0.023 A 
ATOM      5  C4  UNL d   1       1.015   1.201  -2.033  0.00  0.00     0.048 A 
ATOM      6  C5  UNL d   1       2.059   0.847  -2.889  0.00  0.00     0.003 A 
ATOM      7  I   UNL d   1      -0.955   0.830   0.232  0.00  0.00    -0.146 I 
ENDROOT
TORSDOF 0
ENDMDL
