MODEL 1
REMARK minimizedAffinity -2.07104516
REMARK minimizedRMSD -1
REMARK  0 active torsions:
REMARK  status: ('A' for Active; 'I' for Inactive)
ROOT
ATOM      1  C   UNL d   1       0.508  -0.492  -1.033  0.00  0.00     0.023 A 
ATOM      2  C1  UNL d   1       0.349  -1.460  -0.040  0.00  0.00     0.003 A 
ATOM      3  C2  UNL d   1      -0.463  -1.201   1.066  0.00  0.00     0.048 A 
ATOM      4  C3  UNL d   1      -1.114   0.028   1.173  0.00  0.00     0.023 A 
ATOM      5  C4  UNL d   1      -0.959   0.998   0.182  0.00  0.00     0.048 A 
ATOM      6  C5  UNL d   1      -0.145   0.735  -0.922  0.00  0.00     0.003 A 
ATOM      7  I   UNL d   1      -2.324   0.415   2.818  0.00  0.00    -0.146 I 
ENDROOT
TORSDOF 0
ENDMDL
