MODEL 1
REMARK minimizedAffinity -2.32072568
REMARK minimizedRMSD -1
REMARK  0 active torsions:
REMARK  status: ('A' for Active; 'I' for Inactive)
ROOT
ATOM      1  C   UNL d   1       2.259  -1.129  -1.307  0.00  0.00     0.023 A 
ATOM      2  C1  UNL d   1       2.163   0.249  -1.109  0.00  0.00     0.003 A 
ATOM      3  C2  UNL d   1       1.123   0.774  -0.339  0.00  0.00     0.048 A 
ATOM      4  C3  UNL d   1       0.182  -0.083   0.230  0.00  0.00     0.023 A 
ATOM      5  C4  UNL d   1       0.274  -1.462   0.035  0.00  0.00     0.048 A 
ATOM      6  C5  UNL d   1       1.315  -1.983  -0.736  0.00  0.00     0.003 A 
ATOM      7  I   UNL d   1      -1.366   0.696   1.375  0.00  0.00    -0.146 I 
ENDROOT
TORSDOF 0
ENDMDL
