MODEL 1
REMARK minimizedAffinity -3.16995835
REMARK minimizedRMSD -1
REMARK  0 active torsions:
REMARK  status: ('A' for Active; 'I' for Inactive)
ROOT
ATOM      1  C   UNL d   1       2.160  -0.271  -2.247  0.00  0.00     0.023 A 
ATOM      2  C1  UNL d   1       1.466   0.939  -2.259  0.00  0.00     0.003 A 
ATOM      3  C2  UNL d   1       0.452   1.173  -1.328  0.00  0.00     0.048 A 
ATOM      4  C3  UNL d   1       0.138   0.193  -0.386  0.00  0.00     0.023 A 
ATOM      5  C4  UNL d   1       0.831  -1.019  -0.370  0.00  0.00     0.048 A 
ATOM      6  C5  UNL d   1       1.843  -1.248  -1.303  0.00  0.00     0.003 A 
ATOM      7  I   UNL d   1      -1.370   0.539   1.001  0.00  0.00    -0.146 I 
ENDROOT
TORSDOF 0
ENDMDL
