MODEL 1
REMARK minimizedAffinity -1.93722844
REMARK minimizedRMSD -1
REMARK  0 active torsions:
REMARK  status: ('A' for Active; 'I' for Inactive)
ROOT
ATOM      1  C   UNL d   1      -1.536   1.198  -0.119  0.00  0.00     0.023 A 
ATOM      2  C1  UNL d   1      -0.797   1.905  -1.068  0.00  0.00     0.003 A 
ATOM      3  C2  UNL d   1       0.486   1.478  -1.417  0.00  0.00     0.048 A 
ATOM      4  C3  UNL d   1       1.023   0.341  -0.814  0.00  0.00     0.023 A 
ATOM      5  C4  UNL d   1       0.288  -0.371   0.135  0.00  0.00     0.048 A 
ATOM      6  C5  UNL d   1      -0.994   0.061   0.482  0.00  0.00     0.003 A 
ATOM      7  I   UNL d   1       2.932  -0.297  -1.332  0.00  0.00    -0.146 I 
ENDROOT
TORSDOF 0
ENDMDL
