MODEL 1
REMARK minimizedAffinity -4.28872967
REMARK minimizedRMSD -1
REMARK  0 active torsions:
REMARK  status: ('A' for Active; 'I' for Inactive)
ROOT
ATOM      1  C   UNL d   1       2.992   0.314  -2.323  0.00  0.00     0.023 A 
ATOM      2  C1  UNL d   1       2.921  -0.423  -1.141  0.00  0.00     0.003 A 
ATOM      3  C2  UNL d   1       1.762  -0.390  -0.364  0.00  0.00     0.048 A 
ATOM      4  C3  UNL d   1       0.676   0.382  -0.776  0.00  0.00     0.023 A 
ATOM      5  C4  UNL d   1       0.742   1.121  -1.958  0.00  0.00     0.048 A 
ATOM      6  C5  UNL d   1       1.904   1.085  -2.731  0.00  0.00     0.003 A 
ATOM      7  I   UNL d   1      -1.052   0.434   0.379  0.00  0.00    -0.146 I 
ENDROOT
TORSDOF 0
ENDMDL
