MODEL 1
REMARK minimizedAffinity -3.88612223
REMARK minimizedRMSD -1
REMARK  0 active torsions:
REMARK  status: ('A' for Active; 'I' for Inactive)
ROOT
ATOM      1  C   UNL d   1       2.122  -1.092  -1.107  0.00  0.00     0.023 A 
ATOM      2  C1  UNL d   1       1.224  -1.970  -0.500  0.00  0.00     0.003 A 
ATOM      3  C2  UNL d   1       0.093  -1.475   0.153  0.00  0.00     0.048 A 
ATOM      4  C3  UNL d   1      -0.135  -0.100   0.193  0.00  0.00     0.023 A 
ATOM      5  C4  UNL d   1       0.760   0.783  -0.414  0.00  0.00     0.048 A 
ATOM      6  C5  UNL d   1       1.890   0.283  -1.065  0.00  0.00     0.003 A 
ATOM      7  I   UNL d   1      -1.817   0.640   1.163  0.00  0.00    -0.146 I 
ENDROOT
TORSDOF 0
ENDMDL
