MODEL 1
REMARK minimizedAffinity -1.54224896
REMARK minimizedRMSD -1
REMARK  0 active torsions:
REMARK  status: ('A' for Active; 'I' for Inactive)
ROOT
ATOM      1  C   UNL d   1       1.287  -1.495  -0.748  0.00  0.00     0.023 A 
ATOM      2  C1  UNL d   1       1.223  -0.110  -0.905  0.00  0.00     0.003 A 
ATOM      3  C2  UNL d   1       0.316   0.638  -0.153  0.00  0.00     0.048 A 
ATOM      4  C3  UNL d   1      -0.524  -0.004   0.756  0.00  0.00     0.023 A 
ATOM      5  C4  UNL d   1      -0.463  -1.389   0.917  0.00  0.00     0.048 A 
ATOM      6  C5  UNL d   1       0.445  -2.134   0.163  0.00  0.00     0.003 A 
ATOM      7  I   UNL d   1      -1.876   1.108   1.877  0.00  0.00    -0.146 I 
ENDROOT
TORSDOF 0
ENDMDL
