MODEL 1
REMARK minimizedAffinity -2.35533071
REMARK minimizedRMSD -1
REMARK  0 active torsions:
REMARK  status: ('A' for Active; 'I' for Inactive)
ROOT
ATOM      1  C   UNL d   1       3.039  -0.640  -1.808  0.00  0.00     0.023 A 
ATOM      2  C1  UNL d   1       2.528  -1.735  -1.110  0.00  0.00     0.003 A 
ATOM      3  C2  UNL d   1       1.413  -1.580  -0.285  0.00  0.00     0.048 A 
ATOM      4  C3  UNL d   1       0.812  -0.328  -0.161  0.00  0.00     0.023 A 
ATOM      5  C4  UNL d   1       1.320   0.771  -0.858  0.00  0.00     0.048 A 
ATOM      6  C5  UNL d   1       2.435   0.611  -1.682  0.00  0.00     0.003 A 
ATOM      7  I   UNL d   1      -0.848  -0.095   1.067  0.00  0.00    -0.146 I 
ENDROOT
TORSDOF 0
ENDMDL
