MODEL 1
REMARK minimizedAffinity -1.45928943
REMARK minimizedRMSD -1
REMARK  0 active torsions:
REMARK  status: ('A' for Active; 'I' for Inactive)
ROOT
ATOM      1  C   UNL d   1       4.939  -0.043   0.827  0.00  0.00     0.078 C 
ATOM      2  C1  UNL d   1       3.736  -0.938   0.861  0.00  0.00    -0.077 A 
ATOM      3  C2  UNL d   1       2.493  -0.495   0.395  0.00  0.00    -0.001 A 
ATOM      4  C3  UNL d   1       1.380  -1.336   0.442  0.00  0.00     0.003 A 
ATOM      5  C4  UNL d   1       1.500  -2.626   0.956  0.00  0.00    -0.005 A 
ATOM      6  C5  UNL d   1       2.732  -3.075   1.425  0.00  0.00     0.003 A 
ATOM      7  C6  UNL d   1       3.846  -2.236   1.378  0.00  0.00    -0.001 A 
ENDROOT
TORSDOF 0
ENDMDL
