MODEL 1
REMARK minimizedAffinity 0.269004226
REMARK minimizedRMSD -1
REMARK  0 active torsions:
REMARK  status: ('A' for Active; 'I' for Inactive)
ROOT
ATOM      1  C   UNL d   1       0.869   4.551  -3.985  0.00  0.00     0.078 C 
ATOM      2  C1  UNL d   1      -0.255   3.754  -3.392  0.00  0.00    -0.077 A 
ATOM      3  C2  UNL d   1      -1.586   4.158  -3.549  0.00  0.00    -0.001 A 
ATOM      4  C3  UNL d   1      -2.621   3.412  -2.982  0.00  0.00     0.003 A 
ATOM      5  C4  UNL d   1      -2.336   2.258  -2.254  0.00  0.00    -0.005 A 
ATOM      6  C5  UNL d   1      -1.013   1.850  -2.091  0.00  0.00     0.003 A 
ATOM      7  C6  UNL d   1       0.023   2.595  -2.656  0.00  0.00    -0.001 A 
ENDROOT
TORSDOF 0
ENDMDL
