MODEL 1
REMARK minimizedAffinity 5.5834403
REMARK minimizedRMSD -1
REMARK  0 active torsions:
REMARK  status: ('A' for Active; 'I' for Inactive)
ROOT
ATOM      1  C   UNL d   1      -0.288  -2.242   3.172  0.00  0.00     0.078 C 
ATOM      2  C1  UNL d   1       0.716  -2.590   2.114  0.00  0.00    -0.077 A 
ATOM      3  C2  UNL d   1       1.018  -3.924   1.816  0.00  0.00    -0.001 A 
ATOM      4  C3  UNL d   1       1.961  -4.233   0.835  0.00  0.00     0.003 A 
ATOM      5  C4  UNL d   1       2.611  -3.212   0.144  0.00  0.00    -0.005 A 
ATOM      6  C5  UNL d   1       2.319  -1.881   0.434  0.00  0.00     0.003 A 
ATOM      7  C6  UNL d   1       1.376  -1.571   1.415  0.00  0.00    -0.001 A 
ENDROOT
TORSDOF 0
ENDMDL
