MODEL 1
REMARK minimizedAffinity 0.11579518
REMARK minimizedRMSD -1
REMARK  0 active torsions:
REMARK  status: ('A' for Active; 'I' for Inactive)
ROOT
ATOM      1  C   UNL d   1      -1.871   1.815  -2.266  0.00  0.00     0.078 C 
ATOM      2  C1  UNL d   1      -0.745   2.140  -3.201  0.00  0.00    -0.077 A 
ATOM      3  C2  UNL d   1       0.121   3.209  -2.943  0.00  0.00    -0.001 A 
ATOM      4  C3  UNL d   1       1.159   3.507  -3.828  0.00  0.00     0.003 A 
ATOM      5  C4  UNL d   1       1.339   2.741  -4.978  0.00  0.00    -0.005 A 
ATOM      6  C5  UNL d   1       0.481   1.676  -5.244  0.00  0.00     0.003 A 
ATOM      7  C6  UNL d   1      -0.557   1.377  -4.361  0.00  0.00    -0.001 A 
ENDROOT
TORSDOF 0
ENDMDL
