MODEL 1
REMARK minimizedAffinity 2.23136067
REMARK minimizedRMSD -1
REMARK  0 active torsions:
REMARK  status: ('A' for Active; 'I' for Inactive)
ROOT
ATOM      1  C   UNL d   1      -0.049  -1.094   3.040  0.00  0.00     0.078 C 
ATOM      2  C1  UNL d   1       0.873  -1.788   2.082  0.00  0.00    -0.077 A 
ATOM      3  C2  UNL d   1       1.445  -3.026   2.400  0.00  0.00    -0.001 A 
ATOM      4  C3  UNL d   1       2.309  -3.656   1.503  0.00  0.00     0.003 A 
ATOM      5  C4  UNL d   1       2.609  -3.056   0.282  0.00  0.00    -0.005 A 
ATOM      6  C5  UNL d   1       2.045  -1.823  -0.043  0.00  0.00     0.003 A 
ATOM      7  C6  UNL d   1       1.181  -1.192   0.853  0.00  0.00    -0.001 A 
ENDROOT
TORSDOF 0
ENDMDL
