MODEL 1
REMARK minimizedAffinity -0.684767425
REMARK minimizedRMSD -1
REMARK  0 active torsions:
REMARK  status: ('A' for Active; 'I' for Inactive)
ROOT
ATOM      1  C   UNL d   1       5.983   1.718   2.972  0.00  0.00     0.078 C 
ATOM      2  C1  UNL d   1       5.994   0.843   1.754  0.00  0.00    -0.077 A 
ATOM      3  C2  UNL d   1       5.999   1.396   0.468  0.00  0.00    -0.001 A 
ATOM      4  C3  UNL d   1       5.999   0.569  -0.656  0.00  0.00     0.003 A 
ATOM      5  C4  UNL d   1       5.994  -0.816  -0.506  0.00  0.00    -0.005 A 
ATOM      6  C5  UNL d   1       5.986  -1.376   0.770  0.00  0.00     0.003 A 
ATOM      7  C6  UNL d   1       5.986  -0.550   1.895  0.00  0.00    -0.001 A 
ENDROOT
TORSDOF 0
ENDMDL
