MODEL 1
REMARK minimizedAffinity 1.06908548
REMARK minimizedRMSD -1
REMARK  0 active torsions:
REMARK  status: ('A' for Active; 'I' for Inactive)
ROOT
ATOM      1  C   UNL d   1      -0.682  -1.090   2.948  0.00  0.00     0.078 C 
ATOM      2  C1  UNL d   1       0.411  -1.715   2.134  0.00  0.00    -0.077 A 
ATOM      3  C2  UNL d   1       1.498  -2.348   2.750  0.00  0.00    -0.001 A 
ATOM      4  C3  UNL d   1       2.513  -2.917   1.979  0.00  0.00     0.003 A 
ATOM      5  C4  UNL d   1       2.452  -2.857   0.588  0.00  0.00    -0.005 A 
ATOM      6  C5  UNL d   1       1.376  -2.228  -0.034  0.00  0.00     0.003 A 
ATOM      7  C6  UNL d   1       0.360  -1.658   0.735  0.00  0.00    -0.001 A 
ENDROOT
TORSDOF 0
ENDMDL
