MODEL 1
REMARK minimizedAffinity -1.8694526
REMARK minimizedRMSD -1
REMARK  0 active torsions:
REMARK  status: ('A' for Active; 'I' for Inactive)
ROOT
ATOM      1  C   UNL d   1       5.990  -0.440  -0.382  0.00  0.00     0.078 C 
ATOM      2  C1  UNL d   1       5.997  -0.204  -1.863  0.00  0.00    -0.077 A 
ATOM      3  C2  UNL d   1       6.000   1.095  -2.386  0.00  0.00    -0.001 A 
ATOM      4  C3  UNL d   1       5.997   1.299  -3.767  0.00  0.00     0.003 A 
ATOM      5  C4  UNL d   1       5.990   0.210  -4.636  0.00  0.00    -0.005 A 
ATOM      6  C5  UNL d   1       5.985  -1.086  -4.124  0.00  0.00     0.003 A 
ATOM      7  C6  UNL d   1       5.988  -1.293  -2.744  0.00  0.00    -0.001 A 
ENDROOT
TORSDOF 0
ENDMDL
