MODEL 1
REMARK minimizedAffinity 1.99520636
REMARK minimizedRMSD -1
REMARK  0 active torsions:
REMARK  status: ('A' for Active; 'I' for Inactive)
ROOT
ATOM      1  C   UNL d   1      -1.166  -1.058   2.910  0.00  0.00     0.078 C 
ATOM      2  C1  UNL d   1      -0.071  -1.636   2.064  0.00  0.00    -0.077 A 
ATOM      3  C2  UNL d   1       0.648  -2.761   2.485  0.00  0.00    -0.001 A 
ATOM      4  C3  UNL d   1       1.672  -3.282   1.692  0.00  0.00     0.003 A 
ATOM      5  C4  UNL d   1       1.986  -2.684   0.474  0.00  0.00    -0.005 A 
ATOM      6  C5  UNL d   1       1.277  -1.563   0.047  0.00  0.00     0.003 A 
ATOM      7  C6  UNL d   1       0.253  -1.040   0.839  0.00  0.00    -0.001 A 
ENDROOT
TORSDOF 0
ENDMDL
