MODEL 1
REMARK minimizedAffinity 2.47725248
REMARK minimizedRMSD -1
REMARK  0 active torsions:
REMARK  status: ('A' for Active; 'I' for Inactive)
ROOT
ATOM      1  C   UNL d   1       1.567  -2.149   1.764  0.00  0.00     0.078 C 
ATOM      2  C1  UNL d   1       2.618  -3.191   1.522  0.00  0.00    -0.077 A 
ATOM      3  C2  UNL d   1       2.268  -4.522   1.264  0.00  0.00    -0.001 A 
ATOM      4  C3  UNL d   1       3.258  -5.483   1.050  0.00  0.00     0.003 A 
ATOM      5  C4  UNL d   1       4.603  -5.124   1.094  0.00  0.00    -0.005 A 
ATOM      6  C5  UNL d   1       4.961  -3.802   1.353  0.00  0.00     0.003 A 
ATOM      7  C6  UNL d   1       3.973  -2.840   1.567  0.00  0.00    -0.001 A 
ENDROOT
TORSDOF 0
ENDMDL
