MODEL 1
REMARK minimizedAffinity -4.62270021
REMARK minimizedRMSD -1
REMARK  0 active torsions:
REMARK  status: ('A' for Active; 'I' for Inactive)
ROOT
ATOM      1  C   UNL d   1       2.652  -4.128  -0.316  0.00  0.00     0.078 C 
ATOM      2  C1  UNL d   1       1.652  -3.075   0.058  0.00  0.00    -0.077 A 
ATOM      3  C2  UNL d   1       0.365  -3.423   0.488  0.00  0.00    -0.001 A 
ATOM      4  C3  UNL d   1      -0.559  -2.433   0.824  0.00  0.00     0.003 A 
ATOM      5  C4  UNL d   1      -0.207  -1.087   0.731  0.00  0.00    -0.005 A 
ATOM      6  C5  UNL d   1       1.070  -0.732   0.301  0.00  0.00     0.003 A 
ATOM      7  C6  UNL d   1       1.995  -1.721  -0.034  0.00  0.00    -0.001 A 
ENDROOT
TORSDOF 0
ENDMDL
