MODEL 1
REMARK minimizedAffinity -0.890887201
REMARK minimizedRMSD -1
REMARK  0 active torsions:
REMARK  status: ('A' for Active; 'I' for Inactive)
ROOT
ATOM      1  C   UNL d   1       3.204  -4.426  -0.097  0.00  0.00     0.078 C 
ATOM      2  C1  UNL d   1       2.172  -3.375   0.185  0.00  0.00    -0.077 A 
ATOM      3  C2  UNL d   1       2.527  -2.024   0.284  0.00  0.00    -0.001 A 
ATOM      4  C3  UNL d   1       1.558  -1.057   0.556  0.00  0.00     0.003 A 
ATOM      5  C4  UNL d   1       0.227  -1.431   0.734  0.00  0.00    -0.005 A 
ATOM      6  C5  UNL d   1      -0.135  -2.773   0.640  0.00  0.00     0.003 A 
ATOM      7  C6  UNL d   1       0.833  -3.741   0.368  0.00  0.00    -0.001 A 
ENDROOT
TORSDOF 0
ENDMDL
