MODEL 1
REMARK minimizedAffinity -4.35411024
REMARK minimizedRMSD -1
REMARK  0 active torsions:
REMARK  status: ('A' for Active; 'I' for Inactive)
ROOT
ATOM      1  C   UNL d   1       3.273  -3.764   0.154  0.00  0.00     0.078 C 
ATOM      2  C1  UNL d   1       2.234  -2.719   0.432  0.00  0.00    -0.077 A 
ATOM      3  C2  UNL d   1       2.551  -1.356   0.384  0.00  0.00    -0.001 A 
ATOM      4  C3  UNL d   1       1.576  -0.395   0.654  0.00  0.00     0.003 A 
ATOM      5  C4  UNL d   1       0.278  -0.786   0.976  0.00  0.00    -0.005 A 
ATOM      6  C5  UNL d   1      -0.046  -2.140   1.029  0.00  0.00     0.003 A 
ATOM      7  C6  UNL d   1       0.927  -3.103   0.759  0.00  0.00    -0.001 A 
ENDROOT
TORSDOF 0
ENDMDL
