MODEL 1
REMARK minimizedAffinity -5.66279125
REMARK minimizedRMSD -1
REMARK  0 active torsions:
REMARK  status: ('A' for Active; 'I' for Inactive)
ROOT
ATOM      1  C   UNL d   1      -1.184   0.038   1.020  0.00  0.00     0.078 C 
ATOM      2  C1  UNL d   1      -0.097  -0.978   0.830  0.00  0.00    -0.077 A 
ATOM      3  C2  UNL d   1       1.249  -0.595   0.791  0.00  0.00    -0.001 A 
ATOM      4  C3  UNL d   1       2.250  -1.550   0.604  0.00  0.00     0.003 A 
ATOM      5  C4  UNL d   1       1.915  -2.893   0.451  0.00  0.00    -0.005 A 
ATOM      6  C5  UNL d   1       0.578  -3.284   0.486  0.00  0.00     0.003 A 
ATOM      7  C6  UNL d   1      -0.424  -2.330   0.673  0.00  0.00    -0.001 A 
ENDROOT
TORSDOF 0
ENDMDL
