MODEL 1
REMARK minimizedAffinity -4.50264692
REMARK minimizedRMSD -1
REMARK  0 active torsions:
REMARK  status: ('A' for Active; 'I' for Inactive)
ROOT
ATOM      1  C   UNL d   1      -0.735  -0.682   0.800  0.00  0.00     0.078 C 
ATOM      2  C1  UNL d   1       0.511  -1.488   0.584  0.00  0.00    -0.077 A 
ATOM      3  C2  UNL d   1       1.767  -0.874   0.528  0.00  0.00    -0.001 A 
ATOM      4  C3  UNL d   1       2.917  -1.636   0.316  0.00  0.00     0.003 A 
ATOM      5  C4  UNL d   1       2.822  -3.017   0.157  0.00  0.00    -0.005 A 
ATOM      6  C5  UNL d   1       1.575  -3.637   0.209  0.00  0.00     0.003 A 
ATOM      7  C6  UNL d   1       0.424  -2.877   0.421  0.00  0.00    -0.001 A 
ENDROOT
TORSDOF 0
ENDMDL
