MODEL 1
REMARK minimizedAffinity -2.91048002
REMARK minimizedRMSD -1
REMARK  0 active torsions:
REMARK  status: ('A' for Active; 'I' for Inactive)
ROOT
ATOM      1  C   UNL d   1      -0.012  -1.209   0.796  0.00  0.00     0.078 C 
ATOM      2  C1  UNL d   1       1.214  -2.026   0.516  0.00  0.00    -0.077 A 
ATOM      3  C2  UNL d   1       2.466  -1.419   0.359  0.00  0.00    -0.001 A 
ATOM      4  C3  UNL d   1       3.597  -2.191   0.089  0.00  0.00     0.003 A 
ATOM      5  C4  UNL d   1       3.487  -3.576  -0.027  0.00  0.00    -0.005 A 
ATOM      6  C5  UNL d   1       2.245  -4.189   0.125  0.00  0.00     0.003 A 
ATOM      7  C6  UNL d   1       1.113  -3.418   0.395  0.00  0.00    -0.001 A 
ENDROOT
TORSDOF 0
ENDMDL
