MODEL 1
REMARK minimizedAffinity -3.49418569
REMARK minimizedRMSD -1
REMARK  0 active torsions:
REMARK  status: ('A' for Active; 'I' for Inactive)
ROOT
ATOM      1  C   UNL d   1      -5.152  -3.865   1.882  0.00  0.00     0.078 C 
ATOM      2  C1  UNL d   1      -5.319  -4.273   3.315  0.00  0.00    -0.077 A 
ATOM      3  C2  UNL d   1      -5.172  -3.344   4.352  0.00  0.00    -0.001 A 
ATOM      4  C3  UNL d   1      -5.321  -3.740   5.682  0.00  0.00     0.003 A 
ATOM      5  C4  UNL d   1      -5.617  -5.067   5.988  0.00  0.00    -0.005 A 
ATOM      6  C5  UNL d   1      -5.763  -5.999   4.963  0.00  0.00     0.003 A 
ATOM      7  C6  UNL d   1      -5.614  -5.605   3.633  0.00  0.00    -0.001 A 
ENDROOT
TORSDOF 0
ENDMDL
