MODEL 1
REMARK minimizedAffinity -1.31328166
REMARK minimizedRMSD -1
REMARK  0 active torsions:
REMARK  status: ('A' for Active; 'I' for Inactive)
ROOT
ATOM      1  C   UNL d   1       2.325  -4.420  -0.064  0.00  0.00     0.078 C 
ATOM      2  C1  UNL d   1       1.599  -3.155   0.287  0.00  0.00    -0.077 A 
ATOM      3  C2  UNL d   1       0.201  -3.121   0.355  0.00  0.00    -0.001 A 
ATOM      4  C3  UNL d   1      -0.461  -1.934   0.673  0.00  0.00     0.003 A 
ATOM      5  C4  UNL d   1       0.266  -0.772   0.925  0.00  0.00    -0.005 A 
ATOM      6  C5  UNL d   1       1.658  -0.796   0.857  0.00  0.00     0.003 A 
ATOM      7  C6  UNL d   1       2.322  -1.982   0.539  0.00  0.00    -0.001 A 
ENDROOT
TORSDOF 0
ENDMDL
