MODEL 1
REMARK minimizedAffinity -0.896574795
REMARK minimizedRMSD -1
REMARK  0 active torsions:
REMARK  status: ('A' for Active; 'I' for Inactive)
ROOT
ATOM      1  C   UNL d   1       3.601  -1.070   0.109  0.00  0.00     0.078 C 
ATOM      2  C1  UNL d   1       2.143  -0.970   0.444  0.00  0.00    -0.077 A 
ATOM      3  C2  UNL d   1       1.169  -1.510  -0.406  0.00  0.00    -0.001 A 
ATOM      4  C3  UNL d   1      -0.185  -1.401  -0.087  0.00  0.00     0.003 A 
ATOM      5  C4  UNL d   1      -0.579  -0.751   1.082  0.00  0.00    -0.005 A 
ATOM      6  C5  UNL d   1       0.383  -0.209   1.932  0.00  0.00     0.003 A 
ATOM      7  C6  UNL d   1       1.738  -0.317   1.614  0.00  0.00    -0.001 A 
ENDROOT
TORSDOF 0
ENDMDL
