MODEL 1
REMARK minimizedAffinity -5.04997301
REMARK minimizedRMSD -1
REMARK  0 active torsions:
REMARK  status: ('A' for Active; 'I' for Inactive)
ROOT
ATOM      1  C   UNL d   1       2.753  -3.960  -0.190  0.00  0.00     0.078 C 
ATOM      2  C1  UNL d   1       1.799  -2.846   0.122  0.00  0.00    -0.077 A 
ATOM      3  C2  UNL d   1       0.417  -3.069   0.159  0.00  0.00    -0.001 A 
ATOM      4  C3  UNL d   1      -0.460  -2.020   0.441  0.00  0.00     0.003 A 
ATOM      5  C4  UNL d   1       0.035  -0.741   0.688  0.00  0.00    -0.005 A 
ATOM      6  C5  UNL d   1       1.408  -0.509   0.650  0.00  0.00     0.003 A 
ATOM      7  C6  UNL d   1       2.287  -1.556   0.368  0.00  0.00    -0.001 A 
ENDROOT
TORSDOF 0
ENDMDL
