MODEL 1
REMARK minimizedAffinity -3.36004567
REMARK minimizedRMSD -1
REMARK  0 active torsions:
REMARK  status: ('A' for Active; 'I' for Inactive)
ROOT
ATOM      1  C   UNL d   1       3.994  -5.076  -0.100  0.00  0.00     0.078 C 
ATOM      2  C1  UNL d   1       3.000  -3.979   0.142  0.00  0.00    -0.077 A 
ATOM      3  C2  UNL d   1       1.633  -4.258   0.263  0.00  0.00    -0.001 A 
ATOM      4  C3  UNL d   1       0.718  -3.226   0.479  0.00  0.00     0.003 A 
ATOM      5  C4  UNL d   1       1.160  -1.908   0.574  0.00  0.00    -0.005 A 
ATOM      6  C5  UNL d   1       2.518  -1.621   0.453  0.00  0.00     0.003 A 
ATOM      7  C6  UNL d   1       3.434  -2.651   0.237  0.00  0.00    -0.001 A 
ENDROOT
TORSDOF 0
ENDMDL
