MODEL 1
REMARK minimizedAffinity -3.09999919
REMARK minimizedRMSD -1
REMARK  0 active torsions:
REMARK  status: ('A' for Active; 'I' for Inactive)
ROOT
ATOM      1  C   UNL d   1       3.089   3.566  -3.811  0.00  0.00     0.078 C 
ATOM      2  C1  UNL d   1       1.940   4.409  -4.278  0.00  0.00    -0.077 A 
ATOM      3  C2  UNL d   1       1.903   4.918  -5.582  0.00  0.00    -0.001 A 
ATOM      4  C3  UNL d   1       0.831   5.709  -6.000  0.00  0.00     0.003 A 
ATOM      5  C4  UNL d   1      -0.210   5.999  -5.120  0.00  0.00    -0.005 A 
ATOM      6  C5  UNL d   1      -0.180   5.499  -3.820  0.00  0.00     0.003 A 
ATOM      7  C6  UNL d   1       0.890   4.707  -3.400  0.00  0.00    -0.001 A 
ENDROOT
TORSDOF 0
ENDMDL
