MODEL 1
REMARK minimizedAffinity 0.998803377
REMARK minimizedRMSD -1
REMARK  0 active torsions:
REMARK  status: ('A' for Active; 'I' for Inactive)
ROOT
ATOM      1  C   UNL d   1       2.956  -0.197   1.519  0.00  0.00     0.078 C 
ATOM      2  C1  UNL d   1       1.513  -0.425   1.181  0.00  0.00    -0.077 A 
ATOM      3  C2  UNL d   1       0.510   0.402   1.703  0.00  0.00    -0.001 A 
ATOM      4  C3  UNL d   1      -0.830   0.172   1.387  0.00  0.00     0.003 A 
ATOM      5  C4  UNL d   1      -1.180  -0.885   0.550  0.00  0.00    -0.005 A 
ATOM      6  C5  UNL d   1      -0.190  -1.716   0.029  0.00  0.00     0.003 A 
ATOM      7  C6  UNL d   1       1.151  -1.487   0.343  0.00  0.00    -0.001 A 
ENDROOT
TORSDOF 0
ENDMDL
