MODEL 1
REMARK minimizedAffinity -0.961469471
REMARK minimizedRMSD -1
REMARK  0 active torsions:
REMARK  status: ('A' for Active; 'I' for Inactive)
ROOT
ATOM      1  C   UNL d   1       3.231  -4.121  -0.243  0.00  0.00     0.078 C 
ATOM      2  C1  UNL d   1       1.972  -3.362   0.054  0.00  0.00    -0.077 A 
ATOM      3  C2  UNL d   1       1.992  -1.974   0.236  0.00  0.00    -0.001 A 
ATOM      4  C3  UNL d   1       0.814  -1.282   0.522  0.00  0.00     0.003 A 
ATOM      5  C4  UNL d   1      -0.393  -1.970   0.630  0.00  0.00    -0.005 A 
ATOM      6  C5  UNL d   1      -0.422  -3.352   0.454  0.00  0.00     0.003 A 
ATOM      7  C6  UNL d   1       0.755  -4.046   0.168  0.00  0.00    -0.001 A 
ENDROOT
TORSDOF 0
ENDMDL
