MODEL 1
REMARK minimizedAffinity 1.72697043
REMARK minimizedRMSD -1
REMARK  0 active torsions:
REMARK  status: ('A' for Active; 'I' for Inactive)
ROOT
ATOM      1  C   UNL d   1       2.213  -4.249   0.126  0.00  0.00     0.078 C 
ATOM      2  C1  UNL d   1       1.375  -3.052   0.463  0.00  0.00    -0.077 A 
ATOM      3  C2  UNL d   1      -0.011  -3.063   0.260  0.00  0.00    -0.001 A 
ATOM      4  C3  UNL d   1      -0.778  -1.938   0.570  0.00  0.00     0.003 A 
ATOM      5  C4  UNL d   1      -0.169  -0.795   1.082  0.00  0.00    -0.005 A 
ATOM      6  C5  UNL d   1       1.210  -0.774   1.285  0.00  0.00     0.003 A 
ATOM      7  C6  UNL d   1       1.978  -1.898   0.977  0.00  0.00    -0.001 A 
ENDROOT
TORSDOF 0
ENDMDL
