MODEL 1
REMARK minimizedAffinity -4.07293272
REMARK minimizedRMSD -1
REMARK  0 active torsions:
REMARK  status: ('A' for Active; 'I' for Inactive)
ROOT
ATOM      1  C   UNL d   1       2.676  -3.812  -0.501  0.00  0.00     0.078 C 
ATOM      2  C1  UNL d   1       1.714  -2.739  -0.087  0.00  0.00    -0.077 A 
ATOM      3  C2  UNL d   1       2.081  -1.388  -0.126  0.00  0.00    -0.001 A 
ATOM      4  C3  UNL d   1       1.179  -0.400   0.271  0.00  0.00     0.003 A 
ATOM      5  C4  UNL d   1      -0.095  -0.752   0.712  0.00  0.00    -0.005 A 
ATOM      6  C5  UNL d   1      -0.468  -2.094   0.757  0.00  0.00     0.003 A 
ATOM      7  C6  UNL d   1       0.432  -3.084   0.359  0.00  0.00    -0.001 A 
ENDROOT
TORSDOF 0
ENDMDL
