MODEL 1
REMARK minimizedAffinity 2.74767447
REMARK minimizedRMSD -1
REMARK  0 active torsions:
REMARK  status: ('A' for Active; 'I' for Inactive)
ROOT
ATOM      1  C   UNL d   1      -1.147   4.300  -1.034  0.00  0.00     0.023 A 
ATOM      2  C1  UNL d   1      -1.727   3.744   0.106  0.00  0.00     0.003 A 
ATOM      3  C2  UNL d   1      -0.919   3.273   1.143  0.00  0.00     0.048 A 
ATOM      4  C3  UNL d   1       0.469   3.362   1.033  0.00  0.00     0.023 A 
ATOM      5  C4  UNL d   1       1.053   3.918  -0.106  0.00  0.00     0.048 A 
ATOM      6  C5  UNL d   1       0.241   4.387  -1.140  0.00  0.00     0.003 A 
ATOM      7  I   UNL d   1       1.674   2.661   2.575  0.00  0.00    -0.146 I 
ENDROOT
TORSDOF 0
ENDMDL
