MODEL 1
REMARK minimizedAffinity 4.66530943
REMARK minimizedRMSD -1
REMARK  0 active torsions:
REMARK  status: ('A' for Active; 'I' for Inactive)
ROOT
ATOM      1  C   UNL d   1      -4.828   5.016  -4.835  0.00  0.00     0.023 A 
ATOM      2  C1  UNL d   1      -4.321   5.040  -3.535  0.00  0.00     0.003 A 
ATOM      3  C2  UNL d   1      -4.651   4.024  -2.636  0.00  0.00     0.048 A 
ATOM      4  C3  UNL d   1      -5.488   2.986  -3.043  0.00  0.00     0.023 A 
ATOM      5  C4  UNL d   1      -5.998   2.957  -4.343  0.00  0.00     0.048 A 
ATOM      6  C5  UNL d   1      -5.666   3.976  -5.238  0.00  0.00     0.003 A 
ATOM      7  I   UNL d   1      -5.981   1.472  -1.707  0.00  0.00    -0.146 I 
ENDROOT
TORSDOF 0
ENDMDL
