MODEL 1
REMARK minimizedAffinity -2.34141469
REMARK minimizedRMSD -1
REMARK  0 active torsions:
REMARK  status: ('A' for Active; 'I' for Inactive)
ROOT
ATOM      1  C   UNL d   1      -4.471   0.855   0.659  0.00  0.00     0.023 A 
ATOM      2  C1  UNL d   1      -5.775   1.121   0.239  0.00  0.00     0.003 A 
ATOM      3  C2  UNL d   1      -6.000   1.946  -0.864  0.00  0.00     0.048 A 
ATOM      4  C3  UNL d   1      -4.917   2.502  -1.544  0.00  0.00     0.023 A 
ATOM      5  C4  UNL d   1      -3.611   2.239  -1.129  0.00  0.00     0.048 A 
ATOM      6  C5  UNL d   1      -3.391   1.413  -0.024  0.00  0.00     0.003 A 
ATOM      7  I   UNL d   1      -5.250   3.731  -3.187  0.00  0.00    -0.146 I 
ENDROOT
TORSDOF 0
ENDMDL
