MODEL 1
REMARK minimizedAffinity -3.41250324
REMARK minimizedRMSD -1
REMARK  0 active torsions:
REMARK  status: ('A' for Active; 'I' for Inactive)
ROOT
ATOM      1  C   UNL d   1      -5.125   5.611  -4.549  0.00  0.00     0.023 A 
ATOM      2  C1  UNL d   1      -4.752   5.840  -3.225  0.00  0.00     0.003 A 
ATOM      3  C2  UNL d   1      -5.002   4.871  -2.250  0.00  0.00     0.048 A 
ATOM      4  C3  UNL d   1      -5.625   3.676  -2.607  0.00  0.00     0.023 A 
ATOM      5  C4  UNL d   1      -6.000   3.443  -3.931  0.00  0.00     0.048 A 
ATOM      6  C5  UNL d   1      -5.749   4.414  -4.902  0.00  0.00     0.003 A 
ATOM      7  I   UNL d   1      -5.998   2.233  -1.159  0.00  0.00    -0.146 I 
ENDROOT
TORSDOF 0
ENDMDL
