MODEL 1
REMARK minimizedAffinity -1.03989899
REMARK minimizedRMSD -1
REMARK  0 active torsions:
REMARK  status: ('A' for Active; 'I' for Inactive)
ROOT
ATOM      1  C   UNL d   1       0.037  -4.161  -2.492  0.00  0.00     0.023 A 
ATOM      2  C1  UNL d   1      -0.280  -3.115  -3.358  0.00  0.00     0.003 A 
ATOM      3  C2  UNL d   1      -0.176  -1.792  -2.925  0.00  0.00     0.048 A 
ATOM      4  C3  UNL d   1       0.247  -1.522  -1.624  0.00  0.00     0.023 A 
ATOM      5  C4  UNL d   1       0.566  -2.566  -0.753  0.00  0.00     0.048 A 
ATOM      6  C5  UNL d   1       0.459  -3.887  -1.191  0.00  0.00     0.003 A 
ATOM      7  I   UNL d   1       0.404   0.447  -0.976  0.00  0.00    -0.146 I 
ENDROOT
TORSDOF 0
ENDMDL
