MODEL 1
REMARK minimizedAffinity 1.31350863
REMARK minimizedRMSD -1
REMARK  0 active torsions:
REMARK  status: ('A' for Active; 'I' for Inactive)
ROOT
ATOM      1  C   UNL d   1      -0.381   0.203  -1.373  0.00  0.00     0.077 C 
ATOM      2  C1  UNL d   1      -0.026   1.015  -0.163  0.00  0.00    -0.074 A 
ATOM      3  C2  UNL d   1       0.309   0.396   1.045  0.00  0.00    -0.005 A 
ATOM      4  C3  UNL d   1       0.647   1.164   2.159  0.00  0.00     0.006 A 
ATOM      5  C4  UNL d   1       0.652   2.557   2.077  0.00  0.00    -0.005 A 
ATOM      6  C5  UNL d   1       0.320   3.194   0.877  0.00  0.00    -0.074 A 
ATOM      7  C6  UNL d   1       0.330   4.690   0.769  0.00  0.00     0.077 C 
ATOM      8  C7  UNL d   1      -0.011   2.415  -0.240  0.00  0.00    -0.001 A 
ENDROOT
TORSDOF 0
ENDMDL
