MODEL 1
REMARK minimizedAffinity 2.00404716
REMARK minimizedRMSD -1
REMARK  0 active torsions:
REMARK  status: ('A' for Active; 'I' for Inactive)
ROOT
ATOM      1  C   UNL d   1      -0.901   0.357  -2.696  0.00  0.00     0.077 C 
ATOM      2  C1  UNL d   1      -0.468   1.429  -1.741  0.00  0.00    -0.074 A 
ATOM      3  C2  UNL d   1       0.029   1.106  -0.474  0.00  0.00    -0.005 A 
ATOM      4  C3  UNL d   1       0.437   2.113   0.400  0.00  0.00     0.006 A 
ATOM      5  C4  UNL d   1       0.353   3.452   0.016  0.00  0.00    -0.005 A 
ATOM      6  C5  UNL d   1      -0.140   3.795  -1.247  0.00  0.00    -0.074 A 
ATOM      7  C6  UNL d   1      -0.227   5.229  -1.679  0.00  0.00     0.077 C 
ATOM      8  C7  UNL d   1      -0.542   2.776  -2.122  0.00  0.00    -0.001 A 
ENDROOT
TORSDOF 0
ENDMDL
