MODEL 1
REMARK minimizedAffinity 13.1705074
REMARK minimizedRMSD -1
REMARK  0 active torsions:
REMARK  status: ('A' for Active; 'I' for Inactive)
ROOT
ATOM      1  C   UNL d   1      -4.367  -0.118  -2.235  0.00  0.00     0.077 C 
ATOM      2  C1  UNL d   1      -2.905   0.214  -2.245  0.00  0.00    -0.074 A 
ATOM      3  C2  UNL d   1      -1.971  -0.665  -2.803  0.00  0.00    -0.005 A 
ATOM      4  C3  UNL d   1      -0.615  -0.338  -2.813  0.00  0.00     0.006 A 
ATOM      5  C4  UNL d   1      -0.180   0.870  -2.268  0.00  0.00    -0.005 A 
ATOM      6  C5  UNL d   1      -1.099   1.763  -1.706  0.00  0.00    -0.074 A 
ATOM      7  C6  UNL d   1      -0.648   3.070  -1.124  0.00  0.00     0.077 C 
ATOM      8  C7  UNL d   1      -2.460   1.430  -1.706  0.00  0.00    -0.001 A 
ENDROOT
TORSDOF 0
ENDMDL
