MODEL 1
REMARK minimizedAffinity 3.03631902
REMARK minimizedRMSD -1
REMARK  0 active torsions:
REMARK  status: ('A' for Active; 'I' for Inactive)
ROOT
ATOM      1  C   UNL d   1      -5.870   0.075   5.893  0.00  0.00     0.077 C 
ATOM      2  C1  UNL d   1      -5.908  -1.038   4.888  0.00  0.00    -0.074 A 
ATOM      3  C2  UNL d   1      -5.943  -2.375   5.298  0.00  0.00    -0.005 A 
ATOM      4  C3  UNL d   1      -5.988  -3.399   4.352  0.00  0.00     0.006 A 
ATOM      5  C4  UNL d   1      -5.999  -3.098   2.989  0.00  0.00    -0.005 A 
ATOM      6  C5  UNL d   1      -5.966  -1.767   2.561  0.00  0.00    -0.074 A 
ATOM      7  C6  UNL d   1      -5.987  -1.425   1.101  0.00  0.00     0.077 C 
ATOM      8  C7  UNL d   1      -5.927  -0.743   3.518  0.00  0.00    -0.001 A 
ENDROOT
TORSDOF 0
ENDMDL
