MODEL 1
REMARK minimizedAffinity -3.27469015
REMARK minimizedRMSD -1
REMARK  0 active torsions:
REMARK  status: ('A' for Active; 'I' for Inactive)
ROOT
ATOM      1  C   UNL d   1      -0.301   4.708  -1.421  0.00  0.00     0.077 C 
ATOM      2  C1  UNL d   1      -0.273   3.421  -0.651  0.00  0.00    -0.074 A 
ATOM      3  C2  UNL d   1      -0.563   2.203  -1.276  0.00  0.00    -0.005 A 
ATOM      4  C3  UNL d   1      -0.523   1.013  -0.549  0.00  0.00     0.006 A 
ATOM      5  C4  UNL d   1      -0.193   1.028   0.807  0.00  0.00    -0.005 A 
ATOM      6  C5  UNL d   1       0.101   2.236   1.448  0.00  0.00    -0.074 A 
ATOM      7  C6  UNL d   1       0.466   2.269   2.902  0.00  0.00     0.077 C 
ATOM      8  C7  UNL d   1       0.065   3.427   0.709  0.00  0.00    -0.001 A 
ENDROOT
TORSDOF 0
ENDMDL
