MODEL 1
REMARK minimizedAffinity -2.20936179
REMARK minimizedRMSD -1
REMARK  0 active torsions:
REMARK  status: ('A' for Active; 'I' for Inactive)
ROOT
ATOM      1  C2' OXE d   1       0.640  -0.252  -0.998  0.00  0.00     0.078 C 
ATOM      2  C1' OXE d   1       3.001  -1.718  -0.602  0.00  0.00     0.078 C 
ATOM      3  C1  OXE d   1       2.154  -1.408   0.607  0.00  0.00    -0.078 A 
ATOM      4  C2  OXE d   1       1.024  -0.650   0.410  0.00  0.00    -0.078 A 
ATOM      5  C3  OXE d   1       0.179  -0.382   1.483  0.00  0.00     0.003 A 
ATOM      6  C4  OXE d   1       0.548  -0.745   2.784  0.00  0.00    -0.002 A 
ATOM      7  C5  OXE d   1       1.714  -1.483   3.012  0.00  0.00    -0.002 A 
ATOM      8  C6  OXE d   1       2.505  -1.858   1.931  0.00  0.00     0.003 A 
ENDROOT
TORSDOF 0
ENDMDL
