MODEL 1
REMARK minimizedAffinity -4.78324032
REMARK minimizedRMSD -1
REMARK  0 active torsions:
REMARK  status: ('A' for Active; 'I' for Inactive)
ROOT
ATOM      1  C2' OXE d   1       0.305  -0.299  -1.102  0.00  0.00     0.078 C 
ATOM      2  C1' OXE d   1      -1.239   0.231   1.182  0.00  0.00     0.078 C 
ATOM      3  C1  OXE d   1       0.063  -0.506   1.369  0.00  0.00    -0.078 A 
ATOM      4  C2  OXE d   1       0.790  -0.802   0.241  0.00  0.00    -0.078 A 
ATOM      5  C3  OXE d   1       2.025  -1.432   0.363  0.00  0.00     0.003 A 
ATOM      6  C4  OXE d   1       2.461  -1.903   1.607  0.00  0.00    -0.002 A 
ATOM      7  C5  OXE d   1       1.717  -1.647   2.764  0.00  0.00    -0.002 A 
ATOM      8  C6  OXE d   1       0.539  -0.914   2.668  0.00  0.00     0.003 A 
ENDROOT
TORSDOF 0
ENDMDL
