MODEL 1
REMARK minimizedAffinity -5.33378172
REMARK minimizedRMSD -1
REMARK  0 active torsions:
REMARK  status: ('A' for Active; 'I' for Inactive)
ROOT
ATOM      1  C2' OXE d   1      -0.900   0.396   1.452  0.00  0.00     0.078 C 
ATOM      2  C1' OXE d   1       0.253  -0.045  -1.069  0.00  0.00     0.078 C 
ATOM      3  C1  OXE d   1       0.958  -0.615   0.136  0.00  0.00    -0.078 A 
ATOM      4  C2  OXE d   1       0.412  -0.355   1.370  0.00  0.00    -0.078 A 
ATOM      5  C3  OXE d   1       0.992  -0.904   2.510  0.00  0.00     0.003 A 
ATOM      6  C4  OXE d   1       2.210  -1.589   2.426  0.00  0.00    -0.002 A 
ATOM      7  C5  OXE d   1       2.804  -1.831   1.183  0.00  0.00    -0.002 A 
ATOM      8  C6  OXE d   1       2.170  -1.389   0.027  0.00  0.00     0.003 A 
ENDROOT
TORSDOF 0
ENDMDL
