MODEL 1
REMARK minimizedAffinity -5.54497051
REMARK minimizedRMSD -1
REMARK  0 active torsions:
REMARK  status: ('A' for Active; 'I' for Inactive)
ROOT
ATOM      1  C2' OXE d   1      -0.113  -0.035  -1.256  0.00  0.00     0.078 C 
ATOM      2  C1' OXE d   1      -1.181   0.211   1.328  0.00  0.00     0.078 C 
ATOM      3  C1  OXE d   1       0.151  -0.483   1.180  0.00  0.00    -0.078 A 
ATOM      4  C2  OXE d   1       0.643  -0.640  -0.093  0.00  0.00    -0.078 A 
ATOM      5  C3  OXE d   1       1.893  -1.224  -0.281  0.00  0.00     0.003 A 
ATOM      6  C4  OXE d   1       2.581  -1.790   0.799  0.00  0.00    -0.002 A 
ATOM      7  C5  OXE d   1       2.078  -1.676   2.099  0.00  0.00    -0.002 A 
ATOM      8  C6  OXE d   1       0.887  -0.989   2.312  0.00  0.00     0.003 A 
ENDROOT
TORSDOF 0
ENDMDL
