MODEL 1
REMARK minimizedAffinity -6.40277433
REMARK minimizedRMSD -1
REMARK  0 active torsions:
REMARK  status: ('A' for Active; 'I' for Inactive)
ROOT
ATOM      1  C2' OXE d   1      -1.845  -0.134   1.140  0.00  0.00     0.078 C 
ATOM      2  C1' OXE d   1      -0.277   0.196  -1.165  0.00  0.00     0.078 C 
ATOM      3  C1  OXE d   1       0.407  -0.293   0.087  0.00  0.00    -0.078 A 
ATOM      4  C2  OXE d   1      -0.359  -0.407   1.222  0.00  0.00    -0.078 A 
ATOM      5  C3  OXE d   1       0.210  -0.907   2.390  0.00  0.00     0.003 A 
ATOM      6  C4  OXE d   1       1.588  -1.147   2.460  0.00  0.00    -0.002 A 
ATOM      7  C5  OXE d   1       2.393  -0.999   1.326  0.00  0.00    -0.002 A 
ATOM      8  C6  OXE d   1       1.812  -0.615   0.123  0.00  0.00     0.003 A 
ENDROOT
TORSDOF 0
ENDMDL
