MODEL 1
REMARK minimizedAffinity -5.69067955
REMARK minimizedRMSD -1
REMARK  0 active torsions:
REMARK  status: ('A' for Active; 'I' for Inactive)
ROOT
ATOM      1  C2' OXE d   1      -1.143   0.275   2.062  0.00  0.00     0.078 C 
ATOM      2  C1' OXE d   1      -0.121   0.254  -0.553  0.00  0.00     0.078 C 
ATOM      3  C1  OXE d   1       0.680  -0.439   0.521  0.00  0.00    -0.078 A 
ATOM      4  C2  OXE d   1       0.195  -0.384   1.806  0.00  0.00    -0.078 A 
ATOM      5  C3  OXE d   1       0.867  -1.053   2.826  0.00  0.00     0.003 A 
ATOM      6  C4  OXE d   1       2.109  -1.650   2.583  0.00  0.00    -0.002 A 
ATOM      7  C5  OXE d   1       2.640  -1.684   1.289  0.00  0.00    -0.002 A 
ATOM      8  C6  OXE d   1       1.919  -1.121   0.242  0.00  0.00     0.003 A 
ENDROOT
TORSDOF 0
ENDMDL
