MODEL 1
REMARK minimizedAffinity -5.74384832
REMARK minimizedRMSD -1
REMARK  0 active torsions:
REMARK  status: ('A' for Active; 'I' for Inactive)
ROOT
ATOM      1  C2' OXE d   1       2.584  -1.915   2.603  0.00  0.00     0.078 C 
ATOM      2  C1' OXE d   1       2.616  -1.585  -0.185  0.00  0.00     0.078 C 
ATOM      3  C1  OXE d   1       1.498  -0.931   0.588  0.00  0.00    -0.078 A 
ATOM      4  C2  OXE d   1       1.464  -1.137   1.946  0.00  0.00    -0.078 A 
ATOM      5  C3  OXE d   1       0.486  -0.511   2.714  0.00  0.00     0.003 A 
ATOM      6  C4  OXE d   1      -0.552   0.199   2.098  0.00  0.00    -0.002 A 
ATOM      7  C5  OXE d   1      -0.559   0.387   0.712  0.00  0.00    -0.002 A 
ATOM      8  C6  OXE d   1       0.480  -0.135  -0.051  0.00  0.00     0.003 A 
ENDROOT
TORSDOF 0
ENDMDL
