MODEL 1
REMARK minimizedAffinity -5.11013269
REMARK minimizedRMSD -1
REMARK  0 active torsions:
REMARK  status: ('A' for Active; 'I' for Inactive)
ROOT
ATOM      1  C2' OXE d   1       0.214   0.080  -0.755  0.00  0.00     0.078 C 
ATOM      2  C1' OXE d   1      -0.442  -0.135   1.966  0.00  0.00     0.078 C 
ATOM      3  C1  OXE d   1       0.822  -0.807   1.492  0.00  0.00    -0.078 A 
ATOM      4  C2  OXE d   1       1.111  -0.736   0.151  0.00  0.00    -0.078 A 
ATOM      5  C3  OXE d   1       2.293  -1.292  -0.330  0.00  0.00     0.003 A 
ATOM      6  C4  OXE d   1       3.112  -2.054   0.512  0.00  0.00    -0.002 A 
ATOM      7  C5  OXE d   1       2.815  -2.172   1.874  0.00  0.00    -0.002 A 
ATOM      8  C6  OXE d   1       1.699  -1.521   2.387  0.00  0.00     0.003 A 
ENDROOT
TORSDOF 0
ENDMDL
