MODEL 1
REMARK minimizedAffinity 20.8031445
REMARK minimizedRMSD -1
REMARK  0 active torsions:
REMARK  status: ('A' for Active; 'I' for Inactive)
ROOT
ATOM      1  O1  BZF d   1      -0.845  -0.110   3.566  0.00  0.00    -0.204 OA
ATOM      2  C2  BZF d   1      -1.750  -0.225   2.528  0.00  0.00     0.174 A 
ATOM      3  C3  BZF d   1      -1.424  -1.256   1.722  0.00  0.00    -0.012 A 
ATOM      4  C3A BZF d   1      -0.296  -1.878   2.344  0.00  0.00    -0.107 A 
ATOM      5  C4  BZF d   1       0.470  -2.963   2.028  0.00  0.00     0.055 A 
ATOM      6  C5  BZF d   1       1.545  -3.262   2.805  0.00  0.00    -0.016 A 
ATOM      7  C6  BZF d   1       1.884  -2.495   3.900  0.00  0.00     0.022 A 
ATOM      8  C7  BZF d   1       1.152  -1.412   4.256  0.00  0.00     0.029 A 
ATOM      9  C7A BZF d   1       0.046  -1.127   3.492  0.00  0.00     0.058 A 
ENDROOT
TORSDOF 0
ENDMDL
