MODEL 1
REMARK minimizedAffinity 5.72487259
REMARK minimizedRMSD -1
REMARK  0 active torsions:
REMARK  status: ('A' for Active; 'I' for Inactive)
ROOT
ATOM      1  O1  BZF d   1       2.369   2.418   1.476  0.00  0.00    -0.204 OA
ATOM      2  C2  BZF d   1       2.217   1.469   0.484  0.00  0.00     0.174 A 
ATOM      3  C3  BZF d   1       3.271   1.483  -0.357  0.00  0.00    -0.012 A 
ATOM      4  C3A BZF d   1       4.179   2.442   0.194  0.00  0.00    -0.107 A 
ATOM      5  C4  BZF d   1       5.413   2.890  -0.181  0.00  0.00     0.055 A 
ATOM      6  C5  BZF d   1       6.000   3.886   0.533  0.00  0.00    -0.016 A 
ATOM      7  C6  BZF d   1       5.379   4.460   1.624  0.00  0.00     0.022 A 
ATOM      8  C7  BZF d   1       4.157   4.045   2.037  0.00  0.00     0.029 A 
ATOM      9  C7A BZF d   1       3.576   3.016   1.337  0.00  0.00     0.058 A 
ENDROOT
TORSDOF 0
ENDMDL
