MODEL 1
REMARK minimizedAffinity 10.1153564
REMARK minimizedRMSD -1
REMARK  0 active torsions:
REMARK  status: ('A' for Active; 'I' for Inactive)
ROOT
ATOM      1  O1  BZF d   1      -0.819   3.359  -5.266  0.00  0.00    -0.204 OA
ATOM      2  C2  BZF d   1      -1.656   4.457  -5.229  0.00  0.00     0.174 A 
ATOM      3  C3  BZF d   1      -1.313   5.286  -4.221  0.00  0.00    -0.012 A 
ATOM      4  C3A BZF d   1      -0.135   4.712  -3.646  0.00  0.00    -0.107 A 
ATOM      5  C4  BZF d   1       0.684   5.084  -2.619  0.00  0.00     0.055 A 
ATOM      6  C5  BZF d   1       1.709   4.265  -2.262  0.00  0.00    -0.016 A 
ATOM      7  C6  BZF d   1       1.939   3.067  -2.907  0.00  0.00     0.022 A 
ATOM      8  C7  BZF d   1       1.156   2.659  -3.935  0.00  0.00     0.029 A 
ATOM      9  C7A BZF d   1       0.140   3.500  -4.319  0.00  0.00     0.058 A 
ENDROOT
TORSDOF 0
ENDMDL
