MODEL 1
REMARK minimizedAffinity 19.0911465
REMARK minimizedRMSD -1
REMARK  0 active torsions:
REMARK  status: ('A' for Active; 'I' for Inactive)
ROOT
ATOM      1  O1  BZF d   1       2.559   2.539  -4.232  0.00  0.00    -0.204 OA
ATOM      2  C2  BZF d   1       1.740   2.825  -3.157  0.00  0.00     0.174 A 
ATOM      3  C3  BZF d   1       2.357   3.657  -2.294  0.00  0.00    -0.012 A 
ATOM      4  C3A BZF d   1       3.607   3.979  -2.910  0.00  0.00    -0.107 A 
ATOM      5  C4  BZF d   1       4.655   4.776  -2.547  0.00  0.00     0.055 A 
ATOM      6  C5  BZF d   1       5.759   4.817  -3.339  0.00  0.00    -0.016 A 
ATOM      7  C6  BZF d   1       5.850   4.072  -4.496  0.00  0.00     0.022 A 
ATOM      8  C7  BZF d   1       4.834   3.271  -4.900  0.00  0.00     0.029 A 
ATOM      9  C7A BZF d   1       3.704   3.253  -4.120  0.00  0.00     0.058 A 
ENDROOT
TORSDOF 0
ENDMDL
