MODEL 1
REMARK minimizedAffinity 13.2056131
REMARK minimizedRMSD -1
REMARK  0 active torsions:
REMARK  status: ('A' for Active; 'I' for Inactive)
ROOT
ATOM      1  O1  BZF d   1       2.016   2.696  -4.290  0.00  0.00    -0.204 OA
ATOM      2  C2  BZF d   1       1.573   2.976  -3.011  0.00  0.00     0.174 A 
ATOM      3  C3  BZF d   1       2.551   3.551  -2.281  0.00  0.00    -0.012 A 
ATOM      4  C3A BZF d   1       3.647   3.719  -3.186  0.00  0.00    -0.107 A 
ATOM      5  C4  BZF d   1       4.899   4.248  -3.056  0.00  0.00     0.055 A 
ATOM      6  C5  BZF d   1       5.752   4.194  -4.112  0.00  0.00    -0.016 A 
ATOM      7  C6  BZF d   1       5.389   3.614  -5.310  0.00  0.00     0.022 A 
ATOM      8  C7  BZF d   1       4.156   3.080  -5.488  0.00  0.00     0.029 A 
ATOM      9  C7A BZF d   1       3.280   3.163  -4.433  0.00  0.00     0.058 A 
ENDROOT
TORSDOF 0
ENDMDL
