MODEL 1
REMARK minimizedAffinity 13.5101595
REMARK minimizedRMSD -1
REMARK  0 active torsions:
REMARK  status: ('A' for Active; 'I' for Inactive)
ROOT
ATOM      1  O1  BZF d   1      -1.991  -2.298   1.721  0.00  0.00    -0.204 OA
ATOM      2  C2  BZF d   1      -0.756  -1.909   2.203  0.00  0.00     0.174 A 
ATOM      3  C3  BZF d   1      -0.752  -0.595   2.506  0.00  0.00    -0.012 A 
ATOM      4  C3A BZF d   1      -2.094  -0.154   2.282  0.00  0.00    -0.107 A 
ATOM      5  C4  BZF d   1      -2.722   1.051   2.422  0.00  0.00     0.055 A 
ATOM      6  C5  BZF d   1      -4.024   1.164   2.049  0.00  0.00    -0.016 A 
ATOM      7  C6  BZF d   1      -4.725   0.098   1.526  0.00  0.00     0.022 A 
ATOM      8  C7  BZF d   1      -4.147  -1.118   1.373  0.00  0.00     0.029 A 
ATOM      9  C7A BZF d   1      -2.841  -1.245   1.781  0.00  0.00     0.058 A 
ENDROOT
TORSDOF 0
ENDMDL
