MODEL 1
REMARK minimizedAffinity 10.6649561
REMARK minimizedRMSD -1
REMARK  0 active torsions:
REMARK  status: ('A' for Active; 'I' for Inactive)
ROOT
ATOM      1  O1  BZF d   1       4.838   3.755  -5.522  0.00  0.00    -0.204 OA
ATOM      2  C2  BZF d   1       5.997   4.455  -5.248  0.00  0.00     0.174 A 
ATOM      3  C3  BZF d   1       5.865   5.176  -4.116  0.00  0.00    -0.012 A 
ATOM      4  C3A BZF d   1       4.573   4.837  -3.603  0.00  0.00    -0.107 A 
ATOM      5  C4  BZF d   1       3.875   5.216  -2.492  0.00  0.00     0.055 A 
ATOM      6  C5  BZF d   1       2.607   4.757  -2.320  0.00  0.00    -0.016 A 
ATOM      7  C6  BZF d   1       2.006   3.924  -3.240  0.00  0.00     0.022 A 
ATOM      8  C7  BZF d   1       2.661   3.516  -4.355  0.00  0.00     0.029 A 
ATOM      9  C7A BZF d   1       3.953   3.951  -4.515  0.00  0.00     0.058 A 
ENDROOT
TORSDOF 0
ENDMDL
