MODEL 1
REMARK minimizedAffinity 18.1248264
REMARK minimizedRMSD -1
REMARK  0 active torsions:
REMARK  status: ('A' for Active; 'I' for Inactive)
ROOT
ATOM      1  O1  BZF d   1       4.961   3.211   1.989  0.00  0.00    -0.204 OA
ATOM      2  C2  BZF d   1       5.999   3.646   1.188  0.00  0.00     0.174 A 
ATOM      3  C3  BZF d   1       5.999   2.992   0.009  0.00  0.00    -0.012 A 
ATOM      4  C3A BZF d   1       4.836   2.159   0.040  0.00  0.00    -0.107 A 
ATOM      5  C4  BZF d   1       4.285   1.282  -0.850  0.00  0.00     0.055 A 
ATOM      6  C5  BZF d   1       3.186   0.573  -0.483  0.00  0.00    -0.016 A 
ATOM      7  C6  BZF d   1       2.615   0.711   0.765  0.00  0.00     0.022 A 
ATOM      8  C7  BZF d   1       3.123   1.572   1.680  0.00  0.00     0.029 A 
ATOM      9  C7A BZF d   1       4.215   2.314   1.301  0.00  0.00     0.058 A 
ENDROOT
TORSDOF 0
ENDMDL
