MODEL 1
REMARK minimizedAffinity 21.3934441
REMARK minimizedRMSD -1
REMARK  0 active torsions:
REMARK  status: ('A' for Active; 'I' for Inactive)
ROOT
ATOM      1  O1  BZF d   1      -3.828   5.170   5.964  0.00  0.00    -0.204 OA
ATOM      2  C2  BZF d   1      -4.958   5.965   5.932  0.00  0.00     0.174 A 
ATOM      3  C3  BZF d   1      -5.966   5.336   5.293  0.00  0.00    -0.012 A 
ATOM      4  C3A BZF d   1      -5.462   4.034   4.983  0.00  0.00    -0.107 A 
ATOM      5  C4  BZF d   1      -5.999   2.941   4.365  0.00  0.00     0.055 A 
ATOM      6  C5  BZF d   1      -5.218   1.850   4.155  0.00  0.00    -0.016 A 
ATOM      7  C6  BZF d   1      -3.894   1.818   4.544  0.00  0.00     0.022 A 
ATOM      8  C7  BZF d   1      -3.318   2.876   5.166  0.00  0.00     0.029 A 
ATOM      9  C7A BZF d   1      -4.115   3.968   5.409  0.00  0.00     0.058 A 
ENDROOT
TORSDOF 0
ENDMDL
