MODEL 1
REMARK minimizedAffinity 21.6252346
REMARK minimizedRMSD -1
REMARK  0 active torsions:
REMARK  status: ('A' for Active; 'I' for Inactive)
ROOT
ATOM      1  O1  BZF d   1       3.186   2.857  -4.740  0.00  0.00    -0.204 OA
ATOM      2  C2  BZF d   1       2.253   2.627  -3.748  0.00  0.00     0.174 A 
ATOM      3  C3  BZF d   1       2.585   3.284  -2.617  0.00  0.00    -0.012 A 
ATOM      4  C3A BZF d   1       3.752   4.041  -2.951  0.00  0.00    -0.107 A 
ATOM      5  C4  BZF d   1       4.541   4.907  -2.249  0.00  0.00     0.055 A 
ATOM      6  C5  BZF d   1       5.649   5.422  -2.845  0.00  0.00    -0.016 A 
ATOM      7  C6  BZF d   1       5.999   5.089  -4.137  0.00  0.00     0.022 A 
ATOM      8  C7  BZF d   1       5.245   4.238  -4.875  0.00  0.00     0.029 A 
ATOM      9  C7A BZF d   1       4.107   3.742  -4.287  0.00  0.00     0.058 A 
ENDROOT
TORSDOF 0
ENDMDL
