MODEL 1
REMARK minimizedAffinity 11.6018677
REMARK minimizedRMSD -1
REMARK  0 active torsions:
REMARK  status: ('A' for Active; 'I' for Inactive)
ROOT
ATOM      1  O1  BZF d   1      -1.118   0.596   4.540  0.00  0.00    -0.204 OA
ATOM      2  C2  BZF d   1      -2.074   1.175   3.729  0.00  0.00     0.174 A 
ATOM      3  C3  BZF d   1      -2.127   0.552   2.533  0.00  0.00    -0.012 A 
ATOM      4  C3A BZF d   1      -1.207  -0.538   2.636  0.00  0.00    -0.107 A 
ATOM      5  C4  BZF d   1      -0.828  -1.531   1.778  0.00  0.00     0.055 A 
ATOM      6  C5  BZF d   1       0.149  -2.396   2.158  0.00  0.00    -0.016 A 
ATOM      7  C6  BZF d   1       0.771  -2.294   3.385  0.00  0.00     0.022 A 
ATOM      8  C7  BZF d   1       0.426  -1.329   4.272  0.00  0.00     0.029 A 
ATOM      9  C7A BZF d   1      -0.584  -0.474   3.904  0.00  0.00     0.058 A 
ENDROOT
TORSDOF 0
ENDMDL
