MODEL 1
REMARK minimizedAffinity 14.7044048
REMARK minimizedRMSD -1
REMARK  0 active torsions:
REMARK  status: ('A' for Active; 'I' for Inactive)
ROOT
ATOM      1  O1  BZF d   1      -1.275   0.783   4.482  0.00  0.00    -0.204 OA
ATOM      2  C2  BZF d   1      -0.188   0.180   5.085  0.00  0.00     0.174 A 
ATOM      3  C3  BZF d   1       0.281  -0.830   4.325  0.00  0.00    -0.012 A 
ATOM      4  C3A BZF d   1      -0.508  -0.801   3.131  0.00  0.00    -0.107 A 
ATOM      5  C4  BZF d   1      -0.509  -1.547   1.988  0.00  0.00     0.055 A 
ATOM      6  C5  BZF d   1      -1.457  -1.308   1.044  0.00  0.00    -0.016 A 
ATOM      7  C6  BZF d   1      -2.421  -0.336   1.213  0.00  0.00     0.022 A 
ATOM      8  C7  BZF d   1      -2.457   0.433   2.328  0.00  0.00     0.029 A 
ATOM      9  C7A BZF d   1      -1.480   0.217   3.269  0.00  0.00     0.058 A 
ENDROOT
TORSDOF 0
ENDMDL
