MODEL 1
REMARK minimizedAffinity 12.9928608
REMARK minimizedRMSD -1
REMARK  0 active torsions:
REMARK  status: ('A' for Active; 'I' for Inactive)
ROOT
ATOM      1  O1  BZF d   1      -1.971   1.049   4.889  0.00  0.00    -0.204 OA
ATOM      2  C2  BZF d   1      -0.940   0.565   5.670  0.00  0.00     0.174 A 
ATOM      3  C3  BZF d   1      -0.236  -0.373   5.005  0.00  0.00    -0.012 A 
ATOM      4  C3A BZF d   1      -0.810  -0.417   3.695  0.00  0.00    -0.107 A 
ATOM      5  C4  BZF d   1      -0.533  -1.142   2.572  0.00  0.00     0.055 A 
ATOM      6  C5  BZF d   1      -1.329  -1.000   1.480  0.00  0.00    -0.016 A 
ATOM      7  C6  BZF d   1      -2.413  -0.146   1.478  0.00  0.00     0.022 A 
ATOM      8  C7  BZF d   1      -2.725   0.598   2.567  0.00  0.00     0.029 A 
ATOM      9  C7A BZF d   1      -1.903   0.481   3.661  0.00  0.00     0.058 A 
ENDROOT
TORSDOF 0
ENDMDL
