MODEL 1
REMARK minimizedAffinity 10.7869911
REMARK minimizedRMSD -1
REMARK  0 active torsions:
REMARK  status: ('A' for Active; 'I' for Inactive)
ROOT
ATOM      1  O1  BZF d   1      -0.798   2.027   2.136  0.00  0.00    -0.204 OA
ATOM      2  C2  BZF d   1      -1.702   1.310   2.896  0.00  0.00     0.174 A 
ATOM      3  C3  BZF d   1      -1.309   0.026   3.022  0.00  0.00    -0.012 A 
ATOM      4  C3A BZF d   1      -0.036  -0.044   2.373  0.00  0.00    -0.107 A 
ATOM      5  C4  BZF d   1       0.865  -1.051   2.178  0.00  0.00     0.055 A 
ATOM      6  C5  BZF d   1       1.979  -0.807   1.439  0.00  0.00    -0.016 A 
ATOM      7  C6  BZF d   1       2.221   0.429   0.877  0.00  0.00     0.022 A 
ATOM      8  C7  BZF d   1       1.359   1.461   1.046  0.00  0.00     0.029 A 
ATOM      9  C7A BZF d   1       0.249   1.227   1.820  0.00  0.00     0.058 A 
ENDROOT
TORSDOF 0
ENDMDL
