MODEL 1
REMARK minimizedAffinity 11.9969444
REMARK minimizedRMSD -1
REMARK  0 active torsions:
REMARK  status: ('A' for Active; 'I' for Inactive)
ROOT
ATOM      1  O1  BZF d   1      -0.364  -0.760   2.689  0.00  0.00    -0.204 OA
ATOM      2  C2  BZF d   1      -0.260  -1.836   1.828  0.00  0.00     0.174 A 
ATOM      3  C3  BZF d   1      -1.409  -2.014   1.145  0.00  0.00    -0.012 A 
ATOM      4  C3A BZF d   1      -2.254  -0.929   1.540  0.00  0.00    -0.107 A 
ATOM      5  C4  BZF d   1      -3.519  -0.550   1.193  0.00  0.00     0.055 A 
ATOM      6  C5  BZF d   1      -4.083   0.518   1.816  0.00  0.00    -0.016 A 
ATOM      7  C6  BZF d   1      -3.414   1.225   2.793  0.00  0.00     0.022 A 
ATOM      8  C7  BZF d   1      -2.155   0.890   3.168  0.00  0.00     0.029 A 
ATOM      9  C7A BZF d   1      -1.570  -0.169   2.516  0.00  0.00     0.058 A 
ENDROOT
TORSDOF 0
ENDMDL
