MODEL 1
REMARK minimizedAffinity 12.5419464
REMARK minimizedRMSD -1
REMARK  0 active torsions:
REMARK  status: ('A' for Active; 'I' for Inactive)
ROOT
ATOM      1  O1  BZF d   1      -4.322   1.513   1.771  0.00  0.00    -0.204 OA
ATOM      2  C2  BZF d   1      -4.993   0.826   0.778  0.00  0.00     0.174 A 
ATOM      3  C3  BZF d   1      -4.310  -0.279   0.415  0.00  0.00    -0.012 A 
ATOM      4  C3A BZF d   1      -3.184  -0.331   1.296  0.00  0.00    -0.107 A 
ATOM      5  C4  BZF d   1      -2.145  -1.205   1.441  0.00  0.00     0.055 A 
ATOM      6  C5  BZF d   1      -1.171  -0.930   2.348  0.00  0.00    -0.016 A 
ATOM      7  C6  BZF d   1      -1.203   0.211   3.123  0.00  0.00     0.022 A 
ATOM      8  C7  BZF d   1      -2.216   1.105   3.019  0.00  0.00     0.029 A 
ATOM      9  C7A BZF d   1      -3.218   0.813   2.126  0.00  0.00     0.058 A 
ENDROOT
TORSDOF 0
ENDMDL
