MODEL 1
REMARK minimizedAffinity 16.1166363
REMARK minimizedRMSD -1
REMARK  0 active torsions:
REMARK  status: ('A' for Active; 'I' for Inactive)
ROOT
ATOM      1  O1  BZF d   1       2.694   3.016  -4.158  0.00  0.00    -0.204 OA
ATOM      2  C2  BZF d   1       1.925   3.173  -3.021  0.00  0.00     0.174 A 
ATOM      3  C3  BZF d   1       2.593   3.879  -2.086  0.00  0.00    -0.012 A 
ATOM      4  C3A BZF d   1       3.822   4.262  -2.710  0.00  0.00    -0.107 A 
ATOM      5  C4  BZF d   1       4.899   4.992  -2.293  0.00  0.00     0.055 A 
ATOM      6  C5  BZF d   1       5.970   5.119  -3.120  0.00  0.00    -0.016 A 
ATOM      7  C6  BZF d   1       6.000   4.527  -4.366  0.00  0.00     0.022 A 
ATOM      8  C7  BZF d   1       4.954   3.798  -4.824  0.00  0.00     0.029 A 
ATOM      9  C7A BZF d   1       3.857   3.695  -4.004  0.00  0.00     0.058 A 
ENDROOT
TORSDOF 0
ENDMDL
