MODEL 1
REMARK minimizedAffinity 13.0249949
REMARK minimizedRMSD -1
REMARK  0 active torsions:
REMARK  status: ('A' for Active; 'I' for Inactive)
ROOT
ATOM      1  O1  BZF d   1       2.524   2.835  -4.098  0.00  0.00    -0.204 OA
ATOM      2  C2  BZF d   1       1.732   3.024  -2.981  0.00  0.00     0.174 A 
ATOM      3  C3  BZF d   1       2.442   3.584  -1.981  0.00  0.00    -0.012 A 
ATOM      4  C3A BZF d   1       3.736   3.841  -2.536  0.00  0.00    -0.107 A 
ATOM      5  C4  BZF d   1       4.877   4.401  -2.037  0.00  0.00     0.055 A 
ATOM      6  C5  BZF d   1       5.990   4.438  -2.815  0.00  0.00    -0.016 A 
ATOM      7  C6  BZF d   1       5.999   3.919  -4.094  0.00  0.00     0.022 A 
ATOM      8  C7  BZF d   1       4.890   3.357  -4.634  0.00  0.00     0.029 A 
ATOM      9  C7A BZF d   1       3.754   3.349  -3.861  0.00  0.00     0.058 A 
ENDROOT
TORSDOF 0
ENDMDL
