MODEL 1
REMARK minimizedAffinity -4.85240936
REMARK minimizedRMSD -1
REMARK  1 active torsions:
REMARK  status: ('A' for Active; 'I' for Inactive)
REMARK    1  A    between atoms: C3_4  and  O_7 
ROOT
ATOM      1  C   UNL d   1       0.550   0.581   3.389  0.00  0.00    -0.033 A 
ATOM      2  C1  UNL d   1      -0.836   0.700   3.509  0.00  0.00     0.039 A 
ATOM      3  C2  UNL d   1      -1.643   0.660   2.370  0.00  0.00    -0.080 A 
ATOM      4  C3  UNL d   1      -1.052   0.500   1.119  0.00  0.00     0.150 A 
ATOM      5  C4  UNL d   1       0.328   0.377   0.993  0.00  0.00    -0.007 A 
ATOM      6  C5  UNL d   1       1.132   0.418   2.132  0.00  0.00     0.039 A 
ENDROOT
BRANCH   4   7
ATOM      7  O   UNL d   1      -1.797   0.461  -0.021  0.00  0.00    -0.526 OA
ATOM      8  H5  UNL d   1      -2.731   0.587   0.217  0.00  0.00     0.418 HD
ENDBRANCH   4   7
TORSDOF 1
ENDMDL
