MODEL 1
REMARK minimizedAffinity -4.40090084
REMARK minimizedRMSD -1
REMARK  1 active torsions:
REMARK  status: ('A' for Active; 'I' for Inactive)
REMARK    1  A    between atoms: C3_4  and  O_7 
ROOT
ATOM      1  C   UNL d   1      -1.182   1.307   2.161  0.00  0.00    -0.033 A 
ATOM      2  C1  UNL d   1      -0.535   0.890   0.996  0.00  0.00     0.039 A 
ATOM      3  C2  UNL d   1       0.738   0.322   1.067  0.00  0.00    -0.080 A 
ATOM      4  C3  UNL d   1       1.352   0.174   2.308  0.00  0.00     0.150 A 
ATOM      5  C4  UNL d   1       0.712   0.583   3.473  0.00  0.00    -0.007 A 
ATOM      6  C5  UNL d   1      -0.559   1.152   3.400  0.00  0.00     0.039 A 
ENDROOT
BRANCH   4   7
ATOM      7  O   UNL d   1       2.596  -0.371   2.427  0.00  0.00    -0.526 OA
ATOM      8  H5  UNL d   1       2.927  -0.581   1.538  0.00  0.00     0.418 HD
ENDBRANCH   4   7
TORSDOF 1
ENDMDL
