MODEL 1
REMARK minimizedAffinity -5.21301937
REMARK minimizedRMSD -1
REMARK  1 active torsions:
REMARK  status: ('A' for Active; 'I' for Inactive)
REMARK    1  A    between atoms: C3_4  and  O_7 
ROOT
ATOM      1  C   UNL d   1      -0.954   0.574   2.700  0.00  0.00    -0.033 A 
ATOM      2  C1  UNL d   1      -1.873   0.174   1.728  0.00  0.00     0.039 A 
ATOM      3  C2  UNL d   1      -1.436  -0.144   0.441  0.00  0.00    -0.080 A 
ATOM      4  C3  UNL d   1      -0.079  -0.059   0.139  0.00  0.00     0.150 A 
ATOM      5  C4  UNL d   1       0.842   0.335   1.104  0.00  0.00    -0.007 A 
ATOM      6  C5  UNL d   1       0.403   0.653   2.389  0.00  0.00     0.039 A 
ENDROOT
BRANCH   4   7
ATOM      7  O   UNL d   1       0.395  -0.355  -1.104  0.00  0.00    -0.526 OA
ATOM      8  H5  UNL d   1      -0.359  -0.584  -1.674  0.00  0.00     0.418 HD
ENDBRANCH   4   7
TORSDOF 1
ENDMDL
