MODEL 1
REMARK minimizedAffinity -4.2333231
REMARK minimizedRMSD -1
REMARK  1 active torsions:
REMARK  status: ('A' for Active; 'I' for Inactive)
REMARK    1  A    between atoms: C3_4  and  O_7 
ROOT
ATOM      1  C   UNL d   1      -1.195   0.268   0.840  0.00  0.00    -0.033 A 
ATOM      2  C1  UNL d   1      -1.109   0.538   2.208  0.00  0.00     0.039 A 
ATOM      3  C2  UNL d   1      -0.005   0.097   2.940  0.00  0.00    -0.080 A 
ATOM      4  C3  UNL d   1       1.005  -0.611   2.294  0.00  0.00     0.150 A 
ATOM      5  C4  UNL d   1       0.927  -0.880   0.931  0.00  0.00    -0.007 A 
ATOM      6  C5  UNL d   1      -0.177  -0.440   0.202  0.00  0.00     0.039 A 
ENDROOT
BRANCH   4   7
ATOM      7  O   UNL d   1       2.099  -1.066   2.967  0.00  0.00    -0.526 OA
ATOM      8  H5  UNL d   1       2.003  -0.831   3.905  0.00  0.00     0.418 HD
ENDBRANCH   4   7
TORSDOF 1
ENDMDL
