MODEL 1
REMARK minimizedAffinity -4.40323496
REMARK minimizedRMSD -1
REMARK  1 active torsions:
REMARK  status: ('A' for Active; 'I' for Inactive)
REMARK    1  A    between atoms: C3_4  and  O_7 
ROOT
ATOM      1  C   UNL d   1       0.290  -0.173   3.686  0.00  0.00    -0.033 A 
ATOM      2  C1  UNL d   1      -0.911   0.513   3.496  0.00  0.00     0.039 A 
ATOM      3  C2  UNL d   1      -1.514   0.534   2.236  0.00  0.00    -0.080 A 
ATOM      4  C3  UNL d   1      -0.906  -0.134   1.177  0.00  0.00     0.150 A 
ATOM      5  C4  UNL d   1       0.289  -0.822   1.360  0.00  0.00    -0.007 A 
ATOM      6  C5  UNL d   1       0.889  -0.842   2.618  0.00  0.00     0.039 A 
ENDROOT
BRANCH   4   7
ATOM      7  O   UNL d   1      -1.453  -0.137  -0.072  0.00  0.00    -0.526 OA
ATOM      8  H5  UNL d   1      -2.262   0.402  -0.055  0.00  0.00     0.418 HD
ENDBRANCH   4   7
TORSDOF 1
ENDMDL
