MODEL 1
REMARK minimizedAffinity 8.06846523
REMARK minimizedRMSD -1
REMARK  0 active torsions:
REMARK  status: ('A' for Active; 'I' for Inactive)
ROOT
ATOM      1  C   UNL d   1       2.153  -2.104   1.081  0.00  0.00     0.124 A 
ATOM      2  C1  UNL d   1       1.335  -1.367   0.237  0.00  0.00     0.062 A 
ATOM      3  C2  UNL d   1       0.174  -0.776   0.727  0.00  0.00     0.162 A 
ATOM      4  C3  UNL d   1      -0.176  -0.919   2.070  0.00  0.00    -0.034 A 
ATOM      5  C4  UNL d   1       0.652  -1.663   2.913  0.00  0.00     0.162 A 
ATOM      6  C5  UNL d   1       1.811  -2.251   2.418  0.00  0.00     0.062 A 
ATOM      7  F   UNL d   1       2.600  -2.963   3.236  0.00  0.00    -0.097 F 
ATOM      8  F1  UNL d   1       0.346  -1.820   4.209  0.00  0.00    -0.096 F 
ATOM      9  I   UNL d   1      -1.911  -0.037   2.807  0.00  0.00    -0.060 I 
ATOM     10  F2  UNL d   1      -0.598  -0.069  -0.112  0.00  0.00    -0.096 F 
ATOM     11  F3  UNL d   1       1.662  -1.224  -1.056  0.00  0.00    -0.097 F 
ATOM     12  F4  UNL d   1       3.269  -2.672   0.607  0.00  0.00    -0.092 F 
ENDROOT
TORSDOF 0
ENDMDL
