MODEL 1
REMARK minimizedAffinity 7.96895123
REMARK minimizedRMSD -1
REMARK  0 active torsions:
REMARK  status: ('A' for Active; 'I' for Inactive)
ROOT
ATOM      1  C   UNL d   1       1.900  -4.065   1.592  0.00  0.00     0.124 A 
ATOM      2  C1  UNL d   1       2.136  -2.699   1.527  0.00  0.00     0.062 A 
ATOM      3  C2  UNL d   1       1.189  -1.800   2.009  0.00  0.00     0.162 A 
ATOM      4  C3  UNL d   1      -0.004  -2.265   2.562  0.00  0.00    -0.034 A 
ATOM      5  C4  UNL d   1      -0.235  -3.640   2.624  0.00  0.00     0.162 A 
ATOM      6  C5  UNL d   1       0.714  -4.534   2.141  0.00  0.00     0.062 A 
ATOM      7  F   UNL d   1       0.484  -5.854   2.205  0.00  0.00    -0.097 F 
ATOM      8  F1  UNL d   1      -1.372  -4.121   3.150  0.00  0.00    -0.096 F 
ATOM      9  I   UNL d   1      -1.423  -0.924   3.284  0.00  0.00    -0.060 I 
ATOM     10  F2  UNL d   1       1.445  -0.486   1.932  0.00  0.00    -0.096 F 
ATOM     11  F3  UNL d   1       3.280  -2.243   0.996  0.00  0.00    -0.097 F 
ATOM     12  F4  UNL d   1       2.812  -4.928   1.127  0.00  0.00    -0.092 F 
ENDROOT
TORSDOF 0
ENDMDL
