MODEL 1
REMARK minimizedAffinity 7.41860485
REMARK minimizedRMSD -1
REMARK  0 active torsions:
REMARK  status: ('A' for Active; 'I' for Inactive)
ROOT
ATOM      1  C   UNL d   1       2.482   1.895  -1.813  0.00  0.00     0.124 A 
ATOM      2  C1  UNL d   1       1.508   0.936  -2.054  0.00  0.00     0.062 A 
ATOM      3  C2  UNL d   1       1.454  -0.218  -1.278  0.00  0.00     0.162 A 
ATOM      4  C3  UNL d   1       2.376  -0.419  -0.251  0.00  0.00    -0.034 A 
ATOM      5  C4  UNL d   1       3.353   0.550  -0.014  0.00  0.00     0.162 A 
ATOM      6  C5  UNL d   1       3.403   1.701  -0.793  0.00  0.00     0.062 A 
ATOM      7  F   UNL d   1       4.345   2.627  -0.558  0.00  0.00    -0.097 F 
ATOM      8  F1  UNL d   1       4.256   0.389   0.965  0.00  0.00    -0.096 F 
ATOM      9  I   UNL d   1       2.299  -2.143   0.913  0.00  0.00    -0.060 I 
ATOM     10  F2  UNL d   1       0.502  -1.128  -1.533  0.00  0.00    -0.096 F 
ATOM     11  F3  UNL d   1       0.617   1.120  -3.039  0.00  0.00    -0.097 F 
ATOM     12  F4  UNL d   1       2.532   3.004  -2.562  0.00  0.00    -0.092 F 
ENDROOT
TORSDOF 0
ENDMDL
