MODEL 1
REMARK minimizedAffinity 20.7410431
REMARK minimizedRMSD -1
REMARK  0 active torsions:
REMARK  status: ('A' for Active; 'I' for Inactive)
ROOT
ATOM      1  C   UNL d   1       2.167  -2.719   0.661  0.00  0.00     0.124 A 
ATOM      2  C1  UNL d   1       1.314  -2.291  -0.346  0.00  0.00     0.062 A 
ATOM      3  C2  UNL d   1       0.142  -1.611  -0.029  0.00  0.00     0.162 A 
ATOM      4  C3  UNL d   1      -0.185  -1.354   1.302  0.00  0.00    -0.034 A 
ATOM      5  C4  UNL d   1       0.677  -1.789   2.311  0.00  0.00     0.162 A 
ATOM      6  C5  UNL d   1       1.848  -2.469   1.988  0.00  0.00     0.062 A 
ATOM      7  F   UNL d   1       2.670  -2.882   2.963  0.00  0.00    -0.097 F 
ATOM      8  F1  UNL d   1       0.394  -1.559   3.601  0.00  0.00    -0.096 F 
ATOM      9  I   UNL d   1      -1.937  -0.338   1.781  0.00  0.00    -0.060 I 
ATOM     10  F2  UNL d   1      -0.664  -1.208  -1.023  0.00  0.00    -0.096 F 
ATOM     11  F3  UNL d   1       1.619  -2.533  -1.629  0.00  0.00    -0.097 F 
ATOM     12  F4  UNL d   1       3.293  -3.374   0.353  0.00  0.00    -0.092 F 
ENDROOT
TORSDOF 0
ENDMDL
