MODEL 1
REMARK minimizedAffinity 10.0567751
REMARK minimizedRMSD -1
REMARK  0 active torsions:
REMARK  status: ('A' for Active; 'I' for Inactive)
ROOT
ATOM      1  C   UNL d   1       0.142  -3.734   1.411  0.00  0.00     0.124 A 
ATOM      2  C1  UNL d   1      -0.525  -3.041   2.412  0.00  0.00     0.062 A 
ATOM      3  C2  UNL d   1      -0.078  -1.786   2.812  0.00  0.00     0.162 A 
ATOM      4  C3  UNL d   1       1.043  -1.213   2.210  0.00  0.00    -0.034 A 
ATOM      5  C4  UNL d   1       1.710  -1.917   1.205  0.00  0.00     0.162 A 
ATOM      6  C5  UNL d   1       1.258  -3.171   0.809  0.00  0.00     0.062 A 
ATOM      7  F   UNL d   1       1.904  -3.839  -0.158  0.00  0.00    -0.097 F 
ATOM      8  F1  UNL d   1       2.791  -1.396   0.606  0.00  0.00    -0.096 F 
ATOM      9  I   UNL d   1       1.716   0.664   2.806  0.00  0.00    -0.060 I 
ATOM     10  F2  UNL d   1      -0.742  -1.139   3.781  0.00  0.00    -0.096 F 
ATOM     11  F3  UNL d   1      -1.604  -3.583   2.996  0.00  0.00    -0.097 F 
ATOM     12  F4  UNL d   1      -0.291  -4.943   1.029  0.00  0.00    -0.092 F 
ENDROOT
TORSDOF 0
ENDMDL
