MODEL 1
REMARK minimizedAffinity 13.9377508
REMARK minimizedRMSD -1
REMARK  0 active torsions:
REMARK  status: ('A' for Active; 'I' for Inactive)
ROOT
ATOM      1  C   UNL d   1       2.223   2.497  -5.059  0.00  0.00     0.124 A 
ATOM      2  C1  UNL d   1       3.559   2.157  -4.904  0.00  0.00     0.062 A 
ATOM      3  C2  UNL d   1       4.552   3.113  -5.100  0.00  0.00     0.162 A 
ATOM      4  C3  UNL d   1       4.212   4.419  -5.452  0.00  0.00    -0.034 A 
ATOM      5  C4  UNL d   1       2.865   4.753  -5.607  0.00  0.00     0.162 A 
ATOM      6  C5  UNL d   1       1.877   3.794  -5.410  0.00  0.00     0.062 A 
ATOM      7  F   UNL d   1       0.586   4.125  -5.560  0.00  0.00    -0.097 F 
ATOM      8  F1  UNL d   1       2.503   6.000  -5.946  0.00  0.00    -0.096 F 
ATOM      9  I   UNL d   1       5.693   5.851  -5.746  0.00  0.00    -0.060 I 
ATOM     10  F2  UNL d   1       5.836   2.757  -4.943  0.00  0.00    -0.096 F 
ATOM     11  F3  UNL d   1       3.896   0.904  -4.565  0.00  0.00    -0.097 F 
ATOM     12  F4  UNL d   1       1.270   1.575  -4.870  0.00  0.00    -0.092 F 
ENDROOT
TORSDOF 0
ENDMDL
