MODEL 1
REMARK minimizedAffinity 19.553606
REMARK minimizedRMSD -1
REMARK  0 active torsions:
REMARK  status: ('A' for Active; 'I' for Inactive)
ROOT
ATOM      1  C   UNL d   1       1.777  -4.034  -0.209  0.00  0.00     0.124 A 
ATOM      2  C1  UNL d   1       0.611  -4.494   0.387  0.00  0.00     0.062 A 
ATOM      3  C2  UNL d   1      -0.140  -3.652   1.201  0.00  0.00     0.162 A 
ATOM      4  C3  UNL d   1       0.273  -2.338   1.425  0.00  0.00    -0.034 A 
ATOM      5  C4  UNL d   1       1.447  -1.882   0.824  0.00  0.00     0.162 A 
ATOM      6  C5  UNL d   1       2.194  -2.728   0.010  0.00  0.00     0.062 A 
ATOM      7  F   UNL d   1       3.320  -2.281  -0.564  0.00  0.00    -0.097 F 
ATOM      8  F1  UNL d   1       1.873  -0.625   1.017  0.00  0.00    -0.096 F 
ATOM      9  I   UNL d   1      -0.847  -1.075   2.642  0.00  0.00    -0.060 I 
ATOM     10  F2  UNL d   1      -1.262  -4.124   1.763  0.00  0.00    -0.096 F 
ATOM     11  F3  UNL d   1       0.206  -5.756   0.177  0.00  0.00    -0.097 F 
ATOM     12  F4  UNL d   1       2.498  -4.847  -0.991  0.00  0.00    -0.092 F 
ENDROOT
TORSDOF 0
ENDMDL
