MODEL 1
REMARK minimizedAffinity 9.76458836
REMARK minimizedRMSD -1
REMARK  0 active torsions:
REMARK  status: ('A' for Active; 'I' for Inactive)
ROOT
ATOM      1  C   UNL d   1      -3.002   3.011  -3.454  0.00  0.00     0.124 A 
ATOM      2  C1  UNL d   1      -1.678   2.598  -3.505  0.00  0.00     0.062 A 
ATOM      3  C2  UNL d   1      -0.743   3.331  -4.231  0.00  0.00     0.162 A 
ATOM      4  C3  UNL d   1      -1.129   4.485  -4.912  0.00  0.00    -0.034 A 
ATOM      5  C4  UNL d   1      -2.463   4.894  -4.857  0.00  0.00     0.162 A 
ATOM      6  C5  UNL d   1      -3.393   4.158  -4.130  0.00  0.00     0.062 A 
ATOM      7  F   UNL d   1      -4.672   4.559  -4.082  0.00  0.00    -0.097 F 
ATOM      8  F1  UNL d   1      -2.868   5.999  -5.500  0.00  0.00    -0.096 F 
ATOM      9  I   UNL d   1       0.265   5.584  -5.998  0.00  0.00    -0.060 I 
ATOM     10  F2  UNL d   1       0.530   2.908  -4.262  0.00  0.00    -0.096 F 
ATOM     11  F3  UNL d   1      -1.297   1.490  -2.853  0.00  0.00    -0.097 F 
ATOM     12  F4  UNL d   1      -3.899   2.304  -2.756  0.00  0.00    -0.092 F 
ENDROOT
TORSDOF 0
ENDMDL
