MODEL 1
REMARK minimizedAffinity 17.5400009
REMARK minimizedRMSD -1
REMARK  0 active torsions:
REMARK  status: ('A' for Active; 'I' for Inactive)
ROOT
ATOM      1  C   UNL d   1       0.742  -4.536   0.300  0.00  0.00     0.124 A 
ATOM      2  C1  UNL d   1      -0.114  -4.645   1.387  0.00  0.00     0.062 A 
ATOM      3  C2  UNL d   1      -0.399  -3.530   2.169  0.00  0.00     0.162 A 
ATOM      4  C3  UNL d   1       0.172  -2.293   1.866  0.00  0.00    -0.034 A 
ATOM      5  C4  UNL d   1       1.033  -2.191   0.772  0.00  0.00     0.162 A 
ATOM      6  C5  UNL d   1       1.314  -3.309  -0.007  0.00  0.00     0.062 A 
ATOM      7  F   UNL d   1       2.141  -3.201  -1.057  0.00  0.00    -0.097 F 
ATOM      8  F1  UNL d   1       1.599  -1.018   0.452  0.00  0.00    -0.096 F 
ATOM      9  I   UNL d   1      -0.251  -0.623   3.033  0.00  0.00    -0.060 I 
ATOM     10  F2  UNL d   1      -1.229  -3.665   3.213  0.00  0.00    -0.096 F 
ATOM     11  F3  UNL d   1      -0.668  -5.829   1.685  0.00  0.00    -0.097 F 
ATOM     12  F4  UNL d   1       1.014  -5.611  -0.451  0.00  0.00    -0.092 F 
ENDROOT
TORSDOF 0
ENDMDL
