MODEL 1
REMARK minimizedAffinity 18.9630566
REMARK minimizedRMSD -1
REMARK  0 active torsions:
REMARK  status: ('A' for Active; 'I' for Inactive)
ROOT
ATOM      1  C   UNL d   1      -0.224  -0.207   2.981  0.00  0.00     0.124 A 
ATOM      2  C1  UNL d   1      -1.008  -0.967   2.125  0.00  0.00     0.062 A 
ATOM      3  C2  UNL d   1      -0.414  -1.869   1.246  0.00  0.00     0.162 A 
ATOM      4  C3  UNL d   1       0.973  -2.017   1.221  0.00  0.00    -0.034 A 
ATOM      5  C4  UNL d   1       1.755  -1.248   2.085  0.00  0.00     0.162 A 
ATOM      6  C5  UNL d   1       1.157  -0.348   2.961  0.00  0.00     0.062 A 
ATOM      7  F   UNL d   1       1.916   0.385   3.788  0.00  0.00    -0.097 F 
ATOM      8  F1  UNL d   1       3.091  -1.365   2.087  0.00  0.00    -0.096 F 
ATOM      9  I   UNL d   1       1.865  -3.364  -0.090  0.00  0.00    -0.060 I 
ATOM     10  F2  UNL d   1      -1.196  -2.590   0.430  0.00  0.00    -0.096 F 
ATOM     11  F3  UNL d   1      -2.342  -0.831   2.142  0.00  0.00    -0.097 F 
ATOM     12  F4  UNL d   1      -0.798   0.661   3.824  0.00  0.00    -0.092 F 
ENDROOT
TORSDOF 0
ENDMDL
