MODEL 1
REMARK minimizedAffinity 25.4410152
REMARK minimizedRMSD -1
REMARK  0 active torsions:
REMARK  status: ('A' for Active; 'I' for Inactive)
ROOT
ATOM      1  C   UNL d   1      -0.249  -2.048   1.875  0.00  0.00     0.124 A 
ATOM      2  C1  UNL d   1       0.217  -0.908   2.514  0.00  0.00     0.062 A 
ATOM      3  C2  UNL d   1      -0.673   0.088   2.906  0.00  0.00     0.162 A 
ATOM      4  C3  UNL d   1      -2.039  -0.052   2.660  0.00  0.00    -0.034 A 
ATOM      5  C4  UNL d   1      -2.500  -1.201   2.015  0.00  0.00     0.162 A 
ATOM      6  C5  UNL d   1      -1.607  -2.194   1.626  0.00  0.00     0.062 A 
ATOM      7  F   UNL d   1      -2.059  -3.295   1.008  0.00  0.00    -0.097 F 
ATOM      8  F1  UNL d   1      -3.807  -1.368   1.763  0.00  0.00    -0.096 F 
ATOM      9  I   UNL d   1      -3.373   1.435   3.244  0.00  0.00    -0.060 I 
ATOM     10  F2  UNL d   1      -0.195   1.180   3.522  0.00  0.00    -0.096 F 
ATOM     11  F3  UNL d   1       1.528  -0.764   2.755  0.00  0.00    -0.097 F 
ATOM     12  F4  UNL d   1       0.609  -3.004   1.498  0.00  0.00    -0.092 F 
ENDROOT
TORSDOF 0
ENDMDL
