MODEL 1
REMARK minimizedAffinity 2.36693859
REMARK minimizedRMSD -1
REMARK  0 active torsions:
REMARK  status: ('A' for Active; 'I' for Inactive)
ROOT
ATOM      1  C   UNL d   1       0.556   0.316   0.429  0.00  0.00     0.077 C 
ATOM      2  C1  UNL d   1       0.901   1.600   1.122  0.00  0.00    -0.074 A 
ATOM      3  C2  UNL d   1       0.932   2.810   0.420  0.00  0.00    -0.005 A 
ATOM      4  C3  UNL d   1       1.246   3.998   1.080  0.00  0.00     0.006 A 
ATOM      5  C4  UNL d   1       1.531   3.989   2.446  0.00  0.00    -0.005 A 
ATOM      6  C5  UNL d   1       1.503   2.789   3.165  0.00  0.00    -0.074 A 
ATOM      7  C6  UNL d   1       1.798   2.763   4.635  0.00  0.00     0.077 C 
ATOM      8  C7  UNL d   1       1.181   1.601   2.496  0.00  0.00    -0.001 A 
ENDROOT
TORSDOF 0
ENDMDL
