MODEL 1
REMARK minimizedAffinity -0.871420145
REMARK minimizedRMSD -1
REMARK  0 active torsions:
REMARK  status: ('A' for Active; 'I' for Inactive)
ROOT
ATOM      1  C   UNL d   1      -2.218   2.712  -3.893  0.00  0.00     0.077 C 
ATOM      2  C1  UNL d   1      -3.528   2.710  -4.623  0.00  0.00    -0.074 A 
ATOM      3  C2  UNL d   1      -4.162   1.509  -4.957  0.00  0.00    -0.005 A 
ATOM      4  C3  UNL d   1      -5.385   1.523  -5.629  0.00  0.00     0.006 A 
ATOM      5  C4  UNL d   1      -5.984   2.735  -5.973  0.00  0.00    -0.005 A 
ATOM      6  C5  UNL d   1      -5.365   3.946  -5.646  0.00  0.00    -0.074 A 
ATOM      7  C6  UNL d   1      -6.000   5.258  -6.000  0.00  0.00     0.077 C 
ATOM      8  C7  UNL d   1      -4.140   3.924  -4.965  0.00  0.00    -0.001 A 
ENDROOT
TORSDOF 0
ENDMDL
