MODEL 1
REMARK minimizedAffinity -0.134927735
REMARK minimizedRMSD -1
REMARK  0 active torsions:
REMARK  status: ('A' for Active; 'I' for Inactive)
ROOT
ATOM      1  C   UNL d   1      -1.351   2.845  -3.118  0.00  0.00     0.077 C 
ATOM      2  C1  UNL d   1      -2.314   3.406  -4.122  0.00  0.00    -0.074 A 
ATOM      3  C2  UNL d   1      -1.898   4.350  -5.066  0.00  0.00    -0.005 A 
ATOM      4  C3  UNL d   1      -2.803   4.856  -6.000  0.00  0.00     0.006 A 
ATOM      5  C4  UNL d   1      -4.129   4.424  -5.998  0.00  0.00    -0.005 A 
ATOM      6  C5  UNL d   1      -4.563   3.480  -5.062  0.00  0.00    -0.074 A 
ATOM      7  C6  UNL d   1      -5.983   2.998  -5.053  0.00  0.00     0.077 C 
ATOM      8  C7  UNL d   1      -3.647   2.971  -4.131  0.00  0.00    -0.001 A 
ENDROOT
TORSDOF 0
ENDMDL
