MODEL 1
REMARK minimizedAffinity 2.23451042
REMARK minimizedRMSD -1
REMARK  0 active torsions:
REMARK  status: ('A' for Active; 'I' for Inactive)
ROOT
ATOM      1  C   UNL d   1      -4.532   0.378  -3.750  0.00  0.00     0.077 C 
ATOM      2  C1  UNL d   1      -4.391   1.698  -4.450  0.00  0.00    -0.074 A 
ATOM      3  C2  UNL d   1      -5.356   2.133  -5.364  0.00  0.00    -0.005 A 
ATOM      4  C3  UNL d   1      -5.216   3.367  -6.000  0.00  0.00     0.006 A 
ATOM      5  C4  UNL d   1      -4.112   4.176  -5.729  0.00  0.00    -0.005 A 
ATOM      6  C5  UNL d   1      -3.138   3.757  -4.817  0.00  0.00    -0.074 A 
ATOM      7  C6  UNL d   1      -1.950   4.619  -4.507  0.00  0.00     0.077 C 
ATOM      8  C7  UNL d   1      -3.289   2.520  -4.177  0.00  0.00    -0.001 A 
ENDROOT
TORSDOF 0
ENDMDL
