MODEL 1
REMARK minimizedAffinity 0.511957109
REMARK minimizedRMSD -1
REMARK  0 active torsions:
REMARK  status: ('A' for Active; 'I' for Inactive)
ROOT
ATOM      1  C   UNL d   1      -1.850   4.381  -5.208  0.00  0.00     0.077 C 
ATOM      2  C1  UNL d   1      -3.299   4.027  -5.367  0.00  0.00    -0.074 A 
ATOM      3  C2  UNL d   1      -4.220   4.966  -5.842  0.00  0.00    -0.005 A 
ATOM      4  C3  UNL d   1      -5.563   4.620  -5.994  0.00  0.00     0.006 A 
ATOM      5  C4  UNL d   1      -5.997   3.333  -5.672  0.00  0.00    -0.005 A 
ATOM      6  C5  UNL d   1      -5.090   2.381  -5.197  0.00  0.00    -0.074 A 
ATOM      7  C6  UNL d   1      -5.538   0.991  -4.856  0.00  0.00     0.077 C 
ATOM      8  C7  UNL d   1      -3.741   2.735  -5.054  0.00  0.00    -0.001 A 
ENDROOT
TORSDOF 0
ENDMDL
