MODEL 1
REMARK minimizedAffinity -0.910842657
REMARK minimizedRMSD -1
REMARK  0 active torsions:
REMARK  status: ('A' for Active; 'I' for Inactive)
ROOT
ATOM      1  C   UNL d   1      -1.886   4.610  -4.504  0.00  0.00     0.077 C 
ATOM      2  C1  UNL d   1      -3.323   4.337  -4.840  0.00  0.00    -0.074 A 
ATOM      3  C2  UNL d   1      -4.036   5.188  -5.689  0.00  0.00    -0.005 A 
ATOM      4  C3  UNL d   1      -5.369   4.917  -6.000  0.00  0.00     0.006 A 
ATOM      5  C4  UNL d   1      -6.000   3.793  -5.465  0.00  0.00    -0.005 A 
ATOM      6  C5  UNL d   1      -5.302   2.930  -4.614  0.00  0.00    -0.074 A 
ATOM      7  C6  UNL d   1      -5.963   1.713  -4.038  0.00  0.00     0.077 C 
ATOM      8  C7  UNL d   1      -3.962   3.206  -4.312  0.00  0.00    -0.001 A 
ENDROOT
TORSDOF 0
ENDMDL
