MODEL 1
REMARK minimizedAffinity -0.106573828
REMARK minimizedRMSD -1
REMARK  0 active torsions:
REMARK  status: ('A' for Active; 'I' for Inactive)
ROOT
ATOM      1  C   UNL d   1      -5.997   1.398  -3.813  0.00  0.00     0.077 C 
ATOM      2  C1  UNL d   1      -5.312   2.549  -4.487  0.00  0.00    -0.074 A 
ATOM      3  C2  UNL d   1      -6.000   3.367  -5.388  0.00  0.00    -0.005 A 
ATOM      4  C3  UNL d   1      -5.352   4.441  -6.000  0.00  0.00     0.006 A 
ATOM      5  C4  UNL d   1      -4.011   4.706  -5.716  0.00  0.00    -0.005 A 
ATOM      6  C5  UNL d   1      -3.308   3.899  -4.816  0.00  0.00    -0.074 A 
ATOM      7  C6  UNL d   1      -1.869   4.177  -4.493  0.00  0.00     0.077 C 
ATOM      8  C7  UNL d   1      -3.968   2.827  -4.201  0.00  0.00    -0.001 A 
ENDROOT
TORSDOF 0
ENDMDL
