MODEL 1
REMARK minimizedAffinity 3.46814656
REMARK minimizedRMSD -1
REMARK  0 active torsions:
REMARK  status: ('A' for Active; 'I' for Inactive)
ROOT
ATOM      1  C   UNL d   1      -2.600   5.251  -4.124  0.00  0.00     0.077 C 
ATOM      2  C1  UNL d   1      -3.575   4.204  -4.574  0.00  0.00    -0.074 A 
ATOM      3  C2  UNL d   1      -4.503   4.473  -5.585  0.00  0.00    -0.005 A 
ATOM      4  C3  UNL d   1      -5.397   3.486  -5.999  0.00  0.00     0.006 A 
ATOM      5  C4  UNL d   1      -5.372   2.222  -5.407  0.00  0.00    -0.005 A 
ATOM      6  C5  UNL d   1      -4.450   1.935  -4.395  0.00  0.00    -0.074 A 
ATOM      7  C6  UNL d   1      -4.404   0.579  -3.756  0.00  0.00     0.077 C 
ATOM      8  C7  UNL d   1      -3.551   2.930  -3.990  0.00  0.00    -0.001 A 
ENDROOT
TORSDOF 0
ENDMDL
