MODEL 1
REMARK minimizedAffinity 1.97718215
REMARK minimizedRMSD -1
REMARK  0 active torsions:
REMARK  status: ('A' for Active; 'I' for Inactive)
ROOT
ATOM      1  C   UNL d   1       0.787  -1.355   3.394  0.00  0.00     0.077 C 
ATOM      2  C1  UNL d   1       0.677  -0.344   2.292  0.00  0.00    -0.074 A 
ATOM      3  C2  UNL d   1       0.673  -0.741   0.951  0.00  0.00    -0.005 A 
ATOM      4  C3  UNL d   1       0.560   0.210  -0.063  0.00  0.00     0.006 A 
ATOM      5  C4  UNL d   1       0.450   1.565   0.253  0.00  0.00    -0.005 A 
ATOM      6  C5  UNL d   1       0.452   1.980   1.588  0.00  0.00    -0.074 A 
ATOM      7  C6  UNL d   1       0.325   3.431   1.946  0.00  0.00     0.077 C 
ATOM      8  C7  UNL d   1       0.558   1.018   2.602  0.00  0.00    -0.001 A 
ENDROOT
TORSDOF 0
ENDMDL
