MODEL 1
REMARK minimizedAffinity 5.23812914
REMARK minimizedRMSD -1
REMARK  0 active torsions:
REMARK  status: ('A' for Active; 'I' for Inactive)
ROOT
ATOM      1  C   UNL d   1      -1.310   5.656  -4.817  0.00  0.00     0.077 C 
ATOM      2  C1  UNL d   1      -2.482   4.782  -4.484  0.00  0.00    -0.074 A 
ATOM      3  C2  UNL d   1      -2.454   3.937  -3.370  0.00  0.00    -0.005 A 
ATOM      4  C3  UNL d   1      -3.555   3.136  -3.066  0.00  0.00     0.006 A 
ATOM      5  C4  UNL d   1      -4.693   3.172  -3.872  0.00  0.00    -0.005 A 
ATOM      6  C5  UNL d   1      -4.740   4.012  -4.990  0.00  0.00    -0.074 A 
ATOM      7  C6  UNL d   1      -5.959   4.070  -5.861  0.00  0.00     0.077 C 
ATOM      8  C7  UNL d   1      -3.632   4.818  -5.284  0.00  0.00    -0.001 A 
ENDROOT
TORSDOF 0
ENDMDL
