MODEL 1
REMARK minimizedAffinity 5.82921219
REMARK minimizedRMSD -1
REMARK  0 active torsions:
REMARK  status: ('A' for Active; 'I' for Inactive)
ROOT
ATOM      1  C   UNL d   1      -5.897   4.640  -6.000  0.00  0.00     0.077 C 
ATOM      2  C1  UNL d   1      -5.477   3.331  -5.400  0.00  0.00    -0.074 A 
ATOM      3  C2  UNL d   1      -6.000   2.123  -5.873  0.00  0.00    -0.005 A 
ATOM      4  C3  UNL d   1      -5.593   0.913  -5.312  0.00  0.00     0.006 A 
ATOM      5  C4  UNL d   1      -4.660   0.898  -4.274  0.00  0.00    -0.005 A 
ATOM      6  C5  UNL d   1      -4.126   2.096  -3.789  0.00  0.00    -0.074 A 
ATOM      7  C6  UNL d   1      -3.115   2.097  -2.681  0.00  0.00     0.077 C 
ATOM      8  C7  UNL d   1      -4.535   3.308  -4.363  0.00  0.00    -0.001 A 
ENDROOT
TORSDOF 0
ENDMDL
