MODEL 1
REMARK minimizedAffinity 1.06441486
REMARK minimizedRMSD -1
REMARK  0 active torsions:
REMARK  status: ('A' for Active; 'I' for Inactive)
ROOT
ATOM      1  C   UNL d   1      -2.162   2.937  -3.967  0.00  0.00     0.077 C 
ATOM      2  C1  UNL d   1      -3.482   2.928  -4.680  0.00  0.00    -0.074 A 
ATOM      3  C2  UNL d   1      -4.110   1.725  -5.016  0.00  0.00    -0.005 A 
ATOM      4  C3  UNL d   1      -5.341   1.733  -5.671  0.00  0.00     0.006 A 
ATOM      5  C4  UNL d   1      -5.957   2.943  -5.995  0.00  0.00    -0.005 A 
ATOM      6  C5  UNL d   1      -5.344   4.156  -5.667  0.00  0.00    -0.074 A 
ATOM      7  C6  UNL d   1      -5.997   5.465  -5.999  0.00  0.00     0.077 C 
ATOM      8  C7  UNL d   1      -4.110   4.140  -5.003  0.00  0.00    -0.001 A 
ENDROOT
TORSDOF 0
ENDMDL
