MODEL 1
REMARK minimizedAffinity -0.233069405
REMARK minimizedRMSD -1
REMARK  0 active torsions:
REMARK  status: ('A' for Active; 'I' for Inactive)
ROOT
ATOM      1  C   UNL d   1       0.369  -0.826   3.248  0.00  0.00     0.077 C 
ATOM      2  C1  UNL d   1       0.330   0.379   2.356  0.00  0.00    -0.074 A 
ATOM      3  C2  UNL d   1      -0.009   1.638   2.863  0.00  0.00    -0.005 A 
ATOM      4  C3  UNL d   1      -0.032   2.751   2.024  0.00  0.00     0.006 A 
ATOM      5  C4  UNL d   1       0.282   2.618   0.671  0.00  0.00    -0.005 A 
ATOM      6  C5  UNL d   1       0.623   1.367   0.146  0.00  0.00    -0.074 A 
ATOM      7  C6  UNL d   1       0.972   1.207  -1.304  0.00  0.00     0.077 C 
ATOM      8  C7  UNL d   1       0.651   0.254   0.998  0.00  0.00    -0.001 A 
ENDROOT
TORSDOF 0
ENDMDL
