MODEL 1
REMARK minimizedAffinity 2.43870831
REMARK minimizedRMSD -1
REMARK  0 active torsions:
REMARK  status: ('A' for Active; 'I' for Inactive)
ROOT
ATOM      1  C   UNL d   1      -1.703   3.774  -4.781  0.00  0.00     0.077 C 
ATOM      2  C1  UNL d   1      -3.196   3.635  -4.803  0.00  0.00    -0.074 A 
ATOM      3  C2  UNL d   1      -3.915   3.792  -5.993  0.00  0.00    -0.005 A 
ATOM      4  C3  UNL d   1      -5.302   3.650  -6.000  0.00  0.00     0.006 A 
ATOM      5  C4  UNL d   1      -5.984   3.351  -4.820  0.00  0.00    -0.005 A 
ATOM      6  C5  UNL d   1      -5.282   3.190  -3.621  0.00  0.00    -0.074 A 
ATOM      7  C6  UNL d   1      -5.999   2.859  -2.346  0.00  0.00     0.077 C 
ATOM      8  C7  UNL d   1      -3.888   3.327  -3.623  0.00  0.00    -0.001 A 
ENDROOT
TORSDOF 0
ENDMDL
