MODEL 1
REMARK minimizedAffinity -2.76741862
REMARK minimizedRMSD -1
REMARK  0 active torsions:
REMARK  status: ('A' for Active; 'I' for Inactive)
ROOT
ATOM      1  C   UNL d   1      -1.219   5.654  -5.977  0.00  0.00     0.077 C 
ATOM      2  C1  UNL d   1      -2.164   4.757  -5.235  0.00  0.00    -0.074 A 
ATOM      3  C2  UNL d   1      -2.018   4.536  -3.862  0.00  0.00    -0.005 A 
ATOM      4  C3  UNL d   1      -2.911   3.706  -3.184  0.00  0.00     0.006 A 
ATOM      5  C4  UNL d   1      -3.957   3.090  -3.872  0.00  0.00    -0.005 A 
ATOM      6  C5  UNL d   1      -4.120   3.299  -5.245  0.00  0.00    -0.074 A 
ATOM      7  C6  UNL d   1      -5.245   2.653  -5.996  0.00  0.00     0.077 C 
ATOM      8  C7  UNL d   1      -3.223   4.140  -5.917  0.00  0.00    -0.001 A 
ENDROOT
TORSDOF 0
ENDMDL
