MODEL 1
REMARK minimizedAffinity 5.36186934
REMARK minimizedRMSD -1
REMARK  0 active torsions:
REMARK  status: ('A' for Active; 'I' for Inactive)
ROOT
ATOM      1  C   UNL d   1       1.166   5.525  -0.101  0.00  0.00     0.077 C 
ATOM      2  C1  UNL d   1       0.983   4.261   0.686  0.00  0.00    -0.074 A 
ATOM      3  C2  UNL d   1       0.505   3.097   0.076  0.00  0.00    -0.005 A 
ATOM      4  C3  UNL d   1       0.349   1.927   0.818  0.00  0.00     0.006 A 
ATOM      5  C4  UNL d   1       0.670   1.908   2.176  0.00  0.00    -0.005 A 
ATOM      6  C5  UNL d   1       1.151   3.062   2.803  0.00  0.00    -0.074 A 
ATOM      7  C6  UNL d   1       1.509   3.057   4.259  0.00  0.00     0.077 C 
ATOM      8  C7  UNL d   1       1.311   4.233   2.049  0.00  0.00    -0.001 A 
ENDROOT
TORSDOF 0
ENDMDL
