MODEL 1
REMARK minimizedAffinity 1.5032624
REMARK minimizedRMSD -1
REMARK  0 active torsions:
REMARK  status: ('A' for Active; 'I' for Inactive)
ROOT
ATOM      1  C   UNL d   1       1.092  -1.148   3.631  0.00  0.00     0.077 C 
ATOM      2  C1  UNL d   1       1.169  -0.440   2.311  0.00  0.00    -0.074 A 
ATOM      3  C2  UNL d   1       2.120  -0.807   1.353  0.00  0.00    -0.005 A 
ATOM      4  C3  UNL d   1       2.173  -0.146   0.126  0.00  0.00     0.006 A 
ATOM      5  C4  UNL d   1       1.278   0.887  -0.155  0.00  0.00    -0.005 A 
ATOM      6  C5  UNL d   1       0.320   1.267   0.790  0.00  0.00    -0.074 A 
ATOM      7  C6  UNL d   1      -0.655   2.369   0.500  0.00  0.00     0.077 C 
ATOM      8  C7  UNL d   1       0.268   0.593   2.018  0.00  0.00    -0.001 A 
ENDROOT
TORSDOF 0
ENDMDL
