MODEL 1
REMARK minimizedAffinity -4.06159925
REMARK minimizedRMSD -1
REMARK  0 active torsions:
REMARK  status: ('A' for Active; 'I' for Inactive)
ROOT
ATOM      1  C   UNL d   1       3.585   0.614   1.285  0.00  0.00     0.020 A 
ATOM      2  C1  UNL d   1       2.302   1.089   1.559  0.00  0.00     0.020 A 
ATOM      3  C2  UNL d   1       1.191   0.473   0.979  0.00  0.00     0.034 A 
ATOM      4  C3  UNL d   1       1.360  -0.622   0.123  0.00  0.00     0.017 A 
ATOM      5  C4  UNL d   1       2.648  -1.097  -0.151  0.00  0.00     0.017 A 
ATOM      6  C5  UNL d   1       3.757  -0.477   0.432  0.00  0.00     0.034 A 
ATOM      7 Cl   UNL d   1       2.936  -2.443  -1.197  0.00  0.00    -0.070 Cl
ATOM      8 Cl1  UNL d   1      -0.058  -1.335  -0.559  0.00  0.00    -0.070 Cl
ENDROOT
TORSDOF 0
ENDMDL
