MODEL 1
REMARK minimizedAffinity -4.26430511
REMARK minimizedRMSD -1
REMARK  0 active torsions:
REMARK  status: ('A' for Active; 'I' for Inactive)
ROOT
ATOM      1  C   UNL d   1       3.152  -1.286   0.540  0.00  0.00     0.020 A 
ATOM      2  C1  UNL d   1       1.989  -1.975   0.197  0.00  0.00     0.020 A 
ATOM      3  C2  UNL d   1       0.821  -1.269  -0.097  0.00  0.00     0.034 A 
ATOM      4  C3  UNL d   1       0.812   0.130  -0.049  0.00  0.00     0.017 A 
ATOM      5  C4  UNL d   1       1.980   0.820   0.295  0.00  0.00     0.017 A 
ATOM      6  C5  UNL d   1       3.147   0.109   0.588  0.00  0.00     0.034 A 
ATOM      7 Cl   UNL d   1       2.047   2.546   0.376  0.00  0.00    -0.070 Cl
ATOM      8 Cl1  UNL d   1      -0.668   0.938  -0.424  0.00  0.00    -0.070 Cl
ENDROOT
TORSDOF 0
ENDMDL
