MODEL 1
REMARK minimizedAffinity -3.80193949
REMARK minimizedRMSD -1
REMARK  0 active torsions:
REMARK  status: ('A' for Active; 'I' for Inactive)
ROOT
ATOM      1  C   UNL d   1       2.469   1.003   0.703  0.00  0.00     0.020 A 
ATOM      2  C1  UNL d   1       2.993  -0.268   0.470  0.00  0.00     0.020 A 
ATOM      3  C2  UNL d   1       2.143  -1.321   0.124  0.00  0.00     0.034 A 
ATOM      4  C3  UNL d   1       0.765  -1.106   0.011  0.00  0.00     0.017 A 
ATOM      5  C4  UNL d   1       0.240   0.170   0.245  0.00  0.00     0.017 A 
ATOM      6  C5  UNL d   1       1.095   1.221   0.590  0.00  0.00     0.034 A 
ATOM      7 Cl   UNL d   1      -1.450   0.514   0.124  0.00  0.00    -0.070 Cl
ATOM      8 Cl1  UNL d   1      -0.226  -2.454  -0.421  0.00  0.00    -0.070 Cl
ENDROOT
TORSDOF 0
ENDMDL
