MODEL 1
REMARK minimizedAffinity -4.76552248
REMARK minimizedRMSD -1
REMARK  0 active torsions:
REMARK  status: ('A' for Active; 'I' for Inactive)
ROOT
ATOM      1  C   UNL d   1       2.487   0.789   0.762  0.00  0.00     0.020 A 
ATOM      2  C1  UNL d   1       2.923  -0.523   0.586  0.00  0.00     0.020 A 
ATOM      3  C2  UNL d   1       2.008  -1.524   0.252  0.00  0.00     0.034 A 
ATOM      4  C3  UNL d   1       0.652  -1.214   0.093  0.00  0.00     0.017 A 
ATOM      5  C4  UNL d   1       0.216   0.104   0.270  0.00  0.00     0.017 A 
ATOM      6  C5  UNL d   1       1.136   1.102   0.605  0.00  0.00     0.034 A 
ATOM      7 Cl   UNL d   1      -1.441   0.564   0.092  0.00  0.00    -0.070 Cl
ATOM      8 Cl1  UNL d   1      -0.423  -2.501  -0.321  0.00  0.00    -0.070 Cl
ENDROOT
TORSDOF 0
ENDMDL
