MODEL 1
REMARK minimizedAffinity -5.63079071
REMARK minimizedRMSD -1
REMARK  0 active torsions:
REMARK  status: ('A' for Active; 'I' for Inactive)
ROOT
ATOM      1  C   UNL d   1       3.411   0.066   0.831  0.00  0.00     0.020 A 
ATOM      2  C1  UNL d   1       2.643  -1.097   0.821  0.00  0.00     0.020 A 
ATOM      3  C2  UNL d   1       1.316  -1.054   0.387  0.00  0.00     0.034 A 
ATOM      4  C3  UNL d   1       0.754   0.155  -0.038  0.00  0.00     0.017 A 
ATOM      5  C4  UNL d   1       1.526   1.322  -0.028  0.00  0.00     0.017 A 
ATOM      6  C5  UNL d   1       2.854   1.273   0.407  0.00  0.00     0.034 A 
ATOM      7 Cl   UNL d   1       0.902   2.851  -0.538  0.00  0.00    -0.070 Cl
ATOM      8 Cl1  UNL d   1      -0.893   0.135  -0.562  0.00  0.00    -0.070 Cl
ENDROOT
TORSDOF 0
ENDMDL
