MODEL 1
REMARK minimizedAffinity -4.07060909
REMARK minimizedRMSD -1
REMARK  0 active torsions:
REMARK  status: ('A' for Active; 'I' for Inactive)
ROOT
ATOM      1  C   UNL d   1       2.640   0.695   0.684  0.00  0.00     0.020 A 
ATOM      2  C1  UNL d   1       3.057  -0.627   0.538  0.00  0.00     0.020 A 
ATOM      3  C2  UNL d   1       2.186  -1.579   0.006  0.00  0.00     0.034 A 
ATOM      4  C3  UNL d   1       0.892  -1.211  -0.382  0.00  0.00     0.017 A 
ATOM      5  C4  UNL d   1       0.474   0.116  -0.235  0.00  0.00     0.017 A 
ATOM      6  C5  UNL d   1       1.351   1.066   0.298  0.00  0.00     0.034 A 
ATOM      7 Cl   UNL d   1      -1.106   0.647  -0.691  0.00  0.00    -0.070 Cl
ATOM      8 Cl1  UNL d   1      -0.132  -2.441  -1.033  0.00  0.00    -0.070 Cl
ENDROOT
TORSDOF 0
ENDMDL
