MODEL 1
REMARK minimizedAffinity -3.68228316
REMARK minimizedRMSD -1
REMARK  0 active torsions:
REMARK  status: ('A' for Active; 'I' for Inactive)
ROOT
ATOM      1  C   UNL d   1       1.672   0.815   0.056  0.00  0.00     0.020 A 
ATOM      2  C1  UNL d   1       2.268  -0.401  -0.275  0.00  0.00     0.020 A 
ATOM      3  C2  UNL d   1       1.486  -1.550  -0.406  0.00  0.00     0.034 A 
ATOM      4  C3  UNL d   1       0.102  -1.485  -0.205  0.00  0.00     0.017 A 
ATOM      5  C4  UNL d   1      -0.496  -0.264   0.127  0.00  0.00     0.017 A 
ATOM      6  C5  UNL d   1       0.293   0.883   0.256  0.00  0.00     0.034 A 
ATOM      7 Cl   UNL d   1      -2.197  -0.106   0.390  0.00  0.00    -0.070 Cl
ATOM      8 Cl1  UNL d   1      -0.805  -2.945  -0.383  0.00  0.00    -0.070 Cl
ENDROOT
TORSDOF 0
ENDMDL
