MODEL 1
REMARK minimizedAffinity -4.95751095
REMARK minimizedRMSD -1
REMARK  0 active torsions:
REMARK  status: ('A' for Active; 'I' for Inactive)
ROOT
ATOM      1  C   UNL d   1       3.947   0.532   0.913  0.00  0.00     0.020 A 
ATOM      2  C1  UNL d   1       3.676  -0.836   0.903  0.00  0.00     0.020 A 
ATOM      3  C2  UNL d   1       2.466  -1.305   0.388  0.00  0.00     0.034 A 
ATOM      4  C3  UNL d   1       1.521  -0.405  -0.120  0.00  0.00     0.017 A 
ATOM      5  C4  UNL d   1       1.794   0.967  -0.111  0.00  0.00     0.017 A 
ATOM      6  C5  UNL d   1       3.008   1.431   0.407  0.00  0.00     0.034 A 
ATOM      7 Cl   UNL d   1       0.678   2.138  -0.720  0.00  0.00    -0.070 Cl
ATOM      8 Cl1  UNL d   1       0.046  -1.055  -0.742  0.00  0.00    -0.070 Cl
ENDROOT
TORSDOF 0
ENDMDL
