MODEL 1
REMARK minimizedAffinity 6.1224823
REMARK minimizedRMSD -1
REMARK  1 active torsions:
REMARK  status: ('A' for Active; 'I' for Inactive)
REMARK    1  A    between atoms: C1_2  and  C2_3 
ROOT
ATOM      1  C2  UNL d   1       1.407  -2.160   2.583  0.00  0.00    -0.077 A 
ATOM      2  C3  UNL d   1       1.310  -1.215   3.615  0.00  0.00     0.002 A 
ATOM      3  C4  UNL d   1       0.085  -0.613   3.908  0.00  0.00     0.002 A 
ATOM      4  C5  UNL d   1      -1.052  -0.952   3.178  0.00  0.00    -0.004 A 
ATOM      5  C6  UNL d   1      -0.966  -1.889   2.149  0.00  0.00     0.002 A 
ATOM      6  C7  UNL d   1       0.258  -2.491   1.854  0.00  0.00     0.002 A 
ENDROOT
BRANCH   1   7
ATOM      7  C1  UNL d   1       2.717  -2.847   2.298  0.00  0.00     0.055 C 
ATOM      8  C   UNL d   1       2.500  -4.197   1.630  0.00  0.00     0.019 C 
ENDBRANCH   1   7
TORSDOF 1
ENDMDL
