MODEL 1
REMARK minimizedAffinity 8.34598541
REMARK minimizedRMSD -1
REMARK  1 active torsions:
REMARK  status: ('A' for Active; 'I' for Inactive)
REMARK    1  A    between atoms: C1_2  and  C2_3 
ROOT
ATOM      1  C2  UNL d   1       3.377  -4.132   1.438  0.00  0.00    -0.077 A 
ATOM      2  C3  UNL d   1       4.540  -3.602   2.015  0.00  0.00     0.002 A 
ATOM      3  C4  UNL d   1       5.778  -3.773   1.393  0.00  0.00     0.002 A 
ATOM      4  C5  UNL d   1       5.864  -4.469   0.189  0.00  0.00    -0.004 A 
ATOM      5  C6  UNL d   1       4.714  -5.001  -0.392  0.00  0.00     0.002 A 
ATOM      6  C7  UNL d   1       3.476  -4.833   0.229  0.00  0.00     0.002 A 
ENDROOT
BRANCH   1   7
ATOM      7  C1  UNL d   1       2.034  -3.907   2.082  0.00  0.00     0.055 C 
ATOM      8  C   UNL d   1       1.552  -2.479   1.872  0.00  0.00     0.019 C 
ENDBRANCH   1   7
TORSDOF 1
ENDMDL
