MODEL 1
REMARK minimizedAffinity -1.83036029
REMARK minimizedRMSD -1
REMARK  1 active torsions:
REMARK  status: ('A' for Active; 'I' for Inactive)
REMARK    1  A    between atoms: C1_2  and  C2_3 
ROOT
ATOM      1  C2  UNL d   1       3.339  -4.802   3.316  0.00  0.00    -0.077 A 
ATOM      2  C3  UNL d   1       3.272  -3.638   4.094  0.00  0.00     0.002 A 
ATOM      3  C4  UNL d   1       3.675  -3.656   5.430  0.00  0.00     0.002 A 
ATOM      4  C5  UNL d   1       4.152  -4.835   5.999  0.00  0.00    -0.004 A 
ATOM      5  C6  UNL d   1       4.221  -5.999   5.235  0.00  0.00     0.002 A 
ATOM      6  C7  UNL d   1       3.817  -5.983   3.899  0.00  0.00     0.002 A 
ENDROOT
BRANCH   1   7
ATOM      7  C1  UNL d   1       2.951  -4.773   1.861  0.00  0.00     0.055 C 
ATOM      8  C   UNL d   1       1.994  -3.626   1.567  0.00  0.00     0.019 C 
ENDBRANCH   1   7
TORSDOF 1
ENDMDL
