MODEL 1
REMARK minimizedAffinity 9.30886173
REMARK minimizedRMSD -1
REMARK  1 active torsions:
REMARK  status: ('A' for Active; 'I' for Inactive)
REMARK    1  A    between atoms: C1_2  and  C2_3 
ROOT
ATOM      1  C2  UNL d   1      -1.829  -0.289   3.354  0.00  0.00    -0.077 A 
ATOM      2  C3  UNL d   1      -0.486   0.108   3.422  0.00  0.00     0.002 A 
ATOM      3  C4  UNL d   1       0.521  -0.718   2.919  0.00  0.00     0.002 A 
ATOM      4  C5  UNL d   1       0.196  -1.944   2.343  0.00  0.00    -0.004 A 
ATOM      5  C6  UNL d   1      -1.136  -2.349   2.273  0.00  0.00     0.002 A 
ATOM      6  C7  UNL d   1      -2.144  -1.525   2.776  0.00  0.00     0.002 A 
ENDROOT
BRANCH   1   7
ATOM      7  C1  UNL d   1      -2.920   0.623   3.850  0.00  0.00     0.055 C 
ATOM      8  C   UNL d   1      -4.048   0.740   2.835  0.00  0.00     0.019 C 
ENDBRANCH   1   7
TORSDOF 1
ENDMDL
