MODEL 1
REMARK minimizedAffinity 8.70689392
REMARK minimizedRMSD -1
REMARK  1 active torsions:
REMARK  status: ('A' for Active; 'I' for Inactive)
REMARK    1  A    between atoms: C1_2  and  C2_3 
ROOT
ATOM      1  C2  UNL d   1       0.988  -1.035   0.745  0.00  0.00    -0.077 A 
ATOM      2  C3  UNL d   1       1.919  -0.001   0.917  0.00  0.00     0.002 A 
ATOM      3  C4  UNL d   1       2.091   0.967  -0.074  0.00  0.00     0.002 A 
ATOM      4  C5  UNL d   1       1.334   0.913  -1.242  0.00  0.00    -0.004 A 
ATOM      5  C6  UNL d   1       0.407  -0.113  -1.424  0.00  0.00     0.002 A 
ATOM      6  C7  UNL d   1       0.234  -1.082  -0.435  0.00  0.00     0.002 A 
ENDROOT
BRANCH   1   7
ATOM      7  C1  UNL d   1       0.766  -2.052   1.834  0.00  0.00     0.055 C 
ATOM      8  C   UNL d   1       1.856  -3.113   1.832  0.00  0.00     0.019 C 
ENDBRANCH   1   7
TORSDOF 1
ENDMDL
