MODEL 1
REMARK minimizedAffinity 7.51813173
REMARK minimizedRMSD -1
REMARK  1 active torsions:
REMARK  status: ('A' for Active; 'I' for Inactive)
REMARK    1  A    between atoms: C1_2  and  C2_3 
ROOT
ATOM      1  C2  UNL d   1      -4.510  -1.777  -3.541  0.00  0.00    -0.077 A 
ATOM      2  C3  UNL d   1      -3.527  -2.041  -2.578  0.00  0.00     0.002 A 
ATOM      3  C4  UNL d   1      -3.279  -1.126  -1.552  0.00  0.00     0.002 A 
ATOM      4  C5  UNL d   1      -4.014   0.055  -1.478  0.00  0.00    -0.004 A 
ATOM      5  C6  UNL d   1      -4.993   0.328  -2.433  0.00  0.00     0.002 A 
ATOM      6  C7  UNL d   1      -5.241  -0.584  -3.459  0.00  0.00     0.002 A 
ENDROOT
BRANCH   1   7
ATOM      7  C1  UNL d   1      -4.812  -2.784  -4.620  0.00  0.00     0.055 C 
ATOM      8  C   UNL d   1      -5.898  -3.756  -4.181  0.00  0.00     0.019 C 
ENDBRANCH   1   7
TORSDOF 1
ENDMDL
