MODEL 1
REMARK minimizedAffinity 21.8122482
REMARK minimizedRMSD -1
REMARK  0 active torsions:
REMARK  status: ('A' for Active; 'I' for Inactive)
ROOT
ATOM      1  C4' PXY d   1       0.903  -2.552   2.325  0.00  0.00     0.077 C 
ATOM      2  C1' PXY d   1      -3.500   0.166  -0.254  0.00  0.00     0.077 C 
ATOM      3  C1  PXY d   1      -2.353  -0.557   0.426  0.00  0.00    -0.082 A 
ATOM      4  C2  PXY d   1      -1.327   0.137   0.890  0.00  0.00     0.003 A 
ATOM      5  C3  PXY d   1      -0.267  -0.504   1.478  0.00  0.00     0.003 A 
ATOM      6  C4  PXY d   1      -0.282  -1.863   1.640  0.00  0.00    -0.082 A 
ATOM      7  C5  PXY d   1      -1.330  -2.577   1.179  0.00  0.00     0.003 A 
ATOM      8  C6  PXY d   1      -2.378  -1.912   0.548  0.00  0.00     0.003 A 
ENDROOT
TORSDOF 0
ENDMDL
