MODEL 1
REMARK minimizedAffinity 14.9815197
REMARK minimizedRMSD -1
REMARK  0 active torsions:
REMARK  status: ('A' for Active; 'I' for Inactive)
ROOT
ATOM      1  C4' PXY d   1       1.132  -2.347   2.031  0.00  0.00     0.077 C 
ATOM      2  C1' PXY d   1      -3.891   0.212   0.753  0.00  0.00     0.077 C 
ATOM      3  C1  PXY d   1      -2.579  -0.471   1.087  0.00  0.00    -0.082 A 
ATOM      4  C2  PXY d   1      -1.662   0.180   1.783  0.00  0.00     0.003 A 
ATOM      5  C3  PXY d   1      -0.457  -0.411   2.067  0.00  0.00     0.003 A 
ATOM      6  C4  PXY d   1      -0.210  -1.700   1.679  0.00  0.00    -0.082 A 
ATOM      7  C5  PXY d   1      -1.145  -2.375   0.977  0.00  0.00     0.003 A 
ATOM      8  C6  PXY d   1      -2.345  -1.742   0.664  0.00  0.00     0.003 A 
ENDROOT
TORSDOF 0
ENDMDL
