MODEL 1
REMARK minimizedAffinity 15.8207474
REMARK minimizedRMSD -1
REMARK  0 active torsions:
REMARK  status: ('A' for Active; 'I' for Inactive)
ROOT
ATOM      1  C4' PXY d   1       0.134   4.360  -4.432  0.00  0.00     0.077 C 
ATOM      2  C1' PXY d   1       3.938   1.222  -1.416  0.00  0.00     0.077 C 
ATOM      3  C1  PXY d   1       2.950   2.054  -2.210  0.00  0.00    -0.082 A 
ATOM      4  C2  PXY d   1       1.659   1.978  -1.931  0.00  0.00     0.003 A 
ATOM      5  C3  PXY d   1       0.749   2.699  -2.661  0.00  0.00     0.003 A 
ATOM      6  C4  PXY d   1       1.169   3.546  -3.651  0.00  0.00    -0.082 A 
ATOM      7  C5  PXY d   1       2.485   3.637  -3.934  0.00  0.00     0.003 A 
ATOM      8  C6  PXY d   1       3.390   2.866  -3.210  0.00  0.00     0.003 A 
ENDROOT
TORSDOF 0
ENDMDL
