MODEL 1
REMARK minimizedAffinity 9.49782753
REMARK minimizedRMSD -1
REMARK  0 active torsions:
REMARK  status: ('A' for Active; 'I' for Inactive)
ROOT
ATOM      1  C4' PXY d   1      -2.263  -5.999  -5.998  0.00  0.00     0.077 C 
ATOM      2  C1' PXY d   1      -1.237  -3.377  -0.950  0.00  0.00     0.077 C 
ATOM      3  C1  PXY d   1      -1.502  -4.054  -2.280  0.00  0.00    -0.082 A 
ATOM      4  C2  PXY d   1      -2.388  -5.034  -2.350  0.00  0.00     0.003 A 
ATOM      5  C3  PXY d   1      -2.617  -5.679  -3.538  0.00  0.00     0.003 A 
ATOM      6  C4  PXY d   1      -1.970  -5.281  -4.678  0.00  0.00    -0.082 A 
ATOM      7  C5  PXY d   1      -1.073  -4.275  -4.617  0.00  0.00     0.003 A 
ATOM      8  C6  PXY d   1      -0.825  -3.660  -3.392  0.00  0.00     0.003 A 
ENDROOT
TORSDOF 0
ENDMDL
