MODEL 1
REMARK minimizedAffinity 2.79236388
REMARK minimizedRMSD -1
REMARK  0 active torsions:
REMARK  status: ('A' for Active; 'I' for Inactive)
ROOT
ATOM      1  C4' PXY d   1      -4.312   0.706   0.152  0.00  0.00     0.077 C 
ATOM      2  C1' PXY d   1       0.039  -2.243   2.556  0.00  0.00     0.077 C 
ATOM      3  C1  PXY d   1      -1.097  -1.458   1.931  0.00  0.00    -0.082 A 
ATOM      4  C2  PXY d   1      -2.229  -2.074   1.630  0.00  0.00     0.003 A 
ATOM      5  C3  PXY d   1      -3.256  -1.387   1.035  0.00  0.00     0.003 A 
ATOM      6  C4  PXY d   1      -3.142  -0.044   0.793  0.00  0.00    -0.082 A 
ATOM      7  C5  PXY d   1      -1.994   0.594   1.106  0.00  0.00     0.003 A 
ATOM      8  C6  PXY d   1      -0.949  -0.131   1.672  0.00  0.00     0.003 A 
ENDROOT
TORSDOF 0
ENDMDL
