MODEL 1
REMARK minimizedAffinity 13.7852201
REMARK minimizedRMSD -1
REMARK  0 active torsions:
REMARK  status: ('A' for Active; 'I' for Inactive)
ROOT
ATOM      1  C4' PXY d   1       0.078   5.065  -4.190  0.00  0.00     0.077 C 
ATOM      2  C1' PXY d   1       3.450   1.308  -1.375  0.00  0.00     0.077 C 
ATOM      3  C1  PXY d   1       2.575   2.302  -2.113  0.00  0.00    -0.082 A 
ATOM      4  C2  PXY d   1       1.259   2.180  -2.060  0.00  0.00     0.003 A 
ATOM      5  C3  PXY d   1       0.453   3.051  -2.747  0.00  0.00     0.003 A 
ATOM      6  C4  PXY d   1       1.000   4.090  -3.453  0.00  0.00    -0.082 A 
ATOM      7  C5  PXY d   1       2.342   4.227  -3.503  0.00  0.00     0.003 A 
ATOM      8  C6  PXY d   1       3.143   3.308  -2.832  0.00  0.00     0.003 A 
ENDROOT
TORSDOF 0
ENDMDL
