MODEL 1
REMARK minimizedAffinity 8.28151321
REMARK minimizedRMSD -1
REMARK  0 active torsions:
REMARK  status: ('A' for Active; 'I' for Inactive)
ROOT
ATOM      1  C4' PXY d   1       1.075  -2.983   2.284  0.00  0.00     0.077 C 
ATOM      2  C1' PXY d   1      -3.494   0.477   1.535  0.00  0.00     0.077 C 
ATOM      3  C1  PXY d   1      -2.304  -0.440   1.733  0.00  0.00    -0.082 A 
ATOM      4  C2  PXY d   1      -1.162   0.056   2.179  0.00  0.00     0.003 A 
ATOM      5  C3  PXY d   1      -0.066  -0.753   2.333  0.00  0.00     0.003 A 
ATOM      6  C4  PXY d   1      -0.155  -2.096   2.078  0.00  0.00    -0.082 A 
ATOM      7  C5  PXY d   1      -1.320  -2.612   1.632  0.00  0.00     0.003 A 
ATOM      8  C6  PXY d   1      -2.409  -1.766   1.443  0.00  0.00     0.003 A 
ENDROOT
TORSDOF 0
ENDMDL
