MODEL 1
REMARK minimizedAffinity 10.1316767
REMARK minimizedRMSD -1
REMARK  0 active torsions:
REMARK  status: ('A' for Active; 'I' for Inactive)
ROOT
ATOM      1  C4' PXY d   1       2.447   2.678  -1.854  0.00  0.00     0.077 C 
ATOM      2  C1' PXY d   1      -1.583   5.121  -5.202  0.00  0.00     0.077 C 
ATOM      3  C1  PXY d   1      -0.518   4.491  -4.326  0.00  0.00    -0.082 A 
ATOM      4  C2  PXY d   1      -0.514   3.180  -4.143  0.00  0.00     0.003 A 
ATOM      5  C3  PXY d   1       0.422   2.597  -3.329  0.00  0.00     0.003 A 
ATOM      6  C4  PXY d   1       1.396   3.357  -2.738  0.00  0.00    -0.082 A 
ATOM      7  C5  PXY d   1       1.405   4.693  -2.928  0.00  0.00     0.003 A 
ATOM      8  C6  PXY d   1       0.421   5.271  -3.726  0.00  0.00     0.003 A 
ENDROOT
TORSDOF 0
ENDMDL
