MODEL 1
REMARK minimizedAffinity 10.4652119
REMARK minimizedRMSD -1
REMARK  0 active torsions:
REMARK  status: ('A' for Active; 'I' for Inactive)
ROOT
ATOM      1  C4' PXY d   1       1.755  -1.784   3.662  0.00  0.00     0.077 C 
ATOM      2  C1' PXY d   1      -3.387  -2.335   1.080  0.00  0.00     0.077 C 
ATOM      3  C1  PXY d   1      -2.041  -2.178   1.760  0.00  0.00    -0.082 A 
ATOM      4  C2  PXY d   1      -1.042  -2.977   1.424  0.00  0.00     0.003 A 
ATOM      5  C3  PXY d   1       0.173  -2.870   2.051  0.00  0.00     0.003 A 
ATOM      6  C4  PXY d   1       0.382  -1.900   2.995  0.00  0.00    -0.082 A 
ATOM      7  C5  PXY d   1      -0.630  -1.074   3.336  0.00  0.00     0.003 A 
ATOM      8  C6  PXY d   1      -1.867  -1.226   2.717  0.00  0.00     0.003 A 
ENDROOT
TORSDOF 0
ENDMDL
