MODEL 1
REMARK minimizedAffinity 10.4478598
REMARK minimizedRMSD -1
REMARK  0 active torsions:
REMARK  status: ('A' for Active; 'I' for Inactive)
ROOT
ATOM      1  C4' PXY d   1       4.030   1.734  -1.252  0.00  0.00     0.077 C 
ATOM      2  C1' PXY d   1      -0.494   4.030  -4.024  0.00  0.00     0.077 C 
ATOM      3  C1  PXY d   1       0.699   3.427  -3.308  0.00  0.00    -0.082 A 
ATOM      4  C2  PXY d   1       0.520   2.780  -2.168  0.00  0.00     0.003 A 
ATOM      5  C3  PXY d   1       1.591   2.256  -1.492  0.00  0.00     0.003 A 
ATOM      6  C4  PXY d   1       2.853   2.351  -2.014  0.00  0.00    -0.082 A 
ATOM      7  C5  PXY d   1       3.043   3.000  -3.182  0.00  0.00     0.003 A 
ATOM      8  C6  PXY d   1       1.948   3.560  -3.833  0.00  0.00     0.003 A 
ENDROOT
TORSDOF 0
ENDMDL
