MODEL 1
REMARK minimizedAffinity 11.7259712
REMARK minimizedRMSD -1
REMARK  0 active torsions:
REMARK  status: ('A' for Active; 'I' for Inactive)
ROOT
ATOM      1  C4' PXY d   1       5.999   4.505  -2.920  0.00  0.00     0.077 C 
ATOM      2  C1' PXY d   1       0.334   5.169  -1.983  0.00  0.00     0.077 C 
ATOM      3  C1  PXY d   1       1.821   5.008  -2.229  0.00  0.00    -0.082 A 
ATOM      4  C2  PXY d   1       2.273   3.906  -2.806  0.00  0.00     0.003 A 
ATOM      5  C3  PXY d   1       3.618   3.730  -3.006  0.00  0.00     0.003 A 
ATOM      6  C4  PXY d   1       4.505   4.715  -2.661  0.00  0.00    -0.082 A 
ATOM      7  C5  PXY d   1       4.050   5.846  -2.082  0.00  0.00     0.003 A 
ATOM      8  C6  PXY d   1       2.685   5.988  -1.850  0.00  0.00     0.003 A 
ENDROOT
TORSDOF 0
ENDMDL
