MODEL 1
REMARK minimizedAffinity 7.02435589
REMARK minimizedRMSD -1
REMARK  0 active torsions:
REMARK  status: ('A' for Active; 'I' for Inactive)
ROOT
ATOM      1  C4' PXY d   1      -5.979   0.739   0.541  0.00  0.00     0.077 C 
ATOM      2  C1' PXY d   1      -5.998  -0.204  -5.163  0.00  0.00     0.077 C 
ATOM      3  C1  PXY d   1      -5.988   0.055  -3.669  0.00  0.00    -0.082 A 
ATOM      4  C2  PXY d   1      -5.976  -0.966  -2.828  0.00  0.00     0.003 A 
ATOM      5  C3  PXY d   1      -5.999  -0.750  -1.474  0.00  0.00     0.003 A 
ATOM      6  C4  PXY d   1      -5.980   0.525  -0.975  0.00  0.00    -0.082 A 
ATOM      7  C5  PXY d   1      -5.981   1.572  -1.827  0.00  0.00     0.003 A 
ATOM      8  C6  PXY d   1      -6.000   1.332  -3.198  0.00  0.00     0.003 A 
ENDROOT
TORSDOF 0
ENDMDL
