MODEL 1
REMARK minimizedAffinity 15.6113853
REMARK minimizedRMSD -1
REMARK  0 active torsions:
REMARK  status: ('A' for Active; 'I' for Inactive)
ROOT
ATOM      1  C4' PXY d   1      -0.670   4.481  -4.183  0.00  0.00     0.077 C 
ATOM      2  C1' PXY d   1       3.247   1.394  -1.261  0.00  0.00     0.077 C 
ATOM      3  C1  PXY d   1       2.229   2.213  -2.030  0.00  0.00    -0.082 A 
ATOM      4  C2  PXY d   1       0.941   2.072  -1.763  0.00  0.00     0.003 A 
ATOM      5  C3  PXY d   1       0.004   2.781  -2.471  0.00  0.00     0.003 A 
ATOM      6  C4  PXY d   1       0.394   3.682  -3.425  0.00  0.00    -0.082 A 
ATOM      7  C5  PXY d   1       1.707   3.840  -3.695  0.00  0.00     0.003 A 
ATOM      8  C6  PXY d   1       2.639   3.080  -2.994  0.00  0.00     0.003 A 
ENDROOT
TORSDOF 0
ENDMDL
