MODEL 1
REMARK minimizedAffinity 13.8316078
REMARK minimizedRMSD -1
REMARK  0 active torsions:
REMARK  status: ('A' for Active; 'I' for Inactive)
ROOT
ATOM      1  C4' PXY d   1       0.300   5.999  -1.491  0.00  0.00     0.077 C 
ATOM      2  C1' PXY d   1       3.732   1.545  -2.830  0.00  0.00     0.077 C 
ATOM      3  C1  PXY d   1       2.841   2.717  -2.471  0.00  0.00    -0.082 A 
ATOM      4  C2  PXY d   1       1.535   2.631  -2.669  0.00  0.00     0.003 A 
ATOM      5  C3  PXY d   1       0.719   3.694  -2.379  0.00  0.00     0.003 A 
ATOM      6  C4  PXY d   1       1.237   4.837  -1.831  0.00  0.00    -0.082 A 
ATOM      7  C5  PXY d   1       2.566   4.928  -1.616  0.00  0.00     0.003 A 
ATOM      8  C6  PXY d   1       3.383   3.854  -1.955  0.00  0.00     0.003 A 
ENDROOT
TORSDOF 0
ENDMDL
