MODEL 1
REMARK minimizedAffinity 1.75118566
REMARK minimizedRMSD -1
REMARK  0 active torsions:
REMARK  status: ('A' for Active; 'I' for Inactive)
ROOT
ATOM      1  C4' PXY d   1      -5.674   2.234   4.683  0.00  0.00     0.077 C 
ATOM      2  C1' PXY d   1      -2.055  -0.764   1.317  0.00  0.00     0.077 C 
ATOM      3  C1  PXY d   1      -3.010   0.027   2.189  0.00  0.00    -0.082 A 
ATOM      4  C2  PXY d   1      -2.675   0.309   3.438  0.00  0.00     0.003 A 
ATOM      5  C3  PXY d   1      -3.540   0.996   4.250  0.00  0.00     0.003 A 
ATOM      6  C4  PXY d   1      -4.738   1.446   3.763  0.00  0.00    -0.082 A 
ATOM      7  C5  PXY d   1      -5.082   1.172   2.487  0.00  0.00     0.003 A 
ATOM      8  C6  PXY d   1      -4.208   0.437   1.691  0.00  0.00     0.003 A 
ENDROOT
TORSDOF 0
ENDMDL
