MODEL 1
REMARK minimizedAffinity 10.5004454
REMARK minimizedRMSD -1
REMARK  0 active torsions:
REMARK  status: ('A' for Active; 'I' for Inactive)
ROOT
ATOM      1  C4' PXY d   1      -5.768  -3.516  -5.942  0.00  0.00     0.077 C 
ATOM      2  C1' PXY d   1      -0.590  -5.912  -5.012  0.00  0.00     0.077 C 
ATOM      3  C1  PXY d   1      -1.945  -5.274  -5.247  0.00  0.00    -0.082 A 
ATOM      4  C2  PXY d   1      -2.931  -6.000  -5.751  0.00  0.00     0.003 A 
ATOM      5  C3  PXY d   1      -4.153  -5.431  -5.999  0.00  0.00     0.003 A 
ATOM      6  C4  PXY d   1      -4.386  -4.120  -5.680  0.00  0.00    -0.082 A 
ATOM      7  C5  PXY d   1      -3.388  -3.376  -5.156  0.00  0.00     0.003 A 
ATOM      8  C6  PXY d   1      -2.142  -3.961  -4.949  0.00  0.00     0.003 A 
ENDROOT
TORSDOF 0
ENDMDL
