MODEL 1
REMARK minimizedAffinity 2.83898187
REMARK minimizedRMSD -1
REMARK  0 active torsions:
REMARK  status: ('A' for Active; 'I' for Inactive)
ROOT
ATOM      1  C4' PXY d   1      -1.563   0.221   3.442  0.00  0.00     0.077 C 
ATOM      2  C1' PXY d   1       1.006  -3.473  -0.188  0.00  0.00     0.077 C 
ATOM      3  C1  PXY d   1       0.323  -2.501   0.755  0.00  0.00    -0.082 A 
ATOM      4  C2  PXY d   1       1.008  -1.970   1.755  0.00  0.00     0.003 A 
ATOM      5  C3  PXY d   1       0.398  -1.114   2.635  0.00  0.00     0.003 A 
ATOM      6  C4  PXY d   1      -0.912  -0.758   2.460  0.00  0.00    -0.082 A 
ATOM      7  C5  PXY d   1      -1.615  -1.287   1.436  0.00  0.00     0.003 A 
ATOM      8  C6  PXY d   1      -0.988  -2.186   0.578  0.00  0.00     0.003 A 
ENDROOT
TORSDOF 0
ENDMDL
