MODEL 1
REMARK minimizedAffinity -1.76357698
REMARK minimizedRMSD -1
REMARK  0 active torsions:
REMARK  status: ('A' for Active; 'I' for Inactive)
ROOT
ATOM      1  C4' PXY d   1       2.265   1.547  -1.415  0.00  0.00     0.077 C 
ATOM      2  C1' PXY d   1      -0.587  -2.231   1.903  0.00  0.00     0.077 C 
ATOM      3  C1  PXY d   1       0.152  -1.241   1.024  0.00  0.00    -0.082 A 
ATOM      4  C2  PXY d   1       1.463  -1.112   1.143  0.00  0.00     0.003 A 
ATOM      5  C3  PXY d   1       2.142  -0.198   0.378  0.00  0.00     0.003 A 
ATOM      6  C4  PXY d   1       1.480   0.553  -0.555  0.00  0.00    -0.082 A 
ATOM      7  C5  PXY d   1       0.143   0.419  -0.691  0.00  0.00     0.003 A 
ATOM      8  C6  PXY d   1      -0.534  -0.484   0.124  0.00  0.00     0.003 A 
ENDROOT
TORSDOF 0
ENDMDL
