MODEL 1
REMARK minimizedAffinity 4.66901302
REMARK minimizedRMSD -1
REMARK  0 active torsions:
REMARK  status: ('A' for Active; 'I' for Inactive)
ROOT
ATOM      1  C1  BNZ d   1       2.374  -0.915   5.085  0.00  0.00     0.000 A 
ATOM      2  C2  BNZ d   1       1.979  -1.531   3.927  0.00  0.00     0.000 A 
ATOM      3  C3  BNZ d   1       1.214  -0.869   3.008  0.00  0.00     0.000 A 
ATOM      4  C4  BNZ d   1       0.813   0.393   3.265  0.00  0.00     0.000 A 
ATOM      5  C5  BNZ d   1       1.195   1.025   4.431  0.00  0.00     0.000 A 
ATOM      6  C6  BNZ d   1       1.997   0.369   5.337  0.00  0.00     0.000 A 
ENDROOT
TORSDOF 0
ENDMDL
