MODEL 1
REMARK minimizedAffinity -1.33773792
REMARK minimizedRMSD -1
REMARK  0 active torsions:
REMARK  status: ('A' for Active; 'I' for Inactive)
ROOT
ATOM      1  C1  BNZ d   1       4.571   3.638   3.183  0.00  0.00     0.000 A 
ATOM      2  C2  BNZ d   1       3.746   3.653   2.090  0.00  0.00     0.000 A 
ATOM      3  C3  BNZ d   1       3.352   4.835   1.527  0.00  0.00     0.000 A 
ATOM      4  C4  BNZ d   1       3.750   5.999   2.080  0.00  0.00     0.000 A 
ATOM      5  C5  BNZ d   1       4.575   6.000   3.188  0.00  0.00     0.000 A 
ATOM      6  C6  BNZ d   1       5.001   4.808   3.728  0.00  0.00     0.000 A 
ENDROOT
TORSDOF 0
ENDMDL
