MODEL 1
REMARK minimizedAffinity 7.86784744
REMARK minimizedRMSD -1
REMARK  0 active torsions:
REMARK  status: ('A' for Active; 'I' for Inactive)
ROOT
ATOM      1  C1  BNZ d   1      -5.231   2.998  -1.667  0.00  0.00     0.000 A 
ATOM      2  C2  BNZ d   1      -5.228   1.851  -0.920  0.00  0.00     0.000 A 
ATOM      3  C3  BNZ d   1      -5.632   1.864   0.386  0.00  0.00     0.000 A 
ATOM      4  C4  BNZ d   1      -6.000   3.031   0.954  0.00  0.00     0.000 A 
ATOM      5  C5  BNZ d   1      -6.000   4.198   0.217  0.00  0.00     0.000 A 
ATOM      6  C6  BNZ d   1      -5.630   4.174  -1.108  0.00  0.00     0.000 A 
ENDROOT
TORSDOF 0
ENDMDL
