MODEL 1
REMARK minimizedAffinity 5.36649418
REMARK minimizedRMSD -1
REMARK  0 active torsions:
REMARK  status: ('A' for Active; 'I' for Inactive)
ROOT
ATOM      1  C1  BNZ d   1      -1.728  -3.401  -2.991  0.00  0.00     0.000 A 
ATOM      2  C2  BNZ d   1      -1.046  -2.248  -3.276  0.00  0.00     0.000 A 
ATOM      3  C3  BNZ d   1      -0.715  -1.367  -2.285  0.00  0.00     0.000 A 
ATOM      4  C4  BNZ d   1      -1.102  -1.619  -1.018  0.00  0.00     0.000 A 
ATOM      5  C5  BNZ d   1      -1.799  -2.772  -0.716  0.00  0.00     0.000 A 
ATOM      6  C6  BNZ d   1      -2.096  -3.676  -1.710  0.00  0.00     0.000 A 
ENDROOT
TORSDOF 0
ENDMDL
