MODEL 1
REMARK minimizedAffinity 2.20076132
REMARK minimizedRMSD -1
REMARK  0 active torsions:
REMARK  status: ('A' for Active; 'I' for Inactive)
ROOT
ATOM      1  C1  BNZ d   1       0.307  -0.639   2.370  0.00  0.00     0.000 A 
ATOM      2  C2  BNZ d   1       0.582  -1.966   2.569  0.00  0.00     0.000 A 
ATOM      3  C3  BNZ d   1       1.223  -2.385   3.701  0.00  0.00     0.000 A 
ATOM      4  C4  BNZ d   1       1.624  -1.474   4.612  0.00  0.00     0.000 A 
ATOM      5  C5  BNZ d   1       1.363  -0.132   4.421  0.00  0.00     0.000 A 
ATOM      6  C6  BNZ d   1       0.682   0.282   3.299  0.00  0.00     0.000 A 
ENDROOT
TORSDOF 0
ENDMDL
