MODEL 1
REMARK minimizedAffinity 5.45463943
REMARK minimizedRMSD -1
REMARK  0 active torsions:
REMARK  status: ('A' for Active; 'I' for Inactive)
ROOT
ATOM      1  C1  BNZ d   1      -2.265  -3.688  -5.467  0.00  0.00     0.000 A 
ATOM      2  C2  BNZ d   1      -2.273  -3.483  -4.113  0.00  0.00     0.000 A 
ATOM      3  C3  BNZ d   1      -2.100  -4.525  -3.246  0.00  0.00     0.000 A 
ATOM      4  C4  BNZ d   1      -1.958  -5.775  -3.732  0.00  0.00     0.000 A 
ATOM      5  C5  BNZ d   1      -1.956  -6.000  -5.094  0.00  0.00     0.000 A 
ATOM      6  C6  BNZ d   1      -2.092  -4.943  -5.965  0.00  0.00     0.000 A 
ENDROOT
TORSDOF 0
ENDMDL
