MODEL 1
REMARK minimizedAffinity 6.98992443
REMARK minimizedRMSD -1
REMARK  0 active torsions:
REMARK  status: ('A' for Active; 'I' for Inactive)
ROOT
ATOM      1  C1  BNZ d   1       0.189  -1.576   0.557  0.00  0.00     0.000 A 
ATOM      2  C2  BNZ d   1       1.179  -2.000   1.402  0.00  0.00     0.000 A 
ATOM      3  C3  BNZ d   1       1.580  -1.227   2.455  0.00  0.00     0.000 A 
ATOM      4  C4  BNZ d   1       1.018  -0.014   2.638  0.00  0.00     0.000 A 
ATOM      5  C5  BNZ d   1       0.025   0.432   1.789  0.00  0.00     0.000 A 
ATOM      6  C6  BNZ d   1      -0.402  -0.366   0.753  0.00  0.00     0.000 A 
ENDROOT
TORSDOF 0
ENDMDL
