MODEL 1
REMARK minimizedAffinity -4.5963583
REMARK minimizedRMSD -1
REMARK  0 active torsions:
REMARK  status: ('A' for Active; 'I' for Inactive)
ROOT
ATOM      1  C2' OXE d   1       2.641   1.869   1.077  0.00  0.00     0.078 C 
ATOM      2  C1' OXE d   1       2.991  -0.916   1.048  0.00  0.00     0.078 C 
ATOM      3  C1  OXE d   1       1.731  -0.359   0.433  0.00  0.00    -0.078 A 
ATOM      4  C2  OXE d   1       1.547   1.002   0.493  0.00  0.00    -0.078 A 
ATOM      5  C3  OXE d   1       0.429   1.573  -0.107  0.00  0.00     0.003 A 
ATOM      6  C4  OXE d   1      -0.584   0.763  -0.636  0.00  0.00    -0.002 A 
ATOM      7  C5  OXE d   1      -0.434  -0.627  -0.672  0.00  0.00    -0.002 A 
ATOM      8  C6  OXE d   1       0.734  -1.200  -0.181  0.00  0.00     0.003 A 
ENDROOT
TORSDOF 0
ENDMDL
