MODEL 1
REMARK minimizedAffinity 0.130744264
REMARK minimizedRMSD -1
REMARK  0 active torsions:
REMARK  status: ('A' for Active; 'I' for Inactive)
ROOT
ATOM      1  C2' OXE d   1      -1.853   0.945  -0.056  0.00  0.00     0.078 C 
ATOM      2  C1' OXE d   1       0.779   1.799   0.414  0.00  0.00     0.078 C 
ATOM      3  C1  OXE d   1       0.560   0.343   0.085  0.00  0.00    -0.078 A 
ATOM      4  C2  OXE d   1      -0.736  -0.075  -0.098  0.00  0.00    -0.078 A 
ATOM      5  C3  OXE d   1      -0.989  -1.396  -0.458  0.00  0.00     0.003 A 
ATOM      6  C4  OXE d   1       0.049  -2.335  -0.485  0.00  0.00    -0.002 A 
ATOM      7  C5  OXE d   1       1.371  -1.938  -0.262  0.00  0.00    -0.002 A 
ATOM      8  C6  OXE d   1       1.648  -0.597  -0.019  0.00  0.00     0.003 A 
ENDROOT
TORSDOF 0
ENDMDL
