MODEL 1
REMARK minimizedAffinity 0.259223402
REMARK minimizedRMSD -1
REMARK  0 active torsions:
REMARK  status: ('A' for Active; 'I' for Inactive)
ROOT
ATOM      1  C2' OXE d   1      -1.981   0.907  -0.410  0.00  0.00     0.078 C 
ATOM      2  C1' OXE d   1       0.518   2.166  -0.187  0.00  0.00     0.078 C 
ATOM      3  C1  OXE d   1       0.494   0.660  -0.268  0.00  0.00    -0.078 A 
ATOM      4  C2  OXE d   1      -0.736   0.050  -0.330  0.00  0.00    -0.078 A 
ATOM      5  C3  OXE d   1      -0.814  -1.333  -0.461  0.00  0.00     0.003 A 
ATOM      6  C4  OXE d   1       0.342  -2.119  -0.376  0.00  0.00    -0.002 A 
ATOM      7  C5  OXE d   1       1.602  -1.520  -0.273  0.00  0.00    -0.002 A 
ATOM      8  C6  OXE d   1       1.698  -0.133  -0.261  0.00  0.00     0.003 A 
ENDROOT
TORSDOF 0
ENDMDL
