MODEL 1
REMARK minimizedAffinity 2.32718945
REMARK minimizedRMSD -1
REMARK  0 active torsions:
REMARK  status: ('A' for Active; 'I' for Inactive)
ROOT
ATOM      1  C2' OXE d   1       2.904  -1.922  -2.634  0.00  0.00     0.078 C 
ATOM      2  C1' OXE d   1       0.104  -1.743  -2.541  0.00  0.00     0.078 C 
ATOM      3  C1  OXE d   1       0.848  -1.826  -1.231  0.00  0.00    -0.078 A 
ATOM      4  C2  OXE d   1       2.214  -1.960  -1.287  0.00  0.00    -0.078 A 
ATOM      5  C3  OXE d   1       2.953  -1.986  -0.108  0.00  0.00     0.003 A 
ATOM      6  C4  OXE d   1       2.306  -2.032   1.133  0.00  0.00    -0.002 A 
ATOM      7  C5  OXE d   1       0.913  -1.936   1.211  0.00  0.00    -0.002 A 
ATOM      8  C6  OXE d   1       0.173  -1.790   0.043  0.00  0.00     0.003 A 
ENDROOT
TORSDOF 0
ENDMDL
