MODEL 1
REMARK minimizedAffinity -3.5812242
REMARK minimizedRMSD -1
REMARK  0 active torsions:
REMARK  status: ('A' for Active; 'I' for Inactive)
ROOT
ATOM      1  C2' OXE d   1      -0.209  -2.594  -0.487  0.00  0.00     0.078 C 
ATOM      2  C1' OXE d   1       2.284  -1.842   0.561  0.00  0.00     0.078 C 
ATOM      3  C1  OXE d   1       1.298  -0.748   0.237  0.00  0.00    -0.078 A 
ATOM      4  C2  OXE d   1       0.099  -1.122  -0.320  0.00  0.00    -0.078 A 
ATOM      5  C3  OXE d   1      -0.868  -0.157  -0.587  0.00  0.00     0.003 A 
ATOM      6  C4  OXE d   1      -0.572   1.204  -0.439  0.00  0.00    -0.002 A 
ATOM      7  C5  OXE d   1       0.659   1.609   0.089  0.00  0.00    -0.002 A 
ATOM      8  C6  OXE d   1       1.587   0.646   0.471  0.00  0.00     0.003 A 
ENDROOT
TORSDOF 0
ENDMDL
