MODEL 1
REMARK minimizedAffinity -4.13174391
REMARK minimizedRMSD -1
REMARK  0 active torsions:
REMARK  status: ('A' for Active; 'I' for Inactive)
ROOT
ATOM      1  C2' OXE d   1      -0.839   1.026  -0.542  0.00  0.00     0.078 C 
ATOM      2  C1' OXE d   1       1.632   2.227   0.034  0.00  0.00     0.078 C 
ATOM      3  C1  OXE d   1       1.600   0.729  -0.135  0.00  0.00    -0.078 A 
ATOM      4  C2  OXE d   1       0.379   0.144  -0.370  0.00  0.00    -0.078 A 
ATOM      5  C3  OXE d   1       0.302  -1.228  -0.588  0.00  0.00     0.003 A 
ATOM      6  C4  OXE d   1       1.432  -2.038  -0.417  0.00  0.00    -0.002 A 
ATOM      7  C5  OXE d   1       2.678  -1.467  -0.138  0.00  0.00    -0.002 A 
ATOM      8  C6  OXE d   1       2.787  -0.084  -0.036  0.00  0.00     0.003 A 
ENDROOT
TORSDOF 0
ENDMDL
