MODEL 1
REMARK minimizedAffinity -3.91409755
REMARK minimizedRMSD -1
REMARK  0 active torsions:
REMARK  status: ('A' for Active; 'I' for Inactive)
ROOT
ATOM      1  C2' OXE d   1      -0.587  -1.989  -1.541  0.00  0.00     0.078 C 
ATOM      2  C1' OXE d   1      -1.361   0.574  -0.696  0.00  0.00     0.078 C 
ATOM      3  C1  OXE d   1      -0.090  -0.001  -0.124  0.00  0.00    -0.078 A 
ATOM      4  C2  OXE d   1       0.257  -1.274  -0.507  0.00  0.00    -0.078 A 
ATOM      5  C3  OXE d   1       1.448  -1.831  -0.051  0.00  0.00     0.003 A 
ATOM      6  C4  OXE d   1       2.218  -1.168   0.913  0.00  0.00    -0.002 A 
ATOM      7  C5  OXE d   1       1.861   0.114   1.347  0.00  0.00    -0.002 A 
ATOM      8  C6  OXE d   1       0.736   0.727   0.807  0.00  0.00     0.003 A 
ENDROOT
TORSDOF 0
ENDMDL
