MODEL 1
REMARK minimizedAffinity -2.31189442
REMARK minimizedRMSD -1
REMARK  0 active torsions:
REMARK  status: ('A' for Active; 'I' for Inactive)
ROOT
ATOM      1  C2' OXE d   1      -1.466   0.683  -0.342  0.00  0.00     0.078 C 
ATOM      2  C1' OXE d   1       1.042   1.944  -0.278  0.00  0.00     0.078 C 
ATOM      3  C1  OXE d   1       1.013   0.441  -0.395  0.00  0.00    -0.078 A 
ATOM      4  C2  OXE d   1      -0.217  -0.171  -0.379  0.00  0.00    -0.078 A 
ATOM      5  C3  OXE d   1      -0.302  -1.552  -0.539  0.00  0.00     0.003 A 
ATOM      6  C4  OXE d   1       0.858  -2.335  -0.562  0.00  0.00    -0.002 A 
ATOM      7  C5  OXE d   1       2.121  -1.735  -0.540  0.00  0.00    -0.002 A 
ATOM      8  C6  OXE d   1       2.216  -0.348  -0.500  0.00  0.00     0.003 A 
ENDROOT
TORSDOF 0
ENDMDL
