MODEL 1
REMARK minimizedAffinity -4.05067778
REMARK minimizedRMSD -1
REMARK  0 active torsions:
REMARK  status: ('A' for Active; 'I' for Inactive)
ROOT
ATOM      1  C2' OXE d   1       2.763   1.851   1.255  0.00  0.00     0.078 C 
ATOM      2  C1' OXE d   1       3.366  -0.864   0.877  0.00  0.00     0.078 C 
ATOM      3  C1  OXE d   1       2.058  -0.351   0.329  0.00  0.00    -0.078 A 
ATOM      4  C2  OXE d   1       1.750   0.968   0.560  0.00  0.00    -0.078 A 
ATOM      5  C3  OXE d   1       0.581   1.506   0.030  0.00  0.00     0.003 A 
ATOM      6  C4  OXE d   1      -0.356   0.680  -0.603  0.00  0.00    -0.002 A 
ATOM      7  C5  OXE d   1      -0.080  -0.675  -0.814  0.00  0.00    -0.002 A 
ATOM      8  C6  OXE d   1       1.138  -1.196  -0.392  0.00  0.00     0.003 A 
ENDROOT
TORSDOF 0
ENDMDL
