MODEL 1
REMARK minimizedAffinity -3.58311772
REMARK minimizedRMSD -1
REMARK  0 active torsions:
REMARK  status: ('A' for Active; 'I' for Inactive)
ROOT
ATOM      1  C2' OXE d   1       2.158  -1.582  -0.009  0.00  0.00     0.078 C 
ATOM      2  C1' OXE d   1      -0.199  -2.300  -1.354  0.00  0.00     0.078 C 
ATOM      3  C1  OXE d   1      -0.175  -0.975  -0.634  0.00  0.00    -0.078 A 
ATOM      4  C2  OXE d   1       0.966  -0.653   0.060  0.00  0.00    -0.078 A 
ATOM      5  C3  OXE d   1       1.061   0.582   0.696  0.00  0.00     0.003 A 
ATOM      6  C4  OXE d   1      -0.050   1.432   0.764  0.00  0.00    -0.002 A 
ATOM      7  C5  OXE d   1      -1.236   1.105   0.097  0.00  0.00    -0.002 A 
ATOM      8  C6  OXE d   1      -1.300  -0.072  -0.640  0.00  0.00     0.003 A 
ENDROOT
TORSDOF 0
ENDMDL
