MODEL 1
REMARK minimizedAffinity 2.03285217
REMARK minimizedRMSD -1
REMARK  0 active torsions:
REMARK  status: ('A' for Active; 'I' for Inactive)
ROOT
ATOM      1  C2' OXE d   1      -0.799  -0.778   1.979  0.00  0.00     0.078 C 
ATOM      2  C1' OXE d   1       1.546  -0.985   0.450  0.00  0.00     0.078 C 
ATOM      3  C1  OXE d   1       0.901   0.373   0.569  0.00  0.00    -0.078 A 
ATOM      4  C2  OXE d   1      -0.271   0.456   1.280  0.00  0.00    -0.078 A 
ATOM      5  C3  OXE d   1      -0.878   1.695   1.467  0.00  0.00     0.003 A 
ATOM      6  C4  OXE d   1      -0.389   2.830   0.809  0.00  0.00    -0.002 A 
ATOM      7  C5  OXE d   1       0.781   2.759   0.046  0.00  0.00    -0.002 A 
ATOM      8  C6  OXE d   1       1.461   1.550  -0.049  0.00  0.00     0.003 A 
ENDROOT
TORSDOF 0
ENDMDL
