MODEL 1
REMARK minimizedAffinity -1.4206593
REMARK minimizedRMSD -1
REMARK  0 active torsions:
REMARK  status: ('A' for Active; 'I' for Inactive)
ROOT
ATOM      1  C2' OXE d   1       0.945   0.454   0.195  0.00  0.00     0.078 C 
ATOM      2  C1' OXE d   1       3.344   1.855   0.601  0.00  0.00     0.078 C 
ATOM      3  C1  OXE d   1       2.086   2.660   0.390  0.00  0.00    -0.078 A 
ATOM      4  C2  OXE d   1       0.925   1.967   0.146  0.00  0.00    -0.078 A 
ATOM      5  C3  OXE d   1      -0.273   2.659  -0.001  0.00  0.00     0.003 A 
ATOM      6  C4  OXE d   1      -0.281   4.058  -0.055  0.00  0.00    -0.002 A 
ATOM      7  C5  OXE d   1       0.897   4.784   0.152  0.00  0.00    -0.002 A 
ATOM      8  C6  OXE d   1       2.079   4.102   0.418  0.00  0.00     0.003 A 
ENDROOT
TORSDOF 0
ENDMDL
