MODEL 1
REMARK minimizedAffinity 6.34887695
REMARK minimizedRMSD -1
REMARK  0 active torsions:
REMARK  status: ('A' for Active; 'I' for Inactive)
ROOT
ATOM      1  C2' OXE d   1      -0.443   3.113   0.533  0.00  0.00     0.078 C 
ATOM      2  C1' OXE d   1      -0.458   0.401   1.255  0.00  0.00     0.078 C 
ATOM      3  C1  OXE d   1      -1.746   1.002   0.753  0.00  0.00    -0.078 A 
ATOM      4  C2  OXE d   1      -1.742   2.342   0.447  0.00  0.00    -0.078 A 
ATOM      5  C3  OXE d   1      -2.889   2.934  -0.073  0.00  0.00     0.003 A 
ATOM      6  C4  OXE d   1      -4.089   2.216  -0.140  0.00  0.00    -0.002 A 
ATOM      7  C5  OXE d   1      -4.126   0.861   0.205  0.00  0.00    -0.002 A 
ATOM      8  C6  OXE d   1      -2.956   0.229   0.612  0.00  0.00     0.003 A 
ENDROOT
TORSDOF 0
ENDMDL
