MODEL 1
REMARK minimizedAffinity 6.58852005
REMARK minimizedRMSD -1
REMARK  0 active torsions:
REMARK  status: ('A' for Active; 'I' for Inactive)
ROOT
ATOM      1  C2' OXE d   1       2.800   0.982   0.178  0.00  0.00     0.078 C 
ATOM      2  C1' OXE d   1       1.284  -1.380   0.115  0.00  0.00     0.078 C 
ATOM      3  C1  OXE d   1       1.356  -0.557  -1.147  0.00  0.00    -0.078 A 
ATOM      4  C2  OXE d   1       2.062   0.621  -1.093  0.00  0.00    -0.078 A 
ATOM      5  C3  OXE d   1       2.206   1.391  -2.244  0.00  0.00     0.003 A 
ATOM      6  C4  OXE d   1       1.512   1.056  -3.413  0.00  0.00    -0.002 A 
ATOM      7  C5  OXE d   1       0.756  -0.119  -3.477  0.00  0.00    -0.002 A 
ATOM      8  C6  OXE d   1       0.702  -0.957  -2.368  0.00  0.00     0.003 A 
ENDROOT
TORSDOF 0
ENDMDL
