MODEL 1
REMARK minimizedAffinity 9.92970753
REMARK minimizedRMSD -1
REMARK  0 active torsions:
REMARK  status: ('A' for Active; 'I' for Inactive)
ROOT
ATOM      1  C2' OXE d   1      -2.233   2.993  -0.006  0.00  0.00     0.078 C 
ATOM      2  C1' OXE d   1      -2.296   0.506   1.294  0.00  0.00     0.078 C 
ATOM      3  C1  OXE d   1      -3.595   1.258   1.151  0.00  0.00    -0.078 A 
ATOM      4  C2  OXE d   1      -3.547   2.495   0.555  0.00  0.00    -0.078 A 
ATOM      5  C3  OXE d   1      -4.726   3.207   0.349  0.00  0.00     0.003 A 
ATOM      6  C4  OXE d   1      -5.936   2.744   0.880  0.00  0.00    -0.002 A 
ATOM      7  C5  OXE d   1      -6.000   1.505   1.525  0.00  0.00    -0.002 A 
ATOM      8  C6  OXE d   1      -4.849   0.731   1.631  0.00  0.00     0.003 A 
ENDROOT
TORSDOF 0
ENDMDL
