MODEL 1
REMARK minimizedAffinity 2.94480443
REMARK minimizedRMSD -1
REMARK  0 active torsions:
REMARK  status: ('A' for Active; 'I' for Inactive)
ROOT
ATOM      1  C2' OXE d   1      -5.998   2.012   1.457  0.00  0.00     0.078 C 
ATOM      2  C1' OXE d   1      -4.199   0.122   2.494  0.00  0.00     0.078 C 
ATOM      3  C1  OXE d   1      -3.654   1.175   1.561  0.00  0.00    -0.078 A 
ATOM      4  C2  OXE d   1      -4.549   2.067   1.022  0.00  0.00    -0.078 A 
ATOM      5  C3  OXE d   1      -4.091   3.091   0.198  0.00  0.00     0.003 A 
ATOM      6  C4  OXE d   1      -2.751   3.129  -0.207  0.00  0.00    -0.002 A 
ATOM      7  C5  OXE d   1      -1.830   2.206   0.299  0.00  0.00    -0.002 A 
ATOM      8  C6  OXE d   1      -2.256   1.250   1.216  0.00  0.00     0.003 A 
ENDROOT
TORSDOF 0
ENDMDL
