MODEL 1
REMARK minimizedAffinity 1.95210612
REMARK minimizedRMSD -1
REMARK  0 active torsions:
REMARK  status: ('A' for Active; 'I' for Inactive)
ROOT
ATOM      1  C2' OXE d   1       2.870  -1.674   0.786  0.00  0.00     0.078 C 
ATOM      2  C1' OXE d   1       0.579  -3.043   1.657  0.00  0.00     0.078 C 
ATOM      3  C1  OXE d   1       1.742  -3.864   1.158  0.00  0.00    -0.078 A 
ATOM      4  C2  OXE d   1       2.841  -3.184   0.690  0.00  0.00    -0.078 A 
ATOM      5  C3  OXE d   1       3.963  -3.893   0.269  0.00  0.00     0.003 A 
ATOM      6  C4  OXE d   1       3.924  -5.289   0.174  0.00  0.00    -0.002 A 
ATOM      7  C5  OXE d   1       2.800  -6.000   0.608  0.00  0.00    -0.002 A 
ATOM      8  C6  OXE d   1       1.719  -5.306   1.141  0.00  0.00     0.003 A 
ENDROOT
TORSDOF 0
ENDMDL
