MODEL 1
REMARK minimizedAffinity 1.93259609
REMARK minimizedRMSD -1
REMARK  0 active torsions:
REMARK  status: ('A' for Active; 'I' for Inactive)
ROOT
ATOM      1  C2' OXE d   1       0.212   1.933   0.281  0.00  0.00     0.078 C 
ATOM      2  C1' OXE d   1       1.568  -0.519   0.114  0.00  0.00     0.078 C 
ATOM      3  C1  OXE d   1       2.376   0.711   0.447  0.00  0.00    -0.078 A 
ATOM      4  C2  OXE d   1       1.712   1.913   0.481  0.00  0.00    -0.078 A 
ATOM      5  C3  OXE d   1       2.399   3.070   0.837  0.00  0.00     0.003 A 
ATOM      6  C4  OXE d   1       3.788   3.045   1.010  0.00  0.00    -0.002 A 
ATOM      7  C5  OXE d   1       4.490   1.836   0.941  0.00  0.00    -0.002 A 
ATOM      8  C6  OXE d   1       3.794   0.657   0.703  0.00  0.00     0.003 A 
ENDROOT
TORSDOF 0
ENDMDL
