MODEL 1
REMARK minimizedAffinity 0.117757134
REMARK minimizedRMSD -1
REMARK  0 active torsions:
REMARK  status: ('A' for Active; 'I' for Inactive)
ROOT
ATOM      1  C2' OXE d   1       0.005   4.057  -1.095  0.00  0.00     0.078 C 
ATOM      2  C1' OXE d   1      -0.932   2.524   1.062  0.00  0.00     0.078 C 
ATOM      3  C1  OXE d   1       0.552   2.529   0.794  0.00  0.00    -0.078 A 
ATOM      4  C2  OXE d   1       0.997   3.245  -0.291  0.00  0.00    -0.078 A 
ATOM      5  C3  OXE d   1       2.362   3.327  -0.551  0.00  0.00     0.003 A 
ATOM      6  C4  OXE d   1       3.272   2.565   0.192  0.00  0.00    -0.002 A 
ATOM      7  C5  OXE d   1       2.836   1.798   1.277  0.00  0.00    -0.002 A 
ATOM      8  C6  OXE d   1       1.488   1.803   1.618  0.00  0.00     0.003 A 
ENDROOT
TORSDOF 0
ENDMDL
