MODEL 1
REMARK minimizedAffinity 3.32782149
REMARK minimizedRMSD -1
REMARK  0 active torsions:
REMARK  status: ('A' for Active; 'I' for Inactive)
ROOT
ATOM      1  C2' OXE d   1       1.307   2.618   0.411  0.00  0.00     0.078 C 
ATOM      2  C1' OXE d   1      -0.381   0.992   1.955  0.00  0.00     0.078 C 
ATOM      3  C1  OXE d   1      -1.001   1.778   0.827  0.00  0.00    -0.078 A 
ATOM      4  C2  OXE d   1      -0.176   2.607   0.107  0.00  0.00    -0.078 A 
ATOM      5  C3  OXE d   1      -0.686   3.313  -0.979  0.00  0.00     0.003 A 
ATOM      6  C4  OXE d   1      -2.060   3.305  -1.248  0.00  0.00    -0.002 A 
ATOM      7  C5  OXE d   1      -2.924   2.498  -0.501  0.00  0.00    -0.002 A 
ATOM      8  C6  OXE d   1      -2.406   1.698   0.511  0.00  0.00     0.003 A 
ENDROOT
TORSDOF 0
ENDMDL
