MODEL 1
REMARK minimizedAffinity 0.372514993
REMARK minimizedRMSD -1
REMARK  0 active torsions:
REMARK  status: ('A' for Active; 'I' for Inactive)
ROOT
ATOM      1  C2' OXE d   1       5.290   1.684   1.590  0.00  0.00     0.078 C 
ATOM      2  C1' OXE d   1       3.644   3.958   1.543  0.00  0.00     0.078 C 
ATOM      3  C1  OXE d   1       3.071   2.663   1.022  0.00  0.00    -0.078 A 
ATOM      4  C2  OXE d   1       3.899   1.567   1.005  0.00  0.00    -0.078 A 
ATOM      5  C3  OXE d   1       3.404   0.335   0.586  0.00  0.00     0.003 A 
ATOM      6  C4  OXE d   1       2.119   0.238   0.037  0.00  0.00    -0.002 A 
ATOM      7  C5  OXE d   1       1.273   1.351   0.008  0.00  0.00    -0.002 A 
ATOM      8  C6  OXE d   1       1.718   2.559   0.534  0.00  0.00     0.003 A 
ENDROOT
TORSDOF 0
ENDMDL
