MODEL 1
REMARK minimizedAffinity 8.91449356
REMARK minimizedRMSD -1
REMARK  0 active torsions:
REMARK  status: ('A' for Active; 'I' for Inactive)
ROOT
ATOM      1  C2' OXE d   1       1.992  -2.015  -1.599  0.00  0.00     0.078 C 
ATOM      2  C1' OXE d   1       1.368   0.186  -3.226  0.00  0.00     0.078 C 
ATOM      3  C1  OXE d   1       1.638   0.445  -1.765  0.00  0.00    -0.078 A 
ATOM      4  C2  OXE d   1       1.896  -0.643  -0.967  0.00  0.00    -0.078 A 
ATOM      5  C3  OXE d   1       2.206  -0.455   0.377  0.00  0.00     0.003 A 
ATOM      6  C4  OXE d   1       2.106   0.816   0.955  0.00  0.00    -0.002 A 
ATOM      7  C5  OXE d   1       1.805   1.933   0.168  0.00  0.00    -0.002 A 
ATOM      8  C6  OXE d   1       1.611   1.771  -1.199  0.00  0.00     0.003 A 
ENDROOT
TORSDOF 0
ENDMDL
