MODEL 1
REMARK minimizedAffinity 2.13828135
REMARK minimizedRMSD -1
REMARK  0 active torsions:
REMARK  status: ('A' for Active; 'I' for Inactive)
ROOT
ATOM      1  C2' OXE d   1      -1.278  -4.471   2.853  0.00  0.00     0.078 C 
ATOM      2  C1' OXE d   1      -0.045  -6.000   0.848  0.00  0.00     0.078 C 
ATOM      3  C1  OXE d   1      -1.276  -5.212   0.475  0.00  0.00    -0.078 A 
ATOM      4  C2  OXE d   1      -1.899  -4.504   1.474  0.00  0.00    -0.078 A 
ATOM      5  C3  OXE d   1      -3.007  -3.716   1.172  0.00  0.00     0.003 A 
ATOM      6  C4  OXE d   1      -3.581  -3.760  -0.104  0.00  0.00    -0.002 A 
ATOM      7  C5  OXE d   1      -2.985  -4.507  -1.126  0.00  0.00    -0.002 A 
ATOM      8  C6  OXE d   1      -1.810  -5.203  -0.864  0.00  0.00     0.003 A 
ENDROOT
TORSDOF 0
ENDMDL
