MODEL 1
REMARK minimizedAffinity 8.48223972
REMARK minimizedRMSD -1
REMARK  0 active torsions:
REMARK  status: ('A' for Active; 'I' for Inactive)
ROOT
ATOM      1  C2' OXE d   1      -0.848   0.494   2.158  0.00  0.00     0.078 C 
ATOM      2  C1' OXE d   1      -1.305   2.734   0.529  0.00  0.00     0.078 C 
ATOM      3  C1  OXE d   1       0.112   2.234   0.656  0.00  0.00    -0.078 A 
ATOM      4  C2  OXE d   1       0.333   1.166   1.492  0.00  0.00    -0.078 A 
ATOM      5  C3  OXE d   1       1.613   0.631   1.603  0.00  0.00     0.003 A 
ATOM      6  C4  OXE d   1       2.702   1.265   0.991  0.00  0.00    -0.002 A 
ATOM      7  C5  OXE d   1       2.504   2.378   0.167  0.00  0.00    -0.002 A 
ATOM      8  C6  OXE d   1       1.213   2.848  -0.045  0.00  0.00     0.003 A 
ENDROOT
TORSDOF 0
ENDMDL
