MODEL 1
REMARK minimizedAffinity 4.49524927
REMARK minimizedRMSD -1
REMARK  0 active torsions:
REMARK  status: ('A' for Active; 'I' for Inactive)
ROOT
ATOM      1  C2' OXE d   1       0.258   3.245  -0.124  0.00  0.00     0.078 C 
ATOM      2  C1' OXE d   1      -0.052   2.520   2.570  0.00  0.00     0.078 C 
ATOM      3  C1  OXE d   1       1.343   2.517   1.997  0.00  0.00    -0.078 A 
ATOM      4  C2  OXE d   1       1.480   2.828   0.665  0.00  0.00    -0.078 A 
ATOM      5  C3  OXE d   1       2.751   2.893   0.100  0.00  0.00     0.003 A 
ATOM      6  C4  OXE d   1       3.875   2.496   0.834  0.00  0.00    -0.002 A 
ATOM      7  C5  OXE d   1       3.752   2.137   2.181  0.00  0.00    -0.002 A 
ATOM      8  C6  OXE d   1       2.502   2.184   2.788  0.00  0.00     0.003 A 
ENDROOT
TORSDOF 0
ENDMDL
