MODEL 1
REMARK minimizedAffinity 9.21863174
REMARK minimizedRMSD -1
REMARK  0 active torsions:
REMARK  status: ('A' for Active; 'I' for Inactive)
ROOT
ATOM      1  C2' OXE d   1       1.193   0.951  -3.140  0.00  0.00     0.078 C 
ATOM      2  C1' OXE d   1       2.081  -1.515  -2.134  0.00  0.00     0.078 C 
ATOM      3  C1  OXE d   1       2.232  -0.301  -1.253  0.00  0.00    -0.078 A 
ATOM      4  C2  OXE d   1       1.838   0.909  -1.771  0.00  0.00    -0.078 A 
ATOM      5  C3  OXE d   1       1.905   2.053  -0.980  0.00  0.00     0.003 A 
ATOM      6  C4  OXE d   1       2.512   2.008   0.281  0.00  0.00    -0.002 A 
ATOM      7  C5  OXE d   1       2.956   0.792   0.812  0.00  0.00    -0.002 A 
ATOM      8  C6  OXE d   1       2.785  -0.376   0.077  0.00  0.00     0.003 A 
ENDROOT
TORSDOF 0
ENDMDL
