MODEL 1
REMARK minimizedAffinity 3.24690175
REMARK minimizedRMSD -1
REMARK  0 active torsions:
REMARK  status: ('A' for Active; 'I' for Inactive)
ROOT
ATOM      1  C2' OXE d   1       2.721   2.355   2.667  0.00  0.00     0.078 C 
ATOM      2  C1' OXE d   1       2.453   2.807  -0.090  0.00  0.00     0.078 C 
ATOM      3  C1  OXE d   1       1.225   2.968   0.772  0.00  0.00    -0.078 A 
ATOM      4  C2  OXE d   1       1.355   2.700   2.113  0.00  0.00    -0.078 A 
ATOM      5  C3  OXE d   1       0.268   2.886   2.962  0.00  0.00     0.003 A 
ATOM      6  C4  OXE d   1      -0.994   3.195   2.440  0.00  0.00    -0.002 A 
ATOM      7  C5  OXE d   1      -1.157   3.434   1.071  0.00  0.00    -0.002 A 
ATOM      8  C6  OXE d   1      -0.051   3.366   0.231  0.00  0.00     0.003 A 
ENDROOT
TORSDOF 0
ENDMDL
