MODEL 1
REMARK minimizedAffinity 11.3916321
REMARK minimizedRMSD -1
REMARK  0 active torsions:
REMARK  status: ('A' for Active; 'I' for Inactive)
ROOT
ATOM      1  C   UNL d   1      -0.370   4.478   5.999  0.00  0.00     0.077 C 
ATOM      2  C1  UNL d   1       0.017   3.167   5.383  0.00  0.00    -0.074 A 
ATOM      3  C2  UNL d   1       0.953   2.331   6.000  0.00  0.00    -0.005 A 
ATOM      4  C3  UNL d   1       1.296   1.109   5.420  0.00  0.00     0.006 A 
ATOM      5  C4  UNL d   1       0.707   0.713   4.218  0.00  0.00    -0.005 A 
ATOM      6  C5  UNL d   1      -0.232   1.535   3.587  0.00  0.00    -0.074 A 
ATOM      7  C6  UNL d   1      -0.882   1.119   2.301  0.00  0.00     0.077 C 
ATOM      8  C7  UNL d   1      -0.576   2.757   4.180  0.00  0.00    -0.001 A 
ENDROOT
TORSDOF 0
ENDMDL
