MODEL 1
REMARK minimizedAffinity 10.3949833
REMARK minimizedRMSD -1
REMARK  0 active torsions:
REMARK  status: ('A' for Active; 'I' for Inactive)
ROOT
ATOM      1  C   UNL d   1      -1.916  -4.107  -3.340  0.00  0.00     0.077 C 
ATOM      2  C1  UNL d   1      -3.085  -4.208  -4.274  0.00  0.00    -0.074 A 
ATOM      3  C2  UNL d   1      -3.437  -5.429  -4.857  0.00  0.00    -0.005 A 
ATOM      4  C3  UNL d   1      -4.533  -5.509  -5.716  0.00  0.00     0.006 A 
ATOM      5  C4  UNL d   1      -5.287  -4.370  -6.000  0.00  0.00    -0.005 A 
ATOM      6  C5  UNL d   1      -4.951  -3.140  -5.425  0.00  0.00    -0.074 A 
ATOM      7  C6  UNL d   1      -5.758  -1.908  -5.712  0.00  0.00     0.077 C 
ATOM      8  C7  UNL d   1      -3.853  -3.069  -4.558  0.00  0.00    -0.001 A 
ENDROOT
TORSDOF 0
ENDMDL
