MODEL 1
REMARK minimizedAffinity 11.4568405
REMARK minimizedRMSD -1
REMARK  0 active torsions:
REMARK  status: ('A' for Active; 'I' for Inactive)
ROOT
ATOM      1  C   UNL d   1       0.135  -5.140  -2.380  0.00  0.00     0.077 C 
ATOM      2  C1  UNL d   1      -0.976  -4.217  -2.786  0.00  0.00    -0.074 A 
ATOM      3  C2  UNL d   1      -2.246  -4.714  -3.097  0.00  0.00    -0.005 A 
ATOM      4  C3  UNL d   1      -3.271  -3.842  -3.464  0.00  0.00     0.006 A 
ATOM      5  C4  UNL d   1      -3.037  -2.468  -3.524  0.00  0.00    -0.005 A 
ATOM      6  C5  UNL d   1      -1.774  -1.953  -3.216  0.00  0.00    -0.074 A 
ATOM      7  C6  UNL d   1      -1.509  -0.478  -3.266  0.00  0.00     0.077 C 
ATOM      8  C7  UNL d   1      -0.751  -2.834  -2.841  0.00  0.00    -0.001 A 
ENDROOT
TORSDOF 0
ENDMDL
