MODEL 1
REMARK minimizedAffinity 10.7502947
REMARK minimizedRMSD -1
REMARK  0 active torsions:
REMARK  status: ('A' for Active; 'I' for Inactive)
ROOT
ATOM      1  C   UNL d   1      -2.627  -5.982  -1.620  0.00  0.00     0.077 C 
ATOM      2  C1  UNL d   1      -2.653  -5.019  -2.769  0.00  0.00    -0.074 A 
ATOM      3  C2  UNL d   1      -1.511  -4.295  -3.127  0.00  0.00    -0.005 A 
ATOM      4  C3  UNL d   1      -1.548  -3.410  -4.204  0.00  0.00     0.006 A 
ATOM      5  C4  UNL d   1      -2.726  -3.240  -4.933  0.00  0.00    -0.005 A 
ATOM      6  C5  UNL d   1      -3.877  -3.955  -4.591  0.00  0.00    -0.074 A 
ATOM      7  C6  UNL d   1      -5.148  -3.792  -5.371  0.00  0.00     0.077 C 
ATOM      8  C7  UNL d   1      -3.830  -4.848  -3.512  0.00  0.00    -0.001 A 
ENDROOT
TORSDOF 0
ENDMDL
