MODEL 1
REMARK minimizedAffinity 15.3782425
REMARK minimizedRMSD -1
REMARK  0 active torsions:
REMARK  status: ('A' for Active; 'I' for Inactive)
ROOT
ATOM      1  C   UNL d   1       2.245   0.054  -4.854  0.00  0.00     0.077 C 
ATOM      2  C1  UNL d   1       2.356  -0.050  -3.362  0.00  0.00    -0.074 A 
ATOM      3  C2  UNL d   1       1.435  -0.800  -2.623  0.00  0.00    -0.005 A 
ATOM      4  C3  UNL d   1       1.557  -0.895  -1.237  0.00  0.00     0.006 A 
ATOM      5  C4  UNL d   1       2.598  -0.242  -0.576  0.00  0.00    -0.005 A 
ATOM      6  C5  UNL d   1       3.528   0.513  -1.299  0.00  0.00    -0.074 A 
ATOM      7  C6  UNL d   1       4.659   1.213  -0.605  0.00  0.00     0.077 C 
ATOM      8  C7  UNL d   1       3.403   0.597  -2.692  0.00  0.00    -0.001 A 
ENDROOT
TORSDOF 0
ENDMDL
