MODEL 1
REMARK minimizedAffinity 12.1917715
REMARK minimizedRMSD -1
REMARK  0 active torsions:
REMARK  status: ('A' for Active; 'I' for Inactive)
ROOT
ATOM      1  C   UNL d   1      -3.903   5.986  -5.997  0.00  0.00     0.077 C 
ATOM      2  C1  UNL d   1      -2.908   5.016  -5.432  0.00  0.00    -0.074 A 
ATOM      3  C2  UNL d   1      -2.744   3.746  -5.993  0.00  0.00    -0.005 A 
ATOM      4  C3  UNL d   1      -1.807   2.858  -5.463  0.00  0.00     0.006 A 
ATOM      5  C4  UNL d   1      -1.026   3.232  -4.369  0.00  0.00    -0.005 A 
ATOM      6  C5  UNL d   1      -1.176   4.498  -3.795  0.00  0.00    -0.074 A 
ATOM      7  C6  UNL d   1      -0.338   4.919  -2.624  0.00  0.00     0.077 C 
ATOM      8  C7  UNL d   1      -2.114   5.387  -4.337  0.00  0.00    -0.001 A 
ENDROOT
TORSDOF 0
ENDMDL
