MODEL 1
REMARK minimizedAffinity 12.1029444
REMARK minimizedRMSD -1
REMARK  0 active torsions:
REMARK  status: ('A' for Active; 'I' for Inactive)
ROOT
ATOM      1  C   UNL d   1      -3.552   2.336  -5.806  0.00  0.00     0.077 C 
ATOM      2  C1  UNL d   1      -2.868   3.607  -5.394  0.00  0.00    -0.074 A 
ATOM      3  C2  UNL d   1      -3.192   4.825  -5.999  0.00  0.00    -0.005 A 
ATOM      4  C3  UNL d   1      -2.555   6.000  -5.600  0.00  0.00     0.006 A 
ATOM      5  C4  UNL d   1      -1.589   5.968  -4.593  0.00  0.00    -0.005 A 
ATOM      6  C5  UNL d   1      -1.253   4.758  -3.976  0.00  0.00    -0.074 A 
ATOM      7  C6  UNL d   1      -0.224   4.708  -2.886  0.00  0.00     0.077 C 
ATOM      8  C7  UNL d   1      -1.903   3.584  -4.378  0.00  0.00    -0.001 A 
ENDROOT
TORSDOF 0
ENDMDL
