MODEL 1
REMARK minimizedAffinity 4.52114153
REMARK minimizedRMSD -1
REMARK  0 active torsions:
REMARK  status: ('A' for Active; 'I' for Inactive)
ROOT
ATOM      1  C   UNL d   1       0.561   1.682   1.683  0.00  0.00     0.077 C 
ATOM      2  C1  UNL d   1       1.285   1.325   0.419  0.00  0.00    -0.074 A 
ATOM      3  C2  UNL d   1       1.978   2.295  -0.311  0.00  0.00    -0.005 A 
ATOM      4  C3  UNL d   1       2.655   1.946  -1.480  0.00  0.00     0.006 A 
ATOM      5  C4  UNL d   1       2.644   0.625  -1.930  0.00  0.00    -0.005 A 
ATOM      6  C5  UNL d   1       1.957  -0.359  -1.213  0.00  0.00    -0.074 A 
ATOM      7  C6  UNL d   1       1.944  -1.785  -1.677  0.00  0.00     0.077 C 
ATOM      8  C7  UNL d   1       1.285  -0.002  -0.036  0.00  0.00    -0.001 A 
ENDROOT
TORSDOF 0
ENDMDL
