MODEL 1
REMARK minimizedAffinity 17.7901344
REMARK minimizedRMSD -1
REMARK  0 active torsions:
REMARK  status: ('A' for Active; 'I' for Inactive)
ROOT
ATOM      1  C   UNL d   1      -1.571  -2.776  -3.044  0.00  0.00     0.077 C 
ATOM      2  C1  UNL d   1      -0.301  -1.997  -3.218  0.00  0.00    -0.074 A 
ATOM      3  C2  UNL d   1       0.275  -1.313  -2.143  0.00  0.00    -0.005 A 
ATOM      4  C3  UNL d   1       1.462  -0.601  -2.317  0.00  0.00     0.006 A 
ATOM      5  C4  UNL d   1       2.083  -0.566  -3.566  0.00  0.00    -0.005 A 
ATOM      6  C5  UNL d   1       1.522  -1.245  -4.652  0.00  0.00    -0.074 A 
ATOM      7  C6  UNL d   1       2.182  -1.225  -5.999  0.00  0.00     0.077 C 
ATOM      8  C7  UNL d   1       0.333  -1.964  -4.467  0.00  0.00    -0.001 A 
ENDROOT
TORSDOF 0
ENDMDL
