MODEL 1
REMARK minimizedAffinity 18.9587708
REMARK minimizedRMSD -1
REMARK  0 active torsions:
REMARK  status: ('A' for Active; 'I' for Inactive)
ROOT
ATOM      1  C   UNL d   1      -2.487  -5.672  -0.566  0.00  0.00     0.077 C 
ATOM      2  C1  UNL d   1      -2.141  -4.886  -1.796  0.00  0.00    -0.074 A 
ATOM      3  C2  UNL d   1      -0.815  -4.546  -2.083  0.00  0.00    -0.005 A 
ATOM      4  C3  UNL d   1      -0.508  -3.823  -3.235  0.00  0.00     0.006 A 
ATOM      5  C4  UNL d   1      -1.521  -3.434  -4.112  0.00  0.00    -0.005 A 
ATOM      6  C5  UNL d   1      -2.853  -3.765  -3.842  0.00  0.00    -0.074 A 
ATOM      7  C6  UNL d   1      -3.953  -3.363  -4.779  0.00  0.00     0.077 C 
ATOM      8  C7  UNL d   1      -3.153  -4.498  -2.686  0.00  0.00    -0.001 A 
ENDROOT
TORSDOF 0
ENDMDL
