MODEL 1
REMARK minimizedAffinity 20.839716
REMARK minimizedRMSD -1
REMARK  0 active torsions:
REMARK  status: ('A' for Active; 'I' for Inactive)
ROOT
ATOM      1  C   UNL d   1       3.938   1.017   0.026  0.00  0.00     0.077 C 
ATOM      2  C1  UNL d   1       2.877   0.289  -0.746  0.00  0.00    -0.074 A 
ATOM      3  C2  UNL d   1       1.949  -0.530  -0.094  0.00  0.00    -0.005 A 
ATOM      4  C3  UNL d   1       0.963  -1.193  -0.824  0.00  0.00     0.006 A 
ATOM      5  C4  UNL d   1       0.894  -1.044  -2.210  0.00  0.00    -0.005 A 
ATOM      6  C5  UNL d   1       1.813  -0.229  -2.878  0.00  0.00    -0.074 A 
ATOM      7  C6  UNL d   1       1.747  -0.050  -4.366  0.00  0.00     0.077 C 
ATOM      8  C7  UNL d   1       2.797   0.440  -2.137  0.00  0.00    -0.001 A 
ENDROOT
TORSDOF 0
ENDMDL
