MODEL 1
REMARK minimizedAffinity 13.254571
REMARK minimizedRMSD -1
REMARK  0 active torsions:
REMARK  status: ('A' for Active; 'I' for Inactive)
ROOT
ATOM      1  C   UNL d   1      -4.773   2.462   3.886  0.00  0.00     0.077 C 
ATOM      2  C1  UNL d   1      -3.860   1.336   3.498  0.00  0.00    -0.074 A 
ATOM      3  C2  UNL d   1      -4.339   0.027   3.392  0.00  0.00    -0.005 A 
ATOM      4  C3  UNL d   1      -3.481  -1.008   3.021  0.00  0.00     0.006 A 
ATOM      5  C4  UNL d   1      -2.137  -0.745   2.753  0.00  0.00    -0.005 A 
ATOM      6  C5  UNL d   1      -1.640   0.559   2.854  0.00  0.00    -0.074 A 
ATOM      7  C6  UNL d   1      -0.201   0.861   2.560  0.00  0.00     0.077 C 
ATOM      8  C7  UNL d   1      -2.511   1.594   3.220  0.00  0.00    -0.001 A 
ENDROOT
TORSDOF 0
ENDMDL
