MODEL 1
REMARK minimizedAffinity 12.7284975
REMARK minimizedRMSD -1
REMARK  0 active torsions:
REMARK  status: ('A' for Active; 'I' for Inactive)
ROOT
ATOM      1  C   UNL d   1      -4.931  -1.683   1.646  0.00  0.00     0.077 C 
ATOM      2  C1  UNL d   1      -3.914  -0.695   2.135  0.00  0.00    -0.074 A 
ATOM      3  C2  UNL d   1      -4.303   0.439   2.856  0.00  0.00    -0.005 A 
ATOM      4  C3  UNL d   1      -3.345   1.345   3.313  0.00  0.00     0.006 A 
ATOM      5  C4  UNL d   1      -1.992   1.126   3.053  0.00  0.00    -0.005 A 
ATOM      6  C5  UNL d   1      -1.584  -0.002   2.335  0.00  0.00    -0.074 A 
ATOM      7  C6  UNL d   1      -0.133  -0.257   2.056  0.00  0.00     0.077 C 
ATOM      8  C7  UNL d   1      -2.552  -0.911   1.885  0.00  0.00    -0.001 A 
ENDROOT
TORSDOF 0
ENDMDL
