MODEL 1
REMARK minimizedAffinity 18.3758774
REMARK minimizedRMSD -1
REMARK  0 active torsions:
REMARK  status: ('A' for Active; 'I' for Inactive)
ROOT
ATOM      1  C   UNL d   1      -4.156  -2.129   1.901  0.00  0.00     0.077 C 
ATOM      2  C1  UNL d   1      -3.405  -0.908   2.343  0.00  0.00    -0.074 A 
ATOM      3  C2  UNL d   1      -2.108  -0.656   1.883  0.00  0.00    -0.005 A 
ATOM      4  C3  UNL d   1      -1.426   0.488   2.295  0.00  0.00     0.006 A 
ATOM      5  C4  UNL d   1      -2.032   1.392   3.169  0.00  0.00    -0.005 A 
ATOM      6  C5  UNL d   1      -3.328   1.157   3.638  0.00  0.00    -0.074 A 
ATOM      7  C6  UNL d   1      -3.998   2.123   4.570  0.00  0.00     0.077 C 
ATOM      8  C7  UNL d   1      -4.010   0.008   3.214  0.00  0.00    -0.001 A 
ENDROOT
TORSDOF 0
ENDMDL
