MODEL 1
REMARK minimizedAffinity 11.7381697
REMARK minimizedRMSD -1
REMARK  0 active torsions:
REMARK  status: ('A' for Active; 'I' for Inactive)
ROOT
ATOM      1  C   UNL d   1       0.640  -0.917   5.972  0.00  0.00     0.077 C 
ATOM      2  C1  UNL d   1       0.050   0.462   5.988  0.00  0.00    -0.074 A 
ATOM      3  C2  UNL d   1       0.871   1.595   5.988  0.00  0.00    -0.005 A 
ATOM      4  C3  UNL d   1       0.308   2.871   5.994  0.00  0.00     0.006 A 
ATOM      5  C4  UNL d   1      -1.079   3.027   6.000  0.00  0.00    -0.005 A 
ATOM      6  C5  UNL d   1      -1.915   1.906   5.999  0.00  0.00    -0.074 A 
ATOM      7  C6  UNL d   1      -3.408   2.056   5.995  0.00  0.00     0.077 C 
ATOM      8  C7  UNL d   1      -1.342   0.627   5.986  0.00  0.00    -0.001 A 
ENDROOT
TORSDOF 0
ENDMDL
