MODEL 1
REMARK minimizedAffinity 2.97083735
REMARK minimizedRMSD -1
REMARK  0 active torsions:
REMARK  status: ('A' for Active; 'I' for Inactive)
ROOT
ATOM      1  C   UNL d   1      -2.381  -5.999  -2.527  0.00  0.00     0.077 C 
ATOM      2  C1  UNL d   1      -3.006  -5.378  -3.741  0.00  0.00    -0.074 A 
ATOM      3  C2  UNL d   1      -4.145  -5.938  -4.330  0.00  0.00    -0.005 A 
ATOM      4  C3  UNL d   1      -4.720  -5.343  -5.453  0.00  0.00     0.006 A 
ATOM      5  C4  UNL d   1      -4.163  -4.186  -5.998  0.00  0.00    -0.005 A 
ATOM      6  C5  UNL d   1      -3.026  -3.611  -5.423  0.00  0.00    -0.074 A 
ATOM      7  C6  UNL d   1      -2.421  -2.362  -5.990  0.00  0.00     0.077 C 
ATOM      8  C7  UNL d   1      -2.457  -4.211  -4.290  0.00  0.00    -0.001 A 
ENDROOT
TORSDOF 0
ENDMDL
