MODEL 1
REMARK minimizedAffinity 7.02073288
REMARK minimizedRMSD -1
REMARK  0 active torsions:
REMARK  status: ('A' for Active; 'I' for Inactive)
ROOT
ATOM      1  C   UNL d   1      -2.637  -0.385   5.999  0.00  0.00     0.077 C 
ATOM      2  C1  UNL d   1      -2.766   0.777   5.060  0.00  0.00    -0.074 A 
ATOM      3  C2  UNL d   1      -2.043   1.955   5.271  0.00  0.00    -0.005 A 
ATOM      4  C3  UNL d   1      -2.165   3.024   4.384  0.00  0.00     0.006 A 
ATOM      5  C4  UNL d   1      -3.012   2.926   3.278  0.00  0.00    -0.005 A 
ATOM      6  C5  UNL d   1      -3.742   1.756   3.051  0.00  0.00    -0.074 A 
ATOM      7  C6  UNL d   1      -4.649   1.630   1.862  0.00  0.00     0.077 C 
ATOM      8  C7  UNL d   1      -3.608   0.684   3.943  0.00  0.00    -0.001 A 
ENDROOT
TORSDOF 0
ENDMDL
