MODEL 1
REMARK minimizedAffinity 23.032774
REMARK minimizedRMSD -1
REMARK  1 active torsions:
REMARK  status: ('A' for Active; 'I' for Inactive)
REMARK    1  A    between atoms: C1_2  and  C2_3 
ROOT
ATOM      1  C2  UNL d   1       0.386  -1.064  -1.119  0.00  0.00    -0.076 A 
ATOM      2  C3  UNL d   1       1.277  -0.370  -0.283  0.00  0.00     0.004 A 
ATOM      3  C4  UNL d   1       2.402   0.267  -0.804  0.00  0.00    -0.003 A 
ATOM      4  C5  UNL d   1       2.653   0.221  -2.171  0.00  0.00     0.000 A 
ATOM      5  C6  UNL d   1       1.770  -0.448  -3.018  0.00  0.00     0.000 A 
ATOM      6  C7  UNL d   1       0.623  -1.081  -2.510  0.00  0.00    -0.073 A 
ATOM      7  C8  UNL d   1      -0.292  -1.793  -3.469  0.00  0.00     0.078 C 
ENDROOT
BRANCH   1   8
ATOM      8  C1  UNL d   1      -0.803  -1.759  -0.494  0.00  0.00     0.053 C 
ATOM      9  C   UNL d   1      -1.686  -0.805   0.297  0.00  0.00     0.018 C 
ENDBRANCH   1   8
TORSDOF 1
ENDMDL
