MODEL 1
REMARK minimizedAffinity 1.38159513
REMARK minimizedRMSD -1
REMARK  1 active torsions:
REMARK  status: ('A' for Active; 'I' for Inactive)
REMARK    1  A    between atoms: C1_2  and  C2_3 
ROOT
ATOM      1  C2  UNL d   1      -1.464  -3.304   1.952  0.00  0.00    -0.076 A 
ATOM      2  C3  UNL d   1      -1.775  -2.146   1.218  0.00  0.00     0.004 A 
ATOM      3  C4  UNL d   1      -1.381  -2.012  -0.112  0.00  0.00    -0.003 A 
ATOM      4  C5  UNL d   1      -0.670  -3.035  -0.731  0.00  0.00     0.000 A 
ATOM      5  C6  UNL d   1      -0.369  -4.198  -0.023  0.00  0.00     0.000 A 
ATOM      6  C7  UNL d   1      -0.772  -4.356   1.314  0.00  0.00    -0.073 A 
ATOM      7  C8  UNL d   1      -0.415  -5.629   2.031  0.00  0.00     0.078 C 
ENDROOT
BRANCH   1   8
ATOM      8  C1  UNL d   1      -1.894  -3.381   3.400  0.00  0.00     0.053 C 
ATOM      9  C   UNL d   1      -1.818  -2.034   4.102  0.00  0.00     0.018 C 
ENDBRANCH   1   8
TORSDOF 1
ENDMDL
