MODEL 1
REMARK minimizedAffinity 10.7477169
REMARK minimizedRMSD -1
REMARK  1 active torsions:
REMARK  status: ('A' for Active; 'I' for Inactive)
REMARK    1  A    between atoms: C1_2  and  C2_3 
ROOT
ATOM      1  C2  UNL d   1      -1.678  -2.873   2.252  0.00  0.00    -0.076 A 
ATOM      2  C3  UNL d   1      -1.176  -4.079   2.771  0.00  0.00     0.004 A 
ATOM      3  C4  UNL d   1      -0.564  -5.018   1.942  0.00  0.00    -0.003 A 
ATOM      4  C5  UNL d   1      -0.445  -4.765   0.579  0.00  0.00     0.000 A 
ATOM      5  C6  UNL d   1      -0.922  -3.567   0.050  0.00  0.00     0.000 A 
ATOM      6  C7  UNL d   1      -1.527  -2.603   0.875  0.00  0.00    -0.073 A 
ATOM      7  C8  UNL d   1      -2.029  -1.330   0.250  0.00  0.00     0.078 C 
ENDROOT
BRANCH   1   8
ATOM      8  C1  UNL d   1      -2.356  -1.905   3.196  0.00  0.00     0.053 C 
ATOM      9  C   UNL d   1      -1.508  -1.595   4.420  0.00  0.00     0.018 C 
ENDBRANCH   1   8
TORSDOF 1
ENDMDL
