MODEL 1
REMARK minimizedAffinity 14.6944885
REMARK minimizedRMSD -1
REMARK  1 active torsions:
REMARK  status: ('A' for Active; 'I' for Inactive)
REMARK    1  A    between atoms: C1_2  and  C2_3 
ROOT
ATOM      1  C2  UNL d   1       4.635   3.535   0.799  0.00  0.00    -0.076 A 
ATOM      2  C3  UNL d   1       5.016   2.590  -0.169  0.00  0.00     0.004 A 
ATOM      3  C4  UNL d   1       5.692   2.979  -1.324  0.00  0.00    -0.003 A 
ATOM      4  C5  UNL d   1       5.999   4.319  -1.530  0.00  0.00     0.000 A 
ATOM      5  C6  UNL d   1       5.645   5.268  -0.572  0.00  0.00     0.000 A 
ATOM      6  C7  UNL d   1       4.977   4.891   0.606  0.00  0.00    -0.073 A 
ATOM      7  C8  UNL d   1       4.614   5.957   1.603  0.00  0.00     0.078 C 
ENDROOT
BRANCH   1   8
ATOM      8  C1  UNL d   1       3.880   3.059   2.019  0.00  0.00     0.053 C 
ATOM      9  C   UNL d   1       4.556   1.877   2.698  0.00  0.00     0.018 C 
ENDBRANCH   1   8
TORSDOF 1
ENDMDL
