MODEL 1
REMARK minimizedAffinity 14.0129766
REMARK minimizedRMSD -1
REMARK  1 active torsions:
REMARK  status: ('A' for Active; 'I' for Inactive)
REMARK    1  A    between atoms: C1_2  and  C2_3 
ROOT
ATOM      1  C2  UNL d   1       3.930   1.975  -1.532  0.00  0.00    -0.076 A 
ATOM      2  C3  UNL d   1       3.359   2.667  -0.450  0.00  0.00     0.004 A 
ATOM      3  C4  UNL d   1       4.099   3.596   0.279  0.00  0.00    -0.003 A 
ATOM      4  C5  UNL d   1       5.423   3.850  -0.064  0.00  0.00     0.000 A 
ATOM      5  C6  UNL d   1       6.000   3.186  -1.146  0.00  0.00     0.000 A 
ATOM      6  C7  UNL d   1       5.263   2.257  -1.901  0.00  0.00    -0.073 A 
ATOM      7  C8  UNL d   1       5.937   1.566  -3.053  0.00  0.00     0.078 C 
ENDROOT
BRANCH   1   8
ATOM      8  C1  UNL d   1       3.087   0.958  -2.268  0.00  0.00     0.053 C 
ATOM      9  C   UNL d   1       2.970  -0.358  -1.514  0.00  0.00     0.018 C 
ENDBRANCH   1   8
TORSDOF 1
ENDMDL
