MODEL 1
REMARK minimizedAffinity 7.145154
REMARK minimizedRMSD -1
REMARK  1 active torsions:
REMARK  status: ('A' for Active; 'I' for Inactive)
REMARK    1  A    between atoms: C1_2  and  C2_3 
ROOT
ATOM      1  C2  UNL d   1      -3.317   3.662  -4.414  0.00  0.00    -0.076 A 
ATOM      2  C3  UNL d   1      -3.077   4.893  -3.779  0.00  0.00     0.004 A 
ATOM      3  C4  UNL d   1      -3.885   6.000  -4.031  0.00  0.00    -0.003 A 
ATOM      4  C5  UNL d   1      -4.948   5.894  -4.922  0.00  0.00     0.000 A 
ATOM      5  C6  UNL d   1      -5.211   4.676  -5.548  0.00  0.00     0.000 A 
ATOM      6  C7  UNL d   1      -4.416   3.546  -5.292  0.00  0.00    -0.073 A 
ATOM      7  C8  UNL d   1      -4.741   2.259  -6.000  0.00  0.00     0.078 C 
ENDROOT
BRANCH   1   8
ATOM      8  C1  UNL d   1      -2.390   2.504  -4.122  0.00  0.00     0.053 C 
ATOM      9  C   UNL d   1      -3.085   1.375  -3.377  0.00  0.00     0.018 C 
ENDBRANCH   1   8
TORSDOF 1
ENDMDL
