MODEL 1
REMARK minimizedAffinity 14.2222538
REMARK minimizedRMSD -1
REMARK  1 active torsions:
REMARK  status: ('A' for Active; 'I' for Inactive)
REMARK    1  A    between atoms: C1_2  and  C2_3 
ROOT
ATOM      1  C2  UNL d   1      -2.190  -2.069  -1.531  0.00  0.00    -0.076 A 
ATOM      2  C3  UNL d   1      -2.701  -2.094  -2.840  0.00  0.00     0.004 A 
ATOM      3  C4  UNL d   1      -2.270  -3.048  -3.760  0.00  0.00    -0.003 A 
ATOM      4  C5  UNL d   1      -1.322  -3.994  -3.386  0.00  0.00     0.000 A 
ATOM      5  C6  UNL d   1      -0.818  -3.995  -2.086  0.00  0.00     0.000 A 
ATOM      6  C7  UNL d   1      -1.253  -3.050  -1.141  0.00  0.00    -0.073 A 
ATOM      7  C8  UNL d   1      -0.671  -3.095   0.245  0.00  0.00     0.078 C 
ENDROOT
BRANCH   1   8
ATOM      8  C1  UNL d   1      -2.674  -0.994  -0.584  0.00  0.00     0.053 C 
ATOM      9  C   UNL d   1      -4.178  -1.047  -0.362  0.00  0.00     0.018 C 
ENDBRANCH   1   8
TORSDOF 1
ENDMDL
