MODEL 1
REMARK minimizedAffinity 11.0806084
REMARK minimizedRMSD -1
REMARK  1 active torsions:
REMARK  status: ('A' for Active; 'I' for Inactive)
REMARK    1  A    between atoms: C1_2  and  C2_3 
ROOT
ATOM      1  C2  UNL d   1      -0.610  -2.873  -0.765  0.00  0.00    -0.076 A 
ATOM      2  C3  UNL d   1      -0.330  -3.355   0.526  0.00  0.00     0.004 A 
ATOM      3  C4  UNL d   1      -0.065  -4.705   0.746  0.00  0.00    -0.003 A 
ATOM      4  C5  UNL d   1      -0.074  -5.596  -0.322  0.00  0.00     0.000 A 
ATOM      5  C6  UNL d   1      -0.331  -5.133  -1.612  0.00  0.00     0.000 A 
ATOM      6  C7  UNL d   1      -0.585  -3.772  -1.853  0.00  0.00    -0.073 A 
ATOM      7  C8  UNL d   1      -0.863  -3.328  -3.263  0.00  0.00     0.078 C 
ENDROOT
BRANCH   1   8
ATOM      8  C1  UNL d   1      -0.917  -1.403  -0.939  0.00  0.00     0.053 C 
ATOM      9  C   UNL d   1      -2.049  -0.934  -0.038  0.00  0.00     0.018 C 
ENDBRANCH   1   8
TORSDOF 1
ENDMDL
