MODEL 1
REMARK minimizedAffinity -0.348164499
REMARK minimizedRMSD -1
REMARK  1 active torsions:
REMARK  status: ('A' for Active; 'I' for Inactive)
REMARK    1  A    between atoms: C1_2  and  C2_3 
ROOT
ATOM      1  C2  UNL d   1      -3.169  -0.200   5.962  0.00  0.00    -0.076 A 
ATOM      2  C3  UNL d   1      -2.619   1.093   5.980  0.00  0.00     0.004 A 
ATOM      3  C4  UNL d   1      -3.438   2.221   5.998  0.00  0.00    -0.003 A 
ATOM      4  C5  UNL d   1      -4.821   2.073   5.999  0.00  0.00     0.000 A 
ATOM      5  C6  UNL d   1      -5.384   0.798   6.000  0.00  0.00     0.000 A 
ATOM      6  C7  UNL d   1      -4.572  -0.350   5.998  0.00  0.00    -0.073 A 
ATOM      7  C8  UNL d   1      -5.233  -1.701   5.993  0.00  0.00     0.078 C 
ENDROOT
BRANCH   1   8
ATOM      8  C1  UNL d   1      -2.232  -1.386   5.916  0.00  0.00     0.053 C 
ATOM      9  C   UNL d   1      -2.266  -2.103   4.575  0.00  0.00     0.018 C 
ENDBRANCH   1   8
TORSDOF 1
ENDMDL
