MODEL 1
REMARK minimizedAffinity 10.8597221
REMARK minimizedRMSD -1
REMARK  1 active torsions:
REMARK  status: ('A' for Active; 'I' for Inactive)
REMARK    1  A    between atoms: C1_2  and  C2_3 
ROOT
ATOM      1  C2  UNL d   1      -3.316   0.039   5.582  0.00  0.00    -0.076 A 
ATOM      2  C3  UNL d   1      -3.287   1.444   5.623  0.00  0.00     0.004 A 
ATOM      3  C4  UNL d   1      -4.456   2.181   5.806  0.00  0.00    -0.003 A 
ATOM      4  C5  UNL d   1      -5.673   1.525   5.953  0.00  0.00     0.000 A 
ATOM      5  C6  UNL d   1      -5.718   0.131   5.933  0.00  0.00     0.000 A 
ATOM      6  C7  UNL d   1      -4.547  -0.627   5.765  0.00  0.00    -0.073 A 
ATOM      7  C8  UNL d   1      -4.655  -2.127   5.745  0.00  0.00     0.078 C 
ENDROOT
BRANCH   1   8
ATOM      8  C1  UNL d   1      -2.020  -0.705   5.353  0.00  0.00     0.053 C 
ATOM      9  C   UNL d   1      -2.231  -2.202   5.181  0.00  0.00     0.018 C 
ENDBRANCH   1   8
TORSDOF 1
ENDMDL
