MODEL 1
REMARK minimizedAffinity 13.4618721
REMARK minimizedRMSD -1
REMARK  1 active torsions:
REMARK  status: ('A' for Active; 'I' for Inactive)
REMARK    1  A    between atoms: C1_2  and  C2_3 
ROOT
ATOM      1  C2  UNL d   1      -2.074   2.223  -4.141  0.00  0.00    -0.076 A 
ATOM      2  C3  UNL d   1      -0.735   1.999  -3.774  0.00  0.00     0.004 A 
ATOM      3  C4  UNL d   1       0.312   2.547  -4.513  0.00  0.00    -0.003 A 
ATOM      4  C5  UNL d   1       0.038   3.328  -5.630  0.00  0.00     0.000 A 
ATOM      5  C6  UNL d   1      -1.284   3.576  -5.998  0.00  0.00     0.000 A 
ATOM      6  C7  UNL d   1      -2.352   3.044  -5.254  0.00  0.00    -0.073 A 
ATOM      7  C8  UNL d   1      -3.758   3.338  -5.700  0.00  0.00     0.078 C 
ENDROOT
BRANCH   1   8
ATOM      8  C1  UNL d   1      -3.167   1.581  -3.317  0.00  0.00     0.053 C 
ATOM      9  C   UNL d   1      -2.909   0.106  -3.054  0.00  0.00     0.018 C 
ENDBRANCH   1   8
TORSDOF 1
ENDMDL
