MODEL 1
REMARK minimizedAffinity 14.942708
REMARK minimizedRMSD -1
REMARK  1 active torsions:
REMARK  status: ('A' for Active; 'I' for Inactive)
REMARK    1  A    between atoms: C1_2  and  C2_3 
ROOT
ATOM      1  C2  UNL d   1       4.113   2.872   0.522  0.00  0.00    -0.076 A 
ATOM      2  C3  UNL d   1       4.411   2.620   1.873  0.00  0.00     0.004 A 
ATOM      3  C4  UNL d   1       3.619   1.762   2.634  0.00  0.00    -0.003 A 
ATOM      4  C5  UNL d   1       2.516   1.142   2.057  0.00  0.00     0.000 A 
ATOM      5  C6  UNL d   1       2.217   1.366   0.714  0.00  0.00     0.000 A 
ATOM      6  C7  UNL d   1       3.014   2.216  -0.072  0.00  0.00    -0.073 A 
ATOM      7  C8  UNL d   1       2.641   2.427  -1.514  0.00  0.00     0.078 C 
ENDROOT
BRANCH   1   8
ATOM      8  C1  UNL d   1       4.992   3.833  -0.246  0.00  0.00     0.053 C 
ATOM      9  C   UNL d   1       4.967   5.238   0.336  0.00  0.00     0.018 C 
ENDBRANCH   1   8
TORSDOF 1
ENDMDL
