MODEL 1
REMARK minimizedAffinity 16.1188412
REMARK minimizedRMSD -1
REMARK  1 active torsions:
REMARK  status: ('A' for Active; 'I' for Inactive)
REMARK    1  A    between atoms: C1_2  and  C2_3 
ROOT
ATOM      1  C2  UNL d   1      -3.823   4.263   1.320  0.00  0.00    -0.076 A 
ATOM      2  C3  UNL d   1      -4.447   4.186   2.578  0.00  0.00     0.004 A 
ATOM      3  C4  UNL d   1      -5.526   5.009   2.895  0.00  0.00    -0.003 A 
ATOM      4  C5  UNL d   1      -6.000   5.922   1.959  0.00  0.00     0.000 A 
ATOM      5  C6  UNL d   1      -5.405   6.000   0.701  0.00  0.00     0.000 A 
ATOM      6  C7  UNL d   1      -4.326   5.166   0.359  0.00  0.00    -0.073 A 
ATOM      7  C8  UNL d   1      -3.718   5.297  -1.010  0.00  0.00     0.078 C 
ENDROOT
BRANCH   1   8
ATOM      8  C1  UNL d   1      -2.639   3.365   1.043  0.00  0.00     0.053 C 
ATOM      9  C   UNL d   1      -2.268   2.504   2.240  0.00  0.00     0.018 C 
ENDBRANCH   1   8
TORSDOF 1
ENDMDL
