MODEL 1
REMARK minimizedAffinity 21.4225826
REMARK minimizedRMSD -1
REMARK  1 active torsions:
REMARK  status: ('A' for Active; 'I' for Inactive)
REMARK    1  A    between atoms: C1_2  and  C2_3 
ROOT
ATOM      1  C2  UNL d   1      -3.081  -1.162  -0.802  0.00  0.00    -0.076 A 
ATOM      2  C3  UNL d   1      -3.400  -1.484  -2.132  0.00  0.00     0.004 A 
ATOM      3  C4  UNL d   1      -2.478  -2.128  -2.956  0.00  0.00    -0.003 A 
ATOM      4  C5  UNL d   1      -1.222  -2.460  -2.462  0.00  0.00     0.000 A 
ATOM      5  C6  UNL d   1      -0.894  -2.164  -1.140  0.00  0.00     0.000 A 
ATOM      6  C7  UNL d   1      -1.817  -1.529  -0.291  0.00  0.00    -0.073 A 
ATOM      7  C8  UNL d   1      -1.408  -1.228   1.125  0.00  0.00     0.078 C 
ENDROOT
BRANCH   1   8
ATOM      8  C1  UNL d   1      -4.111  -0.439   0.036  0.00  0.00     0.053 C 
ATOM      9  C   UNL d   1      -5.034  -1.395   0.776  0.00  0.00     0.018 C 
ENDBRANCH   1   8
TORSDOF 1
ENDMDL
