MODEL 1
REMARK minimizedAffinity 7.68439484
REMARK minimizedRMSD -1
REMARK  1 active torsions:
REMARK  status: ('A' for Active; 'I' for Inactive)
REMARK    1  A    between atoms: C1_2  and  C2_3 
ROOT
ATOM      1  C2  UNL d   1      -2.461   0.569  -2.673  0.00  0.00    -0.076 A 
ATOM      2  C3  UNL d   1      -1.607  -0.387  -3.251  0.00  0.00     0.004 A 
ATOM      3  C4  UNL d   1      -1.305  -1.574  -2.585  0.00  0.00    -0.003 A 
ATOM      4  C5  UNL d   1      -1.852  -1.824  -1.331  0.00  0.00     0.000 A 
ATOM      5  C6  UNL d   1      -2.715  -0.895  -0.751  0.00  0.00     0.000 A 
ATOM      6  C7  UNL d   1      -3.043   0.299  -1.416  0.00  0.00    -0.073 A 
ATOM      7  C8  UNL d   1      -3.975   1.268  -0.741  0.00  0.00     0.078 C 
ENDROOT
BRANCH   1   8
ATOM      8  C1  UNL d   1      -2.732   1.850  -3.430  0.00  0.00     0.053 C 
ATOM      9  C   UNL d   1      -1.504   2.362  -4.167  0.00  0.00     0.018 C 
ENDBRANCH   1   8
TORSDOF 1
ENDMDL
