MODEL 1
REMARK minimizedAffinity 1.2248708
REMARK minimizedRMSD -1
REMARK  0 active torsions:
REMARK  status: ('A' for Active; 'I' for Inactive)
ROOT
ATOM      1  C4' PXY d   1       1.053  -5.095   5.371  0.00  0.00     0.077 C 
ATOM      2  C1' PXY d   1       2.570  -0.641   2.013  0.00  0.00     0.077 C 
ATOM      3  C1  PXY d   1       2.178  -1.818   2.885  0.00  0.00    -0.082 A 
ATOM      4  C2  PXY d   1       1.151  -1.705   3.712  0.00  0.00     0.003 A 
ATOM      5  C3  PXY d   1       0.802  -2.748   4.531  0.00  0.00     0.003 A 
ATOM      6  C4  PXY d   1       1.479  -3.937   4.465  0.00  0.00    -0.082 A 
ATOM      7  C5  PXY d   1       2.521  -4.063   3.617  0.00  0.00     0.003 A 
ATOM      8  C6  PXY d   1       2.885  -2.979   2.823  0.00  0.00     0.003 A 
ENDROOT
TORSDOF 0
ENDMDL
