MODEL 1
REMARK minimizedAffinity 1.88598382
REMARK minimizedRMSD -1
REMARK  0 active torsions:
REMARK  status: ('A' for Active; 'I' for Inactive)
ROOT
ATOM      1  C4' PXY d   1       1.865   0.948   1.975  0.00  0.00     0.077 C 
ATOM      2  C1' PXY d   1       2.042  -4.606   3.570  0.00  0.00     0.077 C 
ATOM      3  C1  PXY d   1       1.983  -3.149   3.156  0.00  0.00    -0.082 A 
ATOM      4  C2  PXY d   1       2.842  -2.688   2.261  0.00  0.00     0.003 A 
ATOM      5  C3  PXY d   1       2.824  -1.366   1.898  0.00  0.00     0.003 A 
ATOM      6  C4  PXY d   1       1.882  -0.518   2.417  0.00  0.00    -0.082 A 
ATOM      7  C5  PXY d   1       0.995  -0.983   3.322  0.00  0.00     0.003 A 
ATOM      8  C6  PXY d   1       1.056  -2.319   3.708  0.00  0.00     0.003 A 
ENDROOT
TORSDOF 0
ENDMDL
