MODEL 1
REMARK minimizedAffinity 0.528131008
REMARK minimizedRMSD -1
REMARK  0 active torsions:
REMARK  status: ('A' for Active; 'I' for Inactive)
ROOT
ATOM      1  C4' PXY d   1       1.110  -4.975   5.188  0.00  0.00     0.077 C 
ATOM      2  C1' PXY d   1       2.586  -0.567   1.752  0.00  0.00     0.077 C 
ATOM      3  C1  PXY d   1       2.203  -1.732   2.644  0.00  0.00    -0.082 A 
ATOM      4  C2  PXY d   1       1.281  -1.564   3.578  0.00  0.00     0.003 A 
ATOM      5  C3  PXY d   1       0.945  -2.598   4.414  0.00  0.00     0.003 A 
ATOM      6  C4  PXY d   1       1.522  -3.830   4.259  0.00  0.00    -0.082 A 
ATOM      7  C5  PXY d   1       2.456  -4.011   3.301  0.00  0.00     0.003 A 
ATOM      8  C6  PXY d   1       2.812  -2.938   2.489  0.00  0.00     0.003 A 
ENDROOT
TORSDOF 0
ENDMDL
