MODEL 1
REMARK minimizedAffinity 0.612964392
REMARK minimizedRMSD -1
REMARK  0 active torsions:
REMARK  status: ('A' for Active; 'I' for Inactive)
ROOT
ATOM      1  C4' PXY d   1       1.117  -4.892   4.867  0.00  0.00     0.077 C 
ATOM      2  C1' PXY d   1       2.679  -0.295   1.730  0.00  0.00     0.077 C 
ATOM      3  C1  PXY d   1       2.270  -1.508   2.542  0.00  0.00    -0.082 A 
ATOM      4  C2  PXY d   1       1.574  -1.346   3.655  0.00  0.00     0.003 A 
ATOM      5  C3  PXY d   1       1.224  -2.429   4.419  0.00  0.00     0.003 A 
ATOM      6  C4  PXY d   1       1.543  -3.697   4.010  0.00  0.00    -0.082 A 
ATOM      7  C5  PXY d   1       2.244  -3.872   2.870  0.00  0.00     0.003 A 
ATOM      8  C6  PXY d   1       2.626  -2.756   2.131  0.00  0.00     0.003 A 
ENDROOT
TORSDOF 0
ENDMDL
