MODEL 1
REMARK minimizedAffinity 7.15494204
REMARK minimizedRMSD -1
REMARK  0 active torsions:
REMARK  status: ('A' for Active; 'I' for Inactive)
ROOT
ATOM      1  C4' PXY d   1      -2.907   2.415   0.432  0.00  0.00     0.077 C 
ATOM      2  C1' PXY d   1      -4.125   6.000   4.800  0.00  0.00     0.077 C 
ATOM      3  C1  PXY d   1      -3.817   5.054   3.656  0.00  0.00    -0.082 A 
ATOM      4  C2  PXY d   1      -2.560   4.754   3.375  0.00  0.00     0.003 A 
ATOM      5  C3  PXY d   1      -2.262   3.926   2.324  0.00  0.00     0.003 A 
ATOM      6  C4  PXY d   1      -3.265   3.357   1.585  0.00  0.00    -0.082 A 
ATOM      7  C5  PXY d   1      -4.551   3.651   1.871  0.00  0.00     0.003 A 
ATOM      8  C6  PXY d   1      -4.830   4.526   2.917  0.00  0.00     0.003 A 
ENDROOT
TORSDOF 0
ENDMDL
