MODEL 1
REMARK minimizedAffinity 7.60354948
REMARK minimizedRMSD -1
REMARK  0 active torsions:
REMARK  status: ('A' for Active; 'I' for Inactive)
ROOT
ATOM      1  C4' PXY d   1       2.436  -0.791   1.346  0.00  0.00     0.077 C 
ATOM      2  C1' PXY d   1       2.010  -4.939   5.349  0.00  0.00     0.077 C 
ATOM      3  C1  PXY d   1       2.135  -3.852   4.300  0.00  0.00    -0.082 A 
ATOM      4  C2  PXY d   1       1.132  -3.010   4.108  0.00  0.00     0.003 A 
ATOM      5  C3  PXY d   1       1.215  -2.041   3.141  0.00  0.00     0.003 A 
ATOM      6  C4  PXY d   1       2.358  -1.898   2.400  0.00  0.00    -0.082 A 
ATOM      7  C5  PXY d   1       3.389  -2.746   2.598  0.00  0.00     0.003 A 
ATOM      8  C6  PXY d   1       3.269  -3.749   3.555  0.00  0.00     0.003 A 
ENDROOT
TORSDOF 0
ENDMDL
