MODEL 1
REMARK minimizedAffinity 13.6484861
REMARK minimizedRMSD -1
REMARK  0 active torsions:
REMARK  status: ('A' for Active; 'I' for Inactive)
ROOT
ATOM      1  C4' PXY d   1       6.000  -2.615   4.492  0.00  0.00     0.077 C 
ATOM      2  C1' PXY d   1       0.519  -3.689   3.001  0.00  0.00     0.077 C 
ATOM      3  C1  PXY d   1       1.955  -3.415   3.402  0.00  0.00    -0.082 A 
ATOM      4  C2  PXY d   1       2.532  -2.282   3.037  0.00  0.00     0.003 A 
ATOM      5  C3  PXY d   1       3.840  -2.032   3.364  0.00  0.00     0.003 A 
ATOM      6  C4  PXY d   1       4.549  -2.929   4.118  0.00  0.00    -0.082 A 
ATOM      7  C5  PXY d   1       3.964  -4.083   4.503  0.00  0.00     0.003 A 
ATOM      8  C6  PXY d   1       2.648  -4.336   4.126  0.00  0.00     0.003 A 
ENDROOT
TORSDOF 0
ENDMDL
