MODEL 1
REMARK minimizedAffinity 11.1027536
REMARK minimizedRMSD -1
REMARK  0 active torsions:
REMARK  status: ('A' for Active; 'I' for Inactive)
ROOT
ATOM      1  C4' PXY d   1      -4.450   2.146  -5.545  0.00  0.00     0.077 C 
ATOM      2  C1' PXY d   1      -3.345  -2.065  -1.742  0.00  0.00     0.077 C 
ATOM      3  C1  PXY d   1      -3.635  -0.952  -2.730  0.00  0.00    -0.082 A 
ATOM      4  C2  PXY d   1      -4.202  -1.239  -3.891  0.00  0.00     0.003 A 
ATOM      5  C3  PXY d   1      -4.442  -0.249  -4.809  0.00  0.00     0.003 A 
ATOM      6  C4  PXY d   1      -4.147   1.055  -4.514  0.00  0.00    -0.082 A 
ATOM      7  C5  PXY d   1      -3.579   1.357  -3.327  0.00  0.00     0.003 A 
ATOM      8  C6  PXY d   1      -3.306   0.333  -2.426  0.00  0.00     0.003 A 
ENDROOT
TORSDOF 0
ENDMDL
