MODEL 1
REMARK minimizedAffinity 10.3334742
REMARK minimizedRMSD -1
REMARK  0 active torsions:
REMARK  status: ('A' for Active; 'I' for Inactive)
ROOT
ATOM      1  C4' PXY d   1       1.737  -5.096   3.030  0.00  0.00     0.077 C 
ATOM      2  C1' PXY d   1       1.958   0.636   2.314  0.00  0.00     0.077 C 
ATOM      3  C1  PXY d   1       1.891  -0.866   2.511  0.00  0.00    -0.082 A 
ATOM      4  C2  PXY d   1       2.930  -1.616   2.181  0.00  0.00     0.003 A 
ATOM      5  C3  PXY d   1       2.874  -2.979   2.322  0.00  0.00     0.003 A 
ATOM      6  C4  PXY d   1       1.764  -3.575   2.857  0.00  0.00    -0.082 A 
ATOM      7  C5  PXY d   1       0.704  -2.815   3.206  0.00  0.00     0.003 A 
ATOM      8  C6  PXY d   1       0.764  -1.438   3.016  0.00  0.00     0.003 A 
ENDROOT
TORSDOF 0
ENDMDL
