MODEL 1
REMARK minimizedAffinity -1.83416307
REMARK minimizedRMSD -1
REMARK  0 active torsions:
REMARK  status: ('A' for Active; 'I' for Inactive)
ROOT
ATOM      1  C4' PXY d   1       1.514  -4.941   5.528  0.00  0.00     0.077 C 
ATOM      2  C1' PXY d   1       2.568  -0.765   1.672  0.00  0.00     0.077 C 
ATOM      3  C1  PXY d   1       2.295  -1.869   2.674  0.00  0.00    -0.082 A 
ATOM      4  C2  PXY d   1       1.508  -1.631   3.711  0.00  0.00     0.003 A 
ATOM      5  C3  PXY d   1       1.275  -2.608   4.644  0.00  0.00     0.003 A 
ATOM      6  C4  PXY d   1       1.811  -3.858   4.486  0.00  0.00    -0.082 A 
ATOM      7  C5  PXY d   1       2.606  -4.112   3.425  0.00  0.00     0.003 A 
ATOM      8  C6  PXY d   1       2.863  -3.094   2.511  0.00  0.00     0.003 A 
ENDROOT
TORSDOF 0
ENDMDL
