MODEL 1
REMARK minimizedAffinity 5.57839537
REMARK minimizedRMSD -1
REMARK  0 active torsions:
REMARK  status: ('A' for Active; 'I' for Inactive)
ROOT
ATOM      1  C4' PXY d   1       2.569  -4.565   2.576  0.00  0.00     0.077 C 
ATOM      2  C1' PXY d   1       1.229   1.053   2.326  0.00  0.00     0.077 C 
ATOM      3  C1  PXY d   1       1.575  -0.421   2.403  0.00  0.00    -0.082 A 
ATOM      4  C2  PXY d   1       2.548  -0.905   1.648  0.00  0.00     0.003 A 
ATOM      5  C3  PXY d   1       2.853  -2.241   1.683  0.00  0.00     0.003 A 
ATOM      6  C4  PXY d   1       2.191  -3.081   2.537  0.00  0.00    -0.082 A 
ATOM      7  C5  PXY d   1       1.205  -2.593   3.319  0.00  0.00     0.003 A 
ATOM      8  C6  PXY d   1       0.883  -1.241   3.239  0.00  0.00     0.003 A 
ENDROOT
TORSDOF 0
ENDMDL
