MODEL 1
REMARK minimizedAffinity 6.12615967
REMARK minimizedRMSD -1
REMARK  0 active torsions:
REMARK  status: ('A' for Active; 'I' for Inactive)
ROOT
ATOM      1  C4' PXY d   1       2.630  -4.243   2.944  0.00  0.00     0.077 C 
ATOM      2  C1' PXY d   1       1.298   1.334   2.209  0.00  0.00     0.077 C 
ATOM      3  C1  PXY d   1       1.642  -0.128   2.414  0.00  0.00    -0.082 A 
ATOM      4  C2  PXY d   1       2.585  -0.688   1.673  0.00  0.00     0.003 A 
ATOM      5  C3  PXY d   1       2.887  -2.017   1.823  0.00  0.00     0.003 A 
ATOM      6  C4  PXY d   1       2.255  -2.767   2.778  0.00  0.00    -0.082 A 
ATOM      7  C5  PXY d   1       1.300  -2.201   3.545  0.00  0.00     0.003 A 
ATOM      8  C6  PXY d   1       0.979  -0.861   3.349  0.00  0.00     0.003 A 
ENDROOT
TORSDOF 0
ENDMDL
