MODEL 1
REMARK minimizedAffinity 7.04240608
REMARK minimizedRMSD -1
REMARK  0 active torsions:
REMARK  status: ('A' for Active; 'I' for Inactive)
ROOT
ATOM      1  C1  DEN d   1       0.436   0.997  -1.311  0.00  0.00     0.130 A 
ATOM      2  C2  DEN d   1       0.952   2.331  -1.603  0.00  0.00    -0.031 A 
ATOM      3  C3  DEN d   1       2.412   2.223  -1.798  0.00  0.00     0.027 A 
ATOM      4  C4  DEN d   1       3.914   0.129  -1.680  0.00  0.00     0.027 A 
ATOM      5  C5  DEN d   1       3.931  -1.229  -1.450  0.00  0.00    -0.003 A 
ATOM      6  C6  DEN d   1       2.798  -1.928  -1.127  0.00  0.00     0.001 A 
ATOM      7  C7  DEN d   1       1.593  -1.280  -1.069  0.00  0.00     0.017 A 
ATOM      8  C8  DEN d   1       1.569   0.090  -1.292  0.00  0.00    -0.094 A 
ATOM      9  C9  DEN d   1       2.723   0.778  -1.629  0.00  0.00    -0.072 A 
ENDROOT
TORSDOF 0
ENDMDL
