MODEL 1
REMARK minimizedAffinity 24.0800552
REMARK minimizedRMSD -1
REMARK  0 active torsions:
REMARK  status: ('A' for Active; 'I' for Inactive)
ROOT
ATOM      1  C1  DEN d   1      -2.635  -0.590   2.392  0.00  0.00     0.130 A 
ATOM      2  C2  DEN d   1      -3.138  -1.432   1.310  0.00  0.00    -0.031 A 
ATOM      3  C3  DEN d   1      -4.545  -1.767   1.609  0.00  0.00     0.027 A 
ATOM      4  C4  DEN d   1      -5.987  -1.063   3.629  0.00  0.00     0.027 A 
ATOM      5  C5  DEN d   1      -5.993  -0.360   4.813  0.00  0.00    -0.003 A 
ATOM      6  C6  DEN d   1      -4.880   0.283   5.286  0.00  0.00     0.001 A 
ATOM      7  C7  DEN d   1      -3.725   0.272   4.549  0.00  0.00     0.017 A 
ATOM      8  C8  DEN d   1      -3.709  -0.441   3.358  0.00  0.00    -0.094 A 
ATOM      9  C9  DEN d   1      -4.849  -1.074   2.890  0.00  0.00    -0.072 A 
ENDROOT
TORSDOF 0
ENDMDL
