MODEL 1
REMARK minimizedAffinity 13.1267662
REMARK minimizedRMSD -1
REMARK  0 active torsions:
REMARK  status: ('A' for Active; 'I' for Inactive)
ROOT
ATOM      1  C1  DEN d   1       1.752   3.687  -1.620  0.00  0.00     0.130 A 
ATOM      2  C2  DEN d   1       1.796   4.464  -2.856  0.00  0.00    -0.031 A 
ATOM      3  C3  DEN d   1       1.428   3.568  -3.971  0.00  0.00     0.027 A 
ATOM      4  C4  DEN d   1       0.795   1.069  -3.904  0.00  0.00     0.027 A 
ATOM      5  C5  DEN d   1       0.630  -0.026  -3.084  0.00  0.00    -0.003 A 
ATOM      6  C6  DEN d   1       0.859   0.031  -1.735  0.00  0.00     0.001 A 
ATOM      7  C7  DEN d   1       1.221   1.220  -1.158  0.00  0.00     0.017 A 
ATOM      8  C8  DEN d   1       1.397   2.326  -1.979  0.00  0.00    -0.094 A 
ATOM      9  C9  DEN d   1       1.149   2.251  -3.339  0.00  0.00    -0.072 A 
ENDROOT
TORSDOF 0
ENDMDL
