MODEL 1
REMARK minimizedAffinity 2.39821982
REMARK minimizedRMSD -1
REMARK  0 active torsions:
REMARK  status: ('A' for Active; 'I' for Inactive)
ROOT
ATOM      1  C1  DEN d   1       3.422   0.410  -1.991  0.00  0.00     0.130 A 
ATOM      2  C2  DEN d   1       2.509   1.172  -2.839  0.00  0.00    -0.031 A 
ATOM      3  C3  DEN d   1       1.189   0.511  -2.797  0.00  0.00     0.027 A 
ATOM      4  C4  DEN d   1       0.472  -1.603  -1.505  0.00  0.00     0.027 A 
ATOM      5  C5  DEN d   1       0.902  -2.602  -0.660  0.00  0.00    -0.003 A 
ATOM      6  C6  DEN d   1       2.200  -2.685  -0.229  0.00  0.00     0.001 A 
ATOM      7  C7  DEN d   1       3.104  -1.728  -0.607  0.00  0.00     0.017 A 
ATOM      8  C8  DEN d   1       2.679  -0.722  -1.466  0.00  0.00    -0.094 A 
ATOM      9  C9  DEN d   1       1.360  -0.647  -1.880  0.00  0.00    -0.072 A 
ENDROOT
TORSDOF 0
ENDMDL
