MODEL 1
REMARK minimizedAffinity 10.8078775
REMARK minimizedRMSD -1
REMARK  0 active torsions:
REMARK  status: ('A' for Active; 'I' for Inactive)
ROOT
ATOM      1  C1  DEN d   1       0.830  -3.524  -1.103  0.00  0.00     0.130 A 
ATOM      2  C2  DEN d   1      -0.060  -3.357  -2.248  0.00  0.00    -0.031 A 
ATOM      3  C3  DEN d   1       0.290  -2.089  -2.918  0.00  0.00     0.027 A 
ATOM      4  C4  DEN d   1       2.119  -0.378  -2.300  0.00  0.00     0.027 A 
ATOM      5  C5  DEN d   1       3.120  -0.080  -1.402  0.00  0.00    -0.003 A 
ATOM      6  C6  DEN d   1       3.403  -0.886  -0.331  0.00  0.00     0.001 A 
ATOM      7  C7  DEN d   1       2.707  -2.052  -0.156  0.00  0.00     0.017 A 
ATOM      8  C8  DEN d   1       1.691  -2.356  -1.053  0.00  0.00    -0.094 A 
ATOM      9  C9  DEN d   1       1.428  -1.535  -2.137  0.00  0.00    -0.072 A 
ENDROOT
TORSDOF 0
ENDMDL
