MODEL 1
REMARK minimizedAffinity 3.61875319
REMARK minimizedRMSD -1
REMARK  0 active torsions:
REMARK  status: ('A' for Active; 'I' for Inactive)
ROOT
ATOM      1  C1  DEN d   1       0.119   1.256  -1.211  0.00  0.00     0.130 A 
ATOM      2  C2  DEN d   1       0.968   2.229  -1.895  0.00  0.00    -0.031 A 
ATOM      3  C3  DEN d   1       2.230   1.555  -2.261  0.00  0.00     0.027 A 
ATOM      4  C4  DEN d   1       2.947  -0.887  -1.843  0.00  0.00     0.027 A 
ATOM      5  C5  DEN d   1       2.566  -2.089  -1.289  0.00  0.00    -0.003 A 
ATOM      6  C6  DEN d   1       1.368  -2.250  -0.646  0.00  0.00     0.001 A 
ATOM      7  C7  DEN d   1       0.487  -1.203  -0.580  0.00  0.00     0.017 A 
ATOM      8  C8  DEN d   1       0.866   0.014  -1.130  0.00  0.00    -0.094 A 
ATOM      9  C9  DEN d   1       2.077   0.154  -1.787  0.00  0.00    -0.072 A 
ENDROOT
TORSDOF 0
ENDMDL
