MODEL 1
REMARK minimizedAffinity 12.2304134
REMARK minimizedRMSD -1
REMARK  0 active torsions:
REMARK  status: ('A' for Active; 'I' for Inactive)
ROOT
ATOM      1  C1  DEN d   1       3.469   0.726  -2.361  0.00  0.00     0.130 A 
ATOM      2  C2  DEN d   1       3.593  -0.531  -1.628  0.00  0.00    -0.031 A 
ATOM      3  C3  DEN d   1       2.335  -0.753  -0.887  0.00  0.00     0.027 A 
ATOM      4  C4  DEN d   1       0.217   0.717  -0.808  0.00  0.00     0.027 A 
ATOM      5  C5  DEN d   1      -0.355   1.886  -1.258  0.00  0.00    -0.003 A 
ATOM      6  C6  DEN d   1       0.314   2.760  -2.074  0.00  0.00     0.001 A 
ATOM      7  C7  DEN d   1       1.579   2.456  -2.501  0.00  0.00     0.017 A 
ATOM      8  C8  DEN d   1       2.166   1.283  -2.045  0.00  0.00    -0.094 A 
ATOM      9  C9  DEN d   1       1.468   0.406  -1.231  0.00  0.00    -0.072 A 
ENDROOT
TORSDOF 0
ENDMDL
