MODEL 1
REMARK minimizedAffinity 1.67925286
REMARK minimizedRMSD -1
REMARK  0 active torsions:
REMARK  status: ('A' for Active; 'I' for Inactive)
ROOT
ATOM      1  C1  DEN d   1       2.758   1.219  -1.924  0.00  0.00     0.130 A 
ATOM      2  C2  DEN d   1       2.049   1.282  -3.199  0.00  0.00    -0.031 A 
ATOM      3  C3  DEN d   1       1.325   0.009  -3.383  0.00  0.00     0.027 A 
ATOM      4  C4  DEN d   1       1.230  -2.043  -1.822  0.00  0.00     0.027 A 
ATOM      5  C5  DEN d   1       1.680  -2.570  -0.632  0.00  0.00    -0.003 A 
ATOM      6  C6  DEN d   1       2.540  -1.890   0.189  0.00  0.00     0.001 A 
ATOM      7  C7  DEN d   1       2.943  -0.625  -0.149  0.00  0.00     0.017 A 
ATOM      8  C8  DEN d   1       2.500  -0.090  -1.352  0.00  0.00    -0.094 A 
ATOM      9  C9  DEN d   1       1.621  -0.788  -2.162  0.00  0.00    -0.072 A 
ENDROOT
TORSDOF 0
ENDMDL
