MODEL 1
REMARK minimizedAffinity 2.71837521
REMARK minimizedRMSD -1
REMARK  0 active torsions:
REMARK  status: ('A' for Active; 'I' for Inactive)
ROOT
ATOM      1  C1  DEN d   1      -0.717   1.085  -0.838  0.00  0.00     0.130 A 
ATOM      2  C2  DEN d   1      -0.029   2.283  -0.364  0.00  0.00    -0.031 A 
ATOM      3  C3  DEN d   1       1.425   2.033  -0.436  0.00  0.00     0.027 A 
ATOM      4  C4  DEN d   1       2.671  -0.079  -1.235  0.00  0.00     0.027 A 
ATOM      5  C5  DEN d   1       2.514  -1.358  -1.720  0.00  0.00    -0.003 A 
ATOM      6  C6  DEN d   1       1.280  -1.921  -1.911  0.00  0.00     0.001 A 
ATOM      7  C7  DEN d   1       0.152  -1.185  -1.659  0.00  0.00     0.017 A 
ATOM      8  C8  DEN d   1       0.302   0.103  -1.163  0.00  0.00    -0.094 A 
ATOM      9  C9  DEN d   1       1.558   0.658  -0.988  0.00  0.00    -0.072 A 
ENDROOT
TORSDOF 0
ENDMDL
