MODEL 1
REMARK minimizedAffinity 3.65327549
REMARK minimizedRMSD -1
REMARK  0 active torsions:
REMARK  status: ('A' for Active; 'I' for Inactive)
ROOT
ATOM      1  C1  DEN d   1      -0.958   4.371  -1.369  0.00  0.00     0.130 A 
ATOM      2  C2  DEN d   1      -1.463   5.236  -0.306  0.00  0.00    -0.031 A 
ATOM      3  C3  DEN d   1      -1.035   4.666   0.988  0.00  0.00     0.027 A 
ATOM      4  C4  DEN d   1       0.356   2.543   1.445  0.00  0.00     0.027 A 
ATOM      5  C5  DEN d   1       1.001   1.476   0.860  0.00  0.00    -0.003 A 
ATOM      6  C6  DEN d   1       1.009   1.282  -0.496  0.00  0.00     0.001 A 
ATOM      7  C7  DEN d   1       0.398   2.194  -1.316  0.00  0.00     0.017 A 
ATOM      8  C8  DEN d   1      -0.261   3.268  -0.732  0.00  0.00    -0.094 A 
ATOM      9  C9  DEN d   1      -0.247   3.453   0.640  0.00  0.00    -0.072 A 
ENDROOT
TORSDOF 0
ENDMDL
