MODEL 1
REMARK minimizedAffinity 11.5185814
REMARK minimizedRMSD -1
REMARK  0 active torsions:
REMARK  status: ('A' for Active; 'I' for Inactive)
ROOT
ATOM      1  C1  DEN d   1       1.947   1.414  -1.009  0.00  0.00     0.130 A 
ATOM      2  C2  DEN d   1       0.818   1.154  -1.899  0.00  0.00    -0.031 A 
ATOM      3  C3  DEN d   1      -0.417   1.567  -1.202  0.00  0.00     0.027 A 
ATOM      4  C4  DEN d   1      -0.688   2.584   1.153  0.00  0.00     0.027 A 
ATOM      5  C5  DEN d   1      -0.017   2.980   2.289  0.00  0.00    -0.003 A 
ATOM      6  C6  DEN d   1       1.340   2.852   2.417  0.00  0.00     0.001 A 
ATOM      7  C7  DEN d   1       2.077   2.355   1.374  0.00  0.00     0.017 A 
ATOM      8  C8  DEN d   1       1.407   1.947   0.228  0.00  0.00    -0.094 A 
ATOM      9  C9  DEN d   1       0.035   2.096   0.113  0.00  0.00    -0.072 A 
ENDROOT
TORSDOF 0
ENDMDL
