MODEL 1
REMARK minimizedAffinity 2.2222023
REMARK minimizedRMSD -1
REMARK  0 active torsions:
REMARK  status: ('A' for Active; 'I' for Inactive)
ROOT
ATOM      1  C1  DEN d   1       2.320   1.776   1.431  0.00  0.00     0.130 A 
ATOM      2  C2  DEN d   1       0.999   1.981   2.017  0.00  0.00    -0.031 A 
ATOM      3  C3  DEN d   1      -0.008   1.773   0.957  0.00  0.00     0.027 A 
ATOM      4  C4  DEN d   1       0.349   1.150  -1.520  0.00  0.00     0.027 A 
ATOM      5  C5  DEN d   1       1.294   0.882  -2.485  0.00  0.00    -0.003 A 
ATOM      6  C6  DEN d   1       2.638   0.927  -2.223  0.00  0.00     0.001 A 
ATOM      7  C7  DEN d   1       3.073   1.202  -0.954  0.00  0.00     0.017 A 
ATOM      8  C8  DEN d   1       2.126   1.480   0.023  0.00  0.00    -0.094 A 
ATOM      9  C9  DEN d   1       0.772   1.418  -0.259  0.00  0.00    -0.072 A 
ENDROOT
TORSDOF 0
ENDMDL
