MODEL 1
REMARK minimizedAffinity 13.6203613
REMARK minimizedRMSD -1
REMARK  0 active torsions:
REMARK  status: ('A' for Active; 'I' for Inactive)
ROOT
ATOM      1  C1  DEN d   1       0.206   1.505  -2.038  0.00  0.00     0.130 A 
ATOM      2  C2  DEN d   1       1.493   1.032  -2.540  0.00  0.00    -0.031 A 
ATOM      3  C3  DEN d   1       2.475   1.129  -1.441  0.00  0.00     0.027 A 
ATOM      4  C4  DEN d   1       2.128   1.958   0.977  0.00  0.00     0.027 A 
ATOM      5  C5  DEN d   1       1.210   2.472   1.866  0.00  0.00    -0.003 A 
ATOM      6  C6  DEN d   1      -0.087   2.730   1.510  0.00  0.00     0.001 A 
ATOM      7  C7  DEN d   1      -0.515   2.431   0.244  0.00  0.00     0.017 A 
ATOM      8  C8  DEN d   1       0.406   1.920  -0.661  0.00  0.00    -0.094 A 
ATOM      9  C9  DEN d   1       1.710   1.655  -0.278  0.00  0.00    -0.072 A 
ENDROOT
TORSDOF 0
ENDMDL
