MODEL 1
REMARK minimizedAffinity 3.78259587
REMARK minimizedRMSD -1
REMARK  0 active torsions:
REMARK  status: ('A' for Active; 'I' for Inactive)
ROOT
ATOM      1  C1  DEN d   1       1.128   1.389  -2.471  0.00  0.00     0.130 A 
ATOM      2  C2  DEN d   1       1.909   2.605  -2.260  0.00  0.00    -0.031 A 
ATOM      3  C3  DEN d   1       3.217   2.215  -1.697  0.00  0.00     0.027 A 
ATOM      4  C4  DEN d   1       4.105  -0.142  -1.137  0.00  0.00     0.027 A 
ATOM      5  C5  DEN d   1       3.799  -1.485  -1.133  0.00  0.00    -0.003 A 
ATOM      6  C6  DEN d   1       2.579  -1.957  -1.539  0.00  0.00     0.001 A 
ATOM      7  C7  DEN d   1       1.635  -1.083  -2.009  0.00  0.00     0.017 A 
ATOM      8  C8  DEN d   1       1.934   0.273  -2.010  0.00  0.00    -0.094 A 
ATOM      9  C9  DEN d   1       3.177   0.730  -1.607  0.00  0.00    -0.072 A 
ENDROOT
TORSDOF 0
ENDMDL
