MODEL 1
REMARK minimizedAffinity 1.6252178
REMARK minimizedRMSD -1
REMARK  0 active torsions:
REMARK  status: ('A' for Active; 'I' for Inactive)
ROOT
ATOM      1  C1  BNZ d   1       1.895  -0.814   1.988  0.00  0.00     0.000 A 
ATOM      2  C2  BNZ d   1       1.304  -1.003   3.209  0.00  0.00     0.000 A 
ATOM      3  C3  BNZ d   1       0.010  -1.432   3.301  0.00  0.00     0.000 A 
ATOM      4  C4  BNZ d   1      -0.704  -1.633   2.174  0.00  0.00     0.000 A 
ATOM      5  C5  BNZ d   1      -0.125  -1.438   0.936  0.00  0.00     0.000 A 
ATOM      6  C6  BNZ d   1       1.190  -1.043   0.847  0.00  0.00     0.000 A 
ENDROOT
TORSDOF 0
ENDMDL
