MODEL 1
REMARK minimizedAffinity 4.81664276
REMARK minimizedRMSD -1
REMARK  0 active torsions:
REMARK  status: ('A' for Active; 'I' for Inactive)
ROOT
ATOM      1  C1  BNZ d   1      -0.536  -0.632   1.021  0.00  0.00     0.000 A 
ATOM      2  C2  BNZ d   1       0.521  -1.416   1.402  0.00  0.00     0.000 A 
ATOM      3  C3  BNZ d   1       0.795  -1.627   2.724  0.00  0.00     0.000 A 
ATOM      4  C4  BNZ d   1       0.038  -1.022   3.663  0.00  0.00     0.000 A 
ATOM      5  C5  BNZ d   1      -1.025  -0.222   3.295  0.00  0.00     0.000 A 
ATOM      6  C6  BNZ d   1      -1.321  -0.043   1.963  0.00  0.00     0.000 A 
ENDROOT
TORSDOF 0
ENDMDL
