MODEL 1
REMARK minimizedAffinity 2.53633714
REMARK minimizedRMSD -1
REMARK  0 active torsions:
REMARK  status: ('A' for Active; 'I' for Inactive)
ROOT
ATOM      1  C1  BNZ d   1      -1.941   0.280   2.316  0.00  0.00     0.000 A 
ATOM      2  C2  BNZ d   1      -1.531  -0.791   1.567  0.00  0.00     0.000 A 
ATOM      3  C3  BNZ d   1      -0.427  -1.513   1.924  0.00  0.00     0.000 A 
ATOM      4  C4  BNZ d   1       0.288  -1.140   3.005  0.00  0.00     0.000 A 
ATOM      5  C5  BNZ d   1      -0.106  -0.057   3.765  0.00  0.00     0.000 A 
ATOM      6  C6  BNZ d   1      -1.241   0.644   3.424  0.00  0.00     0.000 A 
ENDROOT
TORSDOF 0
ENDMDL
