MODEL 1
REMARK minimizedAffinity 1.54157269
REMARK minimizedRMSD -1
REMARK  0 active torsions:
REMARK  status: ('A' for Active; 'I' for Inactive)
ROOT
ATOM      1  C1  BNZ d   1      -5.626  -0.316  -4.514  0.00  0.00     0.000 A 
ATOM      2  C2  BNZ d   1      -5.357  -1.133  -3.448  0.00  0.00     0.000 A 
ATOM      3  C3  BNZ d   1      -4.119  -1.690  -3.289  0.00  0.00     0.000 A 
ATOM      4  C4  BNZ d   1      -3.166  -1.464  -4.216  0.00  0.00     0.000 A 
ATOM      5  C5  BNZ d   1      -3.425  -0.650  -5.301  0.00  0.00     0.000 A 
ATOM      6  C6  BNZ d   1      -4.660  -0.059  -5.437  0.00  0.00     0.000 A 
ENDROOT
TORSDOF 0
ENDMDL
