MODEL 1
REMARK minimizedAffinity -4.19207048
REMARK minimizedRMSD -1
REMARK  0 active torsions:
REMARK  status: ('A' for Active; 'I' for Inactive)
ROOT
ATOM      1  C1  BNZ d   1       2.913  -0.195  -2.329  0.00  0.00     0.000 A 
ATOM      2  C2  BNZ d   1       2.938   1.170  -2.221  0.00  0.00     0.000 A 
ATOM      3  C3  BNZ d   1       2.471   1.792  -1.096  0.00  0.00     0.000 A 
ATOM      4  C4  BNZ d   1       1.944   1.052  -0.100  0.00  0.00     0.000 A 
ATOM      5  C5  BNZ d   1       1.903  -0.325  -0.198  0.00  0.00     0.000 A 
ATOM      6  C6  BNZ d   1       2.410  -0.949  -1.315  0.00  0.00     0.000 A 
ENDROOT
TORSDOF 0
ENDMDL
