MODEL 1
REMARK minimizedAffinity 4.47435856
REMARK minimizedRMSD -1
REMARK  0 active torsions:
REMARK  status: ('A' for Active; 'I' for Inactive)
ROOT
ATOM      1  C1  BNZ d   1      -5.401   1.339   2.376  0.00  0.00     0.000 A 
ATOM      2  C2  BNZ d   1      -4.656   0.670   1.441  0.00  0.00     0.000 A 
ATOM      3  C3  BNZ d   1      -3.527  -0.010   1.802  0.00  0.00     0.000 A 
ATOM      4  C4  BNZ d   1      -3.122   0.012   3.088  0.00  0.00     0.000 A 
ATOM      5  C5  BNZ d   1      -3.857   0.689   4.041  0.00  0.00     0.000 A 
ATOM      6  C6  BNZ d   1      -5.015   1.340   3.681  0.00  0.00     0.000 A 
ENDROOT
TORSDOF 0
ENDMDL
