MODEL 1
REMARK minimizedAffinity -0.132477388
REMARK minimizedRMSD -1
REMARK  0 active torsions:
REMARK  status: ('A' for Active; 'I' for Inactive)
ROOT
ATOM      1  C1  BNZ d   1       0.794   0.221  -1.462  0.00  0.00     0.000 A 
ATOM      2  C2  BNZ d   1       1.202   1.509  -1.685  0.00  0.00     0.000 A 
ATOM      3  C3  BNZ d   1       2.362   1.981  -1.138  0.00  0.00     0.000 A 
ATOM      4  C4  BNZ d   1       3.092   1.178  -0.336  0.00  0.00     0.000 A 
ATOM      5  C5  BNZ d   1       2.689  -0.120  -0.094  0.00  0.00     0.000 A 
ATOM      6  C6  BNZ d   1       1.541  -0.604  -0.678  0.00  0.00     0.000 A 
ENDROOT
TORSDOF 0
ENDMDL
