MODEL 1
REMARK minimizedAffinity -3.09852815
REMARK minimizedRMSD -1
REMARK  0 active torsions:
REMARK  status: ('A' for Active; 'I' for Inactive)
ROOT
ATOM      1  C   UNL d   1      -1.325  -0.336  -0.321  0.00  0.00     0.172 C 
ATOM      2  N   UNL d   1       0.060  -0.071  -0.011  0.00  0.00    -0.070 N 
ATOM      3  C1  UNL d   1       1.074  -0.991  -0.033  0.00  0.00    -0.004 A 
ATOM      4  C2  UNL d   1       2.238  -0.345   0.322  0.00  0.00    -0.047 A 
ATOM      5  C3  UNL d   1       1.913   1.010   0.566  0.00  0.00    -0.047 A 
ATOM      6  C4  UNL d   1       0.558   1.153   0.352  0.00  0.00    -0.004 A 
ENDROOT
TORSDOF 0
ENDMDL
