MODEL 1
REMARK minimizedAffinity 0.817349494
REMARK minimizedRMSD -1
REMARK  0 active torsions:
REMARK  status: ('A' for Active; 'I' for Inactive)
ROOT
ATOM      1  C   UNL d   1      -0.162   4.217   0.726  0.00  0.00     0.172 C 
ATOM      2  N   UNL d   1       0.436   2.967   0.321  0.00  0.00    -0.070 N 
ATOM      3  C1  UNL d   1      -0.042   1.719   0.622  0.00  0.00    -0.004 A 
ATOM      4  C2  UNL d   1       0.808   0.794   0.055  0.00  0.00    -0.047 A 
ATOM      5  C3  UNL d   1       1.832   1.510  -0.609  0.00  0.00    -0.047 A 
ATOM      6  C4  UNL d   1       1.577   2.853  -0.428  0.00  0.00    -0.004 A 
ENDROOT
TORSDOF 0
ENDMDL
