MODEL 1
REMARK minimizedAffinity -3.23155951
REMARK minimizedRMSD -1
REMARK  0 active torsions:
REMARK  status: ('A' for Active; 'I' for Inactive)
ROOT
ATOM      1  C   UNL d   1       0.093   1.111   0.000  0.00  0.00     0.172 C 
ATOM      2  N   UNL d   1       1.421   0.550   0.085  0.00  0.00    -0.070 N 
ATOM      3  C1  UNL d   1       1.951  -0.088   1.175  0.00  0.00    -0.004 A 
ATOM      4  C2  UNL d   1       3.234  -0.474   0.856  0.00  0.00    -0.047 A 
ATOM      5  C3  UNL d   1       3.485  -0.054  -0.472  0.00  0.00    -0.047 A 
ATOM      6  C4  UNL d   1       2.346   0.577  -0.925  0.00  0.00    -0.004 A 
ENDROOT
TORSDOF 0
ENDMDL
