MODEL 1
REMARK minimizedAffinity -3.15277624
REMARK minimizedRMSD -1
REMARK  0 active torsions:
REMARK  status: ('A' for Active; 'I' for Inactive)
ROOT
ATOM      1  C   UNL d   1      -0.618  -1.232   0.760  0.00  0.00     0.172 C 
ATOM      2  N   UNL d   1       0.277  -0.132   0.489  0.00  0.00    -0.070 N 
ATOM      3  C1  UNL d   1       1.641  -0.165   0.608  0.00  0.00    -0.004 A 
ATOM      4  C2  UNL d   1       2.125   1.077   0.260  0.00  0.00    -0.047 A 
ATOM      5  C3  UNL d   1       1.014   1.886  -0.078  0.00  0.00    -0.047 A 
ATOM      6  C4  UNL d   1      -0.118   1.112   0.072  0.00  0.00    -0.004 A 
ENDROOT
TORSDOF 0
ENDMDL
