MODEL 1
REMARK minimizedAffinity -3.63117838
REMARK minimizedRMSD -1
REMARK  0 active torsions:
REMARK  status: ('A' for Active; 'I' for Inactive)
ROOT
ATOM      1  C   UNL d   1      -0.361  -0.520   0.287  0.00  0.00     0.172 C 
ATOM      2  N   UNL d   1       1.017  -0.431   0.711  0.00  0.00    -0.070 N 
ATOM      3  C1  UNL d   1       1.624  -1.248   1.627  0.00  0.00    -0.004 A 
ATOM      4  C2  UNL d   1       2.934  -0.839   1.754  0.00  0.00    -0.047 A 
ATOM      5  C3  UNL d   1       3.120   0.263   0.886  0.00  0.00    -0.047 A 
ATOM      6  C4  UNL d   1       1.917   0.494   0.253  0.00  0.00    -0.004 A 
ENDROOT
TORSDOF 0
ENDMDL
