MODEL 1
REMARK minimizedAffinity 4.65025997
REMARK minimizedRMSD -1
REMARK  0 active torsions:
REMARK  status: ('A' for Active; 'I' for Inactive)
ROOT
ATOM      1  C   UNL d   1       1.244  -0.132   1.826  0.00  0.00     0.172 C 
ATOM      2  N   UNL d   1       1.255   0.943   0.862  0.00  0.00    -0.070 N 
ATOM      3  C1  UNL d   1       2.010   0.983  -0.280  0.00  0.00    -0.004 A 
ATOM      4  C2  UNL d   1       1.736   2.170  -0.925  0.00  0.00    -0.047 A 
ATOM      5  C3  UNL d   1       0.784   2.867  -0.143  0.00  0.00    -0.047 A 
ATOM      6  C4  UNL d   1       0.505   2.085   0.957  0.00  0.00    -0.004 A 
ENDROOT
TORSDOF 0
ENDMDL
