MODEL 1
REMARK minimizedAffinity -2.96660781
REMARK minimizedRMSD -1
REMARK  0 active torsions:
REMARK  status: ('A' for Active; 'I' for Inactive)
ROOT
ATOM      1  C   UNL d   1       0.107   0.139  -0.698  0.00  0.00     0.172 C 
ATOM      2  N   UNL d   1      -1.080   0.120  -1.521  0.00  0.00    -0.070 N 
ATOM      3  C1  UNL d   1      -1.105   0.199  -2.888  0.00  0.00    -0.004 A 
ATOM      4  C2  UNL d   1      -2.422   0.148  -3.290  0.00  0.00    -0.047 A 
ATOM      5  C3  UNL d   1      -3.216   0.034  -2.124  0.00  0.00    -0.047 A 
ATOM      6  C4  UNL d   1      -2.360   0.019  -1.043  0.00  0.00    -0.004 A 
ENDROOT
TORSDOF 0
ENDMDL
