MODEL 1
REMARK minimizedAffinity -4.09956455
REMARK minimizedRMSD -1
REMARK  0 active torsions:
REMARK  status: ('A' for Active; 'I' for Inactive)
ROOT
ATOM      1  C   UNL d   1       0.379   1.724   0.221  0.00  0.00     0.172 C 
ATOM      2  N   UNL d   1       1.413   0.722   0.107  0.00  0.00    -0.070 N 
ATOM      3  C1  UNL d   1       1.620  -0.092  -0.975  0.00  0.00    -0.004 A 
ATOM      4  C2  UNL d   1       2.698  -0.903  -0.693  0.00  0.00    -0.047 A 
ATOM      5  C3  UNL d   1       3.155  -0.565   0.603  0.00  0.00    -0.047 A 
ATOM      6  C4  UNL d   1       2.341   0.444   1.075  0.00  0.00    -0.004 A 
ENDROOT
TORSDOF 0
ENDMDL
