MODEL 1
REMARK minimizedAffinity -2.11660123
REMARK minimizedRMSD -1
REMARK  1 active torsions:
REMARK  status: ('A' for Active; 'I' for Inactive)
REMARK    1  A    between atoms: C3_4  and  O_7 
ROOT
ATOM      1  C   UNL d   1       4.881   2.905  -5.625  0.00  0.00    -0.033 A 
ATOM      2  C1  UNL d   1       5.087   4.234  -5.999  0.00  0.00     0.039 A 
ATOM      3  C2  UNL d   1       4.021   5.136  -5.994  0.00  0.00    -0.080 A 
ATOM      4  C3  UNL d   1       2.757   4.697  -5.612  0.00  0.00     0.150 A 
ATOM      5  C4  UNL d   1       2.545   3.375  -5.234  0.00  0.00    -0.007 A 
ATOM      6  C5  UNL d   1       3.610   2.476  -5.241  0.00  0.00     0.039 A 
ENDROOT
BRANCH   4   7
ATOM      7  O   UNL d   1       1.685   5.540  -5.596  0.00  0.00    -0.526 OA
ATOM      8  H5  UNL d   1       1.975   6.413  -5.908  0.00  0.00     0.418 HD
ENDBRANCH   4   7
TORSDOF 1
ENDMDL
