MODEL 1
REMARK minimizedAffinity -1.45983446
REMARK minimizedRMSD -1
REMARK  1 active torsions:
REMARK  status: ('A' for Active; 'I' for Inactive)
REMARK    1  A    between atoms: C3_4  and  O_7 
ROOT
ATOM      1  C   UNL d   1       5.142   2.668  -5.990  0.00  0.00    -0.033 A 
ATOM      2  C1  UNL d   1       4.126   1.810  -5.562  0.00  0.00     0.039 A 
ATOM      3  C2  UNL d   1       2.903   2.331  -5.137  0.00  0.00    -0.080 A 
ATOM      4  C3  UNL d   1       2.708   3.710  -5.144  0.00  0.00     0.150 A 
ATOM      5  C4  UNL d   1       3.713   4.570  -5.572  0.00  0.00    -0.007 A 
ATOM      6  C5  UNL d   1       4.935   4.047  -5.996  0.00  0.00     0.039 A 
ENDROOT
BRANCH   4   7
ATOM      7  O   UNL d   1       1.532   4.265  -4.733  0.00  0.00    -0.526 OA
ATOM      8  H5  UNL d   1       0.942   3.552  -4.438  0.00  0.00     0.418 HD
ENDBRANCH   4   7
TORSDOF 1
ENDMDL
