MODEL 1
REMARK minimizedAffinity -3.35657287
REMARK minimizedRMSD -1
REMARK  1 active torsions:
REMARK  status: ('A' for Active; 'I' for Inactive)
REMARK    1  A    between atoms: C3_4  and  O_7 
ROOT
ATOM      1  C   UNL d   1       4.663   3.897  -5.990  0.00  0.00    -0.033 A 
ATOM      2  C1  UNL d   1       3.760   2.867  -5.721  0.00  0.00     0.039 A 
ATOM      3  C2  UNL d   1       2.433   3.164  -5.407  0.00  0.00    -0.080 A 
ATOM      4  C3  UNL d   1       2.021   4.493  -5.367  0.00  0.00     0.150 A 
ATOM      5  C4  UNL d   1       2.914   5.524  -5.638  0.00  0.00    -0.007 A 
ATOM      6  C5  UNL d   1       4.239   5.226  -5.950  0.00  0.00     0.039 A 
ENDROOT
BRANCH   4   7
ATOM      7  O   UNL d   1       0.736   4.832  -5.061  0.00  0.00    -0.526 OA
ATOM      8  H5  UNL d   1       0.240   4.018  -4.870  0.00  0.00     0.418 HD
ENDBRANCH   4   7
TORSDOF 1
ENDMDL
