MODEL 1
REMARK minimizedAffinity -4.26966619
REMARK minimizedRMSD -1
REMARK  1 active torsions:
REMARK  status: ('A' for Active; 'I' for Inactive)
REMARK    1  A    between atoms: C3_4  and  O_7 
ROOT
ATOM      1  C   UNL d   1       4.645   3.997  -5.654  0.00  0.00    -0.033 A 
ATOM      2  C1  UNL d   1       3.887   5.117  -6.000  0.00  0.00     0.039 A 
ATOM      3  C2  UNL d   1       2.541   5.190  -5.637  0.00  0.00    -0.080 A 
ATOM      4  C3  UNL d   1       1.966   4.138  -4.929  0.00  0.00     0.150 A 
ATOM      5  C4  UNL d   1       2.717   3.021  -4.578  0.00  0.00    -0.007 A 
ATOM      6  C5  UNL d   1       4.061   2.949  -4.942  0.00  0.00     0.039 A 
ENDROOT
BRANCH   4   7
ATOM      7  O   UNL d   1       0.655   4.162  -4.557  0.00  0.00    -0.526 OA
ATOM      8  H5  UNL d   1       0.255   4.981  -4.892  0.00  0.00     0.418 HD
ENDBRANCH   4   7
TORSDOF 1
ENDMDL
