MODEL 1
REMARK minimizedAffinity -2.81239486
REMARK minimizedRMSD -1
REMARK  1 active torsions:
REMARK  status: ('A' for Active; 'I' for Inactive)
REMARK    1  A    between atoms: C3_4  and  O_7 
ROOT
ATOM      1  C   UNL d   1       5.091   5.398  -5.670  0.00  0.00    -0.033 A 
ATOM      2  C1  UNL d   1       3.743   5.244  -5.342  0.00  0.00     0.039 A 
ATOM      3  C2  UNL d   1       3.163   3.973  -5.344  0.00  0.00    -0.080 A 
ATOM      4  C3  UNL d   1       3.941   2.868  -5.675  0.00  0.00     0.150 A 
ATOM      5  C4  UNL d   1       5.286   3.014  -5.999  0.00  0.00    -0.007 A 
ATOM      6  C5  UNL d   1       5.863   4.283  -5.998  0.00  0.00     0.039 A 
ENDROOT
BRANCH   4   7
ATOM      7  O   UNL d   1       3.419   1.609  -5.695  0.00  0.00    -0.526 OA
ATOM      8  H5  UNL d   1       2.473   1.665  -5.478  0.00  0.00     0.418 HD
ENDBRANCH   4   7
TORSDOF 1
ENDMDL
