MODEL 1
REMARK minimizedAffinity -3.49183106
REMARK minimizedRMSD -1
REMARK  1 active torsions:
REMARK  status: ('A' for Active; 'I' for Inactive)
REMARK    1  A    between atoms: C3_4  and  O_7 
ROOT
ATOM      1  C   UNL d   1       4.581   4.454  -5.627  0.00  0.00    -0.033 A 
ATOM      2  C1  UNL d   1       3.722   5.491  -5.996  0.00  0.00     0.039 A 
ATOM      3  C2  UNL d   1       2.340   5.290  -5.993  0.00  0.00    -0.080 A 
ATOM      4  C3  UNL d   1       1.831   4.050  -5.617  0.00  0.00     0.150 A 
ATOM      5  C4  UNL d   1       2.681   3.014  -5.243  0.00  0.00    -0.007 A 
ATOM      6  C5  UNL d   1       4.060   3.216  -5.249  0.00  0.00     0.039 A 
ENDROOT
BRANCH   4   7
ATOM      7  O   UNL d   1       0.490   3.805  -5.602  0.00  0.00    -0.526 OA
ATOM      8  H5  UNL d   1       0.028   4.602  -5.911  0.00  0.00     0.418 HD
ENDBRANCH   4   7
TORSDOF 1
ENDMDL
