MODEL 1
REMARK minimizedAffinity -2.07119036
REMARK minimizedRMSD -1
REMARK  1 active torsions:
REMARK  status: ('A' for Active; 'I' for Inactive)
REMARK    1  A    between atoms: C3_4  and  O_7 
ROOT
ATOM      1  C   UNL d   1       2.419   2.480  -5.527  0.00  0.00    -0.033 A 
ATOM      2  C1  UNL d   1       1.948   3.785  -5.370  0.00  0.00     0.039 A 
ATOM      3  C2  UNL d   1       2.818   4.866  -5.525  0.00  0.00    -0.080 A 
ATOM      4  C3  UNL d   1       4.153   4.630  -5.837  0.00  0.00     0.150 A 
ATOM      5  C4  UNL d   1       4.629   3.333  -6.000  0.00  0.00    -0.007 A 
ATOM      6  C5  UNL d   1       3.759   2.254  -5.843  0.00  0.00     0.039 A 
ENDROOT
BRANCH   4   7
ATOM      7  O   UNL d   1       5.040   5.653  -5.994  0.00  0.00    -0.526 OA
ATOM      8  H5  UNL d   1       4.577   6.490  -5.824  0.00  0.00     0.418 HD
ENDBRANCH   4   7
TORSDOF 1
ENDMDL
