MODEL 1
REMARK minimizedAffinity -3.14550424
REMARK minimizedRMSD -1
REMARK  1 active torsions:
REMARK  status: ('A' for Active; 'I' for Inactive)
REMARK    1  A    between atoms: C3_4  and  O_7 
ROOT
ATOM      1  C   UNL d   1       5.250   3.022  -5.626  0.00  0.00    -0.033 A 
ATOM      2  C1  UNL d   1       5.446   4.353  -5.998  0.00  0.00     0.039 A 
ATOM      3  C2  UNL d   1       4.372   5.245  -6.000  0.00  0.00    -0.080 A 
ATOM      4  C3  UNL d   1       3.109   4.794  -5.626  0.00  0.00     0.150 A 
ATOM      5  C4  UNL d   1       2.907   3.470  -5.250  0.00  0.00    -0.007 A 
ATOM      6  C5  UNL d   1       3.981   2.581  -5.250  0.00  0.00     0.039 A 
ENDROOT
BRANCH   4   7
ATOM      7  O   UNL d   1       2.029   5.626  -5.617  0.00  0.00    -0.526 OA
ATOM      8  H5  UNL d   1       2.313   6.502  -5.927  0.00  0.00     0.418 HD
ENDBRANCH   4   7
TORSDOF 1
ENDMDL
