MODEL 1
REMARK minimizedAffinity -2.8978796
REMARK minimizedRMSD -1
REMARK  1 active torsions:
REMARK  status: ('A' for Active; 'I' for Inactive)
REMARK    1  A    between atoms: C3_4  and  O_7 
ROOT
ATOM      1  C   UNL d   1       4.844   3.970  -5.626  0.00  0.00    -0.033 A 
ATOM      2  C1  UNL d   1       4.206   5.156  -5.996  0.00  0.00     0.039 A 
ATOM      3  C2  UNL d   1       2.832   5.302  -5.796  0.00  0.00    -0.080 A 
ATOM      4  C3  UNL d   1       2.109   4.257  -5.227  0.00  0.00     0.150 A 
ATOM      5  C4  UNL d   1       2.739   3.075  -4.854  0.00  0.00    -0.007 A 
ATOM      6  C5  UNL d   1       4.111   2.930  -5.054  0.00  0.00     0.039 A 
ENDROOT
BRANCH   4   7
ATOM      7  O   UNL d   1       0.765   4.352  -5.018  0.00  0.00    -0.526 OA
ATOM      8  H5  UNL d   1       0.461   5.213  -5.351  0.00  0.00     0.418 HD
ENDBRANCH   4   7
TORSDOF 1
ENDMDL
