MODEL 1
REMARK minimizedAffinity -3.53965282
REMARK minimizedRMSD -1
REMARK  1 active torsions:
REMARK  status: ('A' for Active; 'I' for Inactive)
REMARK    1  A    between atoms: C3_4  and  O_7 
ROOT
ATOM      1  C   UNL d   1       4.509   4.036  -5.629  0.00  0.00    -0.033 A 
ATOM      2  C1  UNL d   1       3.792   5.175  -5.997  0.00  0.00     0.039 A 
ATOM      3  C2  UNL d   1       2.400   5.193  -5.888  0.00  0.00    -0.080 A 
ATOM      4  C3  UNL d   1       1.738   4.065  -5.408  0.00  0.00     0.150 A 
ATOM      5  C4  UNL d   1       2.447   2.928  -5.036  0.00  0.00    -0.007 A 
ATOM      6  C5  UNL d   1       3.836   2.912  -5.147  0.00  0.00     0.039 A 
ENDROOT
BRANCH   4   7
ATOM      7  O   UNL d   1       0.381   4.033  -5.288  0.00  0.00    -0.526 OA
ATOM      8  H5  UNL d   1       0.023   4.878  -5.610  0.00  0.00     0.418 HD
ENDBRANCH   4   7
TORSDOF 1
ENDMDL
