MODEL 1
REMARK minimizedAffinity -3.80868077
REMARK minimizedRMSD -1
REMARK  1 active torsions:
REMARK  status: ('A' for Active; 'I' for Inactive)
REMARK    1  A    between atoms: C3_4  and  O_7 
ROOT
ATOM      1  C   UNL d   1       4.772   2.525  -5.237  0.00  0.00    -0.033 A 
ATOM      2  C1  UNL d   1       4.866   3.642  -4.403  0.00  0.00     0.039 A 
ATOM      3  C2  UNL d   1       3.812   4.554  -4.333  0.00  0.00    -0.080 A 
ATOM      4  C3  UNL d   1       2.670   4.339  -5.101  0.00  0.00     0.150 A 
ATOM      5  C4  UNL d   1       2.568   3.227  -5.930  0.00  0.00    -0.007 A 
ATOM      6  C5  UNL d   1       3.622   2.318  -5.999  0.00  0.00     0.039 A 
ENDROOT
BRANCH   4   7
ATOM      7  O   UNL d   1       1.617   5.205  -5.070  0.00  0.00    -0.526 OA
ATOM      8  H5  UNL d   1       1.841   5.940  -4.475  0.00  0.00     0.418 HD
ENDBRANCH   4   7
TORSDOF 1
ENDMDL
