MODEL 1
REMARK minimizedAffinity -3.71213841
REMARK minimizedRMSD -1
REMARK  1 active torsions:
REMARK  status: ('A' for Active; 'I' for Inactive)
REMARK    1  A    between atoms: C3_4  and  O_7 
ROOT
ATOM      1  C   UNL d   1       4.130   4.948  -5.595  0.00  0.00    -0.033 A 
ATOM      2  C1  UNL d   1       3.218   5.977  -5.839  0.00  0.00     0.039 A 
ATOM      3  C2  UNL d   1       1.858   5.689  -5.975  0.00  0.00    -0.080 A 
ATOM      4  C3  UNL d   1       1.424   4.371  -5.863  0.00  0.00     0.150 A 
ATOM      5  C4  UNL d   1       2.327   3.342  -5.616  0.00  0.00    -0.007 A 
ATOM      6  C5  UNL d   1       3.684   3.631  -5.482  0.00  0.00     0.039 A 
ENDROOT
BRANCH   4   7
ATOM      7  O   UNL d   1       0.108   4.041  -5.993  0.00  0.00    -0.526 OA
ATOM      8  H5  UNL d   1      -0.394   4.850  -6.190  0.00  0.00     0.418 HD
ENDBRANCH   4   7
TORSDOF 1
ENDMDL
