MODEL 1
REMARK minimizedAffinity -1.07841671
REMARK minimizedRMSD -1
REMARK  1 active torsions:
REMARK  status: ('A' for Active; 'I' for Inactive)
REMARK    1  A    between atoms: C3_4  and  O_7 
ROOT
ATOM      1  C   UNL d   1       3.547   5.994  -5.996  0.00  0.00    -0.033 A 
ATOM      2  C1  UNL d   1       4.803   5.385  -5.999  0.00  0.00     0.039 A 
ATOM      3  C2  UNL d   1       4.906   3.993  -5.999  0.00  0.00    -0.080 A 
ATOM      4  C3  UNL d   1       3.746   3.222  -5.996  0.00  0.00     0.150 A 
ATOM      5  C4  UNL d   1       2.491   3.823  -5.997  0.00  0.00    -0.007 A 
ATOM      6  C5  UNL d   1       2.391   5.213  -5.996  0.00  0.00     0.039 A 
ENDROOT
BRANCH   4   7
ATOM      7  O   UNL d   1       3.796   1.860  -5.991  0.00  0.00    -0.526 OA
ATOM      8  H5  UNL d   1       4.728   1.586  -5.962  0.00  0.00     0.418 HD
ENDBRANCH   4   7
TORSDOF 1
ENDMDL
