MODEL 1
REMARK minimizedAffinity -3.50456452
REMARK minimizedRMSD -1
REMARK  1 active torsions:
REMARK  status: ('A' for Active; 'I' for Inactive)
REMARK    1  A    between atoms: C3_4  and  O_7 
ROOT
ATOM      1  C   UNL d   1       3.001   2.957  -5.317  0.00  0.00    -0.033 A 
ATOM      2  C1  UNL d   1       2.726   4.150  -4.645  0.00  0.00     0.039 A 
ATOM      3  C2  UNL d   1       3.662   5.186  -4.648  0.00  0.00    -0.080 A 
ATOM      4  C3  UNL d   1       4.866   5.018  -5.325  0.00  0.00     0.150 A 
ATOM      5  C4  UNL d   1       5.145   3.834  -6.000  0.00  0.00    -0.007 A 
ATOM      6  C5  UNL d   1       4.210   2.800  -5.995  0.00  0.00     0.039 A 
ENDROOT
BRANCH   4   7
ATOM      7  O   UNL d   1       5.812   6.000  -5.352  0.00  0.00    -0.526 OA
ATOM      8  H5  UNL d   1       5.494   6.748  -4.820  0.00  0.00     0.418 HD
ENDBRANCH   4   7
TORSDOF 1
ENDMDL
