MODEL 1
REMARK minimizedAffinity 5.96079493
REMARK minimizedRMSD -1
REMARK  0 active torsions:
REMARK  status: ('A' for Active; 'I' for Inactive)
ROOT
ATOM      1  C4' PXY d   1       2.281  -3.281   5.213  0.00  0.00     0.077 C 
ATOM      2  C1' PXY d   1      -0.206   0.925   2.125  0.00  0.00     0.077 C 
ATOM      3  C1  PXY d   1       0.437  -0.186   2.930  0.00  0.00    -0.082 A 
ATOM      4  C2  PXY d   1       1.118   0.109   4.026  0.00  0.00     0.003 A 
ATOM      5  C3  PXY d   1       1.733  -0.881   4.748  0.00  0.00     0.003 A 
ATOM      6  C4  PXY d   1       1.606  -2.192   4.374  0.00  0.00    -0.082 A 
ATOM      7  C5  PXY d   1       0.904  -2.502   3.264  0.00  0.00     0.003 A 
ATOM      8  C6  PXY d   1       0.322  -1.479   2.522  0.00  0.00     0.003 A 
ENDROOT
TORSDOF 0
ENDMDL
