MODEL 1
REMARK minimizedAffinity 6.27574205
REMARK minimizedRMSD -1
REMARK  0 active torsions:
REMARK  status: ('A' for Active; 'I' for Inactive)
ROOT
ATOM      1  C4' PXY d   1       2.277  -3.715   6.000  0.00  0.00     0.077 C 
ATOM      2  C1' PXY d   1      -0.390  -0.390   2.095  0.00  0.00     0.077 C 
ATOM      3  C1  PXY d   1       0.298  -1.265   3.125  0.00  0.00    -0.082 A 
ATOM      4  C2  PXY d   1       1.577  -1.068   3.400  0.00  0.00     0.003 A 
ATOM      5  C3  PXY d   1       2.223  -1.870   4.305  0.00  0.00     0.003 A 
ATOM      6  C4  PXY d   1       1.539  -2.850   4.974  0.00  0.00    -0.082 A 
ATOM      7  C5  PXY d   1       0.231  -3.050   4.707  0.00  0.00     0.003 A 
ATOM      8  C6  PXY d   1      -0.396  -2.251   3.755  0.00  0.00     0.003 A 
ENDROOT
TORSDOF 0
ENDMDL
