MODEL 1
REMARK minimizedAffinity 7.93526459
REMARK minimizedRMSD -1
REMARK  0 active torsions:
REMARK  status: ('A' for Active; 'I' for Inactive)
ROOT
ATOM      1  C4' PXY d   1      -1.885  -4.445  -5.201  0.00  0.00     0.077 C 
ATOM      2  C1' PXY d   1      -1.260  -1.689  -0.158  0.00  0.00     0.077 C 
ATOM      3  C1  PXY d   1      -1.424  -2.423  -1.475  0.00  0.00    -0.082 A 
ATOM      4  C2  PXY d   1      -1.010  -1.856  -2.596  0.00  0.00     0.003 A 
ATOM      5  C3  PXY d   1      -1.179  -2.492  -3.799  0.00  0.00     0.003 A 
ATOM      6  C4  PXY d   1      -1.731  -3.745  -3.848  0.00  0.00    -0.082 A 
ATOM      7  C5  PXY d   1      -2.146  -4.334  -2.707  0.00  0.00     0.003 A 
ATOM      8  C6  PXY d   1      -2.002  -3.654  -1.501  0.00  0.00     0.003 A 
ENDROOT
TORSDOF 0
ENDMDL
