MODEL 1
REMARK minimizedAffinity 5.44876003
REMARK minimizedRMSD -1
REMARK  0 active torsions:
REMARK  status: ('A' for Active; 'I' for Inactive)
ROOT
ATOM      1  C4' PXY d   1      -2.147  -4.880  -5.451  0.00  0.00     0.077 C 
ATOM      2  C1' PXY d   1       0.584  -0.211  -3.414  0.00  0.00     0.077 C 
ATOM      3  C1  PXY d   1      -0.132  -1.441  -3.936  0.00  0.00    -0.082 A 
ATOM      4  C2  PXY d   1      -0.079  -1.729  -5.226  0.00  0.00     0.003 A 
ATOM      5  C3  PXY d   1      -0.747  -2.820  -5.721  0.00  0.00     0.003 A 
ATOM      6  C4  PXY d   1      -1.432  -3.654  -4.878  0.00  0.00    -0.082 A 
ATOM      7  C5  PXY d   1      -1.481  -3.372  -3.559  0.00  0.00     0.003 A 
ATOM      8  C6  PXY d   1      -0.831  -2.237  -3.083  0.00  0.00     0.003 A 
ENDROOT
TORSDOF 0
ENDMDL
