MODEL 1
REMARK minimizedAffinity 8.75447941
REMARK minimizedRMSD -1
REMARK  0 active torsions:
REMARK  status: ('A' for Active; 'I' for Inactive)
ROOT
ATOM      1  C4' PXY d   1      -1.681  -2.216  -1.709  0.00  0.00     0.077 C 
ATOM      2  C1' PXY d   1       3.398  -0.607  -3.951  0.00  0.00     0.077 C 
ATOM      3  C1  PXY d   1       2.072  -1.039  -3.358  0.00  0.00    -0.082 A 
ATOM      4  C2  PXY d   1       0.943  -0.646  -3.924  0.00  0.00     0.003 A 
ATOM      5  C3  PXY d   1      -0.265  -1.001  -3.382  0.00  0.00     0.003 A 
ATOM      6  C4  PXY d   1      -0.319  -1.812  -2.280  0.00  0.00    -0.082 A 
ATOM      7  C5  PXY d   1       0.829  -2.226  -1.703  0.00  0.00     0.003 A 
ATOM      8  C6  PXY d   1       2.045  -1.820  -2.244  0.00  0.00     0.003 A 
ENDROOT
TORSDOF 0
ENDMDL
