MODEL 1
REMARK minimizedAffinity 10.1652412
REMARK minimizedRMSD -1
REMARK  0 active torsions:
REMARK  status: ('A' for Active; 'I' for Inactive)
ROOT
ATOM      1  C4' PXY d   1      -2.086  -5.491  -5.996  0.00  0.00     0.077 C 
ATOM      2  C1' PXY d   1      -2.179  -2.287  -1.186  0.00  0.00     0.077 C 
ATOM      3  C1  PXY d   1      -2.150  -3.137  -2.441  0.00  0.00    -0.082 A 
ATOM      4  C2  PXY d   1      -2.062  -2.553  -3.625  0.00  0.00     0.003 A 
ATOM      5  C3  PXY d   1      -2.067  -3.306  -4.771  0.00  0.00     0.003 A 
ATOM      6  C4  PXY d   1      -2.108  -4.672  -4.703  0.00  0.00    -0.082 A 
ATOM      7  C5  PXY d   1      -2.187  -5.276  -3.498  0.00  0.00     0.003 A 
ATOM      8  C6  PXY d   1      -2.222  -4.493  -2.348  0.00  0.00     0.003 A 
ENDROOT
TORSDOF 0
ENDMDL
