MODEL 1
REMARK minimizedAffinity 11.4203367
REMARK minimizedRMSD -1
REMARK  0 active torsions:
REMARK  status: ('A' for Active; 'I' for Inactive)
ROOT
ATOM      1  C4' PXY d   1      -2.177  -2.391  -3.848  0.00  0.00     0.077 C 
ATOM      2  C1' PXY d   1       3.011   0.148  -4.079  0.00  0.00     0.077 C 
ATOM      3  C1  PXY d   1       1.650  -0.517  -4.032  0.00  0.00    -0.082 A 
ATOM      4  C2  PXY d   1       0.939  -0.473  -2.917  0.00  0.00     0.003 A 
ATOM      5  C3  PXY d   1      -0.280  -1.097  -2.846  0.00  0.00     0.003 A 
ATOM      6  C4  PXY d   1      -0.801  -1.726  -3.945  0.00  0.00    -0.082 A 
ATOM      7  C5  PXY d   1      -0.087  -1.766  -5.090  0.00  0.00     0.003 A 
ATOM      8  C6  PXY d   1       1.167  -1.162  -5.128  0.00  0.00     0.003 A 
ENDROOT
TORSDOF 0
ENDMDL
