MODEL 1
REMARK minimizedAffinity 13.0864315
REMARK minimizedRMSD -1
REMARK  0 active torsions:
REMARK  status: ('A' for Active; 'I' for Inactive)
ROOT
ATOM      1  C4' PXY d   1       3.203   0.072  -4.222  0.00  0.00     0.077 C 
ATOM      2  C1' PXY d   1      -2.123  -1.899  -3.142  0.00  0.00     0.077 C 
ATOM      3  C1  PXY d   1      -0.726  -1.389  -3.437  0.00  0.00    -0.082 A 
ATOM      4  C2  PXY d   1       0.075  -1.059  -2.436  0.00  0.00     0.003 A 
ATOM      5  C3  PXY d   1       1.329  -0.565  -2.686  0.00  0.00     0.003 A 
ATOM      6  C4  PXY d   1       1.788  -0.457  -3.971  0.00  0.00    -0.082 A 
ATOM      7  C5  PXY d   1       0.981  -0.802  -4.997  0.00  0.00     0.003 A 
ATOM      8  C6  PXY d   1      -0.304  -1.262  -4.724  0.00  0.00     0.003 A 
ENDROOT
TORSDOF 0
ENDMDL
