MODEL 1
REMARK minimizedAffinity 24.9670753
REMARK minimizedRMSD -1
REMARK  0 active torsions:
REMARK  status: ('A' for Active; 'I' for Inactive)
ROOT
ATOM      1  C   UNL d   1       4.865  -3.751   0.847  0.00  0.00     0.124 A 
ATOM      2  C1  UNL d   1       4.140  -4.213   1.937  0.00  0.00     0.062 A 
ATOM      3  C2  UNL d   1       2.960  -3.578   2.314  0.00  0.00     0.162 A 
ATOM      4  C3  UNL d   1       2.496  -2.474   1.599  0.00  0.00    -0.034 A 
ATOM      5  C4  UNL d   1       3.231  -2.014   0.504  0.00  0.00     0.162 A 
ATOM      6  C5  UNL d   1       4.410  -2.652   0.132  0.00  0.00     0.062 A 
ATOM      7  F   UNL d   1       5.108  -2.204  -0.921  0.00  0.00    -0.097 F 
ATOM      8  F1  UNL d   1       2.814  -0.955  -0.205  0.00  0.00    -0.096 F 
ATOM      9  I   UNL d   1       0.732  -1.521   2.158  0.00  0.00    -0.060 I 
ATOM     10  F2  UNL d   1       2.280  -4.046   3.371  0.00  0.00    -0.096 F 
ATOM     11  F3  UNL d   1       4.578  -5.274   2.631  0.00  0.00    -0.097 F 
ATOM     12  F4  UNL d   1       6.000  -4.363   0.488  0.00  0.00    -0.092 F 
ENDROOT
TORSDOF 0
ENDMDL
