MODEL 1
REMARK minimizedAffinity 14.4717999
REMARK minimizedRMSD -1
REMARK  0 active torsions:
REMARK  status: ('A' for Active; 'I' for Inactive)
ROOT
ATOM      1  C   UNL d   1       1.957  -4.874  -1.648  0.00  0.00     0.124 A 
ATOM      2  C1  UNL d   1       3.185  -4.907  -2.293  0.00  0.00     0.062 A 
ATOM      3  C2  UNL d   1       4.340  -4.516  -1.621  0.00  0.00     0.162 A 
ATOM      4  C3  UNL d   1       4.271  -4.088  -0.295  0.00  0.00    -0.034 A 
ATOM      5  C4  UNL d   1       3.032  -4.056   0.347  0.00  0.00     0.162 A 
ATOM      6  C5  UNL d   1       1.881  -4.449  -0.329  0.00  0.00     0.062 A 
ATOM      7  F   UNL d   1       0.695  -4.416   0.296  0.00  0.00    -0.097 F 
ATOM      8  F1  UNL d   1       2.930  -3.651   1.622  0.00  0.00    -0.096 F 
ATOM      9  I   UNL d   1       5.995  -3.502   0.714  0.00  0.00    -0.060 I 
ATOM     10  F2  UNL d   1       5.513  -4.558  -2.268  0.00  0.00    -0.096 F 
ATOM     11  F3  UNL d   1       3.261  -5.317  -3.567  0.00  0.00    -0.097 F 
ATOM     12  F4  UNL d   1       0.848  -5.251  -2.297  0.00  0.00    -0.092 F 
ENDROOT
TORSDOF 0
ENDMDL
