MODEL 1
REMARK minimizedAffinity 19.9614029
REMARK minimizedRMSD -1
REMARK  0 active torsions:
REMARK  status: ('A' for Active; 'I' for Inactive)
ROOT
ATOM      1  C   UNL d   1       0.744  -5.096  -1.698  0.00  0.00     0.124 A 
ATOM      2  C1  UNL d   1      -0.354  -4.883  -0.875  0.00  0.00     0.062 A 
ATOM      3  C2  UNL d   1      -0.288  -3.944   0.151  0.00  0.00     0.162 A 
ATOM      4  C3  UNL d   1       0.880  -3.211   0.360  0.00  0.00    -0.034 A 
ATOM      5  C4  UNL d   1       1.980  -3.432  -0.470  0.00  0.00     0.162 A 
ATOM      6  C5  UNL d   1       1.909  -4.370  -1.494  0.00  0.00     0.062 A 
ATOM      7  F   UNL d   1       2.971  -4.575  -2.288  0.00  0.00    -0.097 F 
ATOM      8  F1  UNL d   1       3.118  -2.744  -0.297  0.00  0.00    -0.096 F 
ATOM      9  I   UNL d   1       0.982  -1.807   1.893  0.00  0.00    -0.060 I 
ATOM     10  F2  UNL d   1      -1.364  -3.759   0.930  0.00  0.00    -0.096 F 
ATOM     11  F3  UNL d   1      -1.481  -5.583  -1.069  0.00  0.00    -0.097 F 
ATOM     12  F4  UNL d   1       0.678  -6.000  -2.683  0.00  0.00    -0.092 F 
ENDROOT
TORSDOF 0
ENDMDL
