MODEL 1
REMARK minimizedAffinity 16.7946758
REMARK minimizedRMSD -1
REMARK  0 active torsions:
REMARK  status: ('A' for Active; 'I' for Inactive)
ROOT
ATOM      1  C   UNL d   1      -0.795  -4.332  -0.575  0.00  0.00     0.124 A 
ATOM      2  C1  UNL d   1       0.548  -4.474  -0.253  0.00  0.00     0.062 A 
ATOM      3  C2  UNL d   1       1.151  -3.591   0.638  0.00  0.00     0.162 A 
ATOM      4  C3  UNL d   1       0.412  -2.558   1.214  0.00  0.00    -0.034 A 
ATOM      5  C4  UNL d   1      -0.938  -2.421   0.884  0.00  0.00     0.162 A 
ATOM      6  C5  UNL d   1      -1.536  -3.306  -0.007  0.00  0.00     0.062 A 
ATOM      7  F   UNL d   1      -2.833  -3.167  -0.318  0.00  0.00    -0.097 F 
ATOM      8  F1  UNL d   1      -1.678  -1.439   1.419  0.00  0.00    -0.096 F 
ATOM      9  I   UNL d   1       1.310  -1.235   2.547  0.00  0.00    -0.060 I 
ATOM     10  F2  UNL d   1       2.450  -3.752   0.932  0.00  0.00    -0.096 F 
ATOM     11  F3  UNL d   1       1.267  -5.464  -0.801  0.00  0.00    -0.097 F 
ATOM     12  F4  UNL d   1      -1.372  -5.183  -1.434  0.00  0.00    -0.092 F 
ENDROOT
TORSDOF 0
ENDMDL
