MODEL 1
REMARK minimizedAffinity 27.072855
REMARK minimizedRMSD -1
REMARK  0 active torsions:
REMARK  status: ('A' for Active; 'I' for Inactive)
ROOT
ATOM      1  C   UNL d   1       4.686  -3.408  -0.435  0.00  0.00     0.124 A 
ATOM      2  C1  UNL d   1       4.176  -4.449  -1.199  0.00  0.00     0.062 A 
ATOM      3  C2  UNL d   1       2.811  -4.719  -1.192  0.00  0.00     0.162 A 
ATOM      4  C3  UNL d   1       1.944  -3.946  -0.419  0.00  0.00    -0.034 A 
ATOM      5  C4  UNL d   1       2.464  -2.901   0.348  0.00  0.00     0.162 A 
ATOM      6  C5  UNL d   1       3.830  -2.635   0.337  0.00  0.00     0.062 A 
ATOM      7  F   UNL d   1       4.320  -1.629   1.076  0.00  0.00    -0.097 F 
ATOM      8  F1  UNL d   1       1.660  -2.138   1.102  0.00  0.00    -0.096 F 
ATOM      9  I   UNL d   1      -0.098  -4.346  -0.406  0.00  0.00    -0.060 I 
ATOM     10  F2  UNL d   1       2.346  -5.731  -1.940  0.00  0.00    -0.096 F 
ATOM     11  F3  UNL d   1       5.001  -5.197  -1.945  0.00  0.00    -0.097 F 
ATOM     12  F4  UNL d   1       6.000  -3.151  -0.442  0.00  0.00    -0.092 F 
ENDROOT
TORSDOF 0
ENDMDL
