MODEL 1
REMARK minimizedAffinity 19.2364826
REMARK minimizedRMSD -1
REMARK  0 active torsions:
REMARK  status: ('A' for Active; 'I' for Inactive)
ROOT
ATOM      1  C   UNL d   1       1.093  -4.071  -1.526  0.00  0.00     0.124 A 
ATOM      2  C1  UNL d   1       2.263  -3.331  -1.427  0.00  0.00     0.062 A 
ATOM      3  C2  UNL d   1       2.493  -2.531  -0.311  0.00  0.00     0.162 A 
ATOM      4  C3  UNL d   1       1.551  -2.467   0.715  0.00  0.00    -0.034 A 
ATOM      5  C4  UNL d   1       0.376  -3.214   0.608  0.00  0.00     0.162 A 
ATOM      6  C5  UNL d   1       0.151  -4.011  -0.509  0.00  0.00     0.062 A 
ATOM      7  F   UNL d   1      -0.980  -4.725  -0.603  0.00  0.00    -0.097 F 
ATOM      8  F1  UNL d   1      -0.551  -3.175   1.577  0.00  0.00    -0.096 F 
ATOM      9  I   UNL d   1       1.892  -1.273   2.385  0.00  0.00    -0.060 I 
ATOM     10  F2  UNL d   1       3.633  -1.827  -0.242  0.00  0.00    -0.096 F 
ATOM     11  F3  UNL d   1       3.175  -3.386  -2.409  0.00  0.00    -0.097 F 
ATOM     12  F4  UNL d   1       0.874  -4.839  -2.601  0.00  0.00    -0.092 F 
ENDROOT
TORSDOF 0
ENDMDL
