MODEL 1
REMARK minimizedAffinity 24.4344463
REMARK minimizedRMSD -1
REMARK  0 active torsions:
REMARK  status: ('A' for Active; 'I' for Inactive)
ROOT
ATOM      1  C   UNL d   1       2.375  -3.780   0.003  0.00  0.00     0.124 A 
ATOM      2  C1  UNL d   1       3.696  -3.524   0.345  0.00  0.00     0.062 A 
ATOM      3  C2  UNL d   1       4.732  -4.053  -0.419  0.00  0.00     0.162 A 
ATOM      4  C3  UNL d   1       4.452  -4.842  -1.535  0.00  0.00    -0.034 A 
ATOM      5  C4  UNL d   1       3.122  -5.096  -1.872  0.00  0.00     0.162 A 
ATOM      6  C5  UNL d   1       2.090  -4.566  -1.105  0.00  0.00     0.062 A 
ATOM      7  F   UNL d   1       0.814  -4.815  -1.437  0.00  0.00    -0.097 F 
ATOM      8  F1  UNL d   1       2.817  -5.851  -2.938  0.00  0.00    -0.096 F 
ATOM      9  I   UNL d   1       5.999  -5.634  -2.680  0.00  0.00    -0.060 I 
ATOM     10  F2  UNL d   1       5.999  -3.789  -0.066  0.00  0.00    -0.096 F 
ATOM     11  F3  UNL d   1       3.975  -2.766   1.415  0.00  0.00    -0.097 F 
ATOM     12  F4  UNL d   1       1.380  -3.271   0.740  0.00  0.00    -0.092 F 
ENDROOT
TORSDOF 0
ENDMDL
