MODEL 1
REMARK minimizedAffinity 15.70893
REMARK minimizedRMSD -1
REMARK  0 active torsions:
REMARK  status: ('A' for Active; 'I' for Inactive)
ROOT
ATOM      1  C   UNL d   1       1.332  -3.022   1.418  0.00  0.00     0.124 A 
ATOM      2  C1  UNL d   1       1.765  -4.327   1.610  0.00  0.00     0.062 A 
ATOM      3  C2  UNL d   1       3.096  -4.663   1.385  0.00  0.00     0.162 A 
ATOM      4  C3  UNL d   1       4.006  -3.693   0.966  0.00  0.00    -0.034 A 
ATOM      5  C4  UNL d   1       3.563  -2.383   0.773  0.00  0.00     0.162 A 
ATOM      6  C5  UNL d   1       2.231  -2.052   0.999  0.00  0.00     0.062 A 
ATOM      7  F   UNL d   1       1.815  -0.791   0.812  0.00  0.00    -0.097 F 
ATOM      8  F1  UNL d   1       4.411  -1.425   0.370  0.00  0.00    -0.096 F 
ATOM      9  I   UNL d   1       5.998  -4.192   0.628  0.00  0.00    -0.060 I 
ATOM     10  F2  UNL d   1       3.487  -5.932   1.580  0.00  0.00    -0.096 F 
ATOM     11  F3  UNL d   1       0.898  -5.267   2.014  0.00  0.00    -0.097 F 
ATOM     12  F4  UNL d   1       0.050  -2.702   1.634  0.00  0.00    -0.092 F 
ENDROOT
TORSDOF 0
ENDMDL
