MODEL 1
REMARK minimizedAffinity 2.24397016
REMARK minimizedRMSD -1
REMARK  1 active torsions:
REMARK  status: ('A' for Active; 'I' for Inactive)
REMARK    1  A    between atoms: C1_2  and  C2_3 
ROOT
ATOM      1  C2  UNL d   1      -5.709   4.968   3.646  0.00  0.00    -0.073 A 
ATOM      2  C3  UNL d   1      -5.976   5.987   2.725  0.00  0.00    -0.002 A 
ATOM      3  C4  UNL d   1      -5.781   5.772   1.360  0.00  0.00     0.004 A 
ATOM      4  C5  UNL d   1      -5.325   4.536   0.902  0.00  0.00    -0.004 A 
ATOM      5  C6  UNL d   1      -5.064   3.502   1.806  0.00  0.00    -0.075 A 
ATOM      6  C7  UNL d   1      -4.571   2.167   1.329  0.00  0.00     0.076 C 
ATOM      7  C8  UNL d   1      -5.260   3.726   3.175  0.00  0.00     0.001 A 
ENDROOT
BRANCH   1   8
ATOM      8  C1  UNL d   1      -5.924   5.193   5.120  0.00  0.00     0.053 C 
ATOM      9  C   UNL d   1      -5.143   4.203   5.968  0.00  0.00     0.018 C 
ENDBRANCH   1   8
TORSDOF 1
ENDMDL
