MODEL 1
REMARK minimizedAffinity -2.8886106
REMARK minimizedRMSD -1
REMARK  1 active torsions:
REMARK  status: ('A' for Active; 'I' for Inactive)
REMARK    1  A    between atoms: C1_2  and  C2_3 
ROOT
ATOM      1  C2  UNL d   1      -5.834   3.574   5.144  0.00  0.00    -0.073 A 
ATOM      2  C3  UNL d   1      -5.920   4.788   5.836  0.00  0.00    -0.002 A 
ATOM      3  C4  UNL d   1      -5.995   5.994   5.138  0.00  0.00     0.004 A 
ATOM      4  C5  UNL d   1      -5.993   5.998   3.743  0.00  0.00    -0.004 A 
ATOM      5  C6  UNL d   1      -5.919   4.795   3.033  0.00  0.00    -0.075 A 
ATOM      6  C7  UNL d   1      -5.913   4.784   1.533  0.00  0.00     0.076 C 
ATOM      7  C8  UNL d   1      -5.841   3.589   3.742  0.00  0.00     0.001 A 
ENDROOT
BRANCH   1   8
ATOM      8  C1  UNL d   1      -5.759   2.269   5.893  0.00  0.00     0.053 C 
ATOM      9  C   UNL d   1      -4.332   1.754   6.000  0.00  0.00     0.018 C 
ENDBRANCH   1   8
TORSDOF 1
ENDMDL
