MODEL 1
REMARK minimizedAffinity 4.06953287
REMARK minimizedRMSD -1
REMARK  1 active torsions:
REMARK  status: ('A' for Active; 'I' for Inactive)
REMARK    1  A    between atoms: C1_2  and  C2_3 
ROOT
ATOM      1  C2  UNL d   1      -5.179   4.771   3.103  0.00  0.00    -0.073 A 
ATOM      2  C3  UNL d   1      -6.000   5.710   3.738  0.00  0.00    -0.002 A 
ATOM      3  C4  UNL d   1      -5.847   5.973   5.100  0.00  0.00     0.004 A 
ATOM      4  C5  UNL d   1      -4.870   5.307   5.838  0.00  0.00    -0.004 A 
ATOM      5  C6  UNL d   1      -4.032   4.373   5.219  0.00  0.00    -0.075 A 
ATOM      6  C7  UNL d   1      -2.977   3.646   6.000  0.00  0.00     0.076 C 
ATOM      7  C8  UNL d   1      -4.193   4.112   3.852  0.00  0.00     0.001 A 
ENDROOT
BRANCH   1   8
ATOM      8  C1  UNL d   1      -5.336   4.488   1.631  0.00  0.00     0.053 C 
ATOM      9  C   UNL d   1      -4.813   5.629   0.773  0.00  0.00     0.018 C 
ENDBRANCH   1   8
TORSDOF 1
ENDMDL
