MODEL 1
REMARK minimizedAffinity 12.0277939
REMARK minimizedRMSD -1
REMARK  1 active torsions:
REMARK  status: ('A' for Active; 'I' for Inactive)
REMARK    1  A    between atoms: C1_2  and  C2_3 
ROOT
ATOM      1  C2  UNL d   1       0.223  -0.755   1.657  0.00  0.00    -0.073 A 
ATOM      2  C3  UNL d   1       0.881  -0.697   0.424  0.00  0.00    -0.002 A 
ATOM      3  C4  UNL d   1       0.151  -0.698  -0.765  0.00  0.00     0.004 A 
ATOM      4  C5  UNL d   1      -1.242  -0.750  -0.734  0.00  0.00    -0.004 A 
ATOM      5  C6  UNL d   1      -1.919  -0.797   0.490  0.00  0.00    -0.075 A 
ATOM      6  C7  UNL d   1      -3.417  -0.856   0.541  0.00  0.00     0.076 C 
ATOM      7  C8  UNL d   1      -1.178  -0.799   1.679  0.00  0.00     0.001 A 
ENDROOT
BRANCH   1   8
ATOM      8  C1  UNL d   1       1.007  -0.748   2.944  0.00  0.00     0.053 C 
ATOM      9  C   UNL d   1       2.128   0.278   2.923  0.00  0.00     0.018 C 
ENDBRANCH   1   8
TORSDOF 1
ENDMDL
