MODEL 1
REMARK minimizedAffinity -3.25236058
REMARK minimizedRMSD -1
REMARK  1 active torsions:
REMARK  status: ('A' for Active; 'I' for Inactive)
REMARK    1  A    between atoms: C1_2  and  C2_3 
ROOT
ATOM      1  C2  UNL d   1      -5.471   4.572   3.133  0.00  0.00    -0.073 A 
ATOM      2  C3  UNL d   1      -5.747   5.768   3.805  0.00  0.00    -0.002 A 
ATOM      3  C4  UNL d   1      -5.999   5.763   5.178  0.00  0.00     0.004 A 
ATOM      4  C5  UNL d   1      -5.971   4.566   5.893  0.00  0.00    -0.004 A 
ATOM      5  C6  UNL d   1      -5.686   3.362   5.241  0.00  0.00    -0.075 A 
ATOM      6  C7  UNL d   1      -5.654   2.065   5.995  0.00  0.00     0.076 C 
ATOM      7  C8  UNL d   1      -5.436   3.374   3.862  0.00  0.00     0.001 A 
ENDROOT
BRANCH   1   8
ATOM      8  C1  UNL d   1      -5.191   4.573   1.653  0.00  0.00     0.053 C 
ATOM      9  C   UNL d   1      -4.869   5.965   1.134  0.00  0.00     0.018 C 
ENDBRANCH   1   8
TORSDOF 1
ENDMDL
