MODEL 1
REMARK minimizedAffinity -2.83764386
REMARK minimizedRMSD -1
REMARK  1 active torsions:
REMARK  status: ('A' for Active; 'I' for Inactive)
REMARK    1  A    between atoms: C1_2  and  C2_3 
ROOT
ATOM      1  C2  UNL d   1      -5.683   4.697   3.196  0.00  0.00    -0.073 A 
ATOM      2  C3  UNL d   1      -5.845   5.904   3.885  0.00  0.00    -0.002 A 
ATOM      3  C4  UNL d   1      -5.581   5.975   5.254  0.00  0.00     0.004 A 
ATOM      4  C5  UNL d   1      -5.147   4.844   5.944  0.00  0.00    -0.004 A 
ATOM      5  C6  UNL d   1      -4.969   3.631   5.271  0.00  0.00    -0.075 A 
ATOM      6  C7  UNL d   1      -4.505   2.405   6.000  0.00  0.00     0.076 C 
ATOM      7  C8  UNL d   1      -5.238   3.568   3.897  0.00  0.00     0.001 A 
ENDROOT
BRANCH   1   8
ATOM      8  C1  UNL d   1      -5.961   4.617   1.717  0.00  0.00     0.053 C 
ATOM      9  C   UNL d   1      -6.000   5.993   1.069  0.00  0.00     0.018 C 
ENDBRANCH   1   8
TORSDOF 1
ENDMDL
