MODEL 1
REMARK minimizedAffinity -2.61619687
REMARK minimizedRMSD -1
REMARK  1 active torsions:
REMARK  status: ('A' for Active; 'I' for Inactive)
REMARK    1  A    between atoms: C1_2  and  C2_3 
ROOT
ATOM      1  C2  UNL d   1      -5.532   4.789   3.337  0.00  0.00    -0.073 A 
ATOM      2  C3  UNL d   1      -5.360   5.994   4.027  0.00  0.00    -0.002 A 
ATOM      3  C4  UNL d   1      -4.921   5.990   5.352  0.00  0.00     0.004 A 
ATOM      4  C5  UNL d   1      -4.644   4.785   5.997  0.00  0.00    -0.004 A 
ATOM      5  C6  UNL d   1      -4.799   3.571   5.320  0.00  0.00    -0.075 A 
ATOM      6  C7  UNL d   1      -4.508   2.266   6.000  0.00  0.00     0.076 C 
ATOM      7  C8  UNL d   1      -5.243   3.583   3.990  0.00  0.00     0.001 A 
ENDROOT
BRANCH   1   8
ATOM      8  C1  UNL d   1      -5.999   4.788   1.904  0.00  0.00     0.053 C 
ATOM      9  C   UNL d   1      -5.482   5.993   1.135  0.00  0.00     0.018 C 
ENDBRANCH   1   8
TORSDOF 1
ENDMDL
