MODEL 1
REMARK minimizedAffinity -0.592418551
REMARK minimizedRMSD -1
REMARK  1 active torsions:
REMARK  status: ('A' for Active; 'I' for Inactive)
REMARK    1  A    between atoms: C1_2  and  C2_3 
ROOT
ATOM      1  C2  UNL d   1      -5.541   3.583   3.840  0.00  0.00    -0.073 A 
ATOM      2  C3  UNL d   1      -5.884   4.845   4.339  0.00  0.00    -0.002 A 
ATOM      3  C4  UNL d   1      -5.859   5.963   3.504  0.00  0.00     0.004 A 
ATOM      4  C5  UNL d   1      -5.499   5.831   2.163  0.00  0.00    -0.004 A 
ATOM      5  C6  UNL d   1      -5.164   4.576   1.644  0.00  0.00    -0.075 A 
ATOM      6  C7  UNL d   1      -4.772   4.417   0.204  0.00  0.00     0.076 C 
ATOM      7  C8  UNL d   1      -5.189   3.458   2.488  0.00  0.00     0.001 A 
ENDROOT
BRANCH   1   8
ATOM      8  C1  UNL d   1      -5.572   2.372   4.736  0.00  0.00     0.053 C 
ATOM      9  C   UNL d   1      -4.718   2.560   5.979  0.00  0.00     0.018 C 
ENDBRANCH   1   8
TORSDOF 1
ENDMDL
