MODEL 1
REMARK minimizedAffinity -0.219041556
REMARK minimizedRMSD -1
REMARK  1 active torsions:
REMARK  status: ('A' for Active; 'I' for Inactive)
REMARK    1  A    between atoms: C1_2  and  C2_3 
ROOT
ATOM      1  C2  UNL d   1      -0.239   0.144  -1.813  0.00  0.00    -0.073 A 
ATOM      2  C3  UNL d   1       0.904  -0.041  -1.027  0.00  0.00    -0.002 A 
ATOM      3  C4  UNL d   1       0.805  -0.629   0.235  0.00  0.00     0.004 A 
ATOM      4  C5  UNL d   1      -0.436  -1.043   0.721  0.00  0.00    -0.004 A 
ATOM      5  C6  UNL d   1      -1.588  -0.877  -0.054  0.00  0.00    -0.075 A 
ATOM      6  C7  UNL d   1      -2.930  -1.314   0.455  0.00  0.00     0.076 C 
ATOM      7  C8  UNL d   1      -1.480  -0.283  -1.319  0.00  0.00     0.001 A 
ENDROOT
BRANCH   1   8
ATOM      8  C1  UNL d   1      -0.136   0.772  -3.179  0.00  0.00     0.053 C 
ATOM      9  C   UNL d   1       0.909   0.087  -4.044  0.00  0.00     0.018 C 
ENDBRANCH   1   8
TORSDOF 1
ENDMDL
