MODEL 1
REMARK minimizedAffinity -3.09509325
REMARK minimizedRMSD -1
REMARK  1 active torsions:
REMARK  status: ('A' for Active; 'I' for Inactive)
REMARK    1  A    between atoms: C1_2  and  C2_3 
ROOT
ATOM      1  C2  UNL d   1      -4.877   3.613   5.310  0.00  0.00    -0.073 A 
ATOM      2  C3  UNL d   1      -5.622   4.591   5.979  0.00  0.00    -0.002 A 
ATOM      3  C4  UNL d   1      -5.965   5.780   5.334  0.00  0.00     0.004 A 
ATOM      4  C5  UNL d   1      -5.575   6.000   4.013  0.00  0.00    -0.004 A 
ATOM      5  C6  UNL d   1      -4.841   5.030   3.324  0.00  0.00    -0.075 A 
ATOM      6  C7  UNL d   1      -4.411   5.252   1.903  0.00  0.00     0.076 C 
ATOM      7  C8  UNL d   1      -4.497   3.840   3.979  0.00  0.00     0.001 A 
ENDROOT
BRANCH   1   8
ATOM      8  C1  UNL d   1      -4.509   2.325   6.000  0.00  0.00     0.053 C 
ATOM      9  C   UNL d   1      -3.008   2.085   5.996  0.00  0.00     0.018 C 
ENDBRANCH   1   8
TORSDOF 1
ENDMDL
