MODEL 1
REMARK minimizedAffinity -3.26684117
REMARK minimizedRMSD -1
REMARK  1 active torsions:
REMARK  status: ('A' for Active; 'I' for Inactive)
REMARK    1  A    between atoms: C1_2  and  C2_3 
ROOT
ATOM      1  C2  UNL d   1      -5.336   4.633   2.726  0.00  0.00    -0.073 A 
ATOM      2  C3  UNL d   1      -5.826   5.838   3.243  0.00  0.00    -0.002 A 
ATOM      3  C4  UNL d   1      -5.993   5.998   4.619  0.00  0.00     0.004 A 
ATOM      4  C5  UNL d   1      -5.666   4.960   5.491  0.00  0.00    -0.004 A 
ATOM      5  C6  UNL d   1      -5.164   3.753   4.995  0.00  0.00    -0.075 A 
ATOM      6  C7  UNL d   1      -4.810   2.626   5.920  0.00  0.00     0.076 C 
ATOM      7  C8  UNL d   1      -5.002   3.599   3.611  0.00  0.00     0.001 A 
ENDROOT
BRANCH   1   8
ATOM      8  C1  UNL d   1      -5.148   4.457   1.241  0.00  0.00     0.053 C 
ATOM      9  C   UNL d   1      -4.855   3.012   0.871  0.00  0.00     0.018 C 
ENDBRANCH   1   8
TORSDOF 1
ENDMDL
