MODEL 1
REMARK minimizedAffinity -0.129997268
REMARK minimizedRMSD -1
REMARK  1 active torsions:
REMARK  status: ('A' for Active; 'I' for Inactive)
REMARK    1  A    between atoms: C1_2  and  C2_3 
ROOT
ATOM      1  C2  UNL d   1      -5.659   4.569   2.896  0.00  0.00    -0.073 A 
ATOM      2  C3  UNL d   1      -5.999   5.798   3.472  0.00  0.00    -0.002 A 
ATOM      3  C4  UNL d   1      -5.999   5.951   4.859  0.00  0.00     0.004 A 
ATOM      4  C5  UNL d   1      -5.654   4.880   5.683  0.00  0.00    -0.004 A 
ATOM      5  C6  UNL d   1      -5.299   3.647   5.127  0.00  0.00    -0.075 A 
ATOM      6  C7  UNL d   1      -4.927   2.485   6.000  0.00  0.00     0.076 C 
ATOM      7  C8  UNL d   1      -5.304   3.501   3.733  0.00  0.00     0.001 A 
ENDROOT
BRANCH   1   8
ATOM      8  C1  UNL d   1      -5.650   4.401   1.399  0.00  0.00     0.053 C 
ATOM      9  C   UNL d   1      -5.287   2.983   0.987  0.00  0.00     0.018 C 
ENDBRANCH   1   8
TORSDOF 1
ENDMDL
