MODEL 1
REMARK minimizedAffinity -2.61124516
REMARK minimizedRMSD -1
REMARK  0 active torsions:
REMARK  status: ('A' for Active; 'I' for Inactive)
ROOT
ATOM      1  C1  BNZ d   1      -5.998  -1.632  -3.493  0.00  0.00     0.000 A 
ATOM      2  C2  BNZ d   1      -5.991  -2.999  -3.584  0.00  0.00     0.000 A 
ATOM      3  C3  BNZ d   1      -5.962  -3.619  -4.802  0.00  0.00     0.000 A 
ATOM      4  C4  BNZ d   1      -5.982  -2.874  -5.926  0.00  0.00     0.000 A 
ATOM      5  C5  BNZ d   1      -5.998  -1.495  -5.851  0.00  0.00     0.000 A 
ATOM      6  C6  BNZ d   1      -5.988  -0.874  -4.623  0.00  0.00     0.000 A 
ENDROOT
TORSDOF 0
ENDMDL
