MODEL 1
REMARK minimizedAffinity -3.04709578
REMARK minimizedRMSD -1
REMARK  0 active torsions:
REMARK  status: ('A' for Active; 'I' for Inactive)
ROOT
ATOM      1  C1  BNZ d   1      -5.279  -3.182  -3.907  0.00  0.00     0.000 A 
ATOM      2  C2  BNZ d   1      -5.848  -1.938  -3.953  0.00  0.00     0.000 A 
ATOM      3  C3  BNZ d   1      -5.620  -1.101  -5.009  0.00  0.00     0.000 A 
ATOM      4  C4  BNZ d   1      -4.791  -1.494  -5.998  0.00  0.00     0.000 A 
ATOM      5  C5  BNZ d   1      -4.202  -2.742  -5.963  0.00  0.00     0.000 A 
ATOM      6  C6  BNZ d   1      -4.465  -3.596  -4.917  0.00  0.00     0.000 A 
ENDROOT
TORSDOF 0
ENDMDL
