MODEL 1
REMARK minimizedAffinity -2.85064793
REMARK minimizedRMSD -1
REMARK  0 active torsions:
REMARK  status: ('A' for Active; 'I' for Inactive)
ROOT
ATOM      1  C1  BNZ d   1      -5.070  -4.130  -5.228  0.00  0.00     0.000 A 
ATOM      2  C2  BNZ d   1      -3.989  -3.739  -4.484  0.00  0.00     0.000 A 
ATOM      3  C3  BNZ d   1      -2.824  -4.454  -4.512  0.00  0.00     0.000 A 
ATOM      4  C4  BNZ d   1      -2.755  -5.579  -5.251  0.00  0.00     0.000 A 
ATOM      5  C5  BNZ d   1      -3.839  -5.992  -5.999  0.00  0.00     0.000 A 
ATOM      6  C6  BNZ d   1      -4.997  -5.249  -6.000  0.00  0.00     0.000 A 
ENDROOT
TORSDOF 0
ENDMDL
