MODEL 1
REMARK minimizedAffinity -0.34859252
REMARK minimizedRMSD -1
REMARK  0 active torsions:
REMARK  status: ('A' for Active; 'I' for Inactive)
ROOT
ATOM      1  C1  BNZ d   1      -3.001  -4.847  -5.052  0.00  0.00     0.000 A 
ATOM      2  C2  BNZ d   1      -1.652  -4.827  -4.816  0.00  0.00     0.000 A 
ATOM      3  C3  BNZ d   1      -1.128  -5.411  -3.697  0.00  0.00     0.000 A 
ATOM      4  C4  BNZ d   1      -1.956  -5.979  -2.797  0.00  0.00     0.000 A 
ATOM      5  C5  BNZ d   1      -3.319  -6.000  -3.016  0.00  0.00     0.000 A 
ATOM      6  C6  BNZ d   1      -3.839  -5.445  -4.163  0.00  0.00     0.000 A 
ENDROOT
TORSDOF 0
ENDMDL
