MODEL 1
REMARK minimizedAffinity -2.53548884
REMARK minimizedRMSD -1
REMARK  0 active torsions:
REMARK  status: ('A' for Active; 'I' for Inactive)
ROOT
ATOM      1  C1  BNZ d   1      -5.246  -5.157  -5.998  0.00  0.00     0.000 A 
ATOM      2  C2  BNZ d   1      -5.196  -3.988  -5.287  0.00  0.00     0.000 A 
ATOM      3  C3  BNZ d   1      -4.077  -3.646  -4.581  0.00  0.00     0.000 A 
ATOM      4  C4  BNZ d   1      -3.025  -4.490  -4.554  0.00  0.00     0.000 A 
ATOM      5  C5  BNZ d   1      -3.064  -5.677  -5.259  0.00  0.00     0.000 A 
ATOM      6  C6  BNZ d   1      -4.178  -6.000  -6.000  0.00  0.00     0.000 A 
ENDROOT
TORSDOF 0
ENDMDL
