MODEL 1
REMARK minimizedAffinity -2.63708162
REMARK minimizedRMSD -1
REMARK  0 active torsions:
REMARK  status: ('A' for Active; 'I' for Inactive)
ROOT
ATOM      1  C1  BNZ d   1      -4.805  -3.649  -4.547  0.00  0.00     0.000 A 
ATOM      2  C2  BNZ d   1      -3.758  -4.532  -4.534  0.00  0.00     0.000 A 
ATOM      3  C3  BNZ d   1      -3.814  -5.695  -5.249  0.00  0.00     0.000 A 
ATOM      4  C4  BNZ d   1      -4.931  -5.994  -5.943  0.00  0.00     0.000 A 
ATOM      5  C5  BNZ d   1      -5.999  -5.118  -5.959  0.00  0.00     0.000 A 
ATOM      6  C6  BNZ d   1      -5.923  -3.930  -5.270  0.00  0.00     0.000 A 
ENDROOT
TORSDOF 0
ENDMDL
