MODEL 1
REMARK minimizedAffinity -2.09997797
REMARK minimizedRMSD -1
REMARK  0 active torsions:
REMARK  status: ('A' for Active; 'I' for Inactive)
ROOT
ATOM      1  C1  BNZ d   1      -1.529  -5.040  -3.953  0.00  0.00     0.000 A 
ATOM      2  C2  BNZ d   1      -2.482  -4.058  -4.006  0.00  0.00     0.000 A 
ATOM      3  C3  BNZ d   1      -3.398  -4.026  -5.020  0.00  0.00     0.000 A 
ATOM      4  C4  BNZ d   1      -3.336  -4.951  -5.999  0.00  0.00     0.000 A 
ATOM      5  C5  BNZ d   1      -2.375  -5.942  -5.965  0.00  0.00     0.000 A 
ATOM      6  C6  BNZ d   1      -1.479  -5.994  -4.922  0.00  0.00     0.000 A 
ENDROOT
TORSDOF 0
ENDMDL
