MODEL 1
REMARK minimizedAffinity -2.97558475
REMARK minimizedRMSD -1
REMARK  0 active torsions:
REMARK  status: ('A' for Active; 'I' for Inactive)
ROOT
ATOM      1  C1  BNZ d   1      -3.270  -3.743  -4.065  0.00  0.00     0.000 A 
ATOM      2  C2  BNZ d   1      -3.837  -2.619  -4.605  0.00  0.00     0.000 A 
ATOM      3  C3  BNZ d   1      -5.189  -2.536  -4.788  0.00  0.00     0.000 A 
ATOM      4  C4  BNZ d   1      -5.967  -3.591  -4.469  0.00  0.00     0.000 A 
ATOM      5  C5  BNZ d   1      -5.410  -4.734  -3.933  0.00  0.00     0.000 A 
ATOM      6  C6  BNZ d   1      -4.053  -4.799  -3.714  0.00  0.00     0.000 A 
ENDROOT
TORSDOF 0
ENDMDL
