MODEL 1
REMARK minimizedAffinity -3.32271528
REMARK minimizedRMSD -1
REMARK  0 active torsions:
REMARK  status: ('A' for Active; 'I' for Inactive)
ROOT
ATOM      1  C1  BNZ d   1      -1.987  -6.000  -3.989  0.00  0.00     0.000 A 
ATOM      2  C2  BNZ d   1      -3.143  -5.361  -3.627  0.00  0.00     0.000 A 
ATOM      3  C3  BNZ d   1      -3.720  -4.437  -4.453  0.00  0.00     0.000 A 
ATOM      4  C4  BNZ d   1      -3.120  -4.123  -5.619  0.00  0.00     0.000 A 
ATOM      5  C5  BNZ d   1      -1.949  -4.752  -5.993  0.00  0.00     0.000 A 
ATOM      6  C6  BNZ d   1      -1.392  -5.710  -5.178  0.00  0.00     0.000 A 
ENDROOT
TORSDOF 0
ENDMDL
