MODEL 1
REMARK minimizedAffinity -2.29517174
REMARK minimizedRMSD -1
REMARK  0 active torsions:
REMARK  status: ('A' for Active; 'I' for Inactive)
ROOT
ATOM      1  C1  BNZ d   1      -2.791  -6.000  -5.999  0.00  0.00     0.000 A 
ATOM      2  C2  BNZ d   1      -3.809  -5.088  -5.908  0.00  0.00     0.000 A 
ATOM      3  C3  BNZ d   1      -3.748  -4.059  -5.010  0.00  0.00     0.000 A 
ATOM      4  C4  BNZ d   1      -2.691  -3.966  -4.178  0.00  0.00     0.000 A 
ATOM      5  C5  BNZ d   1      -1.662  -4.883  -4.250  0.00  0.00     0.000 A 
ATOM      6  C6  BNZ d   1      -1.707  -5.895  -5.182  0.00  0.00     0.000 A 
ENDROOT
TORSDOF 0
ENDMDL
