MODEL 1
REMARK minimizedAffinity -2.24509525
REMARK minimizedRMSD -1
REMARK  0 active torsions:
REMARK  status: ('A' for Active; 'I' for Inactive)
ROOT
ATOM      1  C1  BNZ d   1      -2.839  -3.643  -5.987  0.00  0.00     0.000 A 
ATOM      2  C2  BNZ d   1      -4.206  -3.564  -5.995  0.00  0.00     0.000 A 
ATOM      3  C3  BNZ d   1      -4.973  -4.695  -5.979  0.00  0.00     0.000 A 
ATOM      4  C4  BNZ d   1      -4.373  -5.903  -5.995  0.00  0.00     0.000 A 
ATOM      5  C5  BNZ d   1      -2.996  -6.000  -5.997  0.00  0.00     0.000 A 
ATOM      6  C6  BNZ d   1      -2.227  -4.859  -5.974  0.00  0.00     0.000 A 
ENDROOT
TORSDOF 0
ENDMDL
