MODEL 1
REMARK minimizedAffinity -3.04007268
REMARK minimizedRMSD -1
REMARK  0 active torsions:
REMARK  status: ('A' for Active; 'I' for Inactive)
ROOT
ATOM      1  C1  BNZ d   1      -3.605  -5.513  -5.643  0.00  0.00     0.000 A 
ATOM      2  C2  BNZ d   1      -4.865  -5.114  -6.000  0.00  0.00     0.000 A 
ATOM      3  C3  BNZ d   1      -5.547  -4.196  -5.251  0.00  0.00     0.000 A 
ATOM      4  C4  BNZ d   1      -4.986  -3.710  -4.125  0.00  0.00     0.000 A 
ATOM      5  C5  BNZ d   1      -3.720  -4.110  -3.747  0.00  0.00     0.000 A 
ATOM      6  C6  BNZ d   1      -3.020  -5.004  -4.524  0.00  0.00     0.000 A 
ENDROOT
TORSDOF 0
ENDMDL
