MODEL 1
REMARK minimizedAffinity -0.44290325
REMARK minimizedRMSD -1
REMARK  0 active torsions:
REMARK  status: ('A' for Active; 'I' for Inactive)
ROOT
ATOM      1  C1  BNZ d   1      -5.412  -5.774  -5.969  0.00  0.00     0.000 A 
ATOM      2  C2  BNZ d   1      -4.055  -5.950  -5.996  0.00  0.00     0.000 A 
ATOM      3  C3  BNZ d   1      -3.209  -4.875  -5.988  0.00  0.00     0.000 A 
ATOM      4  C4  BNZ d   1      -3.722  -3.628  -5.995  0.00  0.00     0.000 A 
ATOM      5  C5  BNZ d   1      -5.089  -3.434  -5.978  0.00  0.00     0.000 A 
ATOM      6  C6  BNZ d   1      -5.937  -4.518  -5.946  0.00  0.00     0.000 A 
ENDROOT
TORSDOF 0
ENDMDL
