MODEL 1
REMARK minimizedAffinity 0.827804327
REMARK minimizedRMSD -1
REMARK  0 active torsions:
REMARK  status: ('A' for Active; 'I' for Inactive)
ROOT
ATOM      1  C1  BNZ d   1      -3.015  -4.500  -3.816  0.00  0.00     0.000 A 
ATOM      2  C2  BNZ d   1      -1.857  -5.232  -3.828  0.00  0.00     0.000 A 
ATOM      3  C3  BNZ d   1      -1.500  -5.960  -4.929  0.00  0.00     0.000 A 
ATOM      4  C4  BNZ d   1      -2.319  -5.987  -6.000  0.00  0.00     0.000 A 
ATOM      5  C5  BNZ d   1      -3.494  -5.262  -6.000  0.00  0.00     0.000 A 
ATOM      6  C6  BNZ d   1      -3.831  -4.500  -4.905  0.00  0.00     0.000 A 
ENDROOT
TORSDOF 0
ENDMDL
