MODEL 1
REMARK minimizedAffinity -1.16687274
REMARK minimizedRMSD -1
REMARK  0 active torsions:
REMARK  status: ('A' for Active; 'I' for Inactive)
ROOT
ATOM      1  C1  BNZ d   1      -3.578  -4.396  -6.000  0.00  0.00     0.000 A 
ATOM      2  C2  BNZ d   1      -2.771  -5.503  -5.999  0.00  0.00     0.000 A 
ATOM      3  C3  BNZ d   1      -2.241  -5.981  -4.834  0.00  0.00     0.000 A 
ATOM      4  C4  BNZ d   1      -2.485  -5.331  -3.678  0.00  0.00     0.000 A 
ATOM      5  C5  BNZ d   1      -3.290  -4.209  -3.663  0.00  0.00     0.000 A 
ATOM      6  C6  BNZ d   1      -3.853  -3.753  -4.833  0.00  0.00     0.000 A 
ENDROOT
TORSDOF 0
ENDMDL
