MODEL 1
REMARK minimizedAffinity 5.54346943
REMARK minimizedRMSD -1
REMARK  0 active torsions:
REMARK  status: ('A' for Active; 'I' for Inactive)
ROOT
ATOM      1  C1  BNZ d   1      -2.559  -3.135  -1.909  0.00  0.00     0.000 A 
ATOM      2  C2  BNZ d   1      -1.842  -4.090  -2.579  0.00  0.00     0.000 A 
ATOM      3  C3  BNZ d   1      -1.147  -3.775  -3.713  0.00  0.00     0.000 A 
ATOM      4  C4  BNZ d   1      -1.201  -2.517  -4.196  0.00  0.00     0.000 A 
ATOM      5  C5  BNZ d   1      -1.927  -1.545  -3.537  0.00  0.00     0.000 A 
ATOM      6  C6  BNZ d   1      -2.594  -1.857  -2.374  0.00  0.00     0.000 A 
ENDROOT
TORSDOF 0
ENDMDL
