MODEL 1
REMARK minimizedAffinity 5.82255363
REMARK minimizedRMSD -1
REMARK  0 active torsions:
REMARK  status: ('A' for Active; 'I' for Inactive)
ROOT
ATOM      1  C1  BNZ d   1      -5.519  -3.952  -2.531  0.00  0.00     0.000 A 
ATOM      2  C2  BNZ d   1      -4.728  -2.839  -2.643  0.00  0.00     0.000 A 
ATOM      3  C3  BNZ d   1      -3.372  -2.927  -2.491  0.00  0.00     0.000 A 
ATOM      4  C4  BNZ d   1      -2.814  -4.117  -2.189  0.00  0.00     0.000 A 
ATOM      5  C5  BNZ d   1      -3.600  -5.246  -2.064  0.00  0.00     0.000 A 
ATOM      6  C6  BNZ d   1      -4.960  -5.161  -2.256  0.00  0.00     0.000 A 
ENDROOT
TORSDOF 0
ENDMDL
