MODEL 1
REMARK minimizedAffinity 4.21967459
REMARK minimizedRMSD -1
REMARK  0 active torsions:
REMARK  status: ('A' for Active; 'I' for Inactive)
ROOT
ATOM      1  C1  BNZ d   1       3.054   3.297  -4.255  0.00  0.00     0.000 A 
ATOM      2  C2  BNZ d   1       3.422   3.139  -2.946  0.00  0.00     0.000 A 
ATOM      3  C3  BNZ d   1       4.241   2.112  -2.568  0.00  0.00     0.000 A 
ATOM      4  C4  BNZ d   1       4.658   1.222  -3.491  0.00  0.00     0.000 A 
ATOM      5  C5  BNZ d   1       4.288   1.362  -4.814  0.00  0.00     0.000 A 
ATOM      6  C6  BNZ d   1       3.495   2.420  -5.198  0.00  0.00     0.000 A 
ENDROOT
TORSDOF 0
ENDMDL
