MODEL 1
REMARK minimizedAffinity 6.17091417
REMARK minimizedRMSD -1
REMARK  0 active torsions:
REMARK  status: ('A' for Active; 'I' for Inactive)
ROOT
ATOM      1  C1  BNZ d   1      -2.546  -3.245  -2.867  0.00  0.00     0.000 A 
ATOM      2  C2  BNZ d   1      -1.386  -3.660  -3.464  0.00  0.00     0.000 A 
ATOM      3  C3  BNZ d   1      -1.029  -4.980  -3.457  0.00  0.00     0.000 A 
ATOM      4  C4  BNZ d   1      -1.811  -5.875  -2.819  0.00  0.00     0.000 A 
ATOM      5  C5  BNZ d   1      -2.979  -5.470  -2.205  0.00  0.00     0.000 A 
ATOM      6  C6  BNZ d   1      -3.355  -4.147  -2.248  0.00  0.00     0.000 A 
ENDROOT
TORSDOF 0
ENDMDL
