MODEL 1
REMARK minimizedAffinity 5.5319252
REMARK minimizedRMSD -1
REMARK  0 active torsions:
REMARK  status: ('A' for Active; 'I' for Inactive)
ROOT
ATOM      1  C1  BNZ d   1      -1.195  -2.522  -0.674  0.00  0.00     0.000 A 
ATOM      2  C2  BNZ d   1      -2.456  -2.365  -1.184  0.00  0.00     0.000 A 
ATOM      3  C3  BNZ d   1      -2.750  -2.762  -2.458  0.00  0.00     0.000 A 
ATOM      4  C4  BNZ d   1      -1.775  -3.278  -3.234  0.00  0.00     0.000 A 
ATOM      5  C5  BNZ d   1      -0.496  -3.434  -2.738  0.00  0.00     0.000 A 
ATOM      6  C6  BNZ d   1      -0.213  -3.069  -1.441  0.00  0.00     0.000 A 
ENDROOT
TORSDOF 0
ENDMDL
