MODEL 1
REMARK minimizedAffinity 3.08067131
REMARK minimizedRMSD -1
REMARK  0 active torsions:
REMARK  status: ('A' for Active; 'I' for Inactive)
ROOT
ATOM      1  C1  BNZ d   1      -5.954  -5.234  -2.999  0.00  0.00     0.000 A 
ATOM      2  C2  BNZ d   1      -5.196  -4.495  -3.868  0.00  0.00     0.000 A 
ATOM      3  C3  BNZ d   1      -3.831  -4.523  -3.803  0.00  0.00     0.000 A 
ATOM      4  C4  BNZ d   1      -3.227  -5.256  -2.846  0.00  0.00     0.000 A 
ATOM      5  C5  BNZ d   1      -3.977  -5.999  -1.957  0.00  0.00     0.000 A 
ATOM      6  C6  BNZ d   1      -5.350  -6.000  -2.049  0.00  0.00     0.000 A 
ENDROOT
TORSDOF 0
ENDMDL
