MODEL 1
REMARK minimizedAffinity 0.904527068
REMARK minimizedRMSD -1
REMARK  0 active torsions:
REMARK  status: ('A' for Active; 'I' for Inactive)
ROOT
ATOM      1  C1  BNZ d   1      -0.543  -4.822  -3.740  0.00  0.00     0.000 A 
ATOM      2  C2  BNZ d   1      -1.105  -3.654  -3.297  0.00  0.00     0.000 A 
ATOM      3  C3  BNZ d   1      -2.326  -3.653  -2.684  0.00  0.00     0.000 A 
ATOM      4  C4  BNZ d   1      -3.001  -4.813  -2.549  0.00  0.00     0.000 A 
ATOM      5  C5  BNZ d   1      -2.453  -5.997  -2.998  0.00  0.00     0.000 A 
ATOM      6  C6  BNZ d   1      -1.206  -6.000  -3.580  0.00  0.00     0.000 A 
ENDROOT
TORSDOF 0
ENDMDL
