MODEL 1
REMARK minimizedAffinity 1.38951957
REMARK minimizedRMSD -1
REMARK  0 active torsions:
REMARK  status: ('A' for Active; 'I' for Inactive)
ROOT
ATOM      1  C1  BNZ d   1      -1.545  -3.667   1.974  0.00  0.00     0.000 A 
ATOM      2  C2  BNZ d   1      -2.623  -3.686   1.130  0.00  0.00     0.000 A 
ATOM      3  C3  BNZ d   1      -3.292  -4.850   0.874  0.00  0.00     0.000 A 
ATOM      4  C4  BNZ d   1      -2.859  -6.000   1.430  0.00  0.00     0.000 A 
ATOM      5  C5  BNZ d   1      -1.767  -5.999   2.276  0.00  0.00     0.000 A 
ATOM      6  C6  BNZ d   1      -1.120  -4.819   2.562  0.00  0.00     0.000 A 
ENDROOT
TORSDOF 0
ENDMDL
