MODEL 1
REMARK minimizedAffinity 1.75733304
REMARK minimizedRMSD -1
REMARK  0 active torsions:
REMARK  status: ('A' for Active; 'I' for Inactive)
ROOT
ATOM      1  C1  BNZ d   1      -3.941  -4.497  -4.679  0.00  0.00     0.000 A 
ATOM      2  C2  BNZ d   1      -5.310  -4.519  -4.681  0.00  0.00     0.000 A 
ATOM      3  C3  BNZ d   1      -6.000  -5.256  -3.759  0.00  0.00     0.000 A 
ATOM      4  C4  BNZ d   1      -5.320  -6.000  -2.862  0.00  0.00     0.000 A 
ATOM      5  C5  BNZ d   1      -3.939  -5.996  -2.853  0.00  0.00     0.000 A 
ATOM      6  C6  BNZ d   1      -3.249  -5.222  -3.758  0.00  0.00     0.000 A 
ENDROOT
TORSDOF 0
ENDMDL
