MODEL 1
REMARK minimizedAffinity -1.46972072
REMARK minimizedRMSD -1
REMARK  0 active torsions:
REMARK  status: ('A' for Active; 'I' for Inactive)
ROOT
ATOM      1  C1  BNZ d   1      -2.879  -4.771  -3.603  0.00  0.00     0.000 A 
ATOM      2  C2  BNZ d   1      -4.034  -5.213  -4.190  0.00  0.00     0.000 A 
ATOM      3  C3  BNZ d   1      -5.251  -4.735  -3.789  0.00  0.00     0.000 A 
ATOM      4  C4  BNZ d   1      -5.313  -3.847  -2.776  0.00  0.00     0.000 A 
ATOM      5  C5  BNZ d   1      -4.158  -3.398  -2.168  0.00  0.00     0.000 A 
ATOM      6  C6  BNZ d   1      -2.933  -3.852  -2.600  0.00  0.00     0.000 A 
ENDROOT
TORSDOF 0
ENDMDL
