MODEL 1
REMARK minimizedAffinity 3.41255641
REMARK minimizedRMSD -1
REMARK  0 active torsions:
REMARK  status: ('A' for Active; 'I' for Inactive)
ROOT
ATOM      1  C1  BNZ d   1       3.446   2.203  -5.966  0.00  0.00     0.000 A 
ATOM      2  C2  BNZ d   1       4.571   2.985  -5.955  0.00  0.00     0.000 A 
ATOM      3  C3  BNZ d   1       5.815   2.421  -5.989  0.00  0.00     0.000 A 
ATOM      4  C4  BNZ d   1       5.935   1.077  -5.993  0.00  0.00     0.000 A 
ATOM      5  C5  BNZ d   1       4.811   0.276  -5.994  0.00  0.00     0.000 A 
ATOM      6  C6  BNZ d   1       3.559   0.848  -5.999  0.00  0.00     0.000 A 
ENDROOT
TORSDOF 0
ENDMDL
