MODEL 1
REMARK minimizedAffinity 9.34937859
REMARK minimizedRMSD -1
REMARK  0 active torsions:
REMARK  status: ('A' for Active; 'I' for Inactive)
ROOT
ATOM      1  C1  BNZ d   1       3.897   5.899  -3.531  0.00  0.00     0.000 A 
ATOM      2  C2  BNZ d   1       3.178   5.849  -4.695  0.00  0.00     0.000 A 
ATOM      3  C3  BNZ d   1       3.808   5.848  -5.908  0.00  0.00     0.000 A 
ATOM      4  C4  BNZ d   1       5.153   5.939  -5.956  0.00  0.00     0.000 A 
ATOM      5  C5  BNZ d   1       5.892   6.000  -4.791  0.00  0.00     0.000 A 
ATOM      6  C6  BNZ d   1       5.256   5.960  -3.572  0.00  0.00     0.000 A 
ENDROOT
TORSDOF 0
ENDMDL
