MODEL 1
REMARK minimizedAffinity 6.47028923
REMARK minimizedRMSD -1
REMARK  0 active torsions:
REMARK  status: ('A' for Active; 'I' for Inactive)
ROOT
ATOM      1  C1  BNZ d   1      -3.657  -4.997  -3.726  0.00  0.00     0.000 A 
ATOM      2  C2  BNZ d   1      -3.673  -5.736  -2.573  0.00  0.00     0.000 A 
ATOM      3  C3  BNZ d   1      -4.848  -6.000  -1.926  0.00  0.00     0.000 A 
ATOM      4  C4  BNZ d   1      -5.999  -5.491  -2.410  0.00  0.00     0.000 A 
ATOM      5  C5  BNZ d   1      -5.999  -4.737  -3.566  0.00  0.00     0.000 A 
ATOM      6  C6  BNZ d   1      -4.819  -4.506  -4.236  0.00  0.00     0.000 A 
ENDROOT
TORSDOF 0
ENDMDL
