MODEL 1
REMARK minimizedAffinity 4.94329119
REMARK minimizedRMSD -1
REMARK  0 active torsions:
REMARK  status: ('A' for Active; 'I' for Inactive)
ROOT
ATOM      1  C1  BNZ d   1      -3.800  -4.929  -0.817  0.00  0.00     0.000 A 
ATOM      2  C2  BNZ d   1      -3.820  -3.737  -1.491  0.00  0.00     0.000 A 
ATOM      3  C3  BNZ d   1      -4.923  -3.354  -2.202  0.00  0.00     0.000 A 
ATOM      4  C4  BNZ d   1      -5.987  -4.180  -2.271  0.00  0.00     0.000 A 
ATOM      5  C5  BNZ d   1      -5.978  -5.389  -1.605  0.00  0.00     0.000 A 
ATOM      6  C6  BNZ d   1      -4.881  -5.754  -0.858  0.00  0.00     0.000 A 
ENDROOT
TORSDOF 0
ENDMDL
