MODEL 1
REMARK minimizedAffinity 2.68047166
REMARK minimizedRMSD -1
REMARK  0 active torsions:
REMARK  status: ('A' for Active; 'I' for Inactive)
ROOT
ATOM      1  C2' OXE d   1      -0.740   2.219   1.821  0.00  0.00     0.078 C 
ATOM      2  C1' OXE d   1       1.962   2.955   1.631  0.00  0.00     0.078 C 
ATOM      3  C1  OXE d   1       1.084   3.181   0.425  0.00  0.00    -0.078 A 
ATOM      4  C2  OXE d   1      -0.225   2.775   0.511  0.00  0.00    -0.078 A 
ATOM      5  C3  OXE d   1      -1.092   3.010  -0.553  0.00  0.00     0.003 A 
ATOM      6  C4  OXE d   1      -0.605   3.515  -1.764  0.00  0.00    -0.002 A 
ATOM      7  C5  OXE d   1       0.735   3.899  -1.887  0.00  0.00    -0.002 A 
ATOM      8  C6  OXE d   1       1.581   3.778  -0.790  0.00  0.00     0.003 A 
ENDROOT
TORSDOF 0
ENDMDL
