MODEL 1
REMARK minimizedAffinity 4.01643133
REMARK minimizedRMSD -1
REMARK  0 active torsions:
REMARK  status: ('A' for Active; 'I' for Inactive)
ROOT
ATOM      1  C2' OXE d   1      -2.072  -4.996  -3.968  0.00  0.00     0.078 C 
ATOM      2  C1' OXE d   1      -2.789  -2.671  -5.367  0.00  0.00     0.078 C 
ATOM      3  C1  OXE d   1      -3.790  -3.798  -5.316  0.00  0.00    -0.078 A 
ATOM      4  C2  OXE d   1      -3.412  -4.950  -4.669  0.00  0.00    -0.078 A 
ATOM      5  C3  OXE d   1      -4.318  -6.000  -4.545  0.00  0.00     0.003 A 
ATOM      6  C4  OXE d   1      -5.552  -5.953  -5.205  0.00  0.00    -0.002 A 
ATOM      7  C5  OXE d   1      -5.940  -4.805  -5.903  0.00  0.00    -0.002 A 
ATOM      8  C6  OXE d   1      -5.090  -3.705  -5.932  0.00  0.00     0.003 A 
ENDROOT
TORSDOF 0
ENDMDL
