MODEL 1
REMARK minimizedAffinity 16.9120102
REMARK minimizedRMSD -1
REMARK  0 active torsions:
REMARK  status: ('A' for Active; 'I' for Inactive)
ROOT
ATOM      1  C2' OXE d   1       0.445   0.894   3.464  0.00  0.00     0.078 C 
ATOM      2  C1' OXE d   1       2.628  -0.417   2.283  0.00  0.00     0.078 C 
ATOM      3  C1  OXE d   1       1.898  -1.128   3.396  0.00  0.00    -0.078 A 
ATOM      4  C2  OXE d   1       0.861  -0.459   3.999  0.00  0.00    -0.078 A 
ATOM      5  C3  OXE d   1       0.119  -1.091   4.994  0.00  0.00     0.003 A 
ATOM      6  C4  OXE d   1       0.517  -2.339   5.490  0.00  0.00    -0.002 A 
ATOM      7  C5  OXE d   1       1.596  -3.020   4.916  0.00  0.00    -0.002 A 
ATOM      8  C6  OXE d   1       2.269  -2.448   3.842  0.00  0.00     0.003 A 
ENDROOT
TORSDOF 0
ENDMDL
