MODEL 1
REMARK minimizedAffinity 12.471427
REMARK minimizedRMSD -1
REMARK  0 active torsions:
REMARK  status: ('A' for Active; 'I' for Inactive)
ROOT
ATOM      1  C2' OXE d   1      -1.511   2.193   1.392  0.00  0.00     0.078 C 
ATOM      2  C1' OXE d   1       1.257   1.725   1.401  0.00  0.00     0.078 C 
ATOM      3  C1  OXE d   1       0.682   2.525   0.258  0.00  0.00    -0.078 A 
ATOM      4  C2  OXE d   1      -0.680   2.708   0.238  0.00  0.00    -0.078 A 
ATOM      5  C3  OXE d   1      -1.256   3.484  -0.764  0.00  0.00     0.003 A 
ATOM      6  C4  OXE d   1      -0.481   3.949  -1.834  0.00  0.00    -0.002 A 
ATOM      7  C5  OXE d   1       0.902   3.739  -1.853  0.00  0.00    -0.002 A 
ATOM      8  C6  OXE d   1       1.504   3.067  -0.795  0.00  0.00     0.003 A 
ENDROOT
TORSDOF 0
ENDMDL
