MODEL 1
REMARK minimizedAffinity 14.8816442
REMARK minimizedRMSD -1
REMARK  0 active torsions:
REMARK  status: ('A' for Active; 'I' for Inactive)
ROOT
ATOM      1  C2' OXE d   1      -1.211   1.998   0.733  0.00  0.00     0.078 C 
ATOM      2  C1' OXE d   1       1.396   2.011   1.773  0.00  0.00     0.078 C 
ATOM      3  C1  OXE d   1       1.145   2.771   0.495  0.00  0.00    -0.078 A 
ATOM      4  C2  OXE d   1      -0.123   2.721  -0.032  0.00  0.00    -0.078 A 
ATOM      5  C3  OXE d   1      -0.423   3.450  -1.180  0.00  0.00     0.003 A 
ATOM      6  C4  OXE d   1       0.592   4.107  -1.886  0.00  0.00    -0.002 A 
ATOM      7  C5  OXE d   1       1.899   4.138  -1.389  0.00  0.00    -0.002 A 
ATOM      8  C6  OXE d   1       2.182   3.512  -0.180  0.00  0.00     0.003 A 
ENDROOT
TORSDOF 0
ENDMDL
