MODEL 1
REMARK minimizedAffinity 12.9544249
REMARK minimizedRMSD -1
REMARK  0 active torsions:
REMARK  status: ('A' for Active; 'I' for Inactive)
ROOT
ATOM      1  C2' OXE d   1      -5.703   4.146  -3.305  0.00  0.00     0.078 C 
ATOM      2  C1' OXE d   1      -2.899   4.240  -3.394  0.00  0.00     0.078 C 
ATOM      3  C1  OXE d   1      -3.595   3.205  -4.242  0.00  0.00    -0.078 A 
ATOM      4  C2  OXE d   1      -4.965   3.136  -4.156  0.00  0.00    -0.078 A 
ATOM      5  C3  OXE d   1      -5.660   2.236  -4.959  0.00  0.00     0.003 A 
ATOM      6  C4  OXE d   1      -4.970   1.298  -5.736  0.00  0.00    -0.002 A 
ATOM      7  C5  OXE d   1      -3.573   1.326  -5.807  0.00  0.00    -0.002 A 
ATOM      8  C6  OXE d   1      -2.874   2.299  -5.100  0.00  0.00     0.003 A 
ENDROOT
TORSDOF 0
ENDMDL
