MODEL 1
REMARK minimizedAffinity 13.1973515
REMARK minimizedRMSD -1
REMARK  0 active torsions:
REMARK  status: ('A' for Active; 'I' for Inactive)
ROOT
ATOM      1  C2' OXE d   1       5.995  -5.152  -0.349  0.00  0.00     0.078 C 
ATOM      2  C1' OXE d   1       3.230  -5.100  -0.831  0.00  0.00     0.078 C 
ATOM      3  C1  OXE d   1       3.888  -3.823  -0.372  0.00  0.00    -0.078 A 
ATOM      4  C2  OXE d   1       5.233  -3.870  -0.094  0.00  0.00    -0.078 A 
ATOM      5  C3  OXE d   1       5.900  -2.707   0.280  0.00  0.00     0.003 A 
ATOM      6  C4  OXE d   1       5.186  -1.527   0.524  0.00  0.00    -0.002 A 
ATOM      7  C5  OXE d   1       3.809  -1.469   0.285  0.00  0.00    -0.002 A 
ATOM      8  C6  OXE d   1       3.154  -2.594  -0.203  0.00  0.00     0.003 A 
ENDROOT
TORSDOF 0
ENDMDL
