MODEL 1
REMARK minimizedAffinity 18.0062752
REMARK minimizedRMSD -1
REMARK  0 active torsions:
REMARK  status: ('A' for Active; 'I' for Inactive)
ROOT
ATOM      1  C2' OXE d   1       3.031  -2.192  -0.001  0.00  0.00     0.078 C 
ATOM      2  C1' OXE d   1       4.688  -4.446  -0.237  0.00  0.00     0.078 C 
ATOM      3  C1  OXE d   1       3.216  -4.622  -0.516  0.00  0.00    -0.078 A 
ATOM      4  C2  OXE d   1       2.406  -3.525  -0.352  0.00  0.00    -0.078 A 
ATOM      5  C3  OXE d   1       1.049  -3.619  -0.649  0.00  0.00     0.003 A 
ATOM      6  C4  OXE d   1       0.477  -4.858  -0.964  0.00  0.00    -0.002 A 
ATOM      7  C5  OXE d   1       1.279  -5.997  -1.097  0.00  0.00    -0.002 A 
ATOM      8  C6  OXE d   1       2.653  -5.887  -0.918  0.00  0.00     0.003 A 
ENDROOT
TORSDOF 0
ENDMDL
