MODEL 1
REMARK minimizedAffinity -3.69630504
REMARK minimizedRMSD -1
REMARK  1 active torsions:
REMARK  status: ('A' for Active; 'I' for Inactive)
REMARK    1  A    between atoms: C3_4  and  O_7 
ROOT
ATOM      1  C   UNL d   1       1.009   1.192   0.669  0.00  0.00    -0.033 A 
ATOM      2  C1  UNL d   1       1.328  -0.017   0.047  0.00  0.00     0.039 A 
ATOM      3  C2  UNL d   1       2.498  -0.695   0.395  0.00  0.00    -0.080 A 
ATOM      4  C3  UNL d   1       3.338  -0.155   1.364  0.00  0.00     0.150 A 
ATOM      5  C4  UNL d   1       3.025   1.047   1.990  0.00  0.00    -0.007 A 
ATOM      6  C5  UNL d   1       1.856   1.723   1.641  0.00  0.00     0.039 A 
ENDROOT
BRANCH   4   7
ATOM      7  O   UNL d   1       4.494  -0.778   1.733  0.00  0.00    -0.526 OA
ATOM      8  H5  UNL d   1       4.594  -1.582   1.197  0.00  0.00     0.418 HD
ENDBRANCH   4   7
TORSDOF 1
ENDMDL
