MODEL 1
REMARK minimizedAffinity -2.55794978
REMARK minimizedRMSD -1
REMARK  1 active torsions:
REMARK  status: ('A' for Active; 'I' for Inactive)
REMARK    1  A    between atoms: C3_4  and  O_7 
ROOT
ATOM      1  C   UNL d   1       1.994  -1.680   1.606  0.00  0.00    -0.033 A 
ATOM      2  C1  UNL d   1       0.778  -2.353   1.736  0.00  0.00     0.039 A 
ATOM      3  C2  UNL d   1      -0.362  -1.869   1.092  0.00  0.00    -0.080 A 
ATOM      4  C3  UNL d   1      -0.272  -0.712   0.322  0.00  0.00     0.150 A 
ATOM      5  C4  UNL d   1       0.937  -0.039   0.185  0.00  0.00    -0.007 A 
ATOM      6  C5  UNL d   1       2.074  -0.524   0.830  0.00  0.00     0.039 A 
ENDROOT
BRANCH   4   7
ATOM      7  O   UNL d   1      -1.359  -0.199  -0.321  0.00  0.00    -0.526 OA
ATOM      8  H5  UNL d   1      -2.130  -0.752  -0.113  0.00  0.00     0.418 HD
ENDBRANCH   4   7
TORSDOF 1
ENDMDL
