MODEL 1
REMARK minimizedAffinity -2.64721203
REMARK minimizedRMSD -1
REMARK  1 active torsions:
REMARK  status: ('A' for Active; 'I' for Inactive)
REMARK    1  A    between atoms: C3_4  and  O_7 
ROOT
ATOM      1  C   UNL d   1       0.162   0.673   0.354  0.00  0.00    -0.033 A 
ATOM      2  C1  UNL d   1       1.040   1.504   1.053  0.00  0.00     0.039 A 
ATOM      3  C2  UNL d   1       2.307   1.041   1.411  0.00  0.00    -0.080 A 
ATOM      4  C3  UNL d   1       2.686  -0.252   1.063  0.00  0.00     0.150 A 
ATOM      5  C4  UNL d   1       1.818  -1.085   0.363  0.00  0.00    -0.007 A 
ATOM      6  C5  UNL d   1       0.552  -0.621   0.007  0.00  0.00     0.039 A 
ENDROOT
BRANCH   4   7
ATOM      7  O   UNL d   1       3.911  -0.750   1.394  0.00  0.00    -0.526 OA
ATOM      8  H5  UNL d   1       4.391  -0.074   1.900  0.00  0.00     0.418 HD
ENDBRANCH   4   7
TORSDOF 1
ENDMDL
