MODEL 1
REMARK minimizedAffinity 1.25751305
REMARK minimizedRMSD -1
REMARK  1 active torsions:
REMARK  status: ('A' for Active; 'I' for Inactive)
REMARK    1  A    between atoms: C3_4  and  O_7 
ROOT
ATOM      1  C   UNL d   1      -0.300   1.495  -0.629  0.00  0.00    -0.033 A 
ATOM      2  C1  UNL d   1       0.448   1.449   0.549  0.00  0.00     0.039 A 
ATOM      3  C2  UNL d   1       0.458   0.290   1.327  0.00  0.00    -0.080 A 
ATOM      4  C3  UNL d   1      -0.281  -0.815   0.915  0.00  0.00     0.150 A 
ATOM      5  C4  UNL d   1      -1.026  -0.778  -0.259  0.00  0.00    -0.007 A 
ATOM      6  C5  UNL d   1      -1.036   0.381  -1.034  0.00  0.00     0.039 A 
ENDROOT
BRANCH   4   7
ATOM      7  O   UNL d   1      -0.306  -1.968   1.644  0.00  0.00    -0.526 OA
ATOM      8  H5  UNL d   1       0.231  -1.838   2.443  0.00  0.00     0.418 HD
ENDBRANCH   4   7
TORSDOF 1
ENDMDL
