MODEL 1
REMARK minimizedAffinity -4.0948658
REMARK minimizedRMSD -1
REMARK  1 active torsions:
REMARK  status: ('A' for Active; 'I' for Inactive)
REMARK    1  A    between atoms: C3_4  and  O_7 
ROOT
ATOM      1  C   UNL d   1       1.498   1.293   0.036  0.00  0.00    -0.033 A 
ATOM      2  C1  UNL d   1       2.151   0.118   0.410  0.00  0.00     0.039 A 
ATOM      3  C2  UNL d   1       1.438  -0.915   1.022  0.00  0.00    -0.080 A 
ATOM      4  C3  UNL d   1       0.073  -0.760   1.251  0.00  0.00     0.150 A 
ATOM      5  C4  UNL d   1      -0.585   0.407   0.877  0.00  0.00    -0.007 A 
ATOM      6  C5  UNL d   1       0.130   1.437   0.267  0.00  0.00     0.039 A 
ENDROOT
BRANCH   4   7
ATOM      7  O   UNL d   1      -0.664  -1.739   1.849  0.00  0.00    -0.526 OA
ATOM      8  H5  UNL d   1      -0.072  -2.474   2.078  0.00  0.00     0.418 HD
ENDBRANCH   4   7
TORSDOF 1
ENDMDL
