MODEL 1
REMARK minimizedAffinity -4.44684601
REMARK minimizedRMSD -1
REMARK  1 active torsions:
REMARK  status: ('A' for Active; 'I' for Inactive)
REMARK    1  A    between atoms: C3_4  and  O_7 
ROOT
ATOM      1  C   UNL d   1      -0.095  -0.888   0.120  0.00  0.00    -0.033 A 
ATOM      2  C1  UNL d   1       0.290   0.385   0.545  0.00  0.00     0.039 A 
ATOM      3  C2  UNL d   1       1.633   0.658   0.814  0.00  0.00    -0.080 A 
ATOM      4  C3  UNL d   1       2.579  -0.350   0.654  0.00  0.00     0.150 A 
ATOM      5  C4  UNL d   1       2.204  -1.620   0.228  0.00  0.00    -0.007 A 
ATOM      6  C5  UNL d   1       0.862  -1.890  -0.040  0.00  0.00     0.039 A 
ENDROOT
BRANCH   4   7
ATOM      7  O   UNL d   1       3.901  -0.134   0.909  0.00  0.00    -0.526 OA
ATOM      8  H5  UNL d   1       4.008   0.780   1.223  0.00  0.00     0.418 HD
ENDBRANCH   4   7
TORSDOF 1
ENDMDL
