MODEL 1
REMARK minimizedAffinity -4.3747921
REMARK minimizedRMSD -1
REMARK  1 active torsions:
REMARK  status: ('A' for Active; 'I' for Inactive)
REMARK    1  A    between atoms: C3_4  and  O_7 
ROOT
ATOM      1  C   UNL d   1      -0.510   0.286   0.390  0.00  0.00    -0.033 A 
ATOM      2  C1  UNL d   1       0.056  -0.988   0.472  0.00  0.00     0.039 A 
ATOM      3  C2  UNL d   1       1.444  -1.137   0.503  0.00  0.00    -0.080 A 
ATOM      4  C3  UNL d   1       2.254  -0.006   0.454  0.00  0.00     0.150 A 
ATOM      5  C4  UNL d   1       1.697   1.267   0.376  0.00  0.00    -0.007 A 
ATOM      6  C5  UNL d   1       0.311   1.414   0.344  0.00  0.00     0.039 A 
ENDROOT
BRANCH   4   7
ATOM      7  O   UNL d   1       3.613  -0.102   0.477  0.00  0.00    -0.526 OA
ATOM      8  H5  UNL d   1       3.855  -1.042   0.503  0.00  0.00     0.418 HD
ENDBRANCH   4   7
TORSDOF 1
ENDMDL
