MODEL 1
REMARK minimizedAffinity -4.86287975
REMARK minimizedRMSD -1
REMARK  0 active torsions:
REMARK  status: ('A' for Active; 'I' for Inactive)
ROOT
ATOM      1  C1  BNZ d   1       1.460  -2.775   1.858  0.00  0.00     0.000 A 
ATOM      2  C2  BNZ d   1       1.889  -2.300   0.647  0.00  0.00     0.000 A 
ATOM      3  C3  BNZ d   1       1.118  -1.435  -0.078  0.00  0.00     0.000 A 
ATOM      4  C4  BNZ d   1      -0.096  -1.078   0.389  0.00  0.00     0.000 A 
ATOM      5  C5  BNZ d   1      -0.546  -1.556   1.603  0.00  0.00     0.000 A 
ATOM      6  C6  BNZ d   1       0.249  -2.395   2.349  0.00  0.00     0.000 A 
ENDROOT
TORSDOF 0
ENDMDL
