MODEL 1
REMARK minimizedAffinity -4.06528425
REMARK minimizedRMSD -1
REMARK  0 active torsions:
REMARK  status: ('A' for Active; 'I' for Inactive)
ROOT
ATOM      1  C1  BNZ d   1       1.907   0.163   0.121  0.00  0.00     0.000 A 
ATOM      2  C2  BNZ d   1       2.295  -1.113   0.432  0.00  0.00     0.000 A 
ATOM      3  C3  BNZ d   1       1.373  -2.116   0.549  0.00  0.00     0.000 A 
ATOM      4  C4  BNZ d   1       0.063  -1.833   0.394  0.00  0.00     0.000 A 
ATOM      5  C5  BNZ d   1      -0.344  -0.550   0.090  0.00  0.00     0.000 A 
ATOM      6  C6  BNZ d   1       0.590   0.449  -0.065  0.00  0.00     0.000 A 
ENDROOT
TORSDOF 0
ENDMDL
