MODEL 1
REMARK minimizedAffinity -2.97666931
REMARK minimizedRMSD -1
REMARK  0 active torsions:
REMARK  status: ('A' for Active; 'I' for Inactive)
ROOT
ATOM      1  C1  BNZ d   1       1.381  -1.161   0.099  0.00  0.00     0.000 A 
ATOM      2  C2  BNZ d   1       1.175  -2.419   0.599  0.00  0.00     0.000 A 
ATOM      3  C3  BNZ d   1      -0.040  -2.777   1.114  0.00  0.00     0.000 A 
ATOM      4  C4  BNZ d   1      -1.033  -1.866   1.165  0.00  0.00     0.000 A 
ATOM      5  C5  BNZ d   1      -0.838  -0.591   0.673  0.00  0.00     0.000 A 
ATOM      6  C6  BNZ d   1       0.374  -0.246   0.120  0.00  0.00     0.000 A 
ENDROOT
TORSDOF 0
ENDMDL
