MODEL 1
REMARK minimizedAffinity -4.69187975
REMARK minimizedRMSD -1
REMARK  0 active torsions:
REMARK  status: ('A' for Active; 'I' for Inactive)
ROOT
ATOM      1  C1  BNZ d   1      -0.695  -1.684   0.817  0.00  0.00     0.000 A 
ATOM      2  C2  BNZ d   1      -0.744  -0.402   0.338  0.00  0.00     0.000 A 
ATOM      3  C3  BNZ d   1       0.364   0.184  -0.206  0.00  0.00     0.000 A 
ATOM      4  C4  BNZ d   1       1.528  -0.496  -0.235  0.00  0.00     0.000 A 
ATOM      5  C5  BNZ d   1       1.596  -1.786   0.253  0.00  0.00     0.000 A 
ATOM      6  C6  BNZ d   1       0.470  -2.387   0.765  0.00  0.00     0.000 A 
ENDROOT
TORSDOF 0
ENDMDL
