MODEL 1
REMARK minimizedAffinity -5.00613737
REMARK minimizedRMSD -1
REMARK  0 active torsions:
REMARK  status: ('A' for Active; 'I' for Inactive)
ROOT
ATOM      1  C1  BNZ d   1       0.390  -2.299   0.914  0.00  0.00     0.000 A 
ATOM      2  C2  BNZ d   1      -0.167  -1.262   0.213  0.00  0.00     0.000 A 
ATOM      3  C3  BNZ d   1       0.614  -0.261  -0.294  0.00  0.00     0.000 A 
ATOM      4  C4  BNZ d   1       1.942  -0.276  -0.064  0.00  0.00     0.000 A 
ATOM      5  C5  BNZ d   1       2.517  -1.309   0.649  0.00  0.00     0.000 A 
ATOM      6  C6  BNZ d   1       1.734  -2.335   1.124  0.00  0.00     0.000 A 
ENDROOT
TORSDOF 0
ENDMDL
