MODEL 1
REMARK minimizedAffinity -3.26598763
REMARK minimizedRMSD -1
REMARK  0 active torsions:
REMARK  status: ('A' for Active; 'I' for Inactive)
ROOT
ATOM      1  C1  BNZ d   1      -0.062  -0.976   0.336  0.00  0.00     0.000 A 
ATOM      2  C2  BNZ d   1       0.534  -2.053   0.937  0.00  0.00     0.000 A 
ATOM      3  C3  BNZ d   1       1.895  -2.159   0.993  0.00  0.00     0.000 A 
ATOM      4  C4  BNZ d   1       2.658  -1.210   0.413  0.00  0.00     0.000 A 
ATOM      5  C5  BNZ d   1       2.073  -0.123  -0.205  0.00  0.00     0.000 A 
ATOM      6  C6  BNZ d   1       0.702  -0.000  -0.225  0.00  0.00     0.000 A 
ENDROOT
TORSDOF 0
ENDMDL
