MODEL 1
REMARK minimizedAffinity -1.91005516
REMARK minimizedRMSD -1
REMARK  0 active torsions:
REMARK  status: ('A' for Active; 'I' for Inactive)
ROOT
ATOM      1  C1  BNZ d   1       1.830  -1.434   1.082  0.00  0.00     0.000 A 
ATOM      2  C2  BNZ d   1       0.508  -1.174   0.836  0.00  0.00     0.000 A 
ATOM      3  C3  BNZ d   1       0.138  -0.162  -0.005  0.00  0.00     0.000 A 
ATOM      4  C4  BNZ d   1       1.087   0.614  -0.566  0.00  0.00     0.000 A 
ATOM      5  C5  BNZ d   1       2.424   0.371  -0.321  0.00  0.00     0.000 A 
ATOM      6  C6  BNZ d   1       2.794  -0.673   0.495  0.00  0.00     0.000 A 
ENDROOT
TORSDOF 0
ENDMDL
