MODEL 1
REMARK minimizedAffinity -2.39244032
REMARK minimizedRMSD -1
REMARK  0 active torsions:
REMARK  status: ('A' for Active; 'I' for Inactive)
ROOT
ATOM      1  C1  BNZ d   1      -1.622  -0.309   1.317  0.00  0.00     0.000 A 
ATOM      2  C2  BNZ d   1      -1.167  -1.526   1.749  0.00  0.00     0.000 A 
ATOM      3  C3  BNZ d   1      -0.100  -2.130   1.144  0.00  0.00     0.000 A 
ATOM      4  C4  BNZ d   1       0.485  -1.535   0.085  0.00  0.00     0.000 A 
ATOM      5  C5  BNZ d   1       0.033  -0.312  -0.369  0.00  0.00     0.000 A 
ATOM      6  C6  BNZ d   1      -1.017   0.310   0.267  0.00  0.00     0.000 A 
ENDROOT
TORSDOF 0
ENDMDL
