MODEL 1
REMARK minimizedAffinity -4.80767775
REMARK minimizedRMSD -1
REMARK  0 active torsions:
REMARK  status: ('A' for Active; 'I' for Inactive)
ROOT
ATOM      1  C1  BNZ d   1      -0.947   0.598   1.247  0.00  0.00     0.000 A 
ATOM      2  C2  BNZ d   1      -0.922  -0.619   1.874  0.00  0.00     0.000 A 
ATOM      3  C3  BNZ d   1      -0.387  -1.715   1.255  0.00  0.00     0.000 A 
ATOM      4  C4  BNZ d   1       0.085  -1.600  -0.004  0.00  0.00     0.000 A 
ATOM      5  C5  BNZ d   1       0.058  -0.382  -0.652  0.00  0.00     0.000 A 
ATOM      6  C6  BNZ d   1      -0.446   0.727  -0.012  0.00  0.00     0.000 A 
ENDROOT
TORSDOF 0
ENDMDL
