MODEL 1
REMARK minimizedAffinity -3.90813851
REMARK minimizedRMSD -1
REMARK  0 active torsions:
REMARK  status: ('A' for Active; 'I' for Inactive)
ROOT
ATOM      1  C1  BNZ d   1       2.083  -0.417   0.625  0.00  0.00     0.000 A 
ATOM      2  C2  BNZ d   1       0.846  -0.384   0.037  0.00  0.00     0.000 A 
ATOM      3  C3  BNZ d   1       0.067  -1.506  -0.016  0.00  0.00     0.000 A 
ATOM      4  C4  BNZ d   1       0.540  -2.666   0.481  0.00  0.00     0.000 A 
ATOM      5  C5  BNZ d   1       1.789  -2.718   1.068  0.00  0.00     0.000 A 
ATOM      6  C6  BNZ d   1       2.555  -1.578   1.155  0.00  0.00     0.000 A 
ENDROOT
TORSDOF 0
ENDMDL
