MODEL 1
REMARK minimizedAffinity -3.7343564
REMARK minimizedRMSD -1
REMARK  0 active torsions:
REMARK  status: ('A' for Active; 'I' for Inactive)
ROOT
ATOM      1  C1  BNZ d   1       1.494  -0.707  -0.255  0.00  0.00     0.000 A 
ATOM      2  C2  BNZ d   1       0.126  -0.649  -0.276  0.00  0.00     0.000 A 
ATOM      3  C3  BNZ d   1      -0.620  -1.415   0.576  0.00  0.00     0.000 A 
ATOM      4  C4  BNZ d   1       0.001  -2.266   1.418  0.00  0.00     0.000 A 
ATOM      5  C5  BNZ d   1       1.379  -2.343   1.445  0.00  0.00     0.000 A 
ATOM      6  C6  BNZ d   1       2.128  -1.542   0.613  0.00  0.00     0.000 A 
ENDROOT
TORSDOF 0
ENDMDL
