MODEL 1
REMARK minimizedAffinity -2.42521191
REMARK minimizedRMSD -1
REMARK  0 active torsions:
REMARK  status: ('A' for Active; 'I' for Inactive)
ROOT
ATOM      1  C1  BNZ d   1      -0.751  -1.126   0.629  0.00  0.00     0.000 A 
ATOM      2  C2  BNZ d   1      -0.787   0.092   0.003  0.00  0.00     0.000 A 
ATOM      3  C3  BNZ d   1       0.350   0.645  -0.517  0.00  0.00     0.000 A 
ATOM      4  C4  BNZ d   1       1.526  -0.000  -0.375  0.00  0.00     0.000 A 
ATOM      5  C5  BNZ d   1       1.580  -1.224   0.262  0.00  0.00     0.000 A 
ATOM      6  C6  BNZ d   1       0.427  -1.796   0.750  0.00  0.00     0.000 A 
ENDROOT
TORSDOF 0
ENDMDL
