MODEL 1
REMARK minimizedAffinity -4.68039703
REMARK minimizedRMSD -1
REMARK  0 active torsions:
REMARK  status: ('A' for Active; 'I' for Inactive)
ROOT
ATOM      1  C1  BNZ d   1       0.358   0.289  -0.078  0.00  0.00     0.000 A 
ATOM      2  C2  BNZ d   1       1.539  -0.403  -0.140  0.00  0.00     0.000 A 
ATOM      3  C3  BNZ d   1       1.644  -1.657   0.393  0.00  0.00     0.000 A 
ATOM      4  C4  BNZ d   1       0.583  -2.201   1.023  0.00  0.00     0.000 A 
ATOM      5  C5  BNZ d   1      -0.611  -1.513   1.103  0.00  0.00     0.000 A 
ATOM      6  C6  BNZ d   1      -0.725  -0.266   0.530  0.00  0.00     0.000 A 
ENDROOT
TORSDOF 0
ENDMDL
