MODEL 1
REMARK minimizedAffinity -3.71118903
REMARK minimizedRMSD -1
REMARK  0 active torsions:
REMARK  status: ('A' for Active; 'I' for Inactive)
ROOT
ATOM      1  C1  BNZ d   1      -1.853   1.475  -1.648  0.00  0.00     0.000 A 
ATOM      2  C2  BNZ d   1      -0.840   2.371  -1.864  0.00  0.00     0.000 A 
ATOM      3  C3  BNZ d   1      -0.658   2.939  -3.094  0.00  0.00     0.000 A 
ATOM      4  C4  BNZ d   1      -1.462   2.581  -4.115  0.00  0.00     0.000 A 
ATOM      5  C5  BNZ d   1      -2.483   1.672  -3.915  0.00  0.00     0.000 A 
ATOM      6  C6  BNZ d   1      -2.687   1.132  -2.666  0.00  0.00     0.000 A 
ENDROOT
TORSDOF 0
ENDMDL
