MODEL 1
REMARK minimizedAffinity -1.42389798
REMARK minimizedRMSD -1
REMARK  1 active torsions:
REMARK  status: ('A' for Active; 'I' for Inactive)
REMARK    1  A    between atoms: C1_2  and  C2_3 
ROOT
ATOM      1  C2  UNL d   1       3.242   3.905  -6.000  0.00  0.00    -0.077 A 
ATOM      2  C3  UNL d   1       4.170   2.854  -5.998  0.00  0.00     0.002 A 
ATOM      3  C4  UNL d   1       5.540   3.121  -5.997  0.00  0.00     0.002 A 
ATOM      4  C5  UNL d   1       5.995   4.437  -5.993  0.00  0.00    -0.004 A 
ATOM      5  C6  UNL d   1       5.081   5.490  -5.997  0.00  0.00     0.002 A 
ATOM      6  C7  UNL d   1       3.711   5.225  -5.999  0.00  0.00     0.002 A 
ENDROOT
BRANCH   1   7
ATOM      7  C1  UNL d   1       1.764   3.620  -5.952  0.00  0.00     0.055 C 
ATOM      8  C   UNL d   1       0.954   4.906  -5.877  0.00  0.00     0.019 C 
ENDBRANCH   1   7
TORSDOF 1
ENDMDL
