MODEL 1
REMARK minimizedAffinity 3.74322033
REMARK minimizedRMSD -1
REMARK  1 active torsions:
REMARK  status: ('A' for Active; 'I' for Inactive)
REMARK    1  A    between atoms: C1_2  and  C2_3 
ROOT
ATOM      1  C2  UNL d   1      -2.915   3.861  -5.905  0.00  0.00    -0.077 A 
ATOM      2  C3  UNL d   1      -2.738   5.250  -5.984  0.00  0.00     0.002 A 
ATOM      3  C4  UNL d   1      -1.454   5.798  -5.999  0.00  0.00     0.002 A 
ATOM      4  C5  UNL d   1      -0.338   4.966  -5.939  0.00  0.00    -0.004 A 
ATOM      5  C6  UNL d   1      -0.504   3.584  -5.859  0.00  0.00     0.002 A 
ATOM      6  C7  UNL d   1      -1.786   3.034  -5.842  0.00  0.00     0.002 A 
ENDROOT
BRANCH   1   7
ATOM      7  C1  UNL d   1      -4.297   3.264  -5.938  0.00  0.00     0.055 C 
ATOM      8  C   UNL d   1      -5.366   4.346  -6.000  0.00  0.00     0.019 C 
ENDBRANCH   1   7
TORSDOF 1
ENDMDL
