MODEL 1
REMARK minimizedAffinity 0.0188075658
REMARK minimizedRMSD -1
REMARK  1 active torsions:
REMARK  status: ('A' for Active; 'I' for Inactive)
REMARK    1  A    between atoms: C1_2  and  C2_3 
ROOT
ATOM      1  C2  UNL d   1       2.585   4.127  -5.995  0.00  0.00    -0.077 A 
ATOM      2  C3  UNL d   1       1.908   5.355  -5.989  0.00  0.00     0.002 A 
ATOM      3  C4  UNL d   1       0.513   5.393  -5.985  0.00  0.00     0.002 A 
ATOM      4  C5  UNL d   1      -0.218   4.206  -5.982  0.00  0.00    -0.004 A 
ATOM      5  C6  UNL d   1       0.446   2.980  -5.990  0.00  0.00     0.002 A 
ATOM      6  C7  UNL d   1       1.841   2.941  -5.995  0.00  0.00     0.002 A 
ENDROOT
BRANCH   1   7
ATOM      7  C1  UNL d   1       4.090   4.085  -5.949  0.00  0.00     0.055 C 
ATOM      8  C   UNL d   1       4.685   5.484  -6.000  0.00  0.00     0.019 C 
ENDBRANCH   1   7
TORSDOF 1
ENDMDL
