MODEL 1
REMARK minimizedAffinity -1.82199895
REMARK minimizedRMSD -1
REMARK  1 active torsions:
REMARK  status: ('A' for Active; 'I' for Inactive)
REMARK    1  A    between atoms: C1_2  and  C2_3 
ROOT
ATOM      1  C2  UNL d   1       1.058   3.641  -5.993  0.00  0.00    -0.077 A 
ATOM      2  C3  UNL d   1       1.978   2.583  -5.993  0.00  0.00     0.002 A 
ATOM      3  C4  UNL d   1       3.350   2.842  -5.998  0.00  0.00     0.002 A 
ATOM      4  C5  UNL d   1       3.814   4.155  -5.998  0.00  0.00    -0.004 A 
ATOM      5  C6  UNL d   1       2.906   5.214  -6.000  0.00  0.00     0.002 A 
ATOM      6  C7  UNL d   1       1.534   4.958  -5.996  0.00  0.00     0.002 A 
ENDROOT
BRANCH   1   7
ATOM      7  C1  UNL d   1      -0.422   3.364  -5.938  0.00  0.00     0.055 C 
ATOM      8  C   UNL d   1      -0.999   3.708  -4.572  0.00  0.00     0.019 C 
ENDBRANCH   1   7
TORSDOF 1
ENDMDL
