MODEL 1
REMARK minimizedAffinity -1.26001179
REMARK minimizedRMSD -1
REMARK  1 active torsions:
REMARK  status: ('A' for Active; 'I' for Inactive)
REMARK    1  A    between atoms: C1_2  and  C2_3 
ROOT
ATOM      1  C2  UNL d   1       0.427   4.611  -5.955  0.00  0.00    -0.077 A 
ATOM      2  C3  UNL d   1      -0.108   3.315  -5.995  0.00  0.00     0.002 A 
ATOM      3  C4  UNL d   1      -1.491   3.122  -5.999  0.00  0.00     0.002 A 
ATOM      4  C5  UNL d   1      -2.349   4.219  -5.968  0.00  0.00    -0.004 A 
ATOM      5  C6  UNL d   1      -1.827   5.511  -5.926  0.00  0.00     0.002 A 
ATOM      6  C7  UNL d   1      -0.445   5.706  -5.920  0.00  0.00     0.002 A 
ENDROOT
BRANCH   1   7
ATOM      7  C1  UNL d   1       1.918   4.823  -6.000  0.00  0.00     0.055 C 
ATOM      8  C   UNL d   1       2.667   3.498  -5.970  0.00  0.00     0.019 C 
ENDBRANCH   1   7
TORSDOF 1
ENDMDL
