MODEL 1
REMARK minimizedAffinity -2.12830448
REMARK minimizedRMSD -1
REMARK  1 active torsions:
REMARK  status: ('A' for Active; 'I' for Inactive)
REMARK    1  A    between atoms: C1_2  and  C2_3 
ROOT
ATOM      1  C2  UNL d   1      -1.582   3.975  -6.000  0.00  0.00    -0.077 A 
ATOM      2  C3  UNL d   1      -1.761   5.366  -5.996  0.00  0.00     0.002 A 
ATOM      3  C4  UNL d   1      -3.045   5.913  -5.993  0.00  0.00     0.002 A 
ATOM      4  C5  UNL d   1      -4.160   5.078  -5.988  0.00  0.00    -0.004 A 
ATOM      5  C6  UNL d   1      -3.993   3.693  -5.994  0.00  0.00     0.002 A 
ATOM      6  C7  UNL d   1      -2.710   3.145  -5.999  0.00  0.00     0.002 A 
ENDROOT
BRANCH   1   7
ATOM      7  C1  UNL d   1      -0.198   3.383  -5.954  0.00  0.00     0.055 C 
ATOM      8  C   UNL d   1       0.868   4.469  -5.940  0.00  0.00     0.019 C 
ENDBRANCH   1   7
TORSDOF 1
ENDMDL
