MODEL 1
REMARK minimizedAffinity -3.43606472
REMARK minimizedRMSD -1
REMARK  1 active torsions:
REMARK  status: ('A' for Active; 'I' for Inactive)
REMARK    1  A    between atoms: C1_2  and  C2_3 
ROOT
ATOM      1  C2  UNL d   1       2.413   4.585  -5.945  0.00  0.00    -0.077 A 
ATOM      2  C3  UNL d   1       1.699   3.378  -5.935  0.00  0.00     0.002 A 
ATOM      3  C4  UNL d   1       0.303   3.384  -5.930  0.00  0.00     0.002 A 
ATOM      4  C5  UNL d   1      -0.390   4.593  -5.939  0.00  0.00    -0.004 A 
ATOM      5  C6  UNL d   1       0.311   5.798  -5.947  0.00  0.00     0.002 A 
ATOM      6  C7  UNL d   1       1.706   5.794  -5.951  0.00  0.00     0.002 A 
ENDROOT
BRANCH   1   7
ATOM      7  C1  UNL d   1       3.919   4.580  -6.000  0.00  0.00     0.055 C 
ATOM      8  C   UNL d   1       4.477   5.996  -5.992  0.00  0.00     0.019 C 
ENDBRANCH   1   7
TORSDOF 1
ENDMDL
