MODEL 1
REMARK minimizedAffinity -2.28015947
REMARK minimizedRMSD -1
REMARK  1 active torsions:
REMARK  status: ('A' for Active; 'I' for Inactive)
REMARK    1  A    between atoms: C1_2  and  C2_3 
ROOT
ATOM      1  C2  UNL d   1      -1.956   3.814  -5.998  0.00  0.00    -0.077 A 
ATOM      2  C3  UNL d   1      -1.860   5.213  -5.997  0.00  0.00     0.002 A 
ATOM      3  C4  UNL d   1      -3.013   6.000  -5.998  0.00  0.00     0.002 A 
ATOM      4  C5  UNL d   1      -4.270   5.398  -5.997  0.00  0.00    -0.004 A 
ATOM      5  C6  UNL d   1      -4.376   4.008  -6.000  0.00  0.00     0.002 A 
ATOM      6  C7  UNL d   1      -3.225   3.219  -5.999  0.00  0.00     0.002 A 
ENDROOT
BRANCH   1   7
ATOM      7  C1  UNL d   1      -0.714   2.963  -5.946  0.00  0.00     0.055 C 
ATOM      8  C   UNL d   1       0.544   3.818  -6.000  0.00  0.00     0.019 C 
ENDBRANCH   1   7
TORSDOF 1
ENDMDL
