MODEL 1
REMARK minimizedAffinity 5.60854864
REMARK minimizedRMSD -1
REMARK  1 active torsions:
REMARK  status: ('A' for Active; 'I' for Inactive)
REMARK    1  A    between atoms: C1_2  and  C2_3 
ROOT
ATOM      1  C2  UNL d   1       1.758  -3.780  -2.902  0.00  0.00    -0.077 A 
ATOM      2  C3  UNL d   1       1.779  -3.427  -1.546  0.00  0.00     0.002 A 
ATOM      3  C4  UNL d   1       2.752  -2.552  -1.058  0.00  0.00     0.002 A 
ATOM      4  C5  UNL d   1       3.707  -2.020  -1.921  0.00  0.00    -0.004 A 
ATOM      5  C6  UNL d   1       3.696  -2.366  -3.272  0.00  0.00     0.002 A 
ATOM      6  C7  UNL d   1       2.725  -3.241  -3.760  0.00  0.00     0.002 A 
ENDROOT
BRANCH   1   7
ATOM      7  C1  UNL d   1       0.680  -4.684  -3.439  0.00  0.00     0.055 C 
ATOM      8  C   UNL d   1      -0.699  -4.059  -3.278  0.00  0.00     0.019 C 
ENDBRANCH   1   7
TORSDOF 1
ENDMDL
