MODEL 1
REMARK minimizedAffinity -2.52812982
REMARK minimizedRMSD -1
REMARK  1 active torsions:
REMARK  status: ('A' for Active; 'I' for Inactive)
REMARK    1  A    between atoms: C1_2  and  C2_3 
ROOT
ATOM      1  C2  UNL d   1       3.013   4.428  -5.816  0.00  0.00    -0.077 A 
ATOM      2  C3  UNL d   1       3.500   5.730  -5.994  0.00  0.00     0.002 A 
ATOM      3  C4  UNL d   1       4.865   5.998  -5.869  0.00  0.00     0.002 A 
ATOM      4  C5  UNL d   1       5.754   4.967  -5.568  0.00  0.00    -0.004 A 
ATOM      5  C6  UNL d   1       5.279   3.669  -5.387  0.00  0.00     0.002 A 
ATOM      6  C7  UNL d   1       3.915   3.400  -5.511  0.00  0.00     0.002 A 
ENDROOT
BRANCH   1   7
ATOM      7  C1  UNL d   1       1.548   4.129  -5.999  0.00  0.00     0.055 C 
ATOM      8  C   UNL d   1       0.717   5.403  -5.980  0.00  0.00     0.019 C 
ENDBRANCH   1   7
TORSDOF 1
ENDMDL
