MODEL 1
REMARK minimizedAffinity 11.2946472
REMARK minimizedRMSD -1
REMARK  2 active torsions:
REMARK  status: ('A' for Active; 'I' for Inactive)
REMARK    1  A    between atoms: C2'_3  and  C1'_4 
REMARK    2  A    between atoms: C1'_4  and  C1_5 
ROOT
ATOM      1  C1  I4B d   1      -2.087  -1.496   0.619  0.00  0.00    -0.075 A 
ATOM      2  C2  I4B d   1      -0.846  -1.249   0.087  0.00  0.00     0.003 A 
ATOM      3  C3  I4B d   1      -0.379   0.081  -0.047  0.00  0.00     0.002 A 
ATOM      4  C4  I4B d   1      -1.201   1.129   0.316  0.00  0.00    -0.004 A 
ATOM      5  C5  I4B d   1      -2.449   0.877   0.876  0.00  0.00     0.002 A 
ATOM      6  C6  I4B d   1      -2.891  -0.444   1.041  0.00  0.00     0.003 A 
ENDROOT
BRANCH   1   7
ATOM      7  C1' I4B d   1      -2.562  -2.911   0.715  0.00  0.00     0.060 C 
BRANCH   7   8
ATOM      8  C2' I4B d   1      -3.916  -2.995   0.041  0.00  0.00    -0.013 C 
ATOM      9  C4' I4B d   1      -3.776  -3.278  -1.432  0.00  0.00     0.013 C 
ATOM     10  C3' I4B d   1      -4.708  -4.069   0.725  0.00  0.00     0.013 C 
ENDBRANCH   7   8
ENDBRANCH   1   7
TORSDOF 2
ENDMDL
