MODEL 1
REMARK minimizedAffinity -4.78467846
REMARK minimizedRMSD -1
REMARK  2 active torsions:
REMARK  status: ('A' for Active; 'I' for Inactive)
REMARK    1  A    between atoms: C2'_3  and  C1'_4 
REMARK    2  A    between atoms: C1'_4  and  C1_5 
ROOT
ATOM      1  C1  I4B d   1      -0.086  -0.604   0.936  0.00  0.00    -0.075 A 
ATOM      2  C2  I4B d   1       0.971  -1.365   0.502  0.00  0.00     0.003 A 
ATOM      3  C3  I4B d   1       0.761  -2.699   0.076  0.00  0.00     0.002 A 
ATOM      4  C4  I4B d   1      -0.504  -3.245   0.149  0.00  0.00    -0.004 A 
ATOM      5  C5  I4B d   1      -1.578  -2.465   0.568  0.00  0.00     0.002 A 
ATOM      6  C6  I4B d   1      -1.370  -1.132   0.953  0.00  0.00     0.003 A 
ENDROOT
BRANCH   1   7
ATOM      7  C1' I4B d   1       0.177   0.790   1.410  0.00  0.00     0.060 C 
BRANCH   7   8
ATOM      8  C2' I4B d   1       0.840   1.550   0.279  0.00  0.00    -0.013 C 
ATOM      9  C4' I4B d   1      -0.015   1.539  -0.961  0.00  0.00     0.013 C 
ATOM     10  C3' I4B d   1       1.094   2.951   0.749  0.00  0.00     0.013 C 
ENDBRANCH   7   8
ENDBRANCH   1   7
TORSDOF 2
ENDMDL
