MODEL 1
REMARK minimizedAffinity -4.05366373
REMARK minimizedRMSD -1
REMARK  2 active torsions:
REMARK  status: ('A' for Active; 'I' for Inactive)
REMARK    1  A    between atoms: C2'_3  and  C1'_4 
REMARK    2  A    between atoms: C1'_4  and  C1_5 
ROOT
ATOM      1  C1  I4B d   1       0.045  -0.307  -0.269  0.00  0.00    -0.075 A 
ATOM      2  C2  I4B d   1       0.567  -1.361  -0.976  0.00  0.00     0.003 A 
ATOM      3  C3  I4B d   1       0.397  -2.687  -0.509  0.00  0.00     0.002 A 
ATOM      4  C4  I4B d   1      -0.253  -2.908   0.688  0.00  0.00    -0.004 A 
ATOM      5  C5  I4B d   1      -0.801  -1.840   1.393  0.00  0.00     0.002 A 
ATOM      6  C6  I4B d   1      -0.662  -0.532   0.905  0.00  0.00     0.003 A 
ENDROOT
BRANCH   1   7
ATOM      7  C1' I4B d   1       0.272   1.082  -0.774  0.00  0.00     0.060 C 
BRANCH   7   8
ATOM      8  C2' I4B d   1       0.713   1.938   0.395  0.00  0.00    -0.013 C 
ATOM      9  C4' I4B d   1       2.096   2.493   0.174  0.00  0.00     0.013 C 
ATOM     10  C3' I4B d   1      -0.290   3.039   0.569  0.00  0.00     0.013 C 
ENDBRANCH   7   8
ENDBRANCH   1   7
TORSDOF 2
ENDMDL
