MODEL 1
REMARK minimizedAffinity -2.15804601
REMARK minimizedRMSD -1
REMARK  2 active torsions:
REMARK  status: ('A' for Active; 'I' for Inactive)
REMARK    1  A    between atoms: C2'_3  and  C1'_4 
REMARK    2  A    between atoms: C1'_4  and  C1_5 
ROOT
ATOM      1  C1  I4B d   1      -0.051  -0.008   0.097  0.00  0.00    -0.075 A 
ATOM      2  C2  I4B d   1      -1.223  -0.204   0.783  0.00  0.00     0.003 A 
ATOM      3  C3  I4B d   1      -1.585  -1.502   1.220  0.00  0.00     0.002 A 
ATOM      4  C4  I4B d   1      -0.775  -2.574   0.907  0.00  0.00    -0.004 A 
ATOM      5  C5  I4B d   1       0.425  -2.370   0.231  0.00  0.00     0.002 A 
ATOM      6  C6  I4B d   1       0.795  -1.077  -0.166  0.00  0.00     0.003 A 
ENDROOT
BRANCH   1   7
ATOM      7  C1' I4B d   1       0.284   1.371  -0.378  0.00  0.00     0.060 C 
BRANCH   7   8
ATOM      8  C2' I4B d   1       0.930   2.117   0.771  0.00  0.00    -0.013 C 
ATOM      9  C4' I4B d   1       2.362   2.462   0.461  0.00  0.00     0.013 C 
ATOM     10  C3' I4B d   1       0.120   3.351   1.035  0.00  0.00     0.013 C 
ENDBRANCH   7   8
ENDBRANCH   1   7
TORSDOF 2
ENDMDL
