MODEL 1
REMARK minimizedAffinity -5.76117849
REMARK minimizedRMSD -1
REMARK  2 active torsions:
REMARK  status: ('A' for Active; 'I' for Inactive)
REMARK    1  A    between atoms: C2'_3  and  C1'_4 
REMARK    2  A    between atoms: C1'_4  and  C1_5 
ROOT
ATOM      1  C1  I4B d   1       0.308  -1.332   0.024  0.00  0.00    -0.075 A 
ATOM      2  C2  I4B d   1       0.089  -1.670  -1.288  0.00  0.00     0.003 A 
ATOM      3  C3  I4B d   1      -0.138  -3.020  -1.649  0.00  0.00     0.002 A 
ATOM      4  C4  I4B d   1      -0.088  -4.000  -0.678  0.00  0.00    -0.004 A 
ATOM      5  C5  I4B d   1       0.111  -3.653   0.655  0.00  0.00     0.002 A 
ATOM      6  C6  I4B d   1       0.298  -2.310   1.011  0.00  0.00     0.003 A 
ENDROOT
BRANCH   1   7
ATOM      7  C1' I4B d   1       0.577   0.099   0.365  0.00  0.00     0.060 C 
BRANCH   7   8
ATOM      8  C2' I4B d   1      -0.663   0.901   0.024  0.00  0.00    -0.013 C 
ATOM      9  C4' I4B d   1      -1.798   0.574   0.959  0.00  0.00     0.013 C 
ATOM     10  C3' I4B d   1      -0.307   2.356   0.093  0.00  0.00     0.013 C 
ENDBRANCH   7   8
ENDBRANCH   1   7
TORSDOF 2
ENDMDL
