MODEL 1
REMARK minimizedAffinity -2.36013722
REMARK minimizedRMSD -1
REMARK  2 active torsions:
REMARK  status: ('A' for Active; 'I' for Inactive)
REMARK    1  A    between atoms: C2'_3  and  C1'_4 
REMARK    2  A    between atoms: C1'_4  and  C1_5 
ROOT
ATOM      1  C1  I4B d   1      -0.063   0.684  -0.519  0.00  0.00    -0.075 A 
ATOM      2  C2  I4B d   1      -0.516   0.447   0.755  0.00  0.00     0.003 A 
ATOM      3  C3  I4B d   1      -0.897  -0.860   1.145  0.00  0.00     0.002 A 
ATOM      4  C4  I4B d   1      -0.859  -1.883   0.219  0.00  0.00    -0.004 A 
ATOM      5  C5  I4B d   1      -0.378  -1.646  -1.065  0.00  0.00     0.002 A 
ATOM      6  C6  I4B d   1       0.034  -0.357  -1.433  0.00  0.00     0.003 A 
ENDROOT
BRANCH   1   7
ATOM      7  C1' I4B d   1       0.301   2.082  -0.906  0.00  0.00     0.060 C 
BRANCH   7   8
ATOM      8  C2' I4B d   1       0.843   2.781   0.325  0.00  0.00    -0.013 C 
ATOM      9  C4' I4B d   1       2.241   3.290   0.091  0.00  0.00     0.013 C 
ATOM     10  C3' I4B d   1      -0.091   3.903   0.669  0.00  0.00     0.013 C 
ENDBRANCH   7   8
ENDBRANCH   1   7
TORSDOF 2
ENDMDL
