MODEL 1
REMARK minimizedAffinity -4.74396896
REMARK minimizedRMSD -1
REMARK  2 active torsions:
REMARK  status: ('A' for Active; 'I' for Inactive)
REMARK    1  A    between atoms: C2'_3  and  C1'_4 
REMARK    2  A    between atoms: C1'_4  and  C1_5 
ROOT
ATOM      1  C1  I4B d   1      -0.015  -0.626   0.186  0.00  0.00    -0.075 A 
ATOM      2  C2  I4B d   1      -0.053   0.237  -0.881  0.00  0.00     0.003 A 
ATOM      3  C3  I4B d   1       0.490  -0.149  -2.130  0.00  0.00     0.002 A 
ATOM      4  C4  I4B d   1       1.103  -1.380  -2.254  0.00  0.00    -0.004 A 
ATOM      5  C5  I4B d   1       1.120  -2.262  -1.177  0.00  0.00     0.002 A 
ATOM      6  C6  I4B d   1       0.547  -1.888   0.047  0.00  0.00     0.003 A 
ENDROOT
BRANCH   1   7
ATOM      7  C1' I4B d   1      -0.568  -0.172   1.500  0.00  0.00     0.060 C 
BRANCH   7   8
ATOM      8  C2' I4B d   1      -2.019  -0.602   1.568  0.00  0.00    -0.013 C 
ATOM      9  C4' I4B d   1      -2.139  -2.096   1.713  0.00  0.00     0.013 C 
ATOM     10  C3' I4B d   1      -2.657   0.107   2.726  0.00  0.00     0.013 C 
ENDBRANCH   7   8
ENDBRANCH   1   7
TORSDOF 2
ENDMDL
