MODEL 1
REMARK minimizedAffinity -3.51179171
REMARK minimizedRMSD -1
REMARK  2 active torsions:
REMARK  status: ('A' for Active; 'I' for Inactive)
REMARK    1  A    between atoms: C2'_3  and  C1'_4 
REMARK    2  A    between atoms: C1'_4  and  C1_5 
ROOT
ATOM      1  C1  I4B d   1       0.058   0.075   0.299  0.00  0.00    -0.075 A 
ATOM      2  C2  I4B d   1      -1.249   0.172   0.708  0.00  0.00     0.003 A 
ATOM      3  C3  I4B d   1      -1.941  -0.977   1.162  0.00  0.00     0.002 A 
ATOM      4  C4  I4B d   1      -1.308  -2.203   1.143  0.00  0.00    -0.004 A 
ATOM      5  C5  I4B d   1       0.024  -2.296   0.750  0.00  0.00     0.002 A 
ATOM      6  C6  I4B d   1       0.716  -1.148   0.337  0.00  0.00     0.003 A 
ENDROOT
BRANCH   1   7
ATOM      7  C1' I4B d   1       0.748   1.302  -0.206  0.00  0.00     0.060 C 
BRANCH   7   8
ATOM      8  C2' I4B d   1       0.711   2.344   0.894  0.00  0.00    -0.013 C 
ATOM      9  C4' I4B d   1       2.066   2.970   1.098  0.00  0.00     0.013 C 
ATOM     10  C3' I4B d   1      -0.311   3.376   0.520  0.00  0.00     0.013 C 
ENDBRANCH   7   8
ENDBRANCH   1   7
TORSDOF 2
ENDMDL
