MODEL 1
REMARK minimizedAffinity -6.26605225
REMARK minimizedRMSD -1
REMARK  2 active torsions:
REMARK  status: ('A' for Active; 'I' for Inactive)
REMARK    1  A    between atoms: C2'_3  and  C1'_4 
REMARK    2  A    between atoms: C1'_4  and  C1_5 
ROOT
ATOM      1  C1  I4B d   1      -0.148   0.591   0.232  0.00  0.00    -0.075 A 
ATOM      2  C2  I4B d   1      -0.445   0.459  -1.102  0.00  0.00     0.003 A 
ATOM      3  C3  I4B d   1      -0.226   1.539  -1.991  0.00  0.00     0.002 A 
ATOM      4  C4  I4B d   1       0.242   2.740  -1.500  0.00  0.00    -0.004 A 
ATOM      5  C5  I4B d   1       0.564   2.865  -0.152  0.00  0.00     0.002 A 
ATOM      6  C6  I4B d   1       0.380   1.780   0.718  0.00  0.00     0.003 A 
ENDROOT
BRANCH   1   7
ATOM      7  C1' I4B d   1      -0.423  -0.558   1.149  0.00  0.00     0.060 C 
BRANCH   7   8
ATOM      8  C2' I4B d   1       0.016  -1.829   0.450  0.00  0.00    -0.013 C 
ATOM      9  C4' I4B d   1       1.213  -2.440   1.130  0.00  0.00     0.013 C 
ATOM     10  C3' I4B d   1      -1.146  -2.777   0.442  0.00  0.00     0.013 C 
ENDBRANCH   7   8
ENDBRANCH   1   7
TORSDOF 2
ENDMDL
