MODEL 1
REMARK minimizedAffinity -3.95516443
REMARK minimizedRMSD -1
REMARK  2 active torsions:
REMARK  status: ('A' for Active; 'I' for Inactive)
REMARK    1  A    between atoms: C2'_3  and  C1'_4 
REMARK    2  A    between atoms: C1'_4  and  C1_5 
ROOT
ATOM      1  C1  I4B d   1      -0.243   0.273   0.014  0.00  0.00    -0.075 A 
ATOM      2  C2  I4B d   1       0.588  -0.724  -0.433  0.00  0.00     0.003 A 
ATOM      3  C3  I4B d   1       0.413  -2.054   0.020  0.00  0.00     0.002 A 
ATOM      4  C4  I4B d   1      -0.565  -2.331   0.953  0.00  0.00    -0.004 A 
ATOM      5  C5  I4B d   1      -1.421  -1.323   1.388  0.00  0.00     0.002 A 
ATOM      6  C6  I4B d   1      -1.267  -0.015   0.907  0.00  0.00     0.003 A 
ENDROOT
BRANCH   1   7
ATOM      7  C1' I4B d   1      -0.010   1.672  -0.460  0.00  0.00     0.060 C 
BRANCH   7   8
ATOM      8  C2' I4B d   1       0.880   2.366   0.551  0.00  0.00    -0.013 C 
ATOM      9  C4' I4B d   1       2.081   2.985  -0.113  0.00  0.00     0.013 C 
ATOM     10  C3' I4B d   1       0.058   3.402   1.258  0.00  0.00     0.013 C 
ENDBRANCH   7   8
ENDBRANCH   1   7
TORSDOF 2
ENDMDL
