MODEL 1
REMARK minimizedAffinity -5.08191395
REMARK minimizedRMSD -1
REMARK  2 active torsions:
REMARK  status: ('A' for Active; 'I' for Inactive)
REMARK    1  A    between atoms: C2'_3  and  C1'_4 
REMARK    2  A    between atoms: C1'_4  and  C1_5 
ROOT
ATOM      1  C1  I4B d   1      -0.082  -0.033  -0.029  0.00  0.00    -0.075 A 
ATOM      2  C2  I4B d   1      -1.180  -0.458   0.676  0.00  0.00     0.003 A 
ATOM      3  C3  I4B d   1      -1.264  -1.798   1.126  0.00  0.00     0.002 A 
ATOM      4  C4  I4B d   1      -0.256  -2.686   0.808  0.00  0.00    -0.004 A 
ATOM      5  C5  I4B d   1       0.867  -2.248   0.113  0.00  0.00     0.002 A 
ATOM      6  C6  I4B d   1       0.961  -0.910  -0.298  0.00  0.00     0.003 A 
ENDROOT
BRANCH   1   7
ATOM      7  C1' I4B d   1      -0.042   1.380  -0.518  0.00  0.00     0.060 C 
BRANCH   7   8
ATOM      8  C2' I4B d   1       0.852   2.171   0.415  0.00  0.00    -0.013 C 
ATOM      9  C4' I4B d   1       2.129   2.580  -0.270  0.00  0.00     0.013 C 
ATOM     10  C3' I4B d   1       0.083   3.369   0.887  0.00  0.00     0.013 C 
ENDBRANCH   7   8
ENDBRANCH   1   7
TORSDOF 2
ENDMDL
