MODEL 1
REMARK minimizedAffinity -5.94009876
REMARK minimizedRMSD -1
REMARK  2 active torsions:
REMARK  status: ('A' for Active; 'I' for Inactive)
REMARK    1  A    between atoms: C2'_3  and  C1'_4 
REMARK    2  A    between atoms: C1'_4  and  C1_5 
ROOT
ATOM      1  C1  I4B d   1       0.433  -2.242  -0.565  0.00  0.00    -0.075 A 
ATOM      2  C2  I4B d   1       0.494  -0.894  -0.813  0.00  0.00     0.003 A 
ATOM      3  C3  I4B d   1       0.615  -0.418  -2.141  0.00  0.00     0.002 A 
ATOM      4  C4  I4B d   1       0.722  -1.322  -3.179  0.00  0.00    -0.004 A 
ATOM      5  C5  I4B d   1       0.637  -2.688  -2.928  0.00  0.00     0.002 A 
ATOM      6  C6  I4B d   1       0.480  -3.151  -1.614  0.00  0.00     0.003 A 
ENDROOT
BRANCH   1   7
ATOM      7  C1' I4B d   1       0.339  -2.711   0.853  0.00  0.00     0.060 C 
BRANCH   7   8
ATOM      8  C2' I4B d   1      -1.022  -2.311   1.387  0.00  0.00    -0.013 C 
ATOM      9  C4' I4B d   1      -1.090  -0.830   1.652  0.00  0.00     0.013 C 
ATOM     10  C3' I4B d   1      -2.054  -2.729   0.383  0.00  0.00     0.013 C 
ENDBRANCH   7   8
ENDBRANCH   1   7
TORSDOF 2
ENDMDL
