MODEL 1
REMARK minimizedAffinity -4.19329786
REMARK minimizedRMSD -1
REMARK  2 active torsions:
REMARK  status: ('A' for Active; 'I' for Inactive)
REMARK    1  A    between atoms: C2'_3  and  C1'_4 
REMARK    2  A    between atoms: C1'_4  and  C1_5 
ROOT
ATOM      1  C1  I4B d   1       0.214  -1.315   0.284  0.00  0.00    -0.075 A 
ATOM      2  C2  I4B d   1       0.119  -2.422   1.090  0.00  0.00     0.003 A 
ATOM      3  C3  I4B d   1      -0.021  -3.710   0.519  0.00  0.00     0.002 A 
ATOM      4  C4  I4B d   1      -0.110  -3.839  -0.852  0.00  0.00    -0.004 A 
ATOM      5  C5  I4B d   1       0.010  -2.718  -1.669  0.00  0.00     0.002 A 
ATOM      6  C6  I4B d   1       0.186  -1.449  -1.098  0.00  0.00     0.003 A 
ENDROOT
BRANCH   1   7
ATOM      7  C1' I4B d   1       0.328   0.033   0.923  0.00  0.00     0.060 C 
BRANCH   7   8
ATOM      8  C2' I4B d   1       0.544   1.053  -0.177  0.00  0.00    -0.013 C 
ATOM      9  C4' I4B d   1      -0.752   1.711  -0.573  0.00  0.00     0.013 C 
ATOM     10  C3' I4B d   1       1.535   2.064   0.318  0.00  0.00     0.013 C 
ENDBRANCH   7   8
ENDBRANCH   1   7
TORSDOF 2
ENDMDL
