MODEL 1
REMARK minimizedAffinity 2.55380154
REMARK minimizedRMSD -1
REMARK  0 active torsions:
REMARK  status: ('A' for Active; 'I' for Inactive)
ROOT
ATOM      1  C   UNL d   1      -0.229   3.013   0.673  0.00  0.00     0.020 A 
ATOM      2  C1  UNL d   1       0.940   2.806  -0.058  0.00  0.00     0.020 A 
ATOM      3  C2  UNL d   1       1.513   1.534  -0.112  0.00  0.00     0.034 A 
ATOM      4  C3  UNL d   1       0.919   0.464   0.566  0.00  0.00     0.017 A 
ATOM      5  C4  UNL d   1      -0.255   0.673   1.299  0.00  0.00     0.017 A 
ATOM      6  C5  UNL d   1      -0.825   1.949   1.351  0.00  0.00     0.034 A 
ATOM      7 Cl   UNL d   1      -1.047  -0.598   2.162  0.00  0.00    -0.070 Cl
ATOM      8 Cl1  UNL d   1       1.682  -1.082   0.454  0.00  0.00    -0.070 Cl
ENDROOT
TORSDOF 0
ENDMDL
