MODEL 1
REMARK minimizedAffinity 4.36952066
REMARK minimizedRMSD -1
REMARK  0 active torsions:
REMARK  status: ('A' for Active; 'I' for Inactive)
ROOT
ATOM      1  C   UNL d   1       2.113  -1.912  -2.542  0.00  0.00     0.020 A 
ATOM      2  C1  UNL d   1       2.828  -2.054  -1.354  0.00  0.00     0.020 A 
ATOM      3  C2  UNL d   1       2.957  -0.970  -0.483  0.00  0.00     0.034 A 
ATOM      4  C3  UNL d   1       2.371   0.260  -0.799  0.00  0.00     0.017 A 
ATOM      5  C4  UNL d   1       1.653   0.402  -1.992  0.00  0.00     0.017 A 
ATOM      6  C5  UNL d   1       1.527  -0.687  -2.861  0.00  0.00     0.034 A 
ATOM      7 Cl   UNL d   1       0.901   1.889  -2.451  0.00  0.00    -0.070 Cl
ATOM      8 Cl1  UNL d   1       2.570   1.558   0.324  0.00  0.00    -0.070 Cl
ENDROOT
TORSDOF 0
ENDMDL
