MODEL 1
REMARK minimizedAffinity -1.16000783
REMARK minimizedRMSD -1
REMARK  0 active torsions:
REMARK  status: ('A' for Active; 'I' for Inactive)
ROOT
ATOM      1  C   UNL d   1       0.954   4.700   0.180  0.00  0.00     0.020 A 
ATOM      2  C1  UNL d   1      -0.245   4.019  -0.027  0.00  0.00     0.020 A 
ATOM      3  C2  UNL d   1      -0.265   2.623  -0.020  0.00  0.00     0.034 A 
ATOM      4  C3  UNL d   1       0.916   1.903   0.196  0.00  0.00     0.017 A 
ATOM      5  C4  UNL d   1       2.119   2.588   0.404  0.00  0.00     0.017 A 
ATOM      6  C5  UNL d   1       2.133   3.986   0.395  0.00  0.00     0.034 A 
ATOM      7 Cl   UNL d   1       3.616   1.769   0.677  0.00  0.00    -0.070 Cl
ATOM      8 Cl1  UNL d   1       0.817   0.178   0.193  0.00  0.00    -0.070 Cl
ENDROOT
TORSDOF 0
ENDMDL
