MODEL 1
REMARK minimizedAffinity 7.19642258
REMARK minimizedRMSD -1
REMARK  0 active torsions:
REMARK  status: ('A' for Active; 'I' for Inactive)
ROOT
ATOM      1  C   UNL d   1      -0.137   3.018   0.727  0.00  0.00     0.020 A 
ATOM      2  C1  UNL d   1      -1.311   3.577   0.223  0.00  0.00     0.020 A 
ATOM      3  C2  UNL d   1      -2.448   2.783   0.061  0.00  0.00     0.034 A 
ATOM      4  C3  UNL d   1      -2.414   1.426   0.404  0.00  0.00     0.017 A 
ATOM      5  C4  UNL d   1      -1.235   0.866   0.910  0.00  0.00     0.017 A 
ATOM      6  C5  UNL d   1      -0.099   1.666   1.070  0.00  0.00     0.034 A 
ATOM      7 Cl   UNL d   1      -1.117  -0.799   1.355  0.00  0.00    -0.070 Cl
ATOM      8 Cl1  UNL d   1      -3.858   0.504   0.178  0.00  0.00    -0.070 Cl
ENDROOT
TORSDOF 0
ENDMDL
