MODEL 1
REMARK minimizedAffinity 2.08428717
REMARK minimizedRMSD -1
REMARK  0 active torsions:
REMARK  status: ('A' for Active; 'I' for Inactive)
ROOT
ATOM      1  C   UNL d   1       0.091   3.351   1.012  0.00  0.00     0.020 A 
ATOM      2  C1  UNL d   1      -0.691   3.157   2.149  0.00  0.00     0.020 A 
ATOM      3  C2  UNL d   1      -0.898   1.867   2.643  0.00  0.00     0.034 A 
ATOM      4  C3  UNL d   1      -0.322   0.766   1.998  0.00  0.00     0.017 A 
ATOM      5  C4  UNL d   1       0.463   0.962   0.856  0.00  0.00     0.017 A 
ATOM      6  C5  UNL d   1       0.667   2.256   0.367  0.00  0.00     0.034 A 
ATOM      7 Cl   UNL d   1       1.207  -0.346   0.007  0.00  0.00    -0.070 Cl
ATOM      8 Cl1  UNL d   1      -0.619  -0.800   2.663  0.00  0.00    -0.070 Cl
ENDROOT
TORSDOF 0
ENDMDL
