MODEL 1
REMARK minimizedAffinity 7.07955456
REMARK minimizedRMSD -1
REMARK  0 active torsions:
REMARK  status: ('A' for Active; 'I' for Inactive)
ROOT
ATOM      1  C   UNL d   1       1.603   0.966  -3.405  0.00  0.00     0.020 A 
ATOM      2  C1  UNL d   1       0.887  -0.230  -3.422  0.00  0.00     0.020 A 
ATOM      3  C2  UNL d   1       0.741  -0.973  -2.249  0.00  0.00     0.034 A 
ATOM      4  C3  UNL d   1       1.313  -0.522  -1.054  0.00  0.00     0.017 A 
ATOM      5  C4  UNL d   1       2.032   0.679  -1.038  0.00  0.00     0.017 A 
ATOM      6  C5  UNL d   1       2.175   1.420  -2.216  0.00  0.00     0.034 A 
ATOM      7 Cl   UNL d   1       2.767   1.301   0.398  0.00  0.00    -0.070 Cl
ATOM      8 Cl1  UNL d   1       1.093  -1.491   0.359  0.00  0.00    -0.070 Cl
ENDROOT
TORSDOF 0
ENDMDL
