MODEL 1
REMARK minimizedAffinity 3.57832456
REMARK minimizedRMSD -1
REMARK  0 active torsions:
REMARK  status: ('A' for Active; 'I' for Inactive)
ROOT
ATOM      1  C   UNL d   1      -1.667   1.947   0.304  0.00  0.00     0.020 A 
ATOM      2  C1  UNL d   1      -2.403   3.010  -0.218  0.00  0.00     0.020 A 
ATOM      3  C2  UNL d   1      -3.740   3.181   0.150  0.00  0.00     0.034 A 
ATOM      4  C3  UNL d   1      -4.344   2.288   1.042  0.00  0.00     0.017 A 
ATOM      5  C4  UNL d   1      -3.604   1.221   1.565  0.00  0.00     0.017 A 
ATOM      6  C5  UNL d   1      -2.266   1.055   1.193  0.00  0.00     0.034 A 
ATOM      7 Cl   UNL d   1      -4.281   0.078   2.671  0.00  0.00    -0.070 Cl
ATOM      8 Cl1  UNL d   1      -6.000   2.560   1.453  0.00  0.00    -0.070 Cl
ENDROOT
TORSDOF 0
ENDMDL
