MODEL 1
REMARK minimizedAffinity 10.3507872
REMARK minimizedRMSD -1
REMARK  0 active torsions:
REMARK  status: ('A' for Active; 'I' for Inactive)
ROOT
ATOM      1  C   UNL d   1      -6.000   1.495   1.445  0.00  0.00     0.020 A 
ATOM      2  C1  UNL d   1      -5.861   2.726   0.805  0.00  0.00     0.020 A 
ATOM      3  C2  UNL d   1      -4.604   3.149   0.369  0.00  0.00     0.034 A 
ATOM      4  C3  UNL d   1      -3.479   2.340   0.574  0.00  0.00     0.017 A 
ATOM      5  C4  UNL d   1      -3.619   1.105   1.217  0.00  0.00     0.017 A 
ATOM      6  C5  UNL d   1      -4.881   0.687   1.651  0.00  0.00     0.034 A 
ATOM      7 Cl   UNL d   1      -2.279   0.053   1.505  0.00  0.00    -0.070 Cl
ATOM      8 Cl1  UNL d   1      -1.955   2.926   0.009  0.00  0.00    -0.070 Cl
ENDROOT
TORSDOF 0
ENDMDL
