MODEL 1
REMARK minimizedAffinity 1.97505438
REMARK minimizedRMSD -1
REMARK  0 active torsions:
REMARK  status: ('A' for Active; 'I' for Inactive)
ROOT
ATOM      1  C   UNL d   1       2.986  -5.984   0.488  0.00  0.00     0.020 A 
ATOM      2  C1  UNL d   1       4.064  -5.191   0.094  0.00  0.00     0.020 A 
ATOM      3  C2  UNL d   1       3.996  -3.803   0.231  0.00  0.00     0.034 A 
ATOM      4  C3  UNL d   1       2.848  -3.203   0.764  0.00  0.00     0.017 A 
ATOM      5  C4  UNL d   1       1.768  -4.000   1.159  0.00  0.00     0.017 A 
ATOM      6  C5  UNL d   1       1.841  -5.390   1.019  0.00  0.00     0.034 A 
ATOM      7 Cl   UNL d   1       0.319  -3.333   1.824  0.00  0.00    -0.070 Cl
ATOM      8 Cl1  UNL d   1       2.833  -1.481   0.905  0.00  0.00    -0.070 Cl
ENDROOT
TORSDOF 0
ENDMDL
