MODEL 1
REMARK minimizedAffinity 6.12380505
REMARK minimizedRMSD -1
REMARK  0 active torsions:
REMARK  status: ('A' for Active; 'I' for Inactive)
ROOT
ATOM      1  C   UNL d   1       1.271   0.563  -2.295  0.00  0.00     0.020 A 
ATOM      2  C1  UNL d   1       2.256   0.437  -3.274  0.00  0.00     0.020 A 
ATOM      3  C2  UNL d   1       3.584   0.749  -2.972  0.00  0.00     0.034 A 
ATOM      4  C3  UNL d   1       3.929   1.189  -1.689  0.00  0.00     0.017 A 
ATOM      5  C4  UNL d   1       2.939   1.315  -0.707  0.00  0.00     0.017 A 
ATOM      6  C5  UNL d   1       1.612   1.001  -1.015  0.00  0.00     0.034 A 
ATOM      7 Cl   UNL d   1       3.288   1.852   0.898  0.00  0.00    -0.070 Cl
ATOM      8 Cl1  UNL d   1       5.590   1.557  -1.385  0.00  0.00    -0.070 Cl
ENDROOT
TORSDOF 0
ENDMDL
