MODEL 1
REMARK minimizedAffinity 1.97856128
REMARK minimizedRMSD -1
REMARK  0 active torsions:
REMARK  status: ('A' for Active; 'I' for Inactive)
ROOT
ATOM      1  C   UNL d   1       3.815   3.026   1.041  0.00  0.00     0.020 A 
ATOM      2  C1  UNL d   1       4.454   1.789   0.960  0.00  0.00     0.020 A 
ATOM      3  C2  UNL d   1       3.718   0.641   0.662  0.00  0.00     0.034 A 
ATOM      4  C3  UNL d   1       2.338   0.726   0.444  0.00  0.00     0.017 A 
ATOM      5  C4  UNL d   1       1.697   1.968   0.525  0.00  0.00     0.017 A 
ATOM      6  C5  UNL d   1       2.439   3.115   0.823  0.00  0.00     0.034 A 
ATOM      7 Cl   UNL d   1      -0.002   2.153   0.268  0.00  0.00    -0.070 Cl
ATOM      8 Cl1  UNL d   1       1.490  -0.734   0.079  0.00  0.00    -0.070 Cl
ENDROOT
TORSDOF 0
ENDMDL
