MODEL 1
REMARK minimizedAffinity 0.35367018
REMARK minimizedRMSD -1
REMARK  0 active torsions:
REMARK  status: ('A' for Active; 'I' for Inactive)
ROOT
ATOM      1  C   UNL d   1       2.556   2.050   1.391  0.00  0.00     0.020 A 
ATOM      2  C1  UNL d   1       3.027   2.752   0.282  0.00  0.00     0.020 A 
ATOM      3  C2  UNL d   1       2.127   3.373  -0.585  0.00  0.00     0.034 A 
ATOM      4  C3  UNL d   1       0.750   3.294  -0.346  0.00  0.00     0.017 A 
ATOM      5  C4  UNL d   1       0.278   2.590   0.767  0.00  0.00     0.017 A 
ATOM      6  C5  UNL d   1       1.184   1.969   1.633  0.00  0.00     0.034 A 
ATOM      7 Cl   UNL d   1      -1.407   2.448   1.128  0.00  0.00    -0.070 Cl
ATOM      8 Cl1  UNL d   1      -0.306   4.087  -1.461  0.00  0.00    -0.070 Cl
ENDROOT
TORSDOF 0
ENDMDL
