MODEL 1
REMARK minimizedAffinity 0.469551653
REMARK minimizedRMSD -1
REMARK  0 active torsions:
REMARK  status: ('A' for Active; 'I' for Inactive)
ROOT
ATOM      1  C   UNL d   1       4.709   1.781   1.309  0.00  0.00     0.020 A 
ATOM      2  C1  UNL d   1       4.160   3.017   1.647  0.00  0.00     0.020 A 
ATOM      3  C2  UNL d   1       2.807   3.268   1.409  0.00  0.00     0.034 A 
ATOM      4  C3  UNL d   1       1.999   2.282   0.831  0.00  0.00     0.017 A 
ATOM      5  C4  UNL d   1       2.552   1.042   0.493  0.00  0.00     0.017 A 
ATOM      6  C5  UNL d   1       3.907   0.796   0.733  0.00  0.00     0.034 A 
ATOM      7 Cl   UNL d   1       1.618  -0.225  -0.223  0.00  0.00    -0.070 Cl
ATOM      8 Cl1  UNL d   1       0.334   2.661   0.566  0.00  0.00    -0.070 Cl
ENDROOT
TORSDOF 0
ENDMDL
