MODEL 1
REMARK minimizedAffinity 2.5677278
REMARK minimizedRMSD -1
REMARK  0 active torsions:
REMARK  status: ('A' for Active; 'I' for Inactive)
ROOT
ATOM      1  C   UNL d   1      -0.565  -5.968   1.191  0.00  0.00     0.020 A 
ATOM      2  C1  UNL d   1      -0.941  -5.030   2.153  0.00  0.00     0.020 A 
ATOM      3  C2  UNL d   1      -1.966  -4.123   1.880  0.00  0.00     0.034 A 
ATOM      4  C3  UNL d   1      -2.621  -4.151   0.643  0.00  0.00     0.017 A 
ATOM      5  C4  UNL d   1      -2.243  -5.093  -0.322  0.00  0.00     0.017 A 
ATOM      6  C5  UNL d   1      -1.215  -5.999  -0.043  0.00  0.00     0.034 A 
ATOM      7 Cl   UNL d   1      -3.004  -5.189  -1.871  0.00  0.00    -0.070 Cl
ATOM      8 Cl1  UNL d   1      -3.880  -3.000   0.373  0.00  0.00    -0.070 Cl
ENDROOT
TORSDOF 0
ENDMDL
