MODEL 1
REMARK minimizedAffinity 8.80862331
REMARK minimizedRMSD -1
REMARK  0 active torsions:
REMARK  status: ('A' for Active; 'I' for Inactive)
ROOT
ATOM      1  C   UNL d   1       1.834   3.259   0.107  0.00  0.00     0.020 A 
ATOM      2  C1  UNL d   1       0.589   3.565   0.656  0.00  0.00     0.020 A 
ATOM      3  C2  UNL d   1      -0.194   2.555   1.219  0.00  0.00     0.034 A 
ATOM      4  C3  UNL d   1       0.267   1.234   1.234  0.00  0.00     0.017 A 
ATOM      5  C4  UNL d   1       1.516   0.927   0.683  0.00  0.00     0.017 A 
ATOM      6  C5  UNL d   1       2.296   1.943   0.121  0.00  0.00     0.034 A 
ATOM      7 Cl   UNL d   1       2.152  -0.680   0.664  0.00  0.00    -0.070 Cl
ATOM      8 Cl1  UNL d   1      -0.754   0.035   1.946  0.00  0.00    -0.070 Cl
ENDROOT
TORSDOF 0
ENDMDL
