MODEL 1
REMARK minimizedAffinity 4.87163544
REMARK minimizedRMSD -1
REMARK  0 active torsions:
REMARK  status: ('A' for Active; 'I' for Inactive)
ROOT
ATOM      1  C   UNL d   1       3.845   2.458   0.833  0.00  0.00     0.020 A 
ATOM      2  C1  UNL d   1       3.716   2.100   2.174  0.00  0.00     0.020 A 
ATOM      3  C2  UNL d   1       2.465   2.147   2.793  0.00  0.00     0.034 A 
ATOM      4  C3  UNL d   1       1.338   2.554   2.070  0.00  0.00     0.017 A 
ATOM      5  C4  UNL d   1       1.468   2.913   0.724  0.00  0.00     0.017 A 
ATOM      6  C5  UNL d   1       2.723   2.864   0.110  0.00  0.00     0.034 A 
ATOM      7 Cl   UNL d   1       0.122   3.425  -0.233  0.00  0.00    -0.070 Cl
ATOM      8 Cl1  UNL d   1      -0.178   2.588   2.899  0.00  0.00    -0.070 Cl
ENDROOT
TORSDOF 0
ENDMDL
