MODEL 1
REMARK minimizedAffinity 8.30994701
REMARK minimizedRMSD -1
REMARK  0 active torsions:
REMARK  status: ('A' for Active; 'I' for Inactive)
ROOT
ATOM      1  C   UNL d   1       2.468   2.409   0.134  0.00  0.00     0.020 A 
ATOM      2  C1  UNL d   1       2.754   1.289   0.915  0.00  0.00     0.020 A 
ATOM      3  C2  UNL d   1       1.724   0.616   1.574  0.00  0.00     0.034 A 
ATOM      4  C3  UNL d   1       0.402   1.061   1.455  0.00  0.00     0.017 A 
ATOM      5  C4  UNL d   1       0.116   2.184   0.671  0.00  0.00     0.017 A 
ATOM      6  C5  UNL d   1       1.151   2.855   0.012  0.00  0.00     0.034 A 
ATOM      7 Cl   UNL d   1      -1.490   2.793   0.475  0.00  0.00    -0.070 Cl
ATOM      8 Cl1  UNL d   1      -0.821   0.179   2.298  0.00  0.00    -0.070 Cl
ENDROOT
TORSDOF 0
ENDMDL
