MODEL 1
REMARK minimizedAffinity 3.52742195
REMARK minimizedRMSD -1
REMARK  0 active torsions:
REMARK  status: ('A' for Active; 'I' for Inactive)
ROOT
ATOM      1  C   UNL d   1       2.877   2.190   0.583  0.00  0.00     0.020 A 
ATOM      2  C1  UNL d   1       2.854   2.043   1.969  0.00  0.00     0.020 A 
ATOM      3  C2  UNL d   1       1.731   2.445   2.695  0.00  0.00     0.034 A 
ATOM      4  C3  UNL d   1       0.627   2.996   2.036  0.00  0.00     0.017 A 
ATOM      5  C4  UNL d   1       0.651   3.144   0.644  0.00  0.00     0.017 A 
ATOM      6  C5  UNL d   1       1.778   2.739  -0.078  0.00  0.00     0.034 A 
ATOM      7 Cl   UNL d   1      -0.674   3.816  -0.239  0.00  0.00    -0.070 Cl
ATOM      8 Cl1  UNL d   1      -0.728   3.471   2.997  0.00  0.00    -0.070 Cl
ENDROOT
TORSDOF 0
ENDMDL
