MODEL 1
REMARK minimizedAffinity 0.590236604
REMARK minimizedRMSD -1
REMARK  0 active torsions:
REMARK  status: ('A' for Active; 'I' for Inactive)
ROOT
ATOM      1  O1  BZF d   1      -2.013   2.471   1.779  0.00  0.00    -0.204 OA
ATOM      2  C2  BZF d   1      -2.109   2.685   0.417  0.00  0.00     0.174 A 
ATOM      3  C3  BZF d   1      -2.607   1.597  -0.205  0.00  0.00    -0.012 A 
ATOM      4  C3A BZF d   1      -2.923   0.676   0.843  0.00  0.00    -0.107 A 
ATOM      5  C4  BZF d   1      -3.464  -0.578   0.860  0.00  0.00     0.055 A 
ATOM      6  C5  BZF d   1      -3.573  -1.234   2.045  0.00  0.00    -0.016 A 
ATOM      7  C6  BZF d   1      -3.148  -0.669   3.230  0.00  0.00     0.022 A 
ATOM      8  C7  BZF d   1      -2.610   0.574   3.264  0.00  0.00     0.029 A 
ATOM      9  C7A BZF d   1      -2.528   1.253   2.073  0.00  0.00     0.058 A 
ENDROOT
TORSDOF 0
ENDMDL
