MODEL 1
REMARK minimizedAffinity 0.709396183
REMARK minimizedRMSD -1
REMARK  0 active torsions:
REMARK  status: ('A' for Active; 'I' for Inactive)
ROOT
ATOM      1  O1  BZF d   1      -3.865   3.577  -0.548  0.00  0.00    -0.204 OA
ATOM      2  C2  BZF d   1      -3.076   4.364   0.269  0.00  0.00     0.174 A 
ATOM      3  C3  BZF d   1      -2.394   3.605   1.151  0.00  0.00    -0.012 A 
ATOM      4  C3A BZF d   1      -2.711   2.252   0.807  0.00  0.00    -0.107 A 
ATOM      5  C4  BZF d   1      -2.329   1.042   1.310  0.00  0.00     0.055 A 
ATOM      6  C5  BZF d   1      -2.877  -0.090   0.796  0.00  0.00    -0.016 A 
ATOM      7  C6  BZF d   1      -3.814  -0.048  -0.217  0.00  0.00     0.022 A 
ATOM      8  C7  BZF d   1      -4.221   1.129  -0.751  0.00  0.00     0.029 A 
ATOM      9  C7A BZF d   1      -3.644   2.273  -0.256  0.00  0.00     0.058 A 
ENDROOT
TORSDOF 0
ENDMDL
