MODEL 1
REMARK minimizedAffinity 10.8628759
REMARK minimizedRMSD -1
REMARK  0 active torsions:
REMARK  status: ('A' for Active; 'I' for Inactive)
ROOT
ATOM      1  O1  BZF d   1      -3.995  -1.308   0.744  0.00  0.00    -0.204 OA
ATOM      2  C2  BZF d   1      -3.053  -0.668  -0.039  0.00  0.00     0.174 A 
ATOM      3  C3  BZF d   1      -2.124  -0.063   0.729  0.00  0.00    -0.012 A 
ATOM      4  C3A BZF d   1      -2.457  -0.420   2.074  0.00  0.00    -0.107 A 
ATOM      5  C4  BZF d   1      -1.896  -0.137   3.286  0.00  0.00     0.055 A 
ATOM      6  C5  BZF d   1      -2.508  -0.578   4.416  0.00  0.00    -0.016 A 
ATOM      7  C6  BZF d   1      -3.683  -1.299   4.372  0.00  0.00     0.022 A 
ATOM      8  C7  BZF d   1      -4.275  -1.608   3.192  0.00  0.00     0.029 A 
ATOM      9  C7A BZF d   1      -3.641  -1.192   2.047  0.00  0.00     0.058 A 
ENDROOT
TORSDOF 0
ENDMDL
