MODEL 1
REMARK minimizedAffinity -3.43754435
REMARK minimizedRMSD -1
REMARK  0 active torsions:
REMARK  status: ('A' for Active; 'I' for Inactive)
ROOT
ATOM      1  O1  BZF d   1      -2.449   2.421   2.018  0.00  0.00    -0.204 OA
ATOM      2  C2  BZF d   1      -2.328   2.623   0.656  0.00  0.00     0.174 A 
ATOM      3  C3  BZF d   1      -2.215   1.447   0.006  0.00  0.00    -0.012 A 
ATOM      4  C3A BZF d   1      -2.360   0.444   1.016  0.00  0.00    -0.107 A 
ATOM      5  C4  BZF d   1      -2.356  -0.922   0.990  0.00  0.00     0.055 A 
ATOM      6  C5  BZF d   1      -2.449  -1.605   2.160  0.00  0.00    -0.016 A 
ATOM      7  C6  BZF d   1      -2.542  -0.956   3.374  0.00  0.00     0.022 A 
ATOM      8  C7  BZF d   1      -2.556   0.397   3.450  0.00  0.00     0.029 A 
ATOM      9  C7A BZF d   1      -2.495   1.090   2.266  0.00  0.00     0.058 A 
ENDROOT
TORSDOF 0
ENDMDL
