MODEL 1
REMARK minimizedAffinity -4.65094662
REMARK minimizedRMSD -1
REMARK  0 active torsions:
REMARK  status: ('A' for Active; 'I' for Inactive)
ROOT
ATOM      1  O1  BZF d   1      -2.427   1.052   3.531  0.00  0.00    -0.204 OA
ATOM      2  C2  BZF d   1      -2.998  -0.126   3.972  0.00  0.00     0.174 A 
ATOM      3  C3  BZF d   1      -3.628  -0.761   2.963  0.00  0.00    -0.012 A 
ATOM      4  C3A BZF d   1      -3.360   0.027   1.798  0.00  0.00    -0.107 A 
ATOM      5  C4  BZF d   1      -3.703  -0.097   0.482  0.00  0.00     0.055 A 
ATOM      6  C5  BZF d   1      -3.344   0.883  -0.389  0.00  0.00    -0.016 A 
ATOM      7  C6  BZF d   1      -2.647   2.000   0.023  0.00  0.00     0.022 A 
ATOM      8  C7  BZF d   1      -2.281   2.165   1.317  0.00  0.00     0.029 A 
ATOM      9  C7A BZF d   1      -2.613   1.161   2.193  0.00  0.00     0.058 A 
ENDROOT
TORSDOF 0
ENDMDL
