MODEL 1
REMARK minimizedAffinity -1.61308312
REMARK minimizedRMSD -1
REMARK  0 active torsions:
REMARK  status: ('A' for Active; 'I' for Inactive)
ROOT
ATOM      1  O1  BZF d   1       2.298  -3.263   1.916  0.00  0.00    -0.204 OA
ATOM      2  C2  BZF d   1       2.767  -2.091   1.355  0.00  0.00     0.174 A 
ATOM      3  C3  BZF d   1       2.001  -1.722   0.308  0.00  0.00    -0.012 A 
ATOM      4  C3A BZF d   1       0.936  -2.676   0.266  0.00  0.00    -0.107 A 
ATOM      5  C4  BZF d   1      -0.153  -2.832  -0.543  0.00  0.00     0.055 A 
ATOM      6  C5  BZF d   1      -0.960  -3.911  -0.363  0.00  0.00    -0.016 A 
ATOM      7  C6  BZF d   1      -0.705  -4.854   0.610  0.00  0.00     0.022 A 
ATOM      8  C7  BZF d   1       0.361  -4.740   1.440  0.00  0.00     0.029 A 
ATOM      9  C7A BZF d   1       1.159  -3.633   1.282  0.00  0.00     0.058 A 
ENDROOT
TORSDOF 0
ENDMDL
