MODEL 1
REMARK minimizedAffinity 0.781924725
REMARK minimizedRMSD -1
REMARK  0 active torsions:
REMARK  status: ('A' for Active; 'I' for Inactive)
ROOT
ATOM      1  O1  BZF d   1      -3.939   3.438  -0.592  0.00  0.00    -0.204 OA
ATOM      2  C2  BZF d   1      -3.490   4.496   0.175  0.00  0.00     0.174 A 
ATOM      3  C3  BZF d   1      -2.893   4.052   1.300  0.00  0.00    -0.012 A 
ATOM      4  C3A BZF d   1      -2.892   2.626   1.188  0.00  0.00    -0.107 A 
ATOM      5  C4  BZF d   1      -2.424   1.621   1.986  0.00  0.00     0.055 A 
ATOM      6  C5  BZF d   1      -2.647   0.331   1.623  0.00  0.00    -0.016 A 
ATOM      7  C6  BZF d   1      -3.338   0.009   0.473  0.00  0.00     0.022 A 
ATOM      8  C7  BZF d   1      -3.818   0.971  -0.353  0.00  0.00     0.029 A 
ATOM      9  C7A BZF d   1      -3.565   2.275  -0.006  0.00  0.00     0.058 A 
ENDROOT
TORSDOF 0
ENDMDL
