MODEL 1
REMARK minimizedAffinity 3.30139327
REMARK minimizedRMSD -1
REMARK  0 active torsions:
REMARK  status: ('A' for Active; 'I' for Inactive)
ROOT
ATOM      1  O1  BZF d   1       5.271   2.482   4.241  0.00  0.00    -0.204 OA
ATOM      2  C2  BZF d   1       4.637   2.467   3.014  0.00  0.00     0.174 A 
ATOM      3  C3  BZF d   1       4.410   1.200   2.608  0.00  0.00    -0.012 A 
ATOM      4  C3A BZF d   1       4.854   0.374   3.689  0.00  0.00    -0.107 A 
ATOM      5  C4  BZF d   1       4.875  -0.976   3.891  0.00  0.00     0.055 A 
ATOM      6  C5  BZF d   1       5.441  -1.466   5.025  0.00  0.00    -0.016 A 
ATOM      7  C6  BZF d   1       6.000  -0.636   5.974  0.00  0.00     0.022 A 
ATOM      8  C7  BZF d   1       5.998   0.711   5.821  0.00  0.00     0.029 A 
ATOM      9  C7A BZF d   1       5.397   1.211   4.691  0.00  0.00     0.058 A 
ENDROOT
TORSDOF 0
ENDMDL
