MODEL 1
REMARK minimizedAffinity 2.08016157
REMARK minimizedRMSD -1
REMARK  0 active torsions:
REMARK  status: ('A' for Active; 'I' for Inactive)
ROOT
ATOM      1  O1  BZF d   1       6.000   2.393   4.413  0.00  0.00    -0.204 OA
ATOM      2  C2  BZF d   1       5.829   3.361   3.443  0.00  0.00     0.174 A 
ATOM      3  C3  BZF d   1       5.315   2.826   2.318  0.00  0.00    -0.012 A 
ATOM      4  C3A BZF d   1       5.067   1.452   2.633  0.00  0.00    -0.107 A 
ATOM      5  C4  BZF d   1       4.545   0.406   1.928  0.00  0.00     0.055 A 
ATOM      6  C5  BZF d   1       4.508  -0.825   2.503  0.00  0.00    -0.016 A 
ATOM      7  C6  BZF d   1       4.987  -1.046   3.777  0.00  0.00     0.022 A 
ATOM      8  C7  BZF d   1       5.509  -0.038   4.518  0.00  0.00     0.029 A 
ATOM      9  C7A BZF d   1       5.518   1.213   3.952  0.00  0.00     0.058 A 
ENDROOT
TORSDOF 0
ENDMDL
