MODEL 1
REMARK minimizedAffinity 4.73315334
REMARK minimizedRMSD -1
REMARK  0 active torsions:
REMARK  status: ('A' for Active; 'I' for Inactive)
ROOT
ATOM      1  O1  BZF d   1       4.810   2.849   4.062  0.00  0.00    -0.204 OA
ATOM      2  C2  BZF d   1       4.549   2.724   2.712  0.00  0.00     0.174 A 
ATOM      3  C3  BZF d   1       4.840   1.479   2.281  0.00  0.00    -0.012 A 
ATOM      4  C3A BZF d   1       5.225   0.756   3.455  0.00  0.00    -0.107 A 
ATOM      5  C4  BZF d   1       5.612  -0.535   3.677  0.00  0.00     0.055 A 
ATOM      6  C5  BZF d   1       5.991  -0.904   4.929  0.00  0.00    -0.016 A 
ATOM      7  C6  BZF d   1       6.000  -0.009   5.978  0.00  0.00     0.022 A 
ATOM      8  C7  BZF d   1       5.619   1.281   5.808  0.00  0.00     0.029 A 
ATOM      9  C7A BZF d   1       5.204   1.649   4.551  0.00  0.00     0.058 A 
ENDROOT
TORSDOF 0
ENDMDL
