MODEL 1
REMARK minimizedAffinity 9.71758652
REMARK minimizedRMSD -1
REMARK  0 active torsions:
REMARK  status: ('A' for Active; 'I' for Inactive)
ROOT
ATOM      1  O1  BZF d   1       5.986   1.106   4.854  0.00  0.00    -0.204 OA
ATOM      2  C2  BZF d   1       5.999  -0.251   4.597  0.00  0.00     0.174 A 
ATOM      3  C3  BZF d   1       5.305  -0.532   3.475  0.00  0.00    -0.012 A 
ATOM      4  C3A BZF d   1       4.906   0.738   2.951  0.00  0.00    -0.107 A 
ATOM      5  C4  BZF d   1       4.203   1.118   1.844  0.00  0.00     0.055 A 
ATOM      6  C5  BZF d   1       3.923   2.435   1.660  0.00  0.00    -0.016 A 
ATOM      7  C6  BZF d   1       4.324   3.397   2.564  0.00  0.00     0.022 A 
ATOM      8  C7  BZF d   1       5.028   3.068   3.675  0.00  0.00     0.029 A 
ATOM      9  C7A BZF d   1       5.342   1.742   3.847  0.00  0.00     0.058 A 
ENDROOT
TORSDOF 0
ENDMDL
