MODEL 1
REMARK minimizedAffinity -0.785124302
REMARK minimizedRMSD -1
REMARK  0 active torsions:
REMARK  status: ('A' for Active; 'I' for Inactive)
ROOT
ATOM      1  O1  BZF d   1       4.969  -0.534   5.627  0.00  0.00    -0.204 OA
ATOM      2  C2  BZF d   1       5.997   0.379   5.487  0.00  0.00     0.174 A 
ATOM      3  C3  BZF d   1       6.000   0.909   4.246  0.00  0.00    -0.012 A 
ATOM      4  C3A BZF d   1       4.849   0.357   3.599  0.00  0.00    -0.107 A 
ATOM      5  C4  BZF d   1       4.306   0.514   2.356  0.00  0.00     0.055 A 
ATOM      6  C5  BZF d   1       3.219  -0.225   2.012  0.00  0.00    -0.016 A 
ATOM      7  C6  BZF d   1       2.653  -1.133   2.883  0.00  0.00     0.022 A 
ATOM      8  C7  BZF d   1       3.154  -1.320   4.128  0.00  0.00     0.029 A 
ATOM      9  C7A BZF d   1       4.233  -0.551   4.490  0.00  0.00     0.058 A 
ENDROOT
TORSDOF 0
ENDMDL
