MODEL 1
REMARK minimizedAffinity 13.7824411
REMARK minimizedRMSD -1
REMARK  0 active torsions:
REMARK  status: ('A' for Active; 'I' for Inactive)
ROOT
ATOM      1  O1  BZF d   1       5.457  -0.121   3.723  0.00  0.00    -0.204 OA
ATOM      2  C2  BZF d   1       6.000   0.514   4.823  0.00  0.00     0.174 A 
ATOM      3  C3  BZF d   1       5.796   1.845   4.756  0.00  0.00    -0.012 A 
ATOM      4  C3A BZF d   1       5.001   2.046   3.583  0.00  0.00    -0.107 A 
ATOM      5  C4  BZF d   1       4.461   3.152   2.993  0.00  0.00     0.055 A 
ATOM      6  C5  BZF d   1       3.798   3.015   1.814  0.00  0.00    -0.016 A 
ATOM      7  C6  BZF d   1       3.660   1.789   1.198  0.00  0.00     0.022 A 
ATOM      8  C7  BZF d   1       4.173   0.662   1.748  0.00  0.00     0.029 A 
ATOM      9  C7A BZF d   1       4.815   0.792   2.955  0.00  0.00     0.058 A 
ENDROOT
TORSDOF 0
ENDMDL
