MODEL 1
REMARK minimizedAffinity 2.70223904
REMARK minimizedRMSD -1
REMARK  0 active torsions:
REMARK  status: ('A' for Active; 'I' for Inactive)
ROOT
ATOM      1  O1  BZF d   1       4.779   3.314   2.763  0.00  0.00    -0.204 OA
ATOM      2  C2  BZF d   1       3.713   3.039   1.928  0.00  0.00     0.174 A 
ATOM      3  C3  BZF d   1       3.290   1.769   2.095  0.00  0.00    -0.012 A 
ATOM      4  C3A BZF d   1       4.086   1.245   3.162  0.00  0.00    -0.107 A 
ATOM      5  C4  BZF d   1       4.125   0.037   3.798  0.00  0.00     0.055 A 
ATOM      6  C5  BZF d   1       5.069  -0.177   4.752  0.00  0.00    -0.016 A 
ATOM      7  C6  BZF d   1       5.992   0.791   5.090  0.00  0.00     0.022 A 
ATOM      8  C7  BZF d   1       5.989   2.006   4.491  0.00  0.00     0.029 A 
ATOM      9  C7A BZF d   1       5.015   2.237   3.550  0.00  0.00     0.058 A 
ENDROOT
TORSDOF 0
ENDMDL
