MODEL 1
REMARK minimizedAffinity 2.97383952
REMARK minimizedRMSD -1
REMARK  0 active torsions:
REMARK  status: ('A' for Active; 'I' for Inactive)
ROOT
ATOM      1  O1  BZF d   1       4.885   3.814   3.025  0.00  0.00    -0.204 OA
ATOM      2  C2  BZF d   1       4.133   3.751   1.868  0.00  0.00     0.174 A 
ATOM      3  C3  BZF d   1       3.957   2.471   1.481  0.00  0.00    -0.012 A 
ATOM      4  C3A BZF d   1       4.563   1.681   2.508  0.00  0.00    -0.107 A 
ATOM      5  C4  BZF d   1       4.698   0.335   2.701  0.00  0.00     0.055 A 
ATOM      6  C5  BZF d   1       5.408  -0.110   3.770  0.00  0.00    -0.016 A 
ATOM      7  C6  BZF d   1       5.999   0.759   4.663  0.00  0.00     0.022 A 
ATOM      8  C7  BZF d   1       5.888   2.102   4.517  0.00  0.00     0.029 A 
ATOM      9  C7A BZF d   1       5.143   2.556   3.455  0.00  0.00     0.058 A 
ENDROOT
TORSDOF 0
ENDMDL
