MODEL 1
REMARK minimizedAffinity -1.41295934
REMARK minimizedRMSD -1
REMARK  0 active torsions:
REMARK  status: ('A' for Active; 'I' for Inactive)
ROOT
ATOM      1  O1  BZF d   1       5.631   1.501   3.987  0.00  0.00    -0.204 OA
ATOM      2  C2  BZF d   1       6.000   1.109   5.260  0.00  0.00     0.174 A 
ATOM      3  C3  BZF d   1       5.330  -0.001   5.631  0.00  0.00    -0.012 A 
ATOM      4  C3A BZF d   1       4.559  -0.376   4.486  0.00  0.00    -0.107 A 
ATOM      5  C4  BZF d   1       3.699  -1.406   4.229  0.00  0.00     0.055 A 
ATOM      6  C5  BZF d   1       3.053  -1.444   3.034  0.00  0.00    -0.016 A 
ATOM      7  C6  BZF d   1       3.238  -0.468   2.077  0.00  0.00     0.022 A 
ATOM      8  C7  BZF d   1       4.084   0.570   2.284  0.00  0.00     0.029 A 
ATOM      9  C7A BZF d   1       4.764   0.594   3.477  0.00  0.00     0.058 A 
ENDROOT
TORSDOF 0
ENDMDL
