MODEL 1
REMARK minimizedAffinity 1.11268961
REMARK minimizedRMSD -1
REMARK  0 active torsions:
REMARK  status: ('A' for Active; 'I' for Inactive)
ROOT
ATOM      1  O1  BZF d   1      -2.826   1.152   3.719  0.00  0.00    -0.204 OA
ATOM      2  C2  BZF d   1      -3.177  -0.119   4.132  0.00  0.00     0.174 A 
ATOM      3  C3  BZF d   1      -3.615  -0.856   3.092  0.00  0.00    -0.012 A 
ATOM      4  C3A BZF d   1      -3.447  -0.022   1.942  0.00  0.00    -0.107 A 
ATOM      5  C4  BZF d   1      -3.689  -0.200   0.609  0.00  0.00     0.055 A 
ATOM      6  C5  BZF d   1      -3.484   0.838  -0.243  0.00  0.00    -0.016 A 
ATOM      7  C6  BZF d   1      -3.043   2.067   0.202  0.00  0.00     0.022 A 
ATOM      8  C7  BZF d   1      -2.785   2.290   1.514  0.00  0.00     0.029 A 
ATOM      9  C7A BZF d   1      -2.959   1.233   2.373  0.00  0.00     0.058 A 
ENDROOT
TORSDOF 0
ENDMDL
