MODEL 1
REMARK minimizedAffinity -1.23289275
REMARK minimizedRMSD -1
REMARK  0 active torsions:
REMARK  status: ('A' for Active; 'I' for Inactive)
ROOT
ATOM      1  O1  BZF d   1      -2.639   3.098   1.547  0.00  0.00    -0.204 OA
ATOM      2  C2  BZF d   1      -2.953   3.907   0.472  0.00  0.00     0.174 A 
ATOM      3  C3  BZF d   1      -3.470   3.179  -0.539  0.00  0.00    -0.012 A 
ATOM      4  C3A BZF d   1      -3.565   1.845  -0.031  0.00  0.00    -0.107 A 
ATOM      5  C4  BZF d   1      -4.017   0.669  -0.560  0.00  0.00     0.055 A 
ATOM      6  C5  BZF d   1      -3.905  -0.470   0.172  0.00  0.00    -0.016 A 
ATOM      7  C6  BZF d   1      -3.342  -0.472   1.431  0.00  0.00     0.022 A 
ATOM      8  C7  BZF d   1      -2.884   0.670   1.999  0.00  0.00     0.029 A 
ATOM      9  C7A BZF d   1      -3.026   1.829   1.276  0.00  0.00     0.058 A 
ENDROOT
TORSDOF 0
ENDMDL
