MODEL 1
REMARK minimizedAffinity 0.326755464
REMARK minimizedRMSD -1
REMARK  0 active torsions:
REMARK  status: ('A' for Active; 'I' for Inactive)
ROOT
ATOM      1  O1  BZF d   1      -0.266  -1.872  -2.157  0.00  0.00    -0.204 OA
ATOM      2  C2  BZF d   1       0.928  -1.767  -2.843  0.00  0.00     0.174 A 
ATOM      3  C3  BZF d   1       1.913  -2.417  -2.191  0.00  0.00    -0.012 A 
ATOM      4  C3A BZF d   1       1.276  -3.041  -1.073  0.00  0.00    -0.107 A 
ATOM      5  C4  BZF d   1       1.726  -3.841  -0.061  0.00  0.00     0.055 A 
ATOM      6  C5  BZF d   1       0.861  -4.222   0.915  0.00  0.00    -0.016 A 
ATOM      7  C6  BZF d   1      -0.459  -3.818   0.913  0.00  0.00     0.022 A 
ATOM      8  C7  BZF d   1      -0.953  -3.029  -0.072  0.00  0.00     0.029 A 
ATOM      9  C7A BZF d   1      -0.089  -2.670  -1.077  0.00  0.00     0.058 A 
ENDROOT
TORSDOF 0
ENDMDL
