MODEL 1
REMARK minimizedAffinity -5.78497696
REMARK minimizedRMSD -1
REMARK  0 active torsions:
REMARK  status: ('A' for Active; 'I' for Inactive)
ROOT
ATOM      1  C   UNL d   1      -2.706  -1.124   0.716  0.00  0.00     0.020 A 
ATOM      2  C1  UNL d   1      -3.286  -1.178  -0.551  0.00  0.00     0.020 A 
ATOM      3  C2  UNL d   1      -2.579  -0.714  -1.662  0.00  0.00     0.034 A 
ATOM      4  C3  UNL d   1      -1.289  -0.193  -1.509  0.00  0.00     0.017 A 
ATOM      5  C4  UNL d   1      -0.708  -0.139  -0.237  0.00  0.00     0.017 A 
ATOM      6  C5  UNL d   1      -1.420  -0.606   0.873  0.00  0.00     0.034 A 
ATOM      7 Cl   UNL d   1       0.879   0.489   0.032  0.00  0.00    -0.070 Cl
ATOM      8 Cl1  UNL d   1      -0.473   0.363  -2.927  0.00  0.00    -0.070 Cl
ENDROOT
TORSDOF 0
ENDMDL
