MODEL 1
REMARK minimizedAffinity -4.9382081
REMARK minimizedRMSD -1
REMARK  0 active torsions:
REMARK  status: ('A' for Active; 'I' for Inactive)
ROOT
ATOM      1  C   UNL d   1      -1.537   0.229  -1.515  0.00  0.00     0.020 A 
ATOM      2  C1  UNL d   1      -2.609  -0.347  -0.834  0.00  0.00     0.020 A 
ATOM      3  C2  UNL d   1      -2.385  -1.057   0.347  0.00  0.00     0.034 A 
ATOM      4  C3  UNL d   1      -1.086  -1.192   0.852  0.00  0.00     0.017 A 
ATOM      5  C4  UNL d   1      -0.011  -0.614   0.167  0.00  0.00     0.017 A 
ATOM      6  C5  UNL d   1      -0.241   0.096  -1.015  0.00  0.00     0.034 A 
ATOM      7 Cl   UNL d   1       1.619  -0.739   0.728  0.00  0.00    -0.070 Cl
ATOM      8 Cl1  UNL d   1      -0.883  -2.083   2.318  0.00  0.00    -0.070 Cl
ENDROOT
TORSDOF 0
ENDMDL
