MODEL 1
REMARK minimizedAffinity -3.71692395
REMARK minimizedRMSD -1
REMARK  0 active torsions:
REMARK  status: ('A' for Active; 'I' for Inactive)
ROOT
ATOM      1  C   UNL d   1      -2.316  -0.827   0.772  0.00  0.00     0.020 A 
ATOM      2  C1  UNL d   1      -2.916  -0.833  -0.487  0.00  0.00     0.020 A 
ATOM      3  C2  UNL d   1      -2.210  -0.370  -1.599  0.00  0.00     0.034 A 
ATOM      4  C3  UNL d   1      -0.899   0.101  -1.455  0.00  0.00     0.017 A 
ATOM      5  C4  UNL d   1      -0.298   0.105  -0.191  0.00  0.00     0.017 A 
ATOM      6  C5  UNL d   1      -1.009  -0.359   0.919  0.00  0.00     0.034 A 
ATOM      7 Cl   UNL d   1       1.316   0.670   0.065  0.00  0.00    -0.070 Cl
ATOM      8 Cl1  UNL d   1      -0.085   0.658  -2.874  0.00  0.00    -0.070 Cl
ENDROOT
TORSDOF 0
ENDMDL
