MODEL 1
REMARK minimizedAffinity -4.30367661
REMARK minimizedRMSD -1
REMARK  0 active torsions:
REMARK  status: ('A' for Active; 'I' for Inactive)
ROOT
ATOM      1  C   UNL d   1      -1.515   0.844  -1.776  0.00  0.00     0.020 A 
ATOM      2  C1  UNL d   1      -2.502   0.031  -1.220  0.00  0.00     0.020 A 
ATOM      3  C2  UNL d   1      -2.175  -0.863  -0.198  0.00  0.00     0.034 A 
ATOM      4  C3  UNL d   1      -0.859  -0.946   0.271  0.00  0.00     0.017 A 
ATOM      5  C4  UNL d   1       0.131  -0.130  -0.289  0.00  0.00     0.017 A 
ATOM      6  C5  UNL d   1      -0.202   0.764  -1.312  0.00  0.00     0.034 A 
ATOM      7 Cl   UNL d   1       1.777  -0.176   0.236  0.00  0.00    -0.070 Cl
ATOM      8 Cl1  UNL d   1      -0.527  -2.073   1.537  0.00  0.00    -0.070 Cl
ENDROOT
TORSDOF 0
ENDMDL
