MODEL 1
REMARK minimizedAffinity -4.42687273
REMARK minimizedRMSD -1
REMARK  0 active torsions:
REMARK  status: ('A' for Active; 'I' for Inactive)
ROOT
ATOM      1  C   UNL d   1       0.549  -1.225   1.036  0.00  0.00     0.020 A 
ATOM      2  C1  UNL d   1       1.382  -0.552   0.143  0.00  0.00     0.020 A 
ATOM      3  C2  UNL d   1       0.831   0.151  -0.931  0.00  0.00     0.034 A 
ATOM      4  C3  UNL d   1      -0.556   0.183  -1.114  0.00  0.00     0.017 A 
ATOM      5  C4  UNL d   1      -1.391  -0.493  -0.217  0.00  0.00     0.017 A 
ATOM      6  C5  UNL d   1      -0.835  -1.195   0.856  0.00  0.00     0.034 A 
ATOM      7 Cl   UNL d   1      -3.112  -0.500  -0.379  0.00  0.00    -0.070 Cl
ATOM      8 Cl1  UNL d   1      -1.167   1.071  -2.464  0.00  0.00    -0.070 Cl
ENDROOT
TORSDOF 0
ENDMDL
