MODEL 1
REMARK minimizedAffinity -2.08729339
REMARK minimizedRMSD -1
REMARK  0 active torsions:
REMARK  status: ('A' for Active; 'I' for Inactive)
ROOT
ATOM      1  C   UNL d   1      -2.310  -0.737   1.009  0.00  0.00     0.020 A 
ATOM      2  C1  UNL d   1      -2.862  -0.852  -0.266  0.00  0.00     0.020 A 
ATOM      3  C2  UNL d   1      -2.121  -0.468  -1.386  0.00  0.00     0.034 A 
ATOM      4  C3  UNL d   1      -0.824   0.034  -1.233  0.00  0.00     0.017 A 
ATOM      5  C4  UNL d   1      -0.270   0.150   0.048  0.00  0.00     0.017 A 
ATOM      6  C5  UNL d   1      -1.017  -0.237   1.165  0.00  0.00     0.034 A 
ATOM      7 Cl   UNL d   1       1.324   0.760   0.316  0.00  0.00    -0.070 Cl
ATOM      8 Cl1  UNL d   1       0.035   0.490  -2.661  0.00  0.00    -0.070 Cl
ENDROOT
TORSDOF 0
ENDMDL
