MODEL 1
REMARK minimizedAffinity -4.46479893
REMARK minimizedRMSD -1
REMARK  0 active torsions:
REMARK  status: ('A' for Active; 'I' for Inactive)
ROOT
ATOM      1  C   UNL d   1      -2.655  -0.375  -0.846  0.00  0.00     0.020 A 
ATOM      2  C1  UNL d   1      -2.069  -0.543   0.408  0.00  0.00     0.020 A 
ATOM      3  C2  UNL d   1      -0.734  -0.185   0.607  0.00  0.00     0.034 A 
ATOM      4  C3  UNL d   1       0.019   0.342  -0.448  0.00  0.00     0.017 A 
ATOM      5  C4  UNL d   1      -0.570   0.510  -1.706  0.00  0.00     0.017 A 
ATOM      6  C5  UNL d   1      -1.908   0.151  -1.901  0.00  0.00     0.034 A 
ATOM      7 Cl   UNL d   1       0.295   1.154  -3.057  0.00  0.00    -0.070 Cl
ATOM      8 Cl1  UNL d   1       1.665   0.762  -0.130  0.00  0.00    -0.070 Cl
ENDROOT
TORSDOF 0
ENDMDL
