MODEL 1
REMARK minimizedAffinity -2.94461274
REMARK minimizedRMSD -1
REMARK  0 active torsions:
REMARK  status: ('A' for Active; 'I' for Inactive)
ROOT
ATOM      1  C   UNL d   1      -2.078   0.765  -1.796  0.00  0.00     0.020 A 
ATOM      2  C1  UNL d   1      -2.909  -0.188  -1.210  0.00  0.00     0.020 A 
ATOM      3  C2  UNL d   1      -2.428  -0.995  -0.177  0.00  0.00     0.034 A 
ATOM      4  C3  UNL d   1      -1.110  -0.850   0.273  0.00  0.00     0.017 A 
ATOM      5  C4  UNL d   1      -0.276   0.107  -0.316  0.00  0.00     0.017 A 
ATOM      6  C5  UNL d   1      -0.764   0.912  -1.350  0.00  0.00     0.034 A 
ATOM      7 Cl   UNL d   1       1.361   0.344   0.186  0.00  0.00    -0.070 Cl
ATOM      8 Cl1  UNL d   1      -0.581  -1.881   1.555  0.00  0.00    -0.070 Cl
ENDROOT
TORSDOF 0
ENDMDL
