MODEL 1
REMARK minimizedAffinity -1.94104099
REMARK minimizedRMSD -1
REMARK  0 active torsions:
REMARK  status: ('A' for Active; 'I' for Inactive)
ROOT
ATOM      1  C   UNL d   1      -2.432  -1.142  -0.077  0.00  0.00     0.020 A 
ATOM      2  C1  UNL d   1      -2.087   0.025  -0.758  0.00  0.00     0.020 A 
ATOM      3  C2  UNL d   1      -0.790   0.532  -0.662  0.00  0.00     0.034 A 
ATOM      4  C3  UNL d   1       0.168  -0.128   0.117  0.00  0.00     0.017 A 
ATOM      5  C4  UNL d   1      -0.178  -1.299   0.800  0.00  0.00     0.017 A 
ATOM      6  C5  UNL d   1      -1.479  -1.803   0.700  0.00  0.00     0.034 A 
ATOM      7 Cl   UNL d   1       0.949  -2.169   1.780  0.00  0.00    -0.070 Cl
ATOM      8 Cl1  UNL d   1       1.754   0.556   0.190  0.00  0.00    -0.070 Cl
ENDROOT
TORSDOF 0
ENDMDL
