MODEL 1
REMARK minimizedAffinity -2.74067926
REMARK minimizedRMSD -1
REMARK  0 active torsions:
REMARK  status: ('A' for Active; 'I' for Inactive)
ROOT
ATOM      1  C   UNL d   1       0.872   0.164  -0.288  0.00  0.00     0.020 A 
ATOM      2  C1  UNL d   1      -0.024   0.483  -1.308  0.00  0.00     0.020 A 
ATOM      3  C2  UNL d   1      -1.370   0.132  -1.190  0.00  0.00     0.034 A 
ATOM      4  C3  UNL d   1      -1.825  -0.541  -0.050  0.00  0.00     0.017 A 
ATOM      5  C4  UNL d   1      -0.925  -0.860   0.973  0.00  0.00     0.017 A 
ATOM      6  C5  UNL d   1       0.422  -0.506   0.850  0.00  0.00     0.034 A 
ATOM      7 Cl   UNL d   1      -1.412  -1.689   2.410  0.00  0.00    -0.070 Cl
ATOM      8 Cl1  UNL d   1      -3.503  -0.944   0.029  0.00  0.00    -0.070 Cl
ENDROOT
TORSDOF 0
ENDMDL
