MODEL 1
REMARK minimizedAffinity -4.58537006
REMARK minimizedRMSD -1
REMARK  0 active torsions:
REMARK  status: ('A' for Active; 'I' for Inactive)
ROOT
ATOM      1  C   UNL d   1      -2.880  -0.960  -0.413  0.00  0.00     0.020 A 
ATOM      2  C1  UNL d   1      -2.317  -1.167   0.846  0.00  0.00     0.020 A 
ATOM      3  C2  UNL d   1      -1.008  -0.754   1.102  0.00  0.00     0.034 A 
ATOM      4  C3  UNL d   1      -0.258  -0.130   0.098  0.00  0.00     0.017 A 
ATOM      5  C4  UNL d   1      -0.824   0.077  -1.165  0.00  0.00     0.017 A 
ATOM      6  C5  UNL d   1      -2.135  -0.339  -1.416  0.00  0.00     0.034 A 
ATOM      7 Cl   UNL d   1       0.039   0.840  -2.454  0.00  0.00    -0.070 Cl
ATOM      8 Cl1  UNL d   1       1.355   0.356   0.484  0.00  0.00    -0.070 Cl
ENDROOT
TORSDOF 0
ENDMDL
