MODEL 1
REMARK minimizedAffinity -1.0816623
REMARK minimizedRMSD -1
REMARK  0 active torsions:
REMARK  status: ('A' for Active; 'I' for Inactive)
ROOT
ATOM      1  C   UNL d   1       1.808  -0.025   0.244  0.00  0.00     0.020 A 
ATOM      2  C1  UNL d   1       1.043   0.600  -0.740  0.00  0.00     0.020 A 
ATOM      3  C2  UNL d   1      -0.335   0.379  -0.798  0.00  0.00     0.034 A 
ATOM      4  C3  UNL d   1      -0.952  -0.469   0.129  0.00  0.00     0.017 A 
ATOM      5  C4  UNL d   1      -0.183  -1.096   1.116  0.00  0.00     0.017 A 
ATOM      6  C5  UNL d   1       1.196  -0.871   1.170  0.00  0.00     0.034 A 
ATOM      7 Cl   UNL d   1      -0.873  -2.156   2.294  0.00  0.00    -0.070 Cl
ATOM      8 Cl1  UNL d   1      -2.660  -0.696  -0.003  0.00  0.00    -0.070 Cl
ENDROOT
TORSDOF 0
ENDMDL
