MODEL 1
REMARK minimizedAffinity -3.98027658
REMARK minimizedRMSD -1
REMARK  0 active torsions:
REMARK  status: ('A' for Active; 'I' for Inactive)
ROOT
ATOM      1  C   UNL d   1      -2.612  -0.371  -1.003  0.00  0.00     0.020 A 
ATOM      2  C1  UNL d   1      -1.625   0.344  -1.681  0.00  0.00     0.020 A 
ATOM      3  C2  UNL d   1      -0.337   0.432  -1.149  0.00  0.00     0.034 A 
ATOM      4  C3  UNL d   1      -0.032  -0.195   0.064  0.00  0.00     0.017 A 
ATOM      5  C4  UNL d   1      -1.023  -0.912   0.744  0.00  0.00     0.017 A 
ATOM      6  C5  UNL d   1      -2.311  -0.997   0.207  0.00  0.00     0.034 A 
ATOM      7 Cl   UNL d   1      -0.722  -1.713   2.246  0.00  0.00    -0.070 Cl
ATOM      8 Cl1  UNL d   1       1.582  -0.045   0.663  0.00  0.00    -0.070 Cl
ENDROOT
TORSDOF 0
ENDMDL
