MODEL 1
REMARK minimizedAffinity -5.20139503
REMARK minimizedRMSD -1
REMARK  0 active torsions:
REMARK  status: ('A' for Active; 'I' for Inactive)
ROOT
ATOM      1  C   UNL d   1       0.427   0.753  -1.034  0.00  0.00     0.020 A 
ATOM      2  C1  UNL d   1       1.224   0.432   0.064  0.00  0.00     0.020 A 
ATOM      3  C2  UNL d   1       0.720  -0.386   1.078  0.00  0.00     0.034 A 
ATOM      4  C3  UNL d   1      -0.585  -0.885   0.996  0.00  0.00     0.017 A 
ATOM      5  C4  UNL d   1      -1.385  -0.563  -0.107  0.00  0.00     0.017 A 
ATOM      6  C5  UNL d   1      -0.875   0.256  -1.119  0.00  0.00     0.034 A 
ATOM      7 Cl   UNL d   1      -3.004  -1.141  -0.279  0.00  0.00    -0.070 Cl
ATOM      8 Cl1  UNL d   1      -1.143  -1.891   2.285  0.00  0.00    -0.070 Cl
ENDROOT
TORSDOF 0
ENDMDL
