MODEL 1
REMARK minimizedAffinity -0.298483014
REMARK minimizedRMSD -1
REMARK  0 active torsions:
REMARK  status: ('A' for Active; 'I' for Inactive)
ROOT
ATOM      1  C   UNL d   1       0.822  -1.272   1.616  0.00  0.00     0.020 A 
ATOM      2  C1  UNL d   1       1.699  -0.408   0.961  0.00  0.00     0.020 A 
ATOM      3  C2  UNL d   1       1.233   0.410  -0.071  0.00  0.00     0.034 A 
ATOM      4  C3  UNL d   1      -0.113   0.365  -0.451  0.00  0.00     0.017 A 
ATOM      5  C4  UNL d   1      -0.992  -0.503   0.206  0.00  0.00     0.017 A 
ATOM      6  C5  UNL d   1      -0.521  -1.320   1.239  0.00  0.00     0.034 A 
ATOM      7 Cl   UNL d   1      -2.667  -0.614  -0.207  0.00  0.00    -0.070 Cl
ATOM      8 Cl1  UNL d   1      -0.620   1.404  -1.735  0.00  0.00    -0.070 Cl
ENDROOT
TORSDOF 0
ENDMDL
