MODEL 1
REMARK minimizedAffinity -1.42674327
REMARK minimizedRMSD -1
REMARK  0 active torsions:
REMARK  status: ('A' for Active; 'I' for Inactive)
ROOT
ATOM      1  C   UNL d   1       3.162   3.508   2.057  0.00  0.00     0.020 A 
ATOM      2  C1  UNL d   1       2.230   2.586   2.532  0.00  0.00     0.020 A 
ATOM      3  C2  UNL d   1       1.823   1.524   1.721  0.00  0.00     0.034 A 
ATOM      4  C3  UNL d   1       2.348   1.382   0.432  0.00  0.00     0.017 A 
ATOM      5  C4  UNL d   1       3.283   2.307  -0.044  0.00  0.00     0.017 A 
ATOM      6  C5  UNL d   1       3.688   3.369   0.772  0.00  0.00     0.034 A 
ATOM      7 Cl   UNL d   1       3.976   2.198  -1.624  0.00  0.00    -0.070 Cl
ATOM      8 Cl1  UNL d   1       1.800   0.045  -0.516  0.00  0.00    -0.070 Cl
ENDROOT
TORSDOF 0
ENDMDL
