MODEL 1
REMARK minimizedAffinity -3.12406611
REMARK minimizedRMSD -1
REMARK  0 active torsions:
REMARK  status: ('A' for Active; 'I' for Inactive)
ROOT
ATOM      1  C   UNL d   1      -2.842  -1.238  -0.513  0.00  0.00     0.020 A 
ATOM      2  C1  UNL d   1      -2.577  -0.919   0.819  0.00  0.00     0.020 A 
ATOM      3  C2  UNL d   1      -1.480  -0.118   1.140  0.00  0.00     0.034 A 
ATOM      4  C3  UNL d   1      -0.643   0.368   0.129  0.00  0.00     0.017 A 
ATOM      5  C4  UNL d   1      -0.909   0.048  -1.207  0.00  0.00     0.017 A 
ATOM      6  C5  UNL d   1      -2.009  -0.755  -1.523  0.00  0.00     0.034 A 
ATOM      7 Cl   UNL d   1       0.079   0.610  -2.509  0.00  0.00    -0.070 Cl
ATOM      8 Cl1  UNL d   1       0.696   1.354   0.599  0.00  0.00    -0.070 Cl
ENDROOT
TORSDOF 0
ENDMDL
