MODEL 1
REMARK minimizedAffinity -0.258930385
REMARK minimizedRMSD -1
REMARK  0 active torsions:
REMARK  status: ('A' for Active; 'I' for Inactive)
ROOT
ATOM      1  C   UNL d   1      -2.830   0.886   1.813  0.00  0.00    -0.002 A 
ATOM      2  C1  UNL d   1      -1.954   0.855   2.890  0.00  0.00     0.010 A 
ATOM      3  C2  UNL d   1      -0.592   0.624   2.691  0.00  0.00     0.041 A 
ATOM      4  C3  UNL d   1      -0.119   0.425   1.379  0.00  0.00    -0.075 A 
ATOM      5  S   UNL d   1       1.509   0.126   0.895  0.00  0.00     0.015 SA
ATOM      6  C4  UNL d   1       1.081   0.033  -0.752  0.00  0.00     0.022 A 
ATOM      7  C5  UNL d   1      -0.267   0.223  -0.946  0.00  0.00     0.026 A 
ATOM      8  C6  UNL d   1      -0.980   0.452   0.279  0.00  0.00    -0.082 A 
ATOM      9  C7  UNL d   1      -2.357   0.687   0.513  0.00  0.00     0.045 A 
ENDROOT
TORSDOF 0
ENDMDL
