MODEL 1
REMARK minimizedAffinity -3.24738312
REMARK minimizedRMSD -1
REMARK  0 active torsions:
REMARK  status: ('A' for Active; 'I' for Inactive)
ROOT
ATOM      1  C   UNL d   1      -2.655   0.070   2.638  0.00  0.00    -0.002 A 
ATOM      2  C1  UNL d   1      -1.557  -0.193   3.446  0.00  0.00     0.010 A 
ATOM      3  C2  UNL d   1      -0.271  -0.236   2.904  0.00  0.00     0.041 A 
ATOM      4  C3  UNL d   1      -0.105  -0.007   1.524  0.00  0.00    -0.075 A 
ATOM      5  S   UNL d   1       1.376  -0.009   0.641  0.00  0.00     0.015 SA
ATOM      6  C4  UNL d   1       0.587   0.340  -0.828  0.00  0.00     0.022 A 
ATOM      7  C5  UNL d   1      -0.773   0.458  -0.668  0.00  0.00     0.026 A 
ATOM      8  C6  UNL d   1      -1.194   0.261   0.691  0.00  0.00    -0.082 A 
ATOM      9  C7  UNL d   1      -2.486   0.297   1.270  0.00  0.00     0.045 A 
ENDROOT
TORSDOF 0
ENDMDL
