MODEL 1
REMARK minimizedAffinity -0.923823416
REMARK minimizedRMSD -1
REMARK  0 active torsions:
REMARK  status: ('A' for Active; 'I' for Inactive)
ROOT
ATOM      1  C   UNL d   1      -1.977   0.814   2.507  0.00  0.00    -0.002 A 
ATOM      2  C1  UNL d   1      -2.629   1.003   1.297  0.00  0.00     0.010 A 
ATOM      3  C2  UNL d   1      -1.939   0.869   0.090  0.00  0.00     0.041 A 
ATOM      4  C3  UNL d   1      -0.570   0.536   0.121  0.00  0.00    -0.075 A 
ATOM      5  S   UNL d   1       0.477   0.318  -1.231  0.00  0.00     0.015 SA
ATOM      6  C4  UNL d   1       1.814  -0.032  -0.234  0.00  0.00     0.022 A 
ATOM      7  C5  UNL d   1       1.487   0.012   1.101  0.00  0.00     0.026 A 
ATOM      8  C6  UNL d   1       0.108   0.340   1.327  0.00  0.00    -0.082 A 
ATOM      9  C7  UNL d   1      -0.619   0.484   2.533  0.00  0.00     0.045 A 
ENDROOT
TORSDOF 0
ENDMDL
