MODEL 1
REMARK minimizedAffinity 0.575141549
REMARK minimizedRMSD -1
REMARK  0 active torsions:
REMARK  status: ('A' for Active; 'I' for Inactive)
ROOT
ATOM      1  C   UNL d   1      -0.665   0.211  -0.121  0.00  0.00    -0.002 A 
ATOM      2  C1  UNL d   1       0.533   0.913  -0.118  0.00  0.00     0.010 A 
ATOM      3  C2  UNL d   1       1.584   0.526  -0.951  0.00  0.00     0.041 A 
ATOM      4  C3  UNL d   1       1.409  -0.587  -1.797  0.00  0.00    -0.075 A 
ATOM      5  S   UNL d   1       2.558  -1.243  -2.903  0.00  0.00     0.015 SA
ATOM      6  C4  UNL d   1       1.485  -2.468  -3.406  0.00  0.00     0.022 A 
ATOM      7  C5  UNL d   1       0.276  -2.395  -2.756  0.00  0.00     0.026 A 
ATOM      8  C6  UNL d   1       0.212  -1.309  -1.818  0.00  0.00    -0.082 A 
ATOM      9  C7  UNL d   1      -0.834  -0.892  -0.961  0.00  0.00     0.045 A 
ENDROOT
TORSDOF 0
ENDMDL
