MODEL 1
REMARK minimizedAffinity 11.4090223
REMARK minimizedRMSD -1
REMARK  0 active torsions:
REMARK  status: ('A' for Active; 'I' for Inactive)
ROOT
ATOM      1  C   UNL d   1       2.802   1.607   1.265  0.00  0.00    -0.002 A 
ATOM      2  C1  UNL d   1       1.832   2.124   0.418  0.00  0.00     0.010 A 
ATOM      3  C2  UNL d   1       0.724   1.355   0.054  0.00  0.00     0.041 A 
ATOM      4  C3  UNL d   1       0.606   0.047   0.562  0.00  0.00    -0.075 A 
ATOM      5  S   UNL d   1      -0.664  -1.078   0.254  0.00  0.00     0.015 SA
ATOM      6  C4  UNL d   1       0.050  -2.270   1.240  0.00  0.00     0.022 A 
ATOM      7  C5  UNL d   1       1.230  -1.838   1.799  0.00  0.00     0.026 A 
ATOM      8  C6  UNL d   1       1.569  -0.495   1.418  0.00  0.00    -0.082 A 
ATOM      9  C7  UNL d   1       2.681   0.309   1.768  0.00  0.00     0.045 A 
ENDROOT
TORSDOF 0
ENDMDL
