MODEL 1
REMARK minimizedAffinity -4.76882792
REMARK minimizedRMSD -1
REMARK  0 active torsions:
REMARK  status: ('A' for Active; 'I' for Inactive)
ROOT
ATOM      1  C   UNL d   1      -1.540   0.643  -0.544  0.00  0.00    -0.002 A 
ATOM      2  C1  UNL d   1      -1.495  -0.665  -0.082  0.00  0.00     0.010 A 
ATOM      3  C2  UNL d   1      -0.600  -1.583  -0.634  0.00  0.00     0.041 A 
ATOM      4  C3  UNL d   1       0.260  -1.160  -1.667  0.00  0.00    -0.075 A 
ATOM      5  S   UNL d   1       1.439  -2.109  -2.492  0.00  0.00     0.015 SA
ATOM      6  C4  UNL d   1       1.912  -0.800  -3.477  0.00  0.00     0.022 A 
ATOM      7  C5  UNL d   1       1.198   0.341  -3.196  0.00  0.00     0.026 A 
ATOM      8  C6  UNL d   1       0.234   0.152  -2.148  0.00  0.00    -0.082 A 
ATOM      9  C7  UNL d   1      -0.686   1.059  -1.569  0.00  0.00     0.045 A 
ENDROOT
TORSDOF 0
ENDMDL
