MODEL 1
REMARK minimizedAffinity -1.46674931
REMARK minimizedRMSD -1
REMARK  0 active torsions:
REMARK  status: ('A' for Active; 'I' for Inactive)
ROOT
ATOM      1  C   UNL d   1       1.118   0.185   2.693  0.00  0.00    -0.002 A 
ATOM      2  C1  UNL d   1      -0.184   0.562   2.992  0.00  0.00     0.010 A 
ATOM      3  C2  UNL d   1      -1.114   0.771   1.972  0.00  0.00     0.041 A 
ATOM      4  C3  UNL d   1      -0.711   0.591   0.634  0.00  0.00    -0.075 A 
ATOM      5  S   UNL d   1      -1.679   0.790  -0.779  0.00  0.00     0.015 SA
ATOM      6  C4  UNL d   1      -0.388   0.378  -1.812  0.00  0.00     0.022 A 
ATOM      7  C5  UNL d   1       0.761   0.093  -1.113  0.00  0.00     0.026 A 
ATOM      8  C6  UNL d   1       0.594   0.211   0.309  0.00  0.00    -0.082 A 
ATOM      9  C7  UNL d   1       1.514   0.007   1.365  0.00  0.00     0.045 A 
ENDROOT
TORSDOF 0
ENDMDL
