MODEL 1
REMARK minimizedAffinity -1.38108361
REMARK minimizedRMSD -1
REMARK  0 active torsions:
REMARK  status: ('A' for Active; 'I' for Inactive)
ROOT
ATOM      1  C   UNL d   1       0.097  -2.778  -3.297  0.00  0.00    -0.002 A 
ATOM      2  C1  UNL d   1       1.339  -2.255  -2.968  0.00  0.00     0.010 A 
ATOM      3  C2  UNL d   1       1.445  -1.169  -2.097  0.00  0.00     0.041 A 
ATOM      4  C3  UNL d   1       0.270  -0.614  -1.554  0.00  0.00    -0.075 A 
ATOM      5  S   UNL d   1       0.157   0.718  -0.465  0.00  0.00     0.015 SA
ATOM      6  C4  UNL d   1      -1.544   0.624  -0.409  0.00  0.00     0.022 A 
ATOM      7  C5  UNL d   1      -2.030  -0.393  -1.197  0.00  0.00     0.026 A 
ATOM      8  C6  UNL d   1      -0.993  -1.123  -1.869  0.00  0.00    -0.082 A 
ATOM      9  C7  UNL d   1      -1.067  -2.224  -2.757  0.00  0.00     0.045 A 
ENDROOT
TORSDOF 0
ENDMDL
