MODEL 1
REMARK minimizedAffinity -4.08202839
REMARK minimizedRMSD -1
REMARK  0 active torsions:
REMARK  status: ('A' for Active; 'I' for Inactive)
ROOT
ATOM      1  C   UNL d   1      -2.156  -0.067   2.845  0.00  0.00    -0.002 A 
ATOM      2  C1  UNL d   1      -3.015   0.225   1.795  0.00  0.00     0.010 A 
ATOM      3  C2  UNL d   1      -2.511   0.523   0.527  0.00  0.00     0.041 A 
ATOM      4  C3  UNL d   1      -1.116   0.520   0.330  0.00  0.00    -0.075 A 
ATOM      5  S   UNL d   1      -0.273   0.854  -1.136  0.00  0.00     0.015 SA
ATOM      6  C4  UNL d   1       1.247   0.615  -0.403  0.00  0.00     0.022 A 
ATOM      7  C5  UNL d   1       1.133   0.289   0.927  0.00  0.00     0.026 A 
ATOM      8  C6  UNL d   1      -0.231   0.228   1.372  0.00  0.00    -0.082 A 
ATOM      9  C7  UNL d   1      -0.773  -0.069   2.645  0.00  0.00     0.045 A 
ENDROOT
TORSDOF 0
ENDMDL
