MODEL 1
REMARK minimizedAffinity 1.48209
REMARK minimizedRMSD -1
REMARK  0 active torsions:
REMARK  status: ('A' for Active; 'I' for Inactive)
ROOT
ATOM      1  C   UNL d   1       1.404  -0.686   0.926  0.00  0.00    -0.002 A 
ATOM      2  C1  UNL d   1       1.589   0.238   1.945  0.00  0.00     0.010 A 
ATOM      3  C2  UNL d   1       0.500   0.715   2.677  0.00  0.00     0.041 A 
ATOM      4  C3  UNL d   1      -0.790   0.243   2.366  0.00  0.00    -0.075 A 
ATOM      5  S   UNL d   1      -2.271   0.687   3.129  0.00  0.00     0.015 SA
ATOM      6  C4  UNL d   1      -3.184  -0.341   2.121  0.00  0.00     0.022 A 
ATOM      7  C5  UNL d   1      -2.394  -1.013   1.219  0.00  0.00     0.026 A 
ATOM      8  C6  UNL d   1      -1.001  -0.688   1.345  0.00  0.00    -0.082 A 
ATOM      9  C7  UNL d   1       0.123  -1.153   0.621  0.00  0.00     0.045 A 
ENDROOT
TORSDOF 0
ENDMDL
