MODEL 1
REMARK minimizedAffinity 5.16638041
REMARK minimizedRMSD -1
REMARK  0 active torsions:
REMARK  status: ('A' for Active; 'I' for Inactive)
ROOT
ATOM      1  C   UNL d   1       1.787   0.031   0.529  0.00  0.00    -0.002 A 
ATOM      2  C1  UNL d   1       1.516   0.217   1.877  0.00  0.00     0.010 A 
ATOM      3  C2  UNL d   1       0.217   0.489   2.310  0.00  0.00     0.041 A 
ATOM      4  C3  UNL d   1      -0.816   0.571   1.355  0.00  0.00    -0.075 A 
ATOM      5  S   UNL d   1      -2.484   0.893   1.653  0.00  0.00     0.015 SA
ATOM      6  C4  UNL d   1      -2.876   0.791  -0.003  0.00  0.00     0.022 A 
ATOM      7  C5  UNL d   1      -1.773   0.519  -0.778  0.00  0.00     0.026 A 
ATOM      8  C6  UNL d   1      -0.568   0.387  -0.008  0.00  0.00    -0.082 A 
ATOM      9  C7  UNL d   1       0.760   0.113  -0.415  0.00  0.00     0.045 A 
ENDROOT
TORSDOF 0
ENDMDL
