MODEL 1
REMARK minimizedAffinity -4.35156679
REMARK minimizedRMSD -1
REMARK  0 active torsions:
REMARK  status: ('A' for Active; 'I' for Inactive)
ROOT
ATOM      1  C   UNL d   1      -2.950  -0.188   2.499  0.00  0.00    -0.002 A 
ATOM      2  C1  UNL d   1      -1.964  -0.332   3.465  0.00  0.00     0.010 A 
ATOM      3  C2  UNL d   1      -0.618  -0.408   3.101  0.00  0.00     0.041 A 
ATOM      4  C3  UNL d   1      -0.277  -0.334   1.736  0.00  0.00    -0.075 A 
ATOM      5  S   UNL d   1       1.306  -0.404   1.056  0.00  0.00     0.015 SA
ATOM      6  C4  UNL d   1       0.711  -0.244  -0.533  0.00  0.00     0.022 A 
ATOM      7  C5  UNL d   1      -0.660  -0.139  -0.563  0.00  0.00     0.026 A 
ATOM      8  C6  UNL d   1      -1.251  -0.189   0.745  0.00  0.00    -0.082 A 
ATOM      9  C7  UNL d   1      -2.607  -0.116   1.146  0.00  0.00     0.045 A 
ENDROOT
TORSDOF 0
ENDMDL
