MODEL 1
REMARK minimizedAffinity -4.42465401
REMARK minimizedRMSD -1
REMARK  0 active torsions:
REMARK  status: ('A' for Active; 'I' for Inactive)
ROOT
ATOM      1  C   UNL d   1      -1.891   2.828   1.415  0.00  0.00     0.023 A 
ATOM      2  C1  UNL d   1      -1.782   1.604   2.076  0.00  0.00     0.003 A 
ATOM      3  C2  UNL d   1      -1.034   0.569   1.512  0.00  0.00     0.048 A 
ATOM      4  C3  UNL d   1      -0.396   0.764   0.288  0.00  0.00     0.023 A 
ATOM      5  C4  UNL d   1      -0.502   1.987  -0.377  0.00  0.00     0.048 A 
ATOM      6  C5  UNL d   1      -1.252   3.019   0.190  0.00  0.00     0.003 A 
ATOM      7  I   UNL d   1       0.718  -0.776  -0.553  0.00  0.00    -0.146 I 
ENDROOT
TORSDOF 0
ENDMDL
