MODEL 1
REMARK minimizedAffinity -4.40681791
REMARK minimizedRMSD -1
REMARK  0 active torsions:
REMARK  status: ('A' for Active; 'I' for Inactive)
ROOT
ATOM      1  C   UNL d   1      -0.642  -0.976   1.809  0.00  0.00     0.023 A 
ATOM      2  C1  UNL d   1      -1.018   0.121   2.585  0.00  0.00     0.003 A 
ATOM      3  C2  UNL d   1      -1.058   1.397   2.020  0.00  0.00     0.048 A 
ATOM      4  C3  UNL d   1      -0.721   1.570   0.678  0.00  0.00     0.023 A 
ATOM      5  C4  UNL d   1      -0.345   0.475  -0.103  0.00  0.00     0.048 A 
ATOM      6  C5  UNL d   1      -0.306  -0.799   0.467  0.00  0.00     0.003 A 
ATOM      7  I   UNL d   1      -0.780   3.468  -0.166  0.00  0.00    -0.146 I 
ENDROOT
TORSDOF 0
ENDMDL
