MODEL 1
REMARK minimizedAffinity -3.77242589
REMARK minimizedRMSD -1
REMARK  0 active torsions:
REMARK  status: ('A' for Active; 'I' for Inactive)
ROOT
ATOM      1  C   UNL d   1      -0.577   0.283   1.075  0.00  0.00     0.023 A 
ATOM      2  C1  UNL d   1      -0.198   0.508  -0.248  0.00  0.00     0.003 A 
ATOM      3  C2  UNL d   1       0.348  -0.531  -1.005  0.00  0.00     0.048 A 
ATOM      4  C3  UNL d   1       0.511  -1.792  -0.433  0.00  0.00     0.023 A 
ATOM      5  C4  UNL d   1       0.132  -2.022   0.890  0.00  0.00     0.048 A 
ATOM      6  C5  UNL d   1      -0.412  -0.980   1.644  0.00  0.00     0.003 A 
ATOM      7  I   UNL d   1       1.323  -3.339  -1.558  0.00  0.00    -0.146 I 
ENDROOT
TORSDOF 0
ENDMDL
