MODEL 1
REMARK minimizedAffinity -3.76576924
REMARK minimizedRMSD -1
REMARK  0 active torsions:
REMARK  status: ('A' for Active; 'I' for Inactive)
ROOT
ATOM      1  C   UNL d   1      -2.263   2.074   1.378  0.00  0.00     0.023 A 
ATOM      2  C1  UNL d   1      -2.502   0.707   1.521  0.00  0.00     0.003 A 
ATOM      3  C2  UNL d   1      -1.709  -0.217   0.838  0.00  0.00     0.048 A 
ATOM      4  C3  UNL d   1      -0.678   0.233   0.013  0.00  0.00     0.023 A 
ATOM      5  C4  UNL d   1      -0.435   1.600  -0.133  0.00  0.00     0.048 A 
ATOM      6  C5  UNL d   1      -1.231   2.520   0.552  0.00  0.00     0.003 A 
ATOM      7  I   UNL d   1       0.503  -1.140  -1.006  0.00  0.00    -0.146 I 
ENDROOT
TORSDOF 0
ENDMDL
