MODEL 1
REMARK minimizedAffinity -2.85651088
REMARK minimizedRMSD -1
REMARK  0 active torsions:
REMARK  status: ('A' for Active; 'I' for Inactive)
ROOT
ATOM      1  C   UNL d   1       1.114  -0.385  -1.567  0.00  0.00     0.023 A 
ATOM      2  C1  UNL d   1       0.939   0.993  -1.437  0.00  0.00     0.003 A 
ATOM      3  C2  UNL d   1       0.147   1.503  -0.407  0.00  0.00     0.048 A 
ATOM      4  C3  UNL d   1      -0.467   0.630   0.491  0.00  0.00     0.023 A 
ATOM      5  C4  UNL d   1      -0.294  -0.749   0.365  0.00  0.00     0.048 A 
ATOM      6  C5  UNL d   1       0.498  -1.255  -0.667  0.00  0.00     0.003 A 
ATOM      7  I   UNL d   1      -1.647   1.387   2.025  0.00  0.00    -0.146 I 
ENDROOT
TORSDOF 0
ENDMDL
