MODEL 1
REMARK minimizedAffinity -1.01250017
REMARK minimizedRMSD -1
REMARK  0 active torsions:
REMARK  status: ('A' for Active; 'I' for Inactive)
ROOT
ATOM      1  C   UNL d   1      -0.830   1.260   1.809  0.00  0.00     0.023 A 
ATOM      2  C1  UNL d   1      -0.410   1.613   0.527  0.00  0.00     0.003 A 
ATOM      3  C2  UNL d   1       0.185   0.659  -0.302  0.00  0.00     0.048 A 
ATOM      4  C3  UNL d   1       0.357  -0.646   0.159  0.00  0.00     0.023 A 
ATOM      5  C4  UNL d   1      -0.062  -1.003   1.442  0.00  0.00     0.048 A 
ATOM      6  C5  UNL d   1      -0.656  -0.046   2.266  0.00  0.00     0.003 A 
ATOM      7  I   UNL d   1       1.243  -2.067  -1.071  0.00  0.00    -0.146 I 
ENDROOT
TORSDOF 0
ENDMDL
