MODEL 1
REMARK minimizedAffinity -4.46839571
REMARK minimizedRMSD -1
REMARK  0 active torsions:
REMARK  status: ('A' for Active; 'I' for Inactive)
ROOT
ATOM      1  C   UNL d   1      -1.944   1.901   1.634  0.00  0.00     0.023 A 
ATOM      2  C1  UNL d   1      -1.116   2.374   0.616  0.00  0.00     0.003 A 
ATOM      3  C2  UNL d   1      -0.110   1.557   0.097  0.00  0.00     0.048 A 
ATOM      4  C3  UNL d   1       0.063   0.268   0.601  0.00  0.00     0.023 A 
ATOM      5  C4  UNL d   1      -0.764  -0.210   1.619  0.00  0.00     0.048 A 
ATOM      6  C5  UNL d   1      -1.768   0.611   2.135  0.00  0.00     0.003 A 
ATOM      7  I   UNL d   1       1.561  -0.950  -0.170  0.00  0.00    -0.146 I 
ENDROOT
TORSDOF 0
ENDMDL
