MODEL 1
REMARK minimizedAffinity -1.32019782
REMARK minimizedRMSD -1
REMARK  0 active torsions:
REMARK  status: ('A' for Active; 'I' for Inactive)
ROOT
ATOM      1  C   UNL d   1      -0.246   0.710   1.118  0.00  0.00     0.023 A 
ATOM      2  C1  UNL d   1      -0.746  -0.536   1.496  0.00  0.00     0.003 A 
ATOM      3  C2  UNL d   1      -0.394  -1.679   0.776  0.00  0.00     0.048 A 
ATOM      4  C3  UNL d   1       0.461  -1.570  -0.320  0.00  0.00     0.023 A 
ATOM      5  C4  UNL d   1       0.965  -0.325  -0.702  0.00  0.00     0.048 A 
ATOM      6  C5  UNL d   1       0.609   0.815   0.020  0.00  0.00     0.003 A 
ATOM      7  I   UNL d   1       0.988  -3.270  -1.393  0.00  0.00    -0.146 I 
ENDROOT
TORSDOF 0
ENDMDL
