MODEL 1
REMARK minimizedAffinity -3.42633772
REMARK minimizedRMSD -1
REMARK  0 active torsions:
REMARK  status: ('A' for Active; 'I' for Inactive)
ROOT
ATOM      1  C   UNL d   1      -0.896   3.273   1.065  0.00  0.00     0.023 A 
ATOM      2  C1  UNL d   1      -1.097   2.102   1.796  0.00  0.00     0.003 A 
ATOM      3  C2  UNL d   1      -0.552   0.896   1.350  0.00  0.00     0.048 A 
ATOM      4  C3  UNL d   1       0.193   0.868   0.172  0.00  0.00     0.023 A 
ATOM      5  C4  UNL d   1       0.398   2.037  -0.563  0.00  0.00     0.048 A 
ATOM      6  C5  UNL d   1      -0.149   3.240  -0.113  0.00  0.00     0.003 A 
ATOM      7  I   UNL d   1       1.005  -0.926  -0.494  0.00  0.00    -0.146 I 
ENDROOT
TORSDOF 0
ENDMDL
