MODEL 1
REMARK minimizedAffinity -0.95468688
REMARK minimizedRMSD -1
REMARK  0 active torsions:
REMARK  status: ('A' for Active; 'I' for Inactive)
ROOT
ATOM      1  C   UNL d   1      -1.413   1.555   1.551  0.00  0.00     0.023 A 
ATOM      2  C1  UNL d   1      -0.810   1.755   0.309  0.00  0.00     0.003 A 
ATOM      3  C2  UNL d   1      -0.093   0.719  -0.295  0.00  0.00     0.048 A 
ATOM      4  C3  UNL d   1       0.015  -0.513   0.348  0.00  0.00     0.023 A 
ATOM      5  C4  UNL d   1      -0.587  -0.717   1.591  0.00  0.00     0.048 A 
ATOM      6  C5  UNL d   1      -1.302   0.321   2.191  0.00  0.00     0.003 A 
ATOM      7  I   UNL d   1       1.081  -2.056  -0.549  0.00  0.00    -0.146 I 
ENDROOT
TORSDOF 0
ENDMDL
