MODEL 1
REMARK minimizedAffinity -2.45044041
REMARK minimizedRMSD -1
REMARK  0 active torsions:
REMARK  status: ('A' for Active; 'I' for Inactive)
ROOT
ATOM      1  C   UNL d   1      -0.403  -0.635  -0.063  0.00  0.00     0.172 C 
ATOM      2  N   UNL d   1      -0.421  -0.574   1.380  0.00  0.00    -0.070 N 
ATOM      3  C1  UNL d   1      -1.134  -1.403   2.205  0.00  0.00    -0.004 A 
ATOM      4  C2  UNL d   1      -0.884  -1.021   3.505  0.00  0.00    -0.047 A 
ATOM      5  C3  UNL d   1       0.010   0.075   3.461  0.00  0.00    -0.047 A 
ATOM      6  C4  UNL d   1       0.280   0.331   2.133  0.00  0.00    -0.004 A 
ENDROOT
TORSDOF 0
ENDMDL
