MODEL 1
REMARK minimizedAffinity -3.2439847
REMARK minimizedRMSD -1
REMARK  0 active torsions:
REMARK  status: ('A' for Active; 'I' for Inactive)
ROOT
ATOM      1  C   UNL d   1      -0.015   0.147  -0.787  0.00  0.00     0.172 C 
ATOM      2  N   UNL d   1       0.098   0.030   0.647  0.00  0.00    -0.070 N 
ATOM      3  C1  UNL d   1      -0.946  -0.113   1.521  0.00  0.00    -0.004 A 
ATOM      4  C2  UNL d   1      -0.423  -0.190   2.794  0.00  0.00    -0.047 A 
ATOM      5  C3  UNL d   1       0.984  -0.088   2.682  0.00  0.00    -0.047 A 
ATOM      6  C4  UNL d   1       1.279   0.047   1.342  0.00  0.00    -0.004 A 
ENDROOT
TORSDOF 0
ENDMDL
