MODEL 1
REMARK minimizedAffinity -3.77558112
REMARK minimizedRMSD -1
REMARK  0 active torsions:
REMARK  status: ('A' for Active; 'I' for Inactive)
ROOT
ATOM      1  C   UNL d   1      -1.727  -0.055   3.033  0.00  0.00     0.172 C 
ATOM      2  N   UNL d   1      -0.626  -0.003   2.100  0.00  0.00    -0.070 N 
ATOM      3  C1  UNL d   1       0.691   0.182   2.428  0.00  0.00    -0.004 A 
ATOM      4  C2  UNL d   1       1.423   0.168   1.261  0.00  0.00    -0.047 A 
ATOM      5  C3  UNL d   1       0.515  -0.031   0.194  0.00  0.00    -0.047 A 
ATOM      6  C4  UNL d   1      -0.747  -0.134   0.742  0.00  0.00    -0.004 A 
ENDROOT
TORSDOF 0
ENDMDL
