MODEL 1
REMARK minimizedAffinity -4.02662754
REMARK minimizedRMSD -1
REMARK  0 active torsions:
REMARK  status: ('A' for Active; 'I' for Inactive)
ROOT
ATOM      1  C   UNL d   1      -0.104   0.283  -0.623  0.00  0.00     0.172 C 
ATOM      2  N   UNL d   1      -0.146   0.160   0.815  0.00  0.00    -0.070 N 
ATOM      3  C1  UNL d   1       0.929   0.264   1.657  0.00  0.00    -0.004 A 
ATOM      4  C2  UNL d   1       0.474   0.088   2.946  0.00  0.00    -0.047 A 
ATOM      5  C3  UNL d   1      -0.923  -0.131   2.876  0.00  0.00    -0.047 A 
ATOM      6  C4  UNL d   1      -1.280  -0.081   1.545  0.00  0.00    -0.004 A 
ENDROOT
TORSDOF 0
ENDMDL
