MODEL 1
REMARK minimizedAffinity -2.51730704
REMARK minimizedRMSD -1
REMARK  0 active torsions:
REMARK  status: ('A' for Active; 'I' for Inactive)
ROOT
ATOM      1  C   UNL d   1       1.036  -2.147  -3.460  0.00  0.00     0.172 C 
ATOM      2  N   UNL d   1       0.617  -0.914  -2.838  0.00  0.00    -0.070 N 
ATOM      3  C1  UNL d   1       0.883   0.346  -3.304  0.00  0.00    -0.004 A 
ATOM      4  C2  UNL d   1       0.312   1.248  -2.432  0.00  0.00    -0.047 A 
ATOM      5  C3  UNL d   1      -0.318   0.505  -1.406  0.00  0.00    -0.047 A 
ATOM      6  C4  UNL d   1      -0.114  -0.831  -1.682  0.00  0.00    -0.004 A 
ENDROOT
TORSDOF 0
ENDMDL
