MODEL 1
REMARK minimizedAffinity -3.38693333
REMARK minimizedRMSD -1
REMARK  0 active torsions:
REMARK  status: ('A' for Active; 'I' for Inactive)
ROOT
ATOM      1  C   UNL d   1       0.049  -0.023  -0.401  0.00  0.00     0.172 C 
ATOM      2  N   UNL d   1      -0.097  -0.089   1.034  0.00  0.00    -0.070 N 
ATOM      3  C1  UNL d   1      -0.819  -1.029   1.720  0.00  0.00    -0.004 A 
ATOM      4  C2  UNL d   1      -0.709  -0.746   3.065  0.00  0.00    -0.047 A 
ATOM      5  C3  UNL d   1       0.106   0.404   3.190  0.00  0.00    -0.047 A 
ATOM      6  C4  UNL d   1       0.471   0.790   1.918  0.00  0.00    -0.004 A 
ENDROOT
TORSDOF 0
ENDMDL
