MODEL 1
REMARK minimizedAffinity -3.58255339
REMARK minimizedRMSD -1
REMARK  0 active torsions:
REMARK  status: ('A' for Active; 'I' for Inactive)
ROOT
ATOM      1  C   UNL d   1       0.070   0.270  -0.931  0.00  0.00     0.172 C 
ATOM      2  N   UNL d   1       0.057  -0.090   0.467  0.00  0.00    -0.070 N 
ATOM      3  C1  UNL d   1      -0.789  -0.996   1.050  0.00  0.00    -0.004 A 
ATOM      4  C2  UNL d   1      -0.483  -1.056   2.392  0.00  0.00    -0.047 A 
ATOM      5  C3  UNL d   1       0.584  -0.155   2.624  0.00  0.00    -0.047 A 
ATOM      6  C4  UNL d   1       0.898   0.429   1.415  0.00  0.00    -0.004 A 
ENDROOT
TORSDOF 0
ENDMDL
