MODEL 1
REMARK minimizedAffinity -1.16006649
REMARK minimizedRMSD -1
REMARK  0 active torsions:
REMARK  status: ('A' for Active; 'I' for Inactive)
ROOT
ATOM      1  C   UNL d   1      -1.391  -0.960   1.992  0.00  0.00     0.172 C 
ATOM      2  N   UNL d   1      -1.111  -0.491   0.656  0.00  0.00    -0.070 N 
ATOM      3  C1  UNL d   1       0.082   0.024   0.225  0.00  0.00    -0.004 A 
ATOM      4  C2  UNL d   1      -0.056   0.352  -1.107  0.00  0.00    -0.047 A 
ATOM      5  C3  UNL d   1      -1.378   0.023  -1.489  0.00  0.00    -0.047 A 
ATOM      6  C4  UNL d   1      -2.009  -0.497  -0.379  0.00  0.00    -0.004 A 
ENDROOT
TORSDOF 0
ENDMDL
