MODEL 1
REMARK minimizedAffinity -3.91297388
REMARK minimizedRMSD -1
REMARK  0 active torsions:
REMARK  status: ('A' for Active; 'I' for Inactive)
ROOT
ATOM      1  C   UNL d   1       0.243  -0.048   0.020  0.00  0.00     0.172 C 
ATOM      2  N   UNL d   1      -0.632   0.076   1.163  0.00  0.00    -0.070 N 
ATOM      3  C1  UNL d   1      -0.247  -0.000   2.475  0.00  0.00    -0.004 A 
ATOM      4  C2  UNL d   1      -1.371   0.168   3.254  0.00  0.00    -0.047 A 
ATOM      5  C3  UNL d   1      -2.469   0.350   2.381  0.00  0.00    -0.047 A 
ATOM      6  C4  UNL d   1      -1.983   0.288   1.092  0.00  0.00    -0.004 A 
ENDROOT
TORSDOF 0
ENDMDL
