MODEL 1
REMARK minimizedAffinity -3.82440019
REMARK minimizedRMSD -1
REMARK  0 active torsions:
REMARK  status: ('A' for Active; 'I' for Inactive)
ROOT
ATOM      1  C   UNL d   1       0.053   0.489  -0.320  0.00  0.00     0.172 C 
ATOM      2  N   UNL d   1      -0.313   0.085   1.017  0.00  0.00    -0.070 N 
ATOM      3  C1  UNL d   1       0.108   0.683   2.175  0.00  0.00    -0.004 A 
ATOM      4  C2  UNL d   1      -0.461   0.005   3.231  0.00  0.00    -0.047 A 
ATOM      5  C3  UNL d   1      -1.251  -1.037   2.690  0.00  0.00    -0.047 A 
ATOM      6  C4  UNL d   1      -1.141  -0.964   1.317  0.00  0.00    -0.004 A 
ENDROOT
TORSDOF 0
ENDMDL
