MODEL 1
REMARK minimizedAffinity -3.73927236
REMARK minimizedRMSD -1
REMARK  0 active torsions:
REMARK  status: ('A' for Active; 'I' for Inactive)
ROOT
ATOM      1  C   UNL d   1      -0.890  -0.538   2.628  0.00  0.00     0.172 C 
ATOM      2  N   UNL d   1      -0.572   0.009   1.330  0.00  0.00    -0.070 N 
ATOM      3  C1  UNL d   1       0.665   0.436   0.926  0.00  0.00    -0.004 A 
ATOM      4  C2  UNL d   1       0.553   0.886  -0.372  0.00  0.00    -0.047 A 
ATOM      5  C3  UNL d   1      -0.798   0.723  -0.761  0.00  0.00    -0.047 A 
ATOM      6  C4  UNL d   1      -1.472   0.178   0.312  0.00  0.00    -0.004 A 
ENDROOT
TORSDOF 0
ENDMDL
