MODEL 1
REMARK minimizedAffinity -3.55288219
REMARK minimizedRMSD -1
REMARK  0 active torsions:
REMARK  status: ('A' for Active; 'I' for Inactive)
ROOT
ATOM      1  C   UNL d   1      -0.639  -1.341   2.993  0.00  0.00     0.172 C 
ATOM      2  N   UNL d   1      -0.122  -0.346   2.083  0.00  0.00    -0.070 N 
ATOM      3  C1  UNL d   1       0.891   0.535   2.355  0.00  0.00    -0.004 A 
ATOM      4  C2  UNL d   1       1.086   1.312   1.234  0.00  0.00    -0.047 A 
ATOM      5  C3  UNL d   1       0.158   0.884   0.255  0.00  0.00    -0.047 A 
ATOM      6  C4  UNL d   1      -0.577  -0.143   0.807  0.00  0.00    -0.004 A 
ENDROOT
TORSDOF 0
ENDMDL
