MODEL 1
REMARK minimizedAffinity -2.98851657
REMARK minimizedRMSD -1
REMARK  0 active torsions:
REMARK  status: ('A' for Active; 'I' for Inactive)
ROOT
ATOM      1  C   UNL d   1       0.285   0.524  -0.975  0.00  0.00     0.172 C 
ATOM      2  N   UNL d   1       0.069   0.375   0.445  0.00  0.00    -0.070 N 
ATOM      3  C1  UNL d   1       0.849   0.914   1.433  0.00  0.00    -0.004 A 
ATOM      4  C2  UNL d   1       0.310   0.544   2.646  0.00  0.00    -0.047 A 
ATOM      5  C3  UNL d   1      -0.833  -0.246   2.378  0.00  0.00    -0.047 A 
ATOM      6  C4  UNL d   1      -0.959  -0.334   1.008  0.00  0.00    -0.004 A 
ENDROOT
TORSDOF 0
ENDMDL
