MODEL 1
REMARK minimizedAffinity -3.96867347
REMARK minimizedRMSD -1
REMARK  0 active torsions:
REMARK  status: ('A' for Active; 'I' for Inactive)
ROOT
ATOM      1  C   UNL d   1       0.445  -0.209  -0.639  0.00  0.00     0.172 C 
ATOM      2  N   UNL d   1       0.452  -0.313   0.801  0.00  0.00    -0.070 N 
ATOM      3  C1  UNL d   1      -0.636  -0.583   1.588  0.00  0.00    -0.004 A 
ATOM      4  C2  UNL d   1      -0.215  -0.597   2.900  0.00  0.00    -0.047 A 
ATOM      5  C3  UNL d   1       1.173  -0.324   2.902  0.00  0.00    -0.047 A 
ATOM      6  C4  UNL d   1       1.561  -0.152   1.590  0.00  0.00    -0.004 A 
ENDROOT
TORSDOF 0
ENDMDL
