MODEL 1
REMARK minimizedAffinity -4.02148056
REMARK minimizedRMSD -1
REMARK  0 active torsions:
REMARK  status: ('A' for Active; 'I' for Inactive)
ROOT
ATOM      1  C   UNL d   1      -1.438  -0.440   0.224  0.00  0.00     0.172 C 
ATOM      2  N   UNL d   1      -0.252  -0.058   0.954  0.00  0.00    -0.070 N 
ATOM      3  C1  UNL d   1       0.915   0.395   0.400  0.00  0.00    -0.004 A 
ATOM      4  C2  UNL d   1       1.798   0.650   1.427  0.00  0.00    -0.047 A 
ATOM      5  C3  UNL d   1       1.139   0.338   2.640  0.00  0.00    -0.047 A 
ATOM      6  C4  UNL d   1      -0.128  -0.098   2.318  0.00  0.00    -0.004 A 
ENDROOT
TORSDOF 0
ENDMDL
