MODEL 1
REMARK minimizedAffinity -3.82403159
REMARK minimizedRMSD -1
REMARK  0 active torsions:
REMARK  status: ('A' for Active; 'I' for Inactive)
ROOT
ATOM      1  C   UNL d   1       0.067   0.144  -1.022  0.00  0.00     0.172 C 
ATOM      2  N   UNL d   1      -0.045  -0.094   0.398  0.00  0.00    -0.070 N 
ATOM      3  C1  UNL d   1       0.869   0.284   1.346  0.00  0.00    -0.004 A 
ATOM      4  C2  UNL d   1       0.397  -0.126   2.574  0.00  0.00    -0.047 A 
ATOM      5  C3  UNL d   1      -0.843  -0.773   2.357  0.00  0.00    -0.047 A 
ATOM      6  C4  UNL d   1      -1.092  -0.739   1.002  0.00  0.00    -0.004 A 
ENDROOT
TORSDOF 0
ENDMDL
