MODEL 1
REMARK minimizedAffinity 13.1055145
REMARK minimizedRMSD -1
REMARK  0 active torsions:
REMARK  status: ('A' for Active; 'I' for Inactive)
ROOT
ATOM      1  C1  DEN d   1      -5.668  -5.014  -5.999  0.00  0.00     0.130 A 
ATOM      2  C2  DEN d   1      -5.322  -5.998  -4.976  0.00  0.00    -0.031 A 
ATOM      3  C3  DEN d   1      -4.918  -5.267  -3.759  0.00  0.00     0.027 A 
ATOM      4  C4  DEN d   1      -4.799  -2.722  -3.358  0.00  0.00     0.027 A 
ATOM      5  C5  DEN d   1      -4.984  -1.485  -3.935  0.00  0.00    -0.003 A 
ATOM      6  C6  DEN d   1      -5.375  -1.339  -5.240  0.00  0.00     0.001 A 
ATOM      7  C7  DEN d   1      -5.636  -2.449  -5.998  0.00  0.00     0.017 A 
ATOM      8  C8  DEN d   1      -5.444  -3.699  -5.426  0.00  0.00    -0.094 A 
ATOM      9  C9  DEN d   1      -5.061  -3.826  -4.102  0.00  0.00    -0.072 A 
ENDROOT
TORSDOF 0
ENDMDL
