MODEL 1
REMARK minimizedAffinity 11.0345888
REMARK minimizedRMSD -1
REMARK  0 active torsions:
REMARK  status: ('A' for Active; 'I' for Inactive)
ROOT
ATOM      1  C1  DEN d   1      -3.192   3.567  -1.119  0.00  0.00     0.130 A 
ATOM      2  C2  DEN d   1      -2.567   2.757  -0.078  0.00  0.00    -0.031 A 
ATOM      3  C3  DEN d   1      -2.569   1.351  -0.530  0.00  0.00     0.027 A 
ATOM      4  C4  DEN d   1      -3.471   0.357  -2.733  0.00  0.00     0.027 A 
ATOM      5  C5  DEN d   1      -4.100   0.651  -3.922  0.00  0.00    -0.003 A 
ATOM      6  C6  DEN d   1      -4.498   1.922  -4.243  0.00  0.00     0.001 A 
ATOM      7  C7  DEN d   1      -4.231   2.954  -3.384  0.00  0.00     0.017 A 
ATOM      8  C8  DEN d   1      -3.603   2.665  -2.180  0.00  0.00    -0.094 A 
ATOM      9  C9  DEN d   1      -3.197   1.375  -1.879  0.00  0.00    -0.072 A 
ENDROOT
TORSDOF 0
ENDMDL
