MODEL 1
REMARK minimizedAffinity 1.1322062
REMARK minimizedRMSD -1
REMARK  0 active torsions:
REMARK  status: ('A' for Active; 'I' for Inactive)
ROOT
ATOM      1  C1  DEN d   1       4.112  -5.613  -1.862  0.00  0.00     0.130 A 
ATOM      2  C2  DEN d   1       2.661  -5.651  -1.707  0.00  0.00    -0.031 A 
ATOM      3  C3  DEN d   1       2.063  -5.805  -3.049  0.00  0.00     0.027 A 
ATOM      4  C4  DEN d   1       3.239  -5.993  -5.337  0.00  0.00     0.027 A 
ATOM      5  C5  DEN d   1       4.460  -6.000  -5.975  0.00  0.00    -0.003 A 
ATOM      6  C6  DEN d   1       5.639  -5.845  -5.295  0.00  0.00     0.001 A 
ATOM      7  C7  DEN d   1       5.625  -5.722  -3.931  0.00  0.00     0.017 A 
ATOM      8  C8  DEN d   1       4.398  -5.707  -3.282  0.00  0.00    -0.094 A 
ATOM      9  C9  DEN d   1       3.217  -5.877  -3.985  0.00  0.00    -0.072 A 
ENDROOT
TORSDOF 0
ENDMDL
