MODEL 1
REMARK minimizedAffinity 11.5176897
REMARK minimizedRMSD -1
REMARK  0 active torsions:
REMARK  status: ('A' for Active; 'I' for Inactive)
ROOT
ATOM      1  C1  DEN d   1       2.512  -0.756   2.148  0.00  0.00     0.130 A 
ATOM      2  C2  DEN d   1       1.130  -0.819   1.681  0.00  0.00    -0.031 A 
ATOM      3  C3  DEN d   1       0.499  -2.010   2.282  0.00  0.00     0.027 A 
ATOM      4  C4  DEN d   1       1.519  -3.753   3.886  0.00  0.00     0.027 A 
ATOM      5  C5  DEN d   1       2.663  -4.128   4.556  0.00  0.00    -0.003 A 
ATOM      6  C6  DEN d   1       3.836  -3.429   4.445  0.00  0.00     0.001 A 
ATOM      7  C7  DEN d   1       3.880  -2.294   3.681  0.00  0.00     0.017 A 
ATOM      8  C8  DEN d   1       2.734  -1.914   2.996  0.00  0.00    -0.094 A 
ATOM      9  C9  DEN d   1       1.554  -2.626   3.130  0.00  0.00    -0.072 A 
ENDROOT
TORSDOF 0
ENDMDL
