MODEL 1
REMARK minimizedAffinity 2.52659273
REMARK minimizedRMSD -1
REMARK  0 active torsions:
REMARK  status: ('A' for Active; 'I' for Inactive)
ROOT
ATOM      1  C1  DEN d   1       1.183  -1.651   2.065  0.00  0.00     0.130 A 
ATOM      2  C2  DEN d   1       1.451  -0.967   3.327  0.00  0.00    -0.031 A 
ATOM      3  C3  DEN d   1       2.525   0.020   3.093  0.00  0.00     0.027 A 
ATOM      4  C4  DEN d   1       3.787   0.555   0.908  0.00  0.00     0.027 A 
ATOM      5  C5  DEN d   1       3.916   0.227  -0.423  0.00  0.00    -0.003 A 
ATOM      6  C6  DEN d   1       3.174  -0.766  -1.006  0.00  0.00     0.001 A 
ATOM      7  C7  DEN d   1       2.235  -1.435  -0.265  0.00  0.00     0.017 A 
ATOM      8  C8  DEN d   1       2.104  -1.114   1.080  0.00  0.00    -0.094 A 
ATOM      9  C9  DEN d   1       2.856  -0.099   1.647  0.00  0.00    -0.072 A 
ENDROOT
TORSDOF 0
ENDMDL
