MODEL 1
REMARK minimizedAffinity 6.23409414
REMARK minimizedRMSD -1
REMARK  0 active torsions:
REMARK  status: ('A' for Active; 'I' for Inactive)
ROOT
ATOM      1  C1  DEN d   1      -3.096   1.950  -1.286  0.00  0.00     0.130 A 
ATOM      2  C2  DEN d   1      -3.585   2.606  -0.077  0.00  0.00    -0.031 A 
ATOM      3  C3  DEN d   1      -4.813   3.349  -0.426  0.00  0.00     0.027 A 
ATOM      4  C4  DEN d   1      -5.999   3.541  -2.708  0.00  0.00     0.027 A 
ATOM      5  C5  DEN d   1      -5.951   3.169  -4.033  0.00  0.00    -0.003 A 
ATOM      6  C6  DEN d   1      -4.938   2.398  -4.539  0.00  0.00     0.001 A 
ATOM      7  C7  DEN d   1      -3.955   1.937  -3.704  0.00  0.00     0.017 A 
ATOM      8  C8  DEN d   1      -3.992   2.315  -2.368  0.00  0.00    -0.094 A 
ATOM      9  C9  DEN d   1      -5.031   3.084  -1.874  0.00  0.00    -0.072 A 
ENDROOT
TORSDOF 0
ENDMDL
