MODEL 1
REMARK minimizedAffinity 12.960722
REMARK minimizedRMSD -1
REMARK  1 active torsions:
REMARK  status: ('A' for Active; 'I' for Inactive)
REMARK    1  A    between atoms: C1_2  and  C2_3 
ROOT
ATOM      1  C2  UNL d   1      -0.174  -1.768   1.587  0.00  0.00    -0.077 A 
ATOM      2  C3  UNL d   1      -0.556  -0.486   2.007  0.00  0.00     0.002 A 
ATOM      3  C4  UNL d   1      -1.831   0.001   1.715  0.00  0.00     0.002 A 
ATOM      4  C5  UNL d   1      -2.735  -0.788   1.006  0.00  0.00    -0.004 A 
ATOM      5  C6  UNL d   1      -2.364  -2.063   0.583  0.00  0.00     0.002 A 
ATOM      6  C7  UNL d   1      -1.089  -2.552   0.873  0.00  0.00     0.002 A 
ENDROOT
BRANCH   1   7
ATOM      7  C1  UNL d   1       1.184  -2.315   1.944  0.00  0.00     0.055 C 
ATOM      8  C   UNL d   1       1.849  -1.481   3.029  0.00  0.00     0.019 C 
ENDBRANCH   1   7
TORSDOF 1
ENDMDL
