MODEL 1
REMARK minimizedAffinity 19.0669174
REMARK minimizedRMSD -1
REMARK  1 active torsions:
REMARK  status: ('A' for Active; 'I' for Inactive)
REMARK    1  A    between atoms: C1_2  and  C2_3 
ROOT
ATOM      1  C2  UNL d   1      -0.251  -1.912   1.555  0.00  0.00    -0.077 A 
ATOM      2  C3  UNL d   1      -1.316  -2.697   1.094  0.00  0.00     0.002 A 
ATOM      3  C4  UNL d   1      -2.436  -2.099   0.513  0.00  0.00     0.002 A 
ATOM      4  C5  UNL d   1      -2.499  -0.713   0.384  0.00  0.00    -0.004 A 
ATOM      5  C6  UNL d   1      -1.445   0.078   0.841  0.00  0.00     0.002 A 
ATOM      6  C7  UNL d   1      -0.326  -0.519   1.423  0.00  0.00     0.002 A 
ENDROOT
BRANCH   1   7
ATOM      7  C1  UNL d   1       0.979  -2.558   2.136  0.00  0.00     0.055 C 
ATOM      8  C   UNL d   1       1.033  -2.386   3.647  0.00  0.00     0.019 C 
ENDBRANCH   1   7
TORSDOF 1
ENDMDL
