MODEL 1
REMARK minimizedAffinity 11.9050894
REMARK minimizedRMSD -1
REMARK  1 active torsions:
REMARK  status: ('A' for Active; 'I' for Inactive)
REMARK    1  A    between atoms: C1_2  and  C2_3 
ROOT
ATOM      1  C2  UNL d   1       4.672   3.625  -2.028  0.00  0.00    -0.077 A 
ATOM      2  C3  UNL d   1       4.113   3.773  -3.305  0.00  0.00     0.002 A 
ATOM      3  C4  UNL d   1       2.957   3.074  -3.656  0.00  0.00     0.002 A 
ATOM      4  C5  UNL d   1       2.347   2.225  -2.734  0.00  0.00    -0.004 A 
ATOM      5  C6  UNL d   1       2.896   2.070  -1.462  0.00  0.00     0.002 A 
ATOM      6  C7  UNL d   1       4.052   2.767  -1.110  0.00  0.00     0.002 A 
ENDROOT
BRANCH   1   7
ATOM      7  C1  UNL d   1       5.891   4.416  -1.631  0.00  0.00     0.055 C 
ATOM      8  C   UNL d   1       5.629   5.913  -1.710  0.00  0.00     0.019 C 
ENDBRANCH   1   7
TORSDOF 1
ENDMDL
