MODEL 1
REMARK minimizedAffinity 2.35258675
REMARK minimizedRMSD -1
REMARK  1 active torsions:
REMARK  status: ('A' for Active; 'I' for Inactive)
REMARK    1  A    between atoms: C1_2  and  C2_3 
ROOT
ATOM      1  C2  UNL d   1      -2.851  -0.154   0.846  0.00  0.00    -0.077 A 
ATOM      2  C3  UNL d   1      -1.669   0.504   1.212  0.00  0.00     0.002 A 
ATOM      3  C4  UNL d   1      -0.641  -0.192   1.850  0.00  0.00     0.002 A 
ATOM      4  C5  UNL d   1      -0.783  -1.551   2.124  0.00  0.00    -0.004 A 
ATOM      5  C6  UNL d   1      -1.956  -2.214   1.766  0.00  0.00     0.002 A 
ATOM      6  C7  UNL d   1      -2.985  -1.519   1.129  0.00  0.00     0.002 A 
ENDROOT
BRANCH   1   7
ATOM      7  C1  UNL d   1      -3.941   0.584   0.114  0.00  0.00     0.055 C 
ATOM      8  C   UNL d   1      -5.317   0.049   0.483  0.00  0.00     0.019 C 
ENDBRANCH   1   7
TORSDOF 1
ENDMDL
