MODEL 1
REMARK minimizedAffinity 12.0230169
REMARK minimizedRMSD -1
REMARK  1 active torsions:
REMARK  status: ('A' for Active; 'I' for Inactive)
REMARK    1  A    between atoms: C1_2  and  C2_3 
ROOT
ATOM      1  C2  UNL d   1       1.290   3.697  -3.128  0.00  0.00    -0.077 A 
ATOM      2  C3  UNL d   1       0.912   2.652  -2.274  0.00  0.00     0.002 A 
ATOM      3  C4  UNL d   1       1.877   1.816  -1.709  0.00  0.00     0.002 A 
ATOM      4  C5  UNL d   1       3.227   2.020  -1.989  0.00  0.00    -0.004 A 
ATOM      5  C6  UNL d   1       3.613   3.055  -2.839  0.00  0.00     0.002 A 
ATOM      6  C7  UNL d   1       2.650   3.891  -3.405  0.00  0.00     0.002 A 
ENDROOT
BRANCH   1   7
ATOM      7  C1  UNL d   1       0.255   4.630  -3.699  0.00  0.00     0.055 C 
ATOM      8  C   UNL d   1       0.248   5.965  -2.967  0.00  0.00     0.019 C 
ENDBRANCH   1   7
TORSDOF 1
ENDMDL
