MODEL 1
REMARK minimizedAffinity 7.13435125
REMARK minimizedRMSD -1
REMARK  1 active torsions:
REMARK  status: ('A' for Active; 'I' for Inactive)
REMARK    1  A    between atoms: C1_2  and  C2_3 
ROOT
ATOM      1  C2  UNL d   1      -0.320  -1.909   2.195  0.00  0.00    -0.077 A 
ATOM      2  C3  UNL d   1      -1.490  -2.501   1.701  0.00  0.00     0.002 A 
ATOM      3  C4  UNL d   1      -2.615  -1.721   1.425  0.00  0.00     0.002 A 
ATOM      4  C5  UNL d   1      -2.578  -0.344   1.637  0.00  0.00    -0.004 A 
ATOM      5  C6  UNL d   1      -1.419   0.254   2.130  0.00  0.00     0.002 A 
ATOM      6  C7  UNL d   1      -0.295  -0.525   2.407  0.00  0.00     0.002 A 
ENDROOT
BRANCH   1   7
ATOM      7  C1  UNL d   1       0.910  -2.742   2.445  0.00  0.00     0.055 C 
ATOM      8  C   UNL d   1       1.479  -3.295   1.147  0.00  0.00     0.019 C 
ENDBRANCH   1   7
TORSDOF 1
ENDMDL
