MODEL 1
REMARK minimizedAffinity 9.8854599
REMARK minimizedRMSD -1
REMARK  1 active torsions:
REMARK  status: ('A' for Active; 'I' for Inactive)
REMARK    1  A    between atoms: C1_2  and  C2_3 
ROOT
ATOM      1  C2  UNL d   1       2.882   2.959  -2.947  0.00  0.00    -0.077 A 
ATOM      2  C3  UNL d   1       2.441   2.359  -1.760  0.00  0.00     0.002 A 
ATOM      3  C4  UNL d   1       1.082   2.338  -1.441  0.00  0.00     0.002 A 
ATOM      4  C5  UNL d   1       0.153   2.912  -2.307  0.00  0.00    -0.004 A 
ATOM      5  C6  UNL d   1       0.582   3.513  -3.490  0.00  0.00     0.002 A 
ATOM      6  C7  UNL d   1       1.940   3.535  -3.809  0.00  0.00     0.002 A 
ENDROOT
BRANCH   1   7
ATOM      7  C1  UNL d   1       4.342   2.938  -3.316  0.00  0.00     0.055 C 
ATOM      8  C   UNL d   1       4.534   2.689  -4.805  0.00  0.00     0.019 C 
ENDBRANCH   1   7
TORSDOF 1
ENDMDL
