MODEL 1
REMARK minimizedAffinity 7.87066126
REMARK minimizedRMSD -1
REMARK  1 active torsions:
REMARK  status: ('A' for Active; 'I' for Inactive)
REMARK    1  A    between atoms: C1_2  and  C2_3 
ROOT
ATOM      1  C2  UNL d   1       3.387   4.112  -2.921  0.00  0.00    -0.077 A 
ATOM      2  C3  UNL d   1       4.162   4.922  -2.079  0.00  0.00     0.002 A 
ATOM      3  C4  UNL d   1       5.464   5.274  -2.441  0.00  0.00     0.002 A 
ATOM      4  C5  UNL d   1       6.000   4.824  -3.646  0.00  0.00    -0.004 A 
ATOM      5  C6  UNL d   1       5.237   4.016  -4.489  0.00  0.00     0.002 A 
ATOM      6  C7  UNL d   1       3.936   3.663  -4.128  0.00  0.00     0.002 A 
ENDROOT
BRANCH   1   7
ATOM      7  C1  UNL d   1       1.965   3.772  -2.555  0.00  0.00     0.055 C 
ATOM      8  C   UNL d   1       1.147   5.027  -2.290  0.00  0.00     0.019 C 
ENDBRANCH   1   7
TORSDOF 1
ENDMDL
