MODEL 1
REMARK minimizedAffinity 5.21660662
REMARK minimizedRMSD -1
REMARK  1 active torsions:
REMARK  status: ('A' for Active; 'I' for Inactive)
REMARK    1  A    between atoms: C1_2  and  C2_3 
ROOT
ATOM      1  C2  UNL d   1      -5.951   0.018  -2.835  0.00  0.00    -0.077 A 
ATOM      2  C3  UNL d   1      -5.987  -0.520  -1.541  0.00  0.00     0.002 A 
ATOM      3  C4  UNL d   1      -5.999   0.321  -0.426  0.00  0.00     0.002 A 
ATOM      4  C5  UNL d   1      -5.979   1.704  -0.595  0.00  0.00    -0.004 A 
ATOM      5  C6  UNL d   1      -5.941   2.249  -1.878  0.00  0.00     0.002 A 
ATOM      6  C7  UNL d   1      -5.928   1.410  -2.993  0.00  0.00     0.002 A 
ENDROOT
BRANCH   1   7
ATOM      7  C1  UNL d   1      -5.988  -0.886  -4.039  0.00  0.00     0.055 C 
ATOM      8  C   UNL d   1      -6.000  -0.085  -5.333  0.00  0.00     0.019 C 
ENDBRANCH   1   7
TORSDOF 1
ENDMDL
