MODEL 1
REMARK minimizedAffinity 12.77038
REMARK minimizedRMSD -1
REMARK  1 active torsions:
REMARK  status: ('A' for Active; 'I' for Inactive)
REMARK    1  A    between atoms: C1_2  and  C2_3 
ROOT
ATOM      1  C2  UNL d   1      -1.739  -0.676   2.316  0.00  0.00    -0.077 A 
ATOM      2  C3  UNL d   1      -2.690  -1.484   1.678  0.00  0.00     0.002 A 
ATOM      3  C4  UNL d   1      -2.306  -2.679   1.066  0.00  0.00     0.002 A 
ATOM      4  C5  UNL d   1      -0.971  -3.078   1.090  0.00  0.00    -0.004 A 
ATOM      5  C6  UNL d   1      -0.017  -2.280   1.720  0.00  0.00     0.002 A 
ATOM      6  C7  UNL d   1      -0.399  -1.085   2.331  0.00  0.00     0.002 A 
ENDROOT
BRANCH   1   7
ATOM      7  C1  UNL d   1      -2.159   0.588   3.020  0.00  0.00     0.055 C 
ATOM      8  C   UNL d   1      -1.970   0.472   4.525  0.00  0.00     0.019 C 
ENDBRANCH   1   7
TORSDOF 1
ENDMDL
