MODEL 1
REMARK minimizedAffinity 10.377964
REMARK minimizedRMSD -1
REMARK  1 active torsions:
REMARK  status: ('A' for Active; 'I' for Inactive)
REMARK    1  A    between atoms: C1_2  and  C2_3 
ROOT
ATOM      1  C2  UNL d   1       1.830   4.631  -1.979  0.00  0.00    -0.077 A 
ATOM      2  C3  UNL d   1       3.221   4.468  -1.913  0.00  0.00     0.002 A 
ATOM      3  C4  UNL d   1       3.793   3.205  -2.078  0.00  0.00     0.002 A 
ATOM      4  C5  UNL d   1       2.982   2.097  -2.314  0.00  0.00    -0.004 A 
ATOM      5  C6  UNL d   1       1.598   2.248  -2.379  0.00  0.00     0.002 A 
ATOM      6  C7  UNL d   1       1.024   3.510  -2.213  0.00  0.00     0.002 A 
ENDROOT
BRANCH   1   7
ATOM      7  C1  UNL d   1       1.215   6.000  -1.850  0.00  0.00     0.055 C 
ATOM      8  C   UNL d   1      -0.084   5.951  -1.058  0.00  0.00     0.019 C 
ENDBRANCH   1   7
TORSDOF 1
ENDMDL
