MODEL 1
REMARK minimizedAffinity 1.09366822
REMARK minimizedRMSD -1
REMARK  1 active torsions:
REMARK  status: ('A' for Active; 'I' for Inactive)
REMARK    1  A    between atoms: C1_2  and  C2_3 
ROOT
ATOM      1  C2  UNL d   1       0.296  -2.303   1.095  0.00  0.00    -0.077 A 
ATOM      2  C3  UNL d   1      -1.036  -2.091   0.712  0.00  0.00     0.002 A 
ATOM      3  C4  UNL d   1      -1.846  -1.213   1.434  0.00  0.00     0.002 A 
ATOM      4  C5  UNL d   1      -1.334  -0.537   2.539  0.00  0.00    -0.004 A 
ATOM      5  C6  UNL d   1      -0.011  -0.742   2.929  0.00  0.00     0.002 A 
ATOM      6  C7  UNL d   1       0.801  -1.621   2.210  0.00  0.00     0.002 A 
ENDROOT
BRANCH   1   7
ATOM      7  C1  UNL d   1       1.187  -3.212   0.289  0.00  0.00     0.055 C 
ATOM      8  C   UNL d   1       0.592  -3.496  -1.083  0.00  0.00     0.019 C 
ENDBRANCH   1   7
TORSDOF 1
ENDMDL
