MODEL 1
REMARK minimizedAffinity -2.0342865
REMARK minimizedRMSD -1
REMARK  1 active torsions:
REMARK  status: ('A' for Active; 'I' for Inactive)
REMARK    1  A    between atoms: C1_2  and  C2_3 
ROOT
ATOM      1  C2  UNL d   1      -0.287   0.198   0.051  0.00  0.00    -0.077 A 
ATOM      2  C3  UNL d   1      -0.320  -0.920   0.896  0.00  0.00     0.002 A 
ATOM      3  C4  UNL d   1       0.863  -1.562   1.265  0.00  0.00     0.002 A 
ATOM      4  C5  UNL d   1       2.089  -1.090   0.799  0.00  0.00    -0.004 A 
ATOM      5  C6  UNL d   1       2.132   0.021  -0.043  0.00  0.00     0.002 A 
ATOM      6  C7  UNL d   1       0.950   0.662  -0.414  0.00  0.00     0.002 A 
ENDROOT
BRANCH   1   7
ATOM      7  C1  UNL d   1      -1.558   0.921  -0.309  0.00  0.00     0.055 C 
ATOM      8  C   UNL d   1      -1.938   1.938   0.758  0.00  0.00     0.019 C 
ENDBRANCH   1   7
TORSDOF 1
ENDMDL
