MODEL 1
REMARK minimizedAffinity -3.00236773
REMARK minimizedRMSD -1
REMARK  0 active torsions:
REMARK  status: ('A' for Active; 'I' for Inactive)
ROOT
ATOM      1  C1  BNZ d   1       0.688   1.067  -0.901  0.00  0.00     0.000 A 
ATOM      2  C2  BNZ d   1       0.955   2.403  -0.756  0.00  0.00     0.000 A 
ATOM      3  C3  BNZ d   1       0.502   3.092   0.333  0.00  0.00     0.000 A 
ATOM      4  C4  BNZ d   1      -0.249   2.457   1.255  0.00  0.00     0.000 A 
ATOM      5  C5  BNZ d   1      -0.535   1.113   1.119  0.00  0.00     0.000 A 
ATOM      6  C6  BNZ d   1      -0.045   0.413   0.040  0.00  0.00     0.000 A 
ENDROOT
TORSDOF 0
ENDMDL
