MODEL 1
REMARK minimizedAffinity -4.7401495
REMARK minimizedRMSD -1
REMARK  0 active torsions:
REMARK  status: ('A' for Active; 'I' for Inactive)
ROOT
ATOM      1  C1  BNZ d   1       1.134   2.379  -0.727  0.00  0.00     0.000 A 
ATOM      2  C2  BNZ d   1       1.157   1.014  -0.623  0.00  0.00     0.000 A 
ATOM      3  C3  BNZ d   1       0.160   0.344   0.029  0.00  0.00     0.000 A 
ATOM      4  C4  BNZ d   1      -0.836   1.042   0.612  0.00  0.00     0.000 A 
ATOM      5  C5  BNZ d   1      -0.869   2.419   0.524  0.00  0.00     0.000 A 
ATOM      6  C6  BNZ d   1       0.115   3.087  -0.167  0.00  0.00     0.000 A 
ENDROOT
TORSDOF 0
ENDMDL
