MODEL 1
REMARK minimizedAffinity -4.73710346
REMARK minimizedRMSD -1
REMARK  0 active torsions:
REMARK  status: ('A' for Active; 'I' for Inactive)
ROOT
ATOM      1  C1  BNZ d   1      -0.378   1.436  -0.158  0.00  0.00     0.000 A 
ATOM      2  C2  BNZ d   1      -0.370   2.781   0.101  0.00  0.00     0.000 A 
ATOM      3  C3  BNZ d   1       0.802   3.438   0.350  0.00  0.00     0.000 A 
ATOM      4  C4  BNZ d   1       1.958   2.744   0.380  0.00  0.00     0.000 A 
ATOM      5  C5  BNZ d   1       1.965   1.386   0.130  0.00  0.00     0.000 A 
ATOM      6  C6  BNZ d   1       0.788   0.735  -0.159  0.00  0.00     0.000 A 
ENDROOT
TORSDOF 0
ENDMDL
