MODEL 1
REMARK minimizedAffinity -5.03249884
REMARK minimizedRMSD -1
REMARK  0 active torsions:
REMARK  status: ('A' for Active; 'I' for Inactive)
ROOT
ATOM      1  C1  BNZ d   1       2.017   2.815   0.192  0.00  0.00     0.000 A 
ATOM      2  C2  BNZ d   1       0.788   3.189  -0.281  0.00  0.00     0.000 A 
ATOM      3  C3  BNZ d   1      -0.276   2.333  -0.221  0.00  0.00     0.000 A 
ATOM      4  C4  BNZ d   1      -0.100   1.091   0.275  0.00  0.00     0.000 A 
ATOM      5  C5  BNZ d   1       1.136   0.695   0.747  0.00  0.00     0.000 A 
ATOM      6  C6  BNZ d   1       2.195   1.574   0.721  0.00  0.00     0.000 A 
ENDROOT
TORSDOF 0
ENDMDL
