MODEL 1
REMARK minimizedAffinity -5.49649954
REMARK minimizedRMSD -1
REMARK  0 active torsions:
REMARK  status: ('A' for Active; 'I' for Inactive)
ROOT
ATOM      1  C1  BNZ d   1       1.055   2.086  -0.490  0.00  0.00     0.000 A 
ATOM      2  C2  BNZ d   1       0.820   0.738  -0.448  0.00  0.00     0.000 A 
ATOM      3  C3  BNZ d   1      -0.268   0.237   0.210  0.00  0.00     0.000 A 
ATOM      4  C4  BNZ d   1      -1.097   1.080   0.859  0.00  0.00     0.000 A 
ATOM      5  C5  BNZ d   1      -0.869   2.441   0.834  0.00  0.00     0.000 A 
ATOM      6  C6  BNZ d   1       0.206   2.945   0.138  0.00  0.00     0.000 A 
ENDROOT
TORSDOF 0
ENDMDL
