MODEL 1
REMARK minimizedAffinity -2.29455447
REMARK minimizedRMSD -1
REMARK  0 active torsions:
REMARK  status: ('A' for Active; 'I' for Inactive)
ROOT
ATOM      1  C1  BNZ d   1       2.243   1.253   0.276  0.00  0.00     0.000 A 
ATOM      2  C2  BNZ d   1       1.065   0.698  -0.149  0.00  0.00     0.000 A 
ATOM      3  C3  BNZ d   1      -0.093   1.425  -0.143  0.00  0.00     0.000 A 
ATOM      4  C4  BNZ d   1      -0.079   2.690   0.324  0.00  0.00     0.000 A 
ATOM      5  C5  BNZ d   1       1.098   3.260   0.766  0.00  0.00     0.000 A 
ATOM      6  C6  BNZ d   1       2.269   2.538   0.722  0.00  0.00     0.000 A 
ENDROOT
TORSDOF 0
ENDMDL
