MODEL 1
REMARK minimizedAffinity -2.53901386
REMARK minimizedRMSD -1
REMARK  0 active torsions:
REMARK  status: ('A' for Active; 'I' for Inactive)
ROOT
ATOM      1  C1  BNZ d   1      -1.584   0.730   0.925  0.00  0.00     0.000 A 
ATOM      2  C2  BNZ d   1      -1.322   2.053   0.686  0.00  0.00     0.000 A 
ATOM      3  C3  BNZ d   1      -0.160   2.437   0.077  0.00  0.00     0.000 A 
ATOM      4  C4  BNZ d   1       0.754   1.503  -0.255  0.00  0.00     0.000 A 
ATOM      5  C5  BNZ d   1       0.509   0.166  -0.012  0.00  0.00     0.000 A 
ATOM      6  C6  BNZ d   1      -0.679  -0.220   0.566  0.00  0.00     0.000 A 
ENDROOT
TORSDOF 0
ENDMDL
