MODEL 1
REMARK minimizedAffinity -1.873981
REMARK minimizedRMSD -1
REMARK  0 active torsions:
REMARK  status: ('A' for Active; 'I' for Inactive)
ROOT
ATOM      1  C1  BNZ d   1       0.537  -2.399  -1.743  0.00  0.00     0.000 A 
ATOM      2  C2  BNZ d   1       0.173  -2.950  -2.943  0.00  0.00     0.000 A 
ATOM      3  C3  BNZ d   1      -1.017  -3.608  -3.079  0.00  0.00     0.000 A 
ATOM      4  C4  BNZ d   1      -1.823  -3.749  -2.007  0.00  0.00     0.000 A 
ATOM      5  C5  BNZ d   1      -1.467  -3.207  -0.789  0.00  0.00     0.000 A 
ATOM      6  C6  BNZ d   1      -0.286  -2.512  -0.665  0.00  0.00     0.000 A 
ENDROOT
TORSDOF 0
ENDMDL
