MODEL 1
REMARK minimizedAffinity -4.34611416
REMARK minimizedRMSD -1
REMARK  0 active torsions:
REMARK  status: ('A' for Active; 'I' for Inactive)
ROOT
ATOM      1  C1  BNZ d   1       0.967   3.060  -0.409  0.00  0.00     0.000 A 
ATOM      2  C2  BNZ d   1      -0.402   3.072  -0.440  0.00  0.00     0.000 A 
ATOM      3  C3  BNZ d   1      -1.120   1.970  -0.066  0.00  0.00     0.000 A 
ATOM      4  C4  BNZ d   1      -0.469   0.847   0.299  0.00  0.00     0.000 A 
ATOM      5  C5  BNZ d   1       0.911   0.816   0.326  0.00  0.00     0.000 A 
ATOM      6  C6  BNZ d   1       1.630   1.939  -0.014  0.00  0.00     0.000 A 
ENDROOT
TORSDOF 0
ENDMDL
