MODEL 1
REMARK minimizedAffinity -2.20043159
REMARK minimizedRMSD -1
REMARK  0 active torsions:
REMARK  status: ('A' for Active; 'I' for Inactive)
ROOT
ATOM      1  C1  BNZ d   1       1.295   0.638   0.741  0.00  0.00     0.000 A 
ATOM      2  C2  BNZ d   1       0.753  -0.587   0.456  0.00  0.00     0.000 A 
ATOM      3  C3  BNZ d   1      -0.546  -0.699   0.048  0.00  0.00     0.000 A 
ATOM      4  C4  BNZ d   1      -1.313   0.407  -0.037  0.00  0.00     0.000 A 
ATOM      5  C5  BNZ d   1      -0.784   1.648   0.255  0.00  0.00     0.000 A 
ATOM      6  C6  BNZ d   1       0.536   1.762   0.629  0.00  0.00     0.000 A 
ENDROOT
TORSDOF 0
ENDMDL
