MODEL 1
REMARK minimizedAffinity -5.14039516
REMARK minimizedRMSD -1
REMARK  0 active torsions:
REMARK  status: ('A' for Active; 'I' for Inactive)
ROOT
ATOM      1  C1  BNZ d   1       1.637   3.378   0.498  0.00  0.00     0.000 A 
ATOM      2  C2  BNZ d   1       0.402   2.834   0.269  0.00  0.00     0.000 A 
ATOM      3  C3  BNZ d   1       0.222   1.479   0.275  0.00  0.00     0.000 A 
ATOM      4  C4  BNZ d   1       1.284   0.670   0.469  0.00  0.00     0.000 A 
ATOM      5  C5  BNZ d   1       2.538   1.204   0.692  0.00  0.00     0.000 A 
ATOM      6  C6  BNZ d   1       2.707   2.569   0.724  0.00  0.00     0.000 A 
ENDROOT
TORSDOF 0
ENDMDL
