MODEL 1
REMARK minimizedAffinity -4.18130636
REMARK minimizedRMSD -1
REMARK  0 active torsions:
REMARK  status: ('A' for Active; 'I' for Inactive)
ROOT
ATOM      1  C1  BNZ d   1       1.084   3.451   0.815  0.00  0.00     0.000 A 
ATOM      2  C2  BNZ d   1      -0.129   3.065   0.309  0.00  0.00     0.000 A 
ATOM      3  C3  BNZ d   1      -0.339   1.777  -0.098  0.00  0.00     0.000 A 
ATOM      4  C4  BNZ d   1       0.674   0.889  -0.037  0.00  0.00     0.000 A 
ATOM      5  C5  BNZ d   1       1.905   1.265   0.462  0.00  0.00     0.000 A 
ATOM      6  C6  BNZ d   1       2.101   2.553   0.907  0.00  0.00     0.000 A 
ENDROOT
TORSDOF 0
ENDMDL
