MODEL 1
REMARK minimizedAffinity -4.23247194
REMARK minimizedRMSD -1
REMARK  0 active torsions:
REMARK  status: ('A' for Active; 'I' for Inactive)
ROOT
ATOM      1  C1  BNZ d   1      -0.761   2.318   0.846  0.00  0.00     0.000 A 
ATOM      2  C2  BNZ d   1      -0.070   2.799  -0.234  0.00  0.00     0.000 A 
ATOM      3  C3  BNZ d   1       0.497   1.946  -1.138  0.00  0.00     0.000 A 
ATOM      4  C4  BNZ d   1       0.408   0.615  -0.941  0.00  0.00     0.000 A 
ATOM      5  C5  BNZ d   1      -0.278   0.114   0.148  0.00  0.00     0.000 A 
ATOM      6  C6  BNZ d   1      -0.881   0.976   1.036  0.00  0.00     0.000 A 
ENDROOT
TORSDOF 0
ENDMDL
