MODEL 1
REMARK minimizedAffinity -2.18495226
REMARK minimizedRMSD -1
REMARK  0 active torsions:
REMARK  status: ('A' for Active; 'I' for Inactive)
ROOT
ATOM      1  C1  BNZ d   1      -1.402  -3.721  -1.008  0.00  0.00     0.000 A 
ATOM      2  C2  BNZ d   1      -1.206  -2.706  -0.110  0.00  0.00     0.000 A 
ATOM      3  C3  BNZ d   1      -0.224  -1.776  -0.309  0.00  0.00     0.000 A 
ATOM      4  C4  BNZ d   1       0.585  -1.884  -1.382  0.00  0.00     0.000 A 
ATOM      5  C5  BNZ d   1       0.406  -2.908  -2.292  0.00  0.00     0.000 A 
ATOM      6  C6  BNZ d   1      -0.608  -3.820  -2.109  0.00  0.00     0.000 A 
ENDROOT
TORSDOF 0
ENDMDL
