MODEL 1
REMARK minimizedAffinity -2.59583235
REMARK minimizedRMSD -1
REMARK  0 active torsions:
REMARK  status: ('A' for Active; 'I' for Inactive)
ROOT
ATOM      1  C1  BNZ d   1       1.009   0.699  -0.042  0.00  0.00     0.000 A 
ATOM      2  C2  BNZ d   1      -0.067   1.520   0.169  0.00  0.00     0.000 A 
ATOM      3  C3  BNZ d   1      -1.282   1.003   0.521  0.00  0.00     0.000 A 
ATOM      4  C4  BNZ d   1      -1.431  -0.334   0.622  0.00  0.00     0.000 A 
ATOM      5  C5  BNZ d   1      -0.358  -1.175   0.403  0.00  0.00     0.000 A 
ATOM      6  C6  BNZ d   1       0.874  -0.649   0.087  0.00  0.00     0.000 A 
ENDROOT
TORSDOF 0
ENDMDL
