MODEL 1
REMARK minimizedAffinity -5.50081968
REMARK minimizedRMSD -1
REMARK  1 active torsions:
REMARK  status: ('A' for Active; 'I' for Inactive)
REMARK    1  A    between atoms: C3_4  and  O_7 
ROOT
ATOM      1  C   UNL d   1      -1.737   3.038   0.954  0.00  0.00    -0.033 A 
ATOM      2  C1  UNL d   1      -0.949   3.151  -0.193  0.00  0.00     0.039 A 
ATOM      3  C2  UNL d   1      -0.273   2.034  -0.690  0.00  0.00    -0.080 A 
ATOM      4  C3  UNL d   1      -0.394   0.813  -0.032  0.00  0.00     0.150 A 
ATOM      5  C4  UNL d   1      -1.181   0.693   1.108  0.00  0.00    -0.007 A 
ATOM      6  C5  UNL d   1      -1.855   1.809   1.604  0.00  0.00     0.039 A 
ENDROOT
BRANCH   4   7
ATOM      7  O   UNL d   1       0.250  -0.303  -0.477  0.00  0.00    -0.526 OA
ATOM      8  H5  UNL d   1       0.779  -0.063  -1.256  0.00  0.00     0.418 HD
ENDBRANCH   4   7
TORSDOF 1
ENDMDL
