MODEL 1
REMARK minimizedAffinity -5.10718822
REMARK minimizedRMSD -1
REMARK  1 active torsions:
REMARK  status: ('A' for Active; 'I' for Inactive)
REMARK    1  A    between atoms: C3_4  and  O_7 
ROOT
ATOM      1  C   UNL d   1       0.342  -0.551   0.707  0.00  0.00    -0.033 A 
ATOM      2  C1  UNL d   1      -0.242  -0.566   1.975  0.00  0.00     0.039 A 
ATOM      3  C2  UNL d   1      -1.417   0.148   2.214  0.00  0.00    -0.080 A 
ATOM      4  C3  UNL d   1      -1.998   0.873   1.177  0.00  0.00     0.150 A 
ATOM      5  C4  UNL d   1      -1.425   0.890  -0.090  0.00  0.00    -0.007 A 
ATOM      6  C5  UNL d   1      -0.250   0.177  -0.326  0.00  0.00     0.039 A 
ENDROOT
BRANCH   4   7
ATOM      7  O   UNL d   1      -3.143   1.590   1.363  0.00  0.00    -0.526 OA
ATOM      8  H5  UNL d   1      -3.409   1.509   2.294  0.00  0.00     0.418 HD
ENDBRANCH   4   7
TORSDOF 1
ENDMDL
