MODEL 1
REMARK minimizedAffinity -5.32348347
REMARK minimizedRMSD -1
REMARK  1 active torsions:
REMARK  status: ('A' for Active; 'I' for Inactive)
REMARK    1  A    between atoms: C3_4  and  O_7 
ROOT
ATOM      1  C   UNL d   1       0.375  -0.280   0.439  0.00  0.00    -0.033 A 
ATOM      2  C1  UNL d   1      -0.209  -0.409   1.700  0.00  0.00     0.039 A 
ATOM      3  C2  UNL d   1      -1.269   0.422   2.070  0.00  0.00    -0.080 A 
ATOM      4  C3  UNL d   1      -1.734   1.376   1.169  0.00  0.00     0.150 A 
ATOM      5  C4  UNL d   1      -1.160   1.508  -0.090  0.00  0.00    -0.007 A 
ATOM      6  C5  UNL d   1      -0.101   0.678  -0.457  0.00  0.00     0.039 A 
ENDROOT
BRANCH   4   7
ATOM      7  O   UNL d   1      -2.763   2.213   1.487  0.00  0.00    -0.526 OA
ATOM      8  H5  UNL d   1      -3.041   2.026   2.399  0.00  0.00     0.418 HD
ENDBRANCH   4   7
TORSDOF 1
ENDMDL
