MODEL 1
REMARK minimizedAffinity -4.52746296
REMARK minimizedRMSD -1
REMARK  1 active torsions:
REMARK  status: ('A' for Active; 'I' for Inactive)
REMARK    1  A    between atoms: C3_4  and  O_7 
ROOT
ATOM      1  C   UNL d   1       0.397  -0.558   0.937  0.00  0.00    -0.033 A 
ATOM      2  C1  UNL d   1       0.133   0.443   0.001  0.00  0.00     0.039 A 
ATOM      3  C2  UNL d   1      -1.015   1.230   0.121  0.00  0.00    -0.080 A 
ATOM      4  C3  UNL d   1      -1.888   1.006   1.182  0.00  0.00     0.150 A 
ATOM      5  C4  UNL d   1      -1.629   0.013   2.121  0.00  0.00    -0.007 A 
ATOM      6  C5  UNL d   1      -0.484  -0.772   1.998  0.00  0.00     0.039 A 
ENDROOT
BRANCH   4   7
ATOM      7  O   UNL d   1      -3.023   1.745   1.339  0.00  0.00    -0.526 OA
ATOM      8  H5  UNL d   1      -3.086   2.373   0.600  0.00  0.00     0.418 HD
ENDBRANCH   4   7
TORSDOF 1
ENDMDL
