MODEL 1
REMARK minimizedAffinity -4.37448931
REMARK minimizedRMSD -1
REMARK  1 active torsions:
REMARK  status: ('A' for Active; 'I' for Inactive)
REMARK    1  A    between atoms: C3_4  and  O_7 
ROOT
ATOM      1  C   UNL d   1      -2.149   1.697   1.492  0.00  0.00    -0.033 A 
ATOM      2  C1  UNL d   1      -1.645   0.555   2.118  0.00  0.00     0.039 A 
ATOM      3  C2  UNL d   1      -0.666  -0.215   1.487  0.00  0.00    -0.080 A 
ATOM      4  C3  UNL d   1      -0.200   0.168   0.233  0.00  0.00     0.150 A 
ATOM      5  C4  UNL d   1      -0.694   1.306  -0.395  0.00  0.00    -0.007 A 
ATOM      6  C5  UNL d   1      -1.672   2.073   0.236  0.00  0.00     0.039 A 
ENDROOT
BRANCH   4   7
ATOM      7  O   UNL d   1       0.752  -0.555  -0.425  0.00  0.00    -0.526 OA
ATOM      8  H5  UNL d   1       0.978  -1.329   0.117  0.00  0.00     0.418 HD
ENDBRANCH   4   7
TORSDOF 1
ENDMDL
