MODEL 1
REMARK minimizedAffinity -3.7651453
REMARK minimizedRMSD -1
REMARK  1 active torsions:
REMARK  status: ('A' for Active; 'I' for Inactive)
REMARK    1  A    between atoms: C3_4  and  O_7 
ROOT
ATOM      1  C   UNL d   1       0.033  -0.449  -0.114  0.00  0.00    -0.033 A 
ATOM      2  C1  UNL d   1      -0.661   0.537  -0.818  0.00  0.00     0.039 A 
ATOM      3  C2  UNL d   1      -1.579   1.354  -0.156  0.00  0.00    -0.080 A 
ATOM      4  C3  UNL d   1      -1.793   1.176   1.208  0.00  0.00     0.150 A 
ATOM      5  C4  UNL d   1      -1.102   0.199   1.917  0.00  0.00    -0.007 A 
ATOM      6  C5  UNL d   1      -0.186  -0.617   1.254  0.00  0.00     0.039 A 
ENDROOT
BRANCH   4   7
ATOM      7  O   UNL d   1      -2.682   1.946   1.897  0.00  0.00    -0.526 OA
ATOM      8  H5  UNL d   1      -3.106   2.559   1.273  0.00  0.00     0.418 HD
ENDBRANCH   4   7
TORSDOF 1
ENDMDL
