MODEL 1
REMARK minimizedAffinity -1.94888198
REMARK minimizedRMSD -1
REMARK  1 active torsions:
REMARK  status: ('A' for Active; 'I' for Inactive)
REMARK    1  A    between atoms: C3_4  and  O_7 
ROOT
ATOM      1  C   UNL d   1       1.125  -0.165  -1.013  0.00  0.00    -0.033 A 
ATOM      2  C1  UNL d   1       0.627   1.050  -1.490  0.00  0.00     0.039 A 
ATOM      3  C2  UNL d   1      -0.350   1.737  -0.767  0.00  0.00    -0.080 A 
ATOM      4  C3  UNL d   1      -0.819   1.200   0.430  0.00  0.00     0.150 A 
ATOM      5  C4  UNL d   1      -0.324  -0.007   0.912  0.00  0.00    -0.007 A 
ATOM      6  C5  UNL d   1       0.651  -0.692   0.188  0.00  0.00     0.039 A 
ENDROOT
BRANCH   4   7
ATOM      7  O   UNL d   1      -1.775   1.832   1.168  0.00  0.00    -0.526 OA
ATOM      8  H5  UNL d   1      -2.043   2.639   0.698  0.00  0.00     0.418 HD
ENDBRANCH   4   7
TORSDOF 1
ENDMDL
