MODEL 1
REMARK minimizedAffinity -4.01654768
REMARK minimizedRMSD -1
REMARK  1 active torsions:
REMARK  status: ('A' for Active; 'I' for Inactive)
REMARK    1  A    between atoms: C3_4  and  O_7 
ROOT
ATOM      1  C   UNL d   1       0.379  -0.498   0.459  0.00  0.00    -0.033 A 
ATOM      2  C1  UNL d   1      -0.184   0.246  -0.580  0.00  0.00     0.039 A 
ATOM      3  C2  UNL d   1      -1.204   1.161  -0.312  0.00  0.00    -0.080 A 
ATOM      4  C3  UNL d   1      -1.651   1.322   0.996  0.00  0.00     0.150 A 
ATOM      5  C4  UNL d   1      -1.092   0.587   2.036  0.00  0.00    -0.007 A 
ATOM      6  C5  UNL d   1      -0.074  -0.326   1.767  0.00  0.00     0.039 A 
ENDROOT
BRANCH   4   7
ATOM      7  O   UNL d   1      -2.647   2.200   1.306  0.00  0.00    -0.526 OA
ATOM      8  H5  UNL d   1      -2.957   2.616   0.484  0.00  0.00     0.418 HD
ENDBRANCH   4   7
TORSDOF 1
ENDMDL
