MODEL 1
REMARK minimizedAffinity -5.06971216
REMARK minimizedRMSD -1
REMARK  1 active torsions:
REMARK  status: ('A' for Active; 'I' for Inactive)
REMARK    1  A    between atoms: C3_4  and  O_7 
ROOT
ATOM      1  C   UNL d   1       0.317  -0.100   0.201  0.00  0.00    -0.033 A 
ATOM      2  C1  UNL d   1       0.055   0.983  -0.640  0.00  0.00     0.039 A 
ATOM      3  C2  UNL d   1      -0.881   1.949  -0.266  0.00  0.00    -0.080 A 
ATOM      4  C3  UNL d   1      -1.546   1.821   0.950  0.00  0.00     0.150 A 
ATOM      5  C4  UNL d   1      -1.287   0.746   1.794  0.00  0.00    -0.007 A 
ATOM      6  C5  UNL d   1      -0.353  -0.218   1.419  0.00  0.00     0.039 A 
ENDROOT
BRANCH   4   7
ATOM      7  O   UNL d   1      -2.472   2.735   1.356  0.00  0.00    -0.526 OA
ATOM      8  H5  UNL d   1      -2.568   3.406   0.659  0.00  0.00     0.418 HD
ENDBRANCH   4   7
TORSDOF 1
ENDMDL
