MODEL 1
REMARK minimizedAffinity -4.62707996
REMARK minimizedRMSD -1
REMARK  1 active torsions:
REMARK  status: ('A' for Active; 'I' for Inactive)
REMARK    1  A    between atoms: C3_4  and  O_7 
ROOT
ATOM      1  C   UNL d   1       0.682  -0.281   0.009  0.00  0.00    -0.033 A 
ATOM      2  C1  UNL d   1       0.050  -0.726   1.171  0.00  0.00     0.039 A 
ATOM      3  C2  UNL d   1      -1.063  -0.044   1.668  0.00  0.00    -0.080 A 
ATOM      4  C3  UNL d   1      -1.533   1.080   0.994  0.00  0.00     0.150 A 
ATOM      5  C4  UNL d   1      -0.910   1.526  -0.167  0.00  0.00    -0.007 A 
ATOM      6  C5  UNL d   1       0.201   0.844  -0.661  0.00  0.00     0.039 A 
ENDROOT
BRANCH   4   7
ATOM      7  O   UNL d   1      -2.612   1.781   1.443  0.00  0.00    -0.526 OA
ATOM      8  H5  UNL d   1      -2.921   1.374   2.270  0.00  0.00     0.418 HD
ENDBRANCH   4   7
TORSDOF 1
ENDMDL
