MODEL 1
REMARK minimizedAffinity -4.74910831
REMARK minimizedRMSD -1
REMARK  1 active torsions:
REMARK  status: ('A' for Active; 'I' for Inactive)
REMARK    1  A    between atoms: C3_4  and  O_7 
ROOT
ATOM      1  C   UNL d   1       0.462  -0.030   0.216  0.00  0.00    -0.033 A 
ATOM      2  C1  UNL d   1       0.001   1.106  -0.452  0.00  0.00     0.039 A 
ATOM      3  C2  UNL d   1      -1.125   1.786   0.017  0.00  0.00    -0.080 A 
ATOM      4  C3  UNL d   1      -1.779   1.320   1.155  0.00  0.00     0.150 A 
ATOM      5  C4  UNL d   1      -1.323   0.191   1.827  0.00  0.00    -0.007 A 
ATOM      6  C5  UNL d   1      -0.199  -0.487   1.356  0.00  0.00     0.039 A 
ENDROOT
BRANCH   4   7
ATOM      7  O   UNL d   1      -2.885   1.947   1.647  0.00  0.00    -0.526 OA
ATOM      8  H5  UNL d   1      -3.101   2.694   1.064  0.00  0.00     0.418 HD
ENDBRANCH   4   7
TORSDOF 1
ENDMDL
