MODEL 1
REMARK minimizedAffinity -5.62216997
REMARK minimizedRMSD -1
REMARK  1 active torsions:
REMARK  status: ('A' for Active; 'I' for Inactive)
REMARK    1  A    between atoms: C3_4  and  O_7 
ROOT
ATOM      1  C   UNL d   1      -1.805   1.112   1.239  0.00  0.00    -0.033 A 
ATOM      2  C1  UNL d   1      -2.036   2.481   1.099  0.00  0.00     0.039 A 
ATOM      3  C2  UNL d   1      -1.198   3.254   0.293  0.00  0.00    -0.080 A 
ATOM      4  C3  UNL d   1      -0.134   2.645  -0.368  0.00  0.00     0.150 A 
ATOM      5  C4  UNL d   1       0.100   1.281  -0.236  0.00  0.00    -0.007 A 
ATOM      6  C5  UNL d   1      -0.737   0.511   0.570  0.00  0.00     0.039 A 
ENDROOT
BRANCH   4   7
ATOM      7  O   UNL d   1       0.714   3.359  -1.161  0.00  0.00    -0.526 OA
ATOM      8  H5  UNL d   1       0.448   4.293  -1.135  0.00  0.00     0.418 HD
ENDBRANCH   4   7
TORSDOF 1
ENDMDL
