MODEL 1
REMARK minimizedAffinity -4.51508427
REMARK minimizedRMSD -1
REMARK  1 active torsions:
REMARK  status: ('A' for Active; 'I' for Inactive)
REMARK    1  A    between atoms: C3_4  and  O_7 
ROOT
ATOM      1  C   UNL d   1       0.671  -0.643   0.447  0.00  0.00    -0.033 A 
ATOM      2  C1  UNL d   1      -0.019  -0.743   1.657  0.00  0.00     0.039 A 
ATOM      3  C2  UNL d   1      -1.028   0.172   1.965  0.00  0.00    -0.080 A 
ATOM      4  C3  UNL d   1      -1.338   1.180   1.056  0.00  0.00     0.150 A 
ATOM      5  C4  UNL d   1      -0.657   1.283  -0.153  0.00  0.00    -0.007 A 
ATOM      6  C5  UNL d   1       0.351   0.369  -0.459  0.00  0.00     0.039 A 
ENDROOT
BRANCH   4   7
ATOM      7  O   UNL d   1      -2.311   2.099   1.315  0.00  0.00    -0.526 OA
ATOM      8  H5  UNL d   1      -2.675   1.921   2.198  0.00  0.00     0.418 HD
ENDBRANCH   4   7
TORSDOF 1
ENDMDL
