MODEL 1
REMARK minimizedAffinity -4.66142225
REMARK minimizedRMSD -1
REMARK  1 active torsions:
REMARK  status: ('A' for Active; 'I' for Inactive)
REMARK    1  A    between atoms: C3_4  and  O_7 
ROOT
ATOM      1  C   UNL d   1       0.451  -0.010  -0.613  0.00  0.00    -0.033 A 
ATOM      2  C1  UNL d   1      -0.281   1.168  -0.780  0.00  0.00     0.039 A 
ATOM      3  C2  UNL d   1      -1.148   1.602   0.225  0.00  0.00    -0.080 A 
ATOM      4  C3  UNL d   1      -1.272   0.852   1.391  0.00  0.00     0.150 A 
ATOM      5  C4  UNL d   1      -0.543  -0.320   1.566  0.00  0.00    -0.007 A 
ATOM      6  C5  UNL d   1       0.321  -0.753   0.561  0.00  0.00     0.039 A 
ENDROOT
BRANCH   4   7
ATOM      7  O   UNL d   1      -2.108   1.233   2.398  0.00  0.00    -0.526 OA
ATOM      8  H5  UNL d   1      -2.568   2.045   2.126  0.00  0.00     0.418 HD
ENDBRANCH   4   7
TORSDOF 1
ENDMDL
