MODEL 1
REMARK minimizedAffinity -4.78952694
REMARK minimizedRMSD -1
REMARK  1 active torsions:
REMARK  status: ('A' for Active; 'I' for Inactive)
REMARK    1  A    between atoms: C1_2  and  C2_3 
ROOT
ATOM      1  C2  UNL d   1      -0.270   0.002   0.224  0.00  0.00    -0.076 A 
ATOM      2  C3  UNL d   1      -1.652  -0.014   0.482  0.00  0.00     0.004 A 
ATOM      3  C4  UNL d   1      -2.297  -1.191   0.858  0.00  0.00    -0.003 A 
ATOM      4  C5  UNL d   1      -1.571  -2.370   0.983  0.00  0.00     0.000 A 
ATOM      5  C6  UNL d   1      -0.197  -2.369   0.748  0.00  0.00     0.000 A 
ATOM      6  C7  UNL d   1       0.472  -1.187   0.383  0.00  0.00    -0.073 A 
ATOM      7  C8  UNL d   1       1.955  -1.244   0.136  0.00  0.00     0.078 C 
ENDROOT
BRANCH   1   8
ATOM      8  C1  UNL d   1       0.370   1.302  -0.208  0.00  0.00     0.053 C 
ATOM      9  C   UNL d   1       0.007   1.686  -1.634  0.00  0.00     0.018 C 
ENDBRANCH   1   8
TORSDOF 1
ENDMDL
