MODEL 1
REMARK minimizedAffinity -4.21326447
REMARK minimizedRMSD -1
REMARK  1 active torsions:
REMARK  status: ('A' for Active; 'I' for Inactive)
REMARK    1  A    between atoms: C1_2  and  C2_3 
ROOT
ATOM      1  C2  UNL d   1      -0.098  -0.401  -0.042  0.00  0.00    -0.076 A 
ATOM      2  C3  UNL d   1      -1.431  -0.338   0.400  0.00  0.00     0.004 A 
ATOM      3  C4  UNL d   1      -2.041  -1.439   0.999  0.00  0.00    -0.003 A 
ATOM      4  C5  UNL d   1      -1.327  -2.621   1.165  0.00  0.00     0.000 A 
ATOM      5  C6  UNL d   1       0.002  -2.696   0.748  0.00  0.00     0.000 A 
ATOM      6  C7  UNL d   1       0.636  -1.589   0.158  0.00  0.00    -0.073 A 
ATOM      7  C8  UNL d   1       2.069  -1.727  -0.279  0.00  0.00     0.078 C 
ENDROOT
BRANCH   1   8
ATOM      8  C1  UNL d   1       0.502   0.817  -0.709  0.00  0.00     0.053 C 
ATOM      9  C   UNL d   1      -0.031   2.119  -0.131  0.00  0.00     0.018 C 
ENDBRANCH   1   8
TORSDOF 1
ENDMDL
