MODEL 1
REMARK minimizedAffinity 0.344544828
REMARK minimizedRMSD -1
REMARK  1 active torsions:
REMARK  status: ('A' for Active; 'I' for Inactive)
REMARK    1  A    between atoms: C1_2  and  C2_3 
ROOT
ATOM      1  C2  UNL d   1      -1.878  -1.062   0.399  0.00  0.00    -0.076 A 
ATOM      2  C3  UNL d   1      -3.091  -0.447   0.755  0.00  0.00     0.004 A 
ATOM      3  C4  UNL d   1      -3.212   0.942   0.777  0.00  0.00    -0.003 A 
ATOM      4  C5  UNL d   1      -2.122   1.738   0.443  0.00  0.00     0.000 A 
ATOM      5  C6  UNL d   1      -0.916   1.144   0.070  0.00  0.00     0.000 A 
ATOM      6  C7  UNL d   1      -0.783  -0.254   0.027  0.00  0.00    -0.073 A 
ATOM      7  C8  UNL d   1       0.543  -0.840  -0.377  0.00  0.00     0.078 C 
ENDROOT
BRANCH   1   8
ATOM      8  C1  UNL d   1      -1.799  -2.572   0.419  0.00  0.00     0.053 C 
ATOM      9  C   UNL d   1      -1.089  -3.101   1.656  0.00  0.00     0.018 C 
ENDBRANCH   1   8
TORSDOF 1
ENDMDL
