MODEL 1
REMARK minimizedAffinity -5.62918901
REMARK minimizedRMSD -1
REMARK  1 active torsions:
REMARK  status: ('A' for Active; 'I' for Inactive)
REMARK    1  A    between atoms: C1_2  and  C2_3 
ROOT
ATOM      1  C2  UNL d   1      -0.267  -0.592  -0.477  0.00  0.00    -0.076 A 
ATOM      2  C3  UNL d   1       0.030  -1.921  -0.826  0.00  0.00     0.004 A 
ATOM      3  C4  UNL d   1      -0.522  -2.988  -0.120  0.00  0.00    -0.003 A 
ATOM      4  C5  UNL d   1      -1.380  -2.744   0.947  0.00  0.00     0.000 A 
ATOM      5  C6  UNL d   1      -1.699  -1.432   1.296  0.00  0.00     0.000 A 
ATOM      6  C7  UNL d   1      -1.165  -0.345   0.584  0.00  0.00    -0.073 A 
ATOM      7  C8  UNL d   1      -1.538   1.049   1.007  0.00  0.00     0.078 C 
ENDROOT
BRANCH   1   8
ATOM      8  C1  UNL d   1       0.382   0.525  -1.263  0.00  0.00     0.053 C 
ATOM      9  C   UNL d   1       0.047   0.466  -2.745  0.00  0.00     0.018 C 
ENDBRANCH   1   8
TORSDOF 1
ENDMDL
