MODEL 1
REMARK minimizedAffinity -4.85993671
REMARK minimizedRMSD -1
REMARK  1 active torsions:
REMARK  status: ('A' for Active; 'I' for Inactive)
REMARK    1  A    between atoms: C1_2  and  C2_3 
ROOT
ATOM      1  C2  UNL d   1       0.215   0.381  -0.953  0.00  0.00    -0.076 A 
ATOM      2  C3  UNL d   1       0.778  -0.070  -2.159  0.00  0.00     0.004 A 
ATOM      3  C4  UNL d   1       1.171   0.830  -3.148  0.00  0.00    -0.003 A 
ATOM      4  C5  UNL d   1       1.009   2.196  -2.946  0.00  0.00     0.000 A 
ATOM      5  C6  UNL d   1       0.469   2.662  -1.748  0.00  0.00     0.000 A 
ATOM      6  C7  UNL d   1       0.082   1.769  -0.734  0.00  0.00    -0.073 A 
ATOM      7  C8  UNL d   1      -0.501   2.326   0.536  0.00  0.00     0.078 C 
ENDROOT
BRANCH   1   8
ATOM      8  C1  UNL d   1      -0.218  -0.643   0.072  0.00  0.00     0.053 C 
ATOM      9  C   UNL d   1       0.951  -1.439   0.630  0.00  0.00     0.018 C 
ENDBRANCH   1   8
TORSDOF 1
ENDMDL
