MODEL 1
REMARK minimizedAffinity -2.03325486
REMARK minimizedRMSD -1
REMARK  1 active torsions:
REMARK  status: ('A' for Active; 'I' for Inactive)
REMARK    1  A    between atoms: C1_2  and  C2_3 
ROOT
ATOM      1  C2  UNL d   1      -0.702  -1.149   0.956  0.00  0.00    -0.076 A 
ATOM      2  C3  UNL d   1      -1.770  -0.268   1.200  0.00  0.00     0.004 A 
ATOM      3  C4  UNL d   1      -1.622   1.106   1.018  0.00  0.00    -0.003 A 
ATOM      4  C5  UNL d   1      -0.404   1.621   0.588  0.00  0.00     0.000 A 
ATOM      5  C6  UNL d   1       0.661   0.760   0.325  0.00  0.00     0.000 A 
ATOM      6  C7  UNL d   1       0.523  -0.629   0.488  0.00  0.00    -0.073 A 
ATOM      7  C8  UNL d   1       1.706  -1.511   0.194  0.00  0.00     0.078 C 
ENDROOT
BRANCH   1   8
ATOM      8  C1  UNL d   1      -0.913  -2.627   1.197  0.00  0.00     0.053 C 
ATOM      9  C   UNL d   1      -2.384  -3.014   1.186  0.00  0.00     0.018 C 
ENDBRANCH   1   8
TORSDOF 1
ENDMDL
