MODEL 1
REMARK minimizedAffinity -0.364601701
REMARK minimizedRMSD -1
REMARK  1 active torsions:
REMARK  status: ('A' for Active; 'I' for Inactive)
REMARK    1  A    between atoms: C1_2  and  C2_3 
ROOT
ATOM      1  C2  UNL d   1       0.677  -0.005   0.101  0.00  0.00    -0.076 A 
ATOM      2  C3  UNL d   1       1.408  -1.200  -0.013  0.00  0.00     0.004 A 
ATOM      3  C4  UNL d   1       0.940  -2.385   0.553  0.00  0.00    -0.003 A 
ATOM      4  C5  UNL d   1      -0.268  -2.394   1.242  0.00  0.00     0.000 A 
ATOM      5  C6  UNL d   1      -1.015  -1.221   1.349  0.00  0.00     0.000 A 
ATOM      6  C7  UNL d   1      -0.566  -0.022   0.770  0.00  0.00    -0.073 A 
ATOM      7  C8  UNL d   1      -1.409   1.214   0.922  0.00  0.00     0.078 C 
ENDROOT
BRANCH   1   8
ATOM      8  C1  UNL d   1       1.247   1.254  -0.511  0.00  0.00     0.053 C 
ATOM      9  C   UNL d   1       0.882   1.407  -1.979  0.00  0.00     0.018 C 
ENDBRANCH   1   8
TORSDOF 1
ENDMDL
