MODEL 1
REMARK minimizedAffinity 10.9862452
REMARK minimizedRMSD -1
REMARK  0 active torsions:
REMARK  status: ('A' for Active; 'I' for Inactive)
ROOT
ATOM      1  N1  IND d   1      -1.877  -3.452  -5.920  0.00  0.00    -0.196 N 
ATOM      2  C2  IND d   1      -3.240  -3.391  -6.000  0.00  0.00     0.054 A 
ATOM      3  C3  IND d   1      -3.797  -3.739  -4.818  0.00  0.00    -0.031 A 
ATOM      4  C4  IND d   1      -2.659  -4.346  -2.590  0.00  0.00     0.051 A 
ATOM      5  C5  IND d   1      -1.431  -4.573  -2.034  0.00  0.00    -0.031 A 
ATOM      6  C6  IND d   1      -0.265  -4.432  -2.759  0.00  0.00     0.015 A 
ATOM      7  C7  IND d   1      -0.284  -4.046  -4.069  0.00  0.00    -0.016 A 
ATOM      8  C8  IND d   1      -1.529  -3.822  -4.639  0.00  0.00    -0.047 A 
ATOM      9  C9  IND d   1      -2.717  -4.005  -3.920  0.00  0.00    -0.096 A 
ATOM     10  HN1 IND d   1      -1.329  -3.287  -6.561  0.00  0.00     0.298 HD
ENDROOT
TORSDOF 0
ENDMDL
