MODEL 1
REMARK minimizedAffinity 3.94622874
REMARK minimizedRMSD -1
REMARK  0 active torsions:
REMARK  status: ('A' for Active; 'I' for Inactive)
ROOT
ATOM      1  N1  IND d   1      -3.834  -3.812  -4.449  0.00  0.00    -0.196 N 
ATOM      2  C2  IND d   1      -3.453  -3.101  -5.553  0.00  0.00     0.054 A 
ATOM      3  C3  IND d   1      -2.107  -3.118  -5.682  0.00  0.00    -0.031 A 
ATOM      4  C4  IND d   1      -0.343  -4.336  -4.257  0.00  0.00     0.051 A 
ATOM      5  C5  IND d   1      -0.204  -5.083  -3.121  0.00  0.00    -0.031 A 
ATOM      6  C6  IND d   1      -1.291  -5.454  -2.355  0.00  0.00     0.015 A 
ATOM      7  C7  IND d   1      -2.563  -5.101  -2.706  0.00  0.00    -0.016 A 
ATOM      8  C8  IND d   1      -2.707  -4.336  -3.855  0.00  0.00    -0.047 A 
ATOM      9  C9  IND d   1      -1.604  -3.920  -4.612  0.00  0.00    -0.096 A 
ATOM     10  HN1 IND d   1      -4.641  -3.915  -4.173  0.00  0.00     0.298 HD
ENDROOT
TORSDOF 0
ENDMDL
