MODEL 1
REMARK minimizedAffinity 17.6558456
REMARK minimizedRMSD -1
REMARK  0 active torsions:
REMARK  status: ('A' for Active; 'I' for Inactive)
ROOT
ATOM      1  N1  IND d   1       2.899  -2.814  -0.317  0.00  0.00    -0.196 N 
ATOM      2  C2  IND d   1       2.005  -3.600  -0.989  0.00  0.00     0.054 A 
ATOM      3  C3  IND d   1       1.170  -2.837  -1.729  0.00  0.00    -0.031 A 
ATOM      4  C4  IND d   1       1.154  -0.285  -2.067  0.00  0.00     0.051 A 
ATOM      5  C5  IND d   1       1.756   0.863  -1.634  0.00  0.00    -0.031 A 
ATOM      6  C6  IND d   1       2.793   0.843  -0.723  0.00  0.00     0.015 A 
ATOM      7  C7  IND d   1       3.275  -0.331  -0.218  0.00  0.00    -0.016 A 
ATOM      8  C8  IND d   1       2.662  -1.498  -0.651  0.00  0.00    -0.047 A 
ATOM      9  C9  IND d   1       1.582  -1.482  -1.543  0.00  0.00    -0.096 A 
ATOM     10  HN1 IND d   1       3.507  -3.093   0.222  0.00  0.00     0.298 HD
ENDROOT
TORSDOF 0
ENDMDL
