MODEL 1
REMARK minimizedAffinity 9.72787189
REMARK minimizedRMSD -1
REMARK  0 active torsions:
REMARK  status: ('A' for Active; 'I' for Inactive)
ROOT
ATOM      1  N1  IND d   1       2.508   0.169  -4.254  0.00  0.00    -0.196 N 
ATOM      2  C2  IND d   1       1.996  -1.075  -4.496  0.00  0.00     0.054 A 
ATOM      3  C3  IND d   1       1.578  -1.644  -3.343  0.00  0.00    -0.031 A 
ATOM      4  C4  IND d   1       1.545  -0.675  -0.959  0.00  0.00     0.051 A 
ATOM      5  C5  IND d   1       1.943   0.412  -0.232  0.00  0.00    -0.031 A 
ATOM      6  C6  IND d   1       2.559   1.497  -0.822  0.00  0.00     0.015 A 
ATOM      7  C7  IND d   1       2.792   1.540  -2.167  0.00  0.00    -0.016 A 
ATOM      8  C8  IND d   1       2.396   0.434  -2.907  0.00  0.00    -0.047 A 
ATOM      9  C9  IND d   1       1.808  -0.687  -2.308  0.00  0.00    -0.096 A 
ATOM     10  HN1 IND d   1       2.844   0.696  -4.844  0.00  0.00     0.298 HD
ENDROOT
TORSDOF 0
ENDMDL
