MODEL 1
REMARK minimizedAffinity 14.299757
REMARK minimizedRMSD -1
REMARK  0 active torsions:
REMARK  status: ('A' for Active; 'I' for Inactive)
ROOT
ATOM      1  N1  IND d   1      -4.269  -2.413  -5.285  0.00  0.00    -0.196 N 
ATOM      2  C2  IND d   1      -5.259  -3.030  -5.999  0.00  0.00     0.054 A 
ATOM      3  C3  IND d   1      -5.220  -4.366  -5.800  0.00  0.00    -0.031 A 
ATOM      4  C4  IND d   1      -3.683  -5.747  -4.264  0.00  0.00     0.051 A 
ATOM      5  C5  IND d   1      -2.598  -5.631  -3.440  0.00  0.00    -0.031 A 
ATOM      6  C6  IND d   1      -2.006  -4.412  -3.181  0.00  0.00     0.015 A 
ATOM      7  C7  IND d   1      -2.484  -3.257  -3.731  0.00  0.00    -0.016 A 
ATOM      8  C8  IND d   1      -3.580  -3.371  -4.574  0.00  0.00    -0.047 A 
ATOM      9  C9  IND d   1      -4.160  -4.611  -4.874  0.00  0.00    -0.096 A 
ATOM     10  HN1 IND d   1      -4.104  -1.569  -5.281  0.00  0.00     0.298 HD
ENDROOT
TORSDOF 0
ENDMDL
