MODEL 1
REMARK minimizedAffinity 14.6110678
REMARK minimizedRMSD -1
REMARK  0 active torsions:
REMARK  status: ('A' for Active; 'I' for Inactive)
ROOT
ATOM      1  N1  IND d   1      -2.146   1.060   1.665  0.00  0.00    -0.196 N 
ATOM      2  C2  IND d   1      -3.068   1.314   2.641  0.00  0.00     0.054 A 
ATOM      3  C3  IND d   1      -2.452   1.567   3.817  0.00  0.00    -0.031 A 
ATOM      4  C4  IND d   1       0.063   1.717   4.346  0.00  0.00     0.051 A 
ATOM      5  C5  IND d   1       1.295   1.527   3.786  0.00  0.00    -0.031 A 
ATOM      6  C6  IND d   1       1.446   1.167   2.462  0.00  0.00     0.015 A 
ATOM      7  C7  IND d   1       0.366   0.994   1.643  0.00  0.00    -0.016 A 
ATOM      8  C8  IND d   1      -0.886   1.179   2.211  0.00  0.00    -0.047 A 
ATOM      9  C9  IND d   1      -1.047   1.503   3.564  0.00  0.00    -0.096 A 
ATOM     10  HN1 IND d   1      -2.322   0.860   0.848  0.00  0.00     0.298 HD
ENDROOT
TORSDOF 0
ENDMDL
