MODEL 1
REMARK minimizedAffinity 10.4833212
REMARK minimizedRMSD -1
REMARK  0 active torsions:
REMARK  status: ('A' for Active; 'I' for Inactive)
ROOT
ATOM      1  N1  IND d   1       2.831  -2.371  -0.468  0.00  0.00    -0.196 N 
ATOM      2  C2  IND d   1       2.163  -3.311  -1.202  0.00  0.00     0.054 A 
ATOM      3  C3  IND d   1       1.490  -2.724  -2.217  0.00  0.00    -0.031 A 
ATOM      4  C4  IND d   1       1.427  -0.249  -2.923  0.00  0.00     0.051 A 
ATOM      5  C5  IND d   1       1.850   0.992  -2.537  0.00  0.00    -0.031 A 
ATOM      6  C6  IND d   1       2.640   1.179  -1.421  0.00  0.00     0.015 A 
ATOM      7  C7  IND d   1       3.047   0.126  -0.652  0.00  0.00    -0.016 A 
ATOM      8  C8  IND d   1       2.614  -1.135  -1.037  0.00  0.00    -0.047 A 
ATOM      9  C9  IND d   1       1.777  -1.327  -2.144  0.00  0.00    -0.096 A 
ATOM     10  HN1 IND d   1       3.307  -2.525   0.231  0.00  0.00     0.298 HD
ENDROOT
TORSDOF 0
ENDMDL
