MODEL 1
REMARK minimizedAffinity 17.3575268
REMARK minimizedRMSD -1
REMARK  0 active torsions:
REMARK  status: ('A' for Active; 'I' for Inactive)
ROOT
ATOM      1  N1  IND d   1      -5.615  -1.508   1.580  0.00  0.00    -0.196 N 
ATOM      2  C2  IND d   1      -6.000  -2.615   2.284  0.00  0.00     0.054 A 
ATOM      3  C3  IND d   1      -5.292  -2.713   3.431  0.00  0.00    -0.031 A 
ATOM      4  C4  IND d   1      -3.525  -1.114   4.405  0.00  0.00     0.051 A 
ATOM      5  C5  IND d   1      -2.813   0.014   4.108  0.00  0.00    -0.031 A 
ATOM      6  C6  IND d   1      -3.005   0.709   2.931  0.00  0.00     0.015 A 
ATOM      7  C7  IND d   1      -3.928   0.305   2.008  0.00  0.00    -0.016 A 
ATOM      8  C8  IND d   1      -4.647  -0.845   2.303  0.00  0.00    -0.047 A 
ATOM      9  C9  IND d   1      -4.427  -1.577   3.476  0.00  0.00    -0.096 A 
ATOM     10  HN1 IND d   1      -5.925  -1.266   0.816  0.00  0.00     0.298 HD
ENDROOT
TORSDOF 0
ENDMDL
