MODEL 1
REMARK minimizedAffinity 8.36689186
REMARK minimizedRMSD -1
REMARK  0 active torsions:
REMARK  status: ('A' for Active; 'I' for Inactive)
ROOT
ATOM      1  N1  IND d   1       0.843  -1.452  -1.900  0.00  0.00    -0.196 N 
ATOM      2  C2  IND d   1       2.058  -2.013  -1.621  0.00  0.00     0.054 A 
ATOM      3  C3  IND d   1       2.015  -3.349  -1.820  0.00  0.00    -0.031 A 
ATOM      4  C4  IND d   1       0.087  -4.812  -2.699  0.00  0.00     0.051 A 
ATOM      5  C5  IND d   1      -1.231  -4.756  -3.055  0.00  0.00    -0.031 A 
ATOM      6  C6  IND d   1      -1.939  -3.571  -3.047  0.00  0.00     0.015 A 
ATOM      7  C7  IND d   1      -1.349  -2.391  -2.692  0.00  0.00    -0.016 A 
ATOM      8  C8  IND d   1      -0.013  -2.445  -2.322  0.00  0.00    -0.047 A 
ATOM      9  C9  IND d   1       0.700  -3.651  -2.288  0.00  0.00    -0.096 A 
ATOM     10  HN1 IND d   1       0.646  -0.618  -1.824  0.00  0.00     0.298 HD
ENDROOT
TORSDOF 0
ENDMDL
