MODEL 1
REMARK minimizedAffinity 19.3440571
REMARK minimizedRMSD -1
REMARK  0 active torsions:
REMARK  status: ('A' for Active; 'I' for Inactive)
ROOT
ATOM      1  N1  IND d   1       1.953  -1.680  -5.667  0.00  0.00    -0.196 N 
ATOM      2  C2  IND d   1       2.844  -0.650  -5.551  0.00  0.00     0.054 A 
ATOM      3  C3  IND d   1       2.721  -0.054  -4.344  0.00  0.00    -0.031 A 
ATOM      4  C4  IND d   1       1.194  -0.670  -2.365  0.00  0.00     0.051 A 
ATOM      5  C5  IND d   1       0.179  -1.514  -2.009  0.00  0.00    -0.031 A 
ATOM      6  C6  IND d   1      -0.303  -2.478  -2.871  0.00  0.00     0.015 A 
ATOM      7  C7  IND d   1       0.220  -2.642  -4.122  0.00  0.00    -0.016 A 
ATOM      8  C8  IND d   1       1.246  -1.782  -4.489  0.00  0.00    -0.047 A 
ATOM      9  C9  IND d   1       1.711  -0.774  -3.634  0.00  0.00    -0.096 A 
ATOM     10  HN1 IND d   1       1.852  -2.180  -6.358  0.00  0.00     0.298 HD
ENDROOT
TORSDOF 0
ENDMDL
