MODEL 1
REMARK minimizedAffinity 17.1979275
REMARK minimizedRMSD -1
REMARK  0 active torsions:
REMARK  status: ('A' for Active; 'I' for Inactive)
ROOT
ATOM      1  N1  IND d   1      -3.635   1.026   2.404  0.00  0.00    -0.196 N 
ATOM      2  C2  IND d   1      -2.330   0.648   2.563  0.00  0.00     0.054 A 
ATOM      3  C3  IND d   1      -1.872   1.040   3.773  0.00  0.00    -0.031 A 
ATOM      4  C4  IND d   1      -3.118   2.223   5.690  0.00  0.00     0.051 A 
ATOM      5  C5  IND d   1      -4.317   2.802   6.000  0.00  0.00    -0.031 A 
ATOM      6  C6  IND d   1      -5.371   2.817   5.110  0.00  0.00     0.015 A 
ATOM      7  C7  IND d   1      -5.270   2.240   3.875  0.00  0.00    -0.016 A 
ATOM      8  C8  IND d   1      -4.052   1.657   3.555  0.00  0.00    -0.047 A 
ATOM      9  C9  IND d   1      -2.965   1.676   4.438  0.00  0.00    -0.096 A 
ATOM     10  HN1 IND d   1      -4.114   0.892   1.702  0.00  0.00     0.298 HD
ENDROOT
TORSDOF 0
ENDMDL
