MODEL 1
REMARK minimizedAffinity 13.6555643
REMARK minimizedRMSD -1
REMARK  0 active torsions:
REMARK  status: ('A' for Active; 'I' for Inactive)
ROOT
ATOM      1  N1  IND d   1       4.160   0.256   0.403  0.00  0.00    -0.196 N 
ATOM      2  C2  IND d   1       4.408   1.542   0.009  0.00  0.00     0.054 A 
ATOM      3  C3  IND d   1       3.790   1.801  -1.165  0.00  0.00    -0.031 A 
ATOM      4  C4  IND d   1       2.238   0.297  -2.563  0.00  0.00     0.051 A 
ATOM      5  C5  IND d   1       1.742  -0.975  -2.628  0.00  0.00    -0.031 A 
ATOM      6  C6  IND d   1       2.031  -1.920  -1.664  0.00  0.00     0.015 A 
ATOM      7  C7  IND d   1       2.820  -1.623  -0.590  0.00  0.00    -0.016 A 
ATOM      8  C8  IND d   1       3.331  -0.335  -0.524  0.00  0.00    -0.047 A 
ATOM      9  C9  IND d   1       3.076   0.616  -1.521  0.00  0.00    -0.096 A 
ATOM     10  HN1 IND d   1       4.470  -0.120   1.112  0.00  0.00     0.298 HD
ENDROOT
TORSDOF 0
ENDMDL
