MODEL 1
REMARK minimizedAffinity 10.1225033
REMARK minimizedRMSD -1
REMARK  0 active torsions:
REMARK  status: ('A' for Active; 'I' for Inactive)
ROOT
ATOM      1  N1  IND d   1       1.497  -4.463  -2.268  0.00  0.00    -0.196 N 
ATOM      2  C2  IND d   1       1.139  -4.004  -3.505  0.00  0.00     0.054 A 
ATOM      3  C3  IND d   1       1.287  -2.661  -3.569  0.00  0.00    -0.031 A 
ATOM      4  C4  IND d   1       2.197  -1.030  -1.797  0.00  0.00     0.051 A 
ATOM      5  C5  IND d   1       2.617  -0.976  -0.498  0.00  0.00    -0.031 A 
ATOM      6  C6  IND d   1       2.689  -2.104   0.293  0.00  0.00     0.015 A 
ATOM      7  C7  IND d   1       2.353  -3.337  -0.192  0.00  0.00    -0.016 A 
ATOM      8  C8  IND d   1       1.919  -3.395  -1.509  0.00  0.00    -0.047 A 
ATOM      9  C9  IND d   1       1.804  -2.247  -2.303  0.00  0.00    -0.096 A 
ATOM     10  HN1 IND d   1       1.463  -5.282  -2.008  0.00  0.00     0.298 HD
ENDROOT
TORSDOF 0
ENDMDL
