MODEL 1
REMARK minimizedAffinity 16.3650532
REMARK minimizedRMSD -1
REMARK  0 active torsions:
REMARK  status: ('A' for Active; 'I' for Inactive)
ROOT
ATOM      1  N1  IND d   1      -3.118   1.874   3.714  0.00  0.00    -0.196 N 
ATOM      2  C2  IND d   1      -3.926   0.879   3.238  0.00  0.00     0.054 A 
ATOM      3  C3  IND d   1      -3.182  -0.127   2.727  0.00  0.00    -0.031 A 
ATOM      4  C4  IND d   1      -0.623  -0.397   2.658  0.00  0.00     0.051 A 
ATOM      5  C5  IND d   1       0.538   0.267   2.939  0.00  0.00    -0.031 A 
ATOM      6  C6  IND d   1       0.540   1.525   3.507  0.00  0.00     0.015 A 
ATOM      7  C7  IND d   1      -0.625   2.164   3.827  0.00  0.00    -0.016 A 
ATOM      8  C8  IND d   1      -1.806   1.495   3.536  0.00  0.00    -0.047 A 
ATOM      9  C9  IND d   1      -1.814   0.237   2.921  0.00  0.00    -0.096 A 
ATOM     10  HN1 IND d   1      -3.385   2.612   4.066  0.00  0.00     0.298 HD
ENDROOT
TORSDOF 0
ENDMDL
