MODEL 1
REMARK minimizedAffinity -3.58041215
REMARK minimizedRMSD -1
REMARK  0 active torsions:
REMARK  status: ('A' for Active; 'I' for Inactive)
ROOT
ATOM      1  N1  IND d   1       2.392  -3.240  -0.078  0.00  0.00    -0.196 N 
ATOM      2  C2  IND d   1       2.732  -4.542  -0.317  0.00  0.00     0.054 A 
ATOM      3  C3  IND d   1       2.895  -4.750  -1.643  0.00  0.00    -0.031 A 
ATOM      4  C4  IND d   1       2.754  -3.072  -3.591  0.00  0.00     0.051 A 
ATOM      5  C5  IND d   1       2.436  -1.774  -3.873  0.00  0.00    -0.031 A 
ATOM      6  C6  IND d   1       2.083  -0.878  -2.884  0.00  0.00     0.015 A 
ATOM      7  C7  IND d   1       2.045  -1.248  -1.569  0.00  0.00    -0.016 A 
ATOM      8  C8  IND d   1       2.360  -2.568  -1.280  0.00  0.00    -0.047 A 
ATOM      9  C9  IND d   1       2.678  -3.492  -2.284  0.00  0.00    -0.096 A 
ATOM     10  HN1 IND d   1       2.226  -2.899   0.693  0.00  0.00     0.298 HD
ENDROOT
TORSDOF 0
ENDMDL
