MODEL 1
REMARK minimizedAffinity 12.3718929
REMARK minimizedRMSD -1
REMARK  0 active torsions:
REMARK  status: ('A' for Active; 'I' for Inactive)
ROOT
ATOM      1  N1  IND d   1      -3.859  -3.900  -3.497  0.00  0.00    -0.196 N 
ATOM      2  C2  IND d   1      -3.751  -5.212  -3.130  0.00  0.00     0.054 A 
ATOM      3  C3  IND d   1      -2.559  -5.437  -2.533  0.00  0.00    -0.031 A 
ATOM      4  C4  IND d   1      -0.676  -3.777  -1.963  0.00  0.00     0.051 A 
ATOM      5  C5  IND d   1      -0.301  -2.474  -2.133  0.00  0.00    -0.031 A 
ATOM      6  C6  IND d   1      -1.110  -1.560  -2.777  0.00  0.00     0.015 A 
ATOM      7  C7  IND d   1      -2.335  -1.915  -3.267  0.00  0.00    -0.016 A 
ATOM      8  C8  IND d   1      -2.716  -3.239  -3.103  0.00  0.00    -0.047 A 
ATOM      9  C9  IND d   1      -1.881  -4.181  -2.488  0.00  0.00    -0.096 A 
ATOM     10  HN1 IND d   1      -4.528  -3.546  -3.906  0.00  0.00     0.298 HD
ENDROOT
TORSDOF 0
ENDMDL
