MODEL 1
REMARK minimizedAffinity 23.6999512
REMARK minimizedRMSD -1
REMARK  0 active torsions:
REMARK  status: ('A' for Active; 'I' for Inactive)
ROOT
ATOM      1  N1  IND d   1      -5.017   4.645  -4.024  0.00  0.00    -0.196 N 
ATOM      2  C2  IND d   1      -5.903   4.518  -5.058  0.00  0.00     0.054 A 
ATOM      3  C3  IND d   1      -5.416   3.671  -5.993  0.00  0.00    -0.031 A 
ATOM      4  C4  IND d   1      -3.235   2.303  -5.983  0.00  0.00     0.051 A 
ATOM      5  C5  IND d   1      -2.086   2.114  -5.269  0.00  0.00    -0.031 A 
ATOM      6  C6  IND d   1      -1.851   2.770  -4.077  0.00  0.00     0.015 A 
ATOM      7  C7  IND d   1      -2.766   3.635  -3.548  0.00  0.00    -0.016 A 
ATOM      8  C8  IND d   1      -3.932   3.835  -4.275  0.00  0.00    -0.047 A 
ATOM      9  C9  IND d   1      -4.157   3.204  -5.505  0.00  0.00    -0.096 A 
ATOM     10  HN1 IND d   1      -5.121   5.147  -3.334  0.00  0.00     0.298 HD
ENDROOT
TORSDOF 0
ENDMDL
