MODEL 1
REMARK minimizedAffinity 21.4706535
REMARK minimizedRMSD -1
REMARK  0 active torsions:
REMARK  status: ('A' for Active; 'I' for Inactive)
ROOT
ATOM      1  N1  IND d   1      -3.015   1.158   2.683  0.00  0.00    -0.196 N 
ATOM      2  C2  IND d   1      -3.827   1.425   3.751  0.00  0.00     0.054 A 
ATOM      3  C3  IND d   1      -3.094   1.546   4.880  0.00  0.00    -0.031 A 
ATOM      4  C4  IND d   1      -0.541   1.446   5.192  0.00  0.00     0.051 A 
ATOM      5  C5  IND d   1       0.618   1.189   4.514  0.00  0.00    -0.031 A 
ATOM      6  C6  IND d   1       0.626   0.906   3.164  0.00  0.00     0.015 A 
ATOM      7  C7  IND d   1      -0.530   0.880   2.435  0.00  0.00    -0.016 A 
ATOM      8  C8  IND d   1      -1.709   1.133   3.122  0.00  0.00    -0.047 A 
ATOM      9  C9  IND d   1      -1.727   1.379   4.500  0.00  0.00    -0.096 A 
ATOM     10  HN1 IND d   1      -3.276   1.028   1.875  0.00  0.00     0.298 HD
ENDROOT
TORSDOF 0
ENDMDL
