MODEL 1
REMARK minimizedAffinity 4.14520311
REMARK minimizedRMSD -1
REMARK  0 active torsions:
REMARK  status: ('A' for Active; 'I' for Inactive)
ROOT
ATOM      1  O1  BZF d   1       1.250  -2.399   0.929  0.00  0.00    -0.204 OA
ATOM      2  C2  BZF d   1       1.450  -1.957  -0.364  0.00  0.00     0.174 A 
ATOM      3  C3  BZF d   1       0.485  -1.087  -0.727  0.00  0.00    -0.012 A 
ATOM      4  C3A BZF d   1      -0.320  -0.909   0.443  0.00  0.00    -0.107 A 
ATOM      5  C4  BZF d   1      -1.423  -0.151   0.717  0.00  0.00     0.055 A 
ATOM      6  C5  BZF d   1      -2.012  -0.259   1.936  0.00  0.00    -0.016 A 
ATOM      7  C6  BZF d   1      -1.529  -1.118   2.902  0.00  0.00     0.022 A 
ATOM      8  C7  BZF d   1      -0.435  -1.886   2.679  0.00  0.00     0.029 A 
ATOM      9  C7A BZF d   1       0.182  -1.754   1.459  0.00  0.00     0.058 A 
ENDROOT
TORSDOF 0
ENDMDL
