MODEL 1
REMARK minimizedAffinity -3.63320804
REMARK minimizedRMSD -1
REMARK  0 active torsions:
REMARK  status: ('A' for Active; 'I' for Inactive)
ROOT
ATOM      1  O1  BZF d   1       2.632  -2.731  -0.026  0.00  0.00    -0.204 OA
ATOM      2  C2  BZF d   1       2.927  -3.925   0.603  0.00  0.00     0.174 A 
ATOM      3  C3  BZF d   1       2.189  -4.071   1.723  0.00  0.00    -0.012 A 
ATOM      4  C3A BZF d   1       1.317  -2.937   1.749  0.00  0.00    -0.107 A 
ATOM      5  C4  BZF d   1       0.338  -2.525   2.607  0.00  0.00     0.055 A 
ATOM      6  C5  BZF d   1      -0.275  -1.333   2.387  0.00  0.00    -0.016 A 
ATOM      7  C6  BZF d   1       0.069  -0.525   1.322  0.00  0.00     0.022 A 
ATOM      8  C7  BZF d   1       1.031  -0.893   0.441  0.00  0.00     0.029 A 
ATOM      9  C7A BZF d   1       1.629  -2.113   0.643  0.00  0.00     0.058 A 
ENDROOT
TORSDOF 0
ENDMDL
