MODEL 1
REMARK minimizedAffinity 1.41719007
REMARK minimizedRMSD -1
REMARK  0 active torsions:
REMARK  status: ('A' for Active; 'I' for Inactive)
ROOT
ATOM      1  O1  BZF d   1       0.803  -1.129  -0.357  0.00  0.00    -0.204 OA
ATOM      2  C2  BZF d   1       1.599  -2.160   0.104  0.00  0.00     0.174 A 
ATOM      3  C3  BZF d   1       1.175  -2.588   1.311  0.00  0.00    -0.012 A 
ATOM      4  C3A BZF d   1      -0.012  -1.836   1.581  0.00  0.00    -0.107 A 
ATOM      5  C4  BZF d   1      -0.898  -1.821   2.620  0.00  0.00     0.055 A 
ATOM      6  C5  BZF d   1      -1.912  -0.916   2.611  0.00  0.00    -0.016 A 
ATOM      7  C6  BZF d   1      -2.066  -0.009   1.583  0.00  0.00     0.022 A 
ATOM      8  C7  BZF d   1      -1.215   0.011   0.528  0.00  0.00     0.029 A 
ATOM      9  C7A BZF d   1      -0.209  -0.924   0.519  0.00  0.00     0.058 A 
ENDROOT
TORSDOF 0
ENDMDL
