MODEL 1
REMARK minimizedAffinity -2.54754806
REMARK minimizedRMSD -1
REMARK  0 active torsions:
REMARK  status: ('A' for Active; 'I' for Inactive)
ROOT
ATOM      1  O1  BZF d   1       0.856  -1.296  -0.628  0.00  0.00    -0.204 OA
ATOM      2  C2  BZF d   1      -0.027  -0.256  -0.408  0.00  0.00     0.174 A 
ATOM      3  C3  BZF d   1      -0.527  -0.310   0.843  0.00  0.00    -0.012 A 
ATOM      4  C3A BZF d   1       0.151  -1.401   1.473  0.00  0.00    -0.107 A 
ATOM      5  C4  BZF d   1       0.097  -1.943   2.726  0.00  0.00     0.055 A 
ATOM      6  C5  BZF d   1       0.834  -3.051   2.998  0.00  0.00    -0.016 A 
ATOM      7  C6  BZF d   1       1.632  -3.646   2.043  0.00  0.00     0.022 A 
ATOM      8  C7  BZF d   1       1.722  -3.142   0.788  0.00  0.00     0.029 A 
ATOM      9  C7A BZF d   1       1.003  -2.003   0.519  0.00  0.00     0.058 A 
ENDROOT
TORSDOF 0
ENDMDL
