MODEL 1
REMARK minimizedAffinity -4.98130417
REMARK minimizedRMSD -1
REMARK  0 active torsions:
REMARK  status: ('A' for Active; 'I' for Inactive)
ROOT
ATOM      1  O1  BZF d   1       2.033  -2.601  -0.448  0.00  0.00    -0.204 OA
ATOM      2  C2  BZF d   1       2.883  -3.358   0.334  0.00  0.00     0.174 A 
ATOM      3  C3  BZF d   1       2.647  -3.143   1.645  0.00  0.00    -0.012 A 
ATOM      4  C3A BZF d   1       1.520  -2.262   1.684  0.00  0.00    -0.107 A 
ATOM      5  C4  BZF d   1       0.804  -1.697   2.701  0.00  0.00     0.055 A 
ATOM      6  C5  BZF d   1      -0.193  -0.824   2.401  0.00  0.00    -0.016 A 
ATOM      7  C6  BZF d   1      -0.497  -0.489   1.098  0.00  0.00     0.022 A 
ATOM      8  C7  BZF d   1       0.182  -1.026   0.056  0.00  0.00     0.029 A 
ATOM      9  C7A BZF d   1       1.168  -1.935   0.354  0.00  0.00     0.058 A 
ENDROOT
TORSDOF 0
ENDMDL
