MODEL 1
REMARK minimizedAffinity 0.287567735
REMARK minimizedRMSD -1
REMARK  0 active torsions:
REMARK  status: ('A' for Active; 'I' for Inactive)
ROOT
ATOM      1  O1  BZF d   1       1.922  -1.880  -0.279  0.00  0.00    -0.204 OA
ATOM      2  C2  BZF d   1       2.485  -3.032   0.234  0.00  0.00     0.174 A 
ATOM      3  C3  BZF d   1       1.990  -3.302   1.459  0.00  0.00    -0.012 A 
ATOM      4  C3A BZF d   1       0.991  -2.303   1.690  0.00  0.00    -0.107 A 
ATOM      5  C4  BZF d   1       0.137  -2.050   2.725  0.00  0.00     0.055 A 
ATOM      6  C5  BZF d   1      -0.662  -0.952   2.669  0.00  0.00    -0.016 A 
ATOM      7  C6  BZF d   1      -0.629  -0.084   1.598  0.00  0.00     0.022 A 
ATOM      8  C7  BZF d   1       0.198  -0.296   0.545  0.00  0.00     0.029 A 
ATOM      9  C7A BZF d   1       0.983  -1.422   0.583  0.00  0.00     0.058 A 
ENDROOT
TORSDOF 0
ENDMDL
