MODEL 1
REMARK minimizedAffinity 3.83423257
REMARK minimizedRMSD -1
REMARK  0 active torsions:
REMARK  status: ('A' for Active; 'I' for Inactive)
ROOT
ATOM      1  O1  BZF d   1       2.815  -2.655  -0.256  0.00  0.00    -0.204 OA
ATOM      2  C2  BZF d   1       3.045  -3.776   0.517  0.00  0.00     0.174 A 
ATOM      3  C3  BZF d   1       2.175  -3.835   1.546  0.00  0.00    -0.012 A 
ATOM      4  C3A BZF d   1       1.291  -2.727   1.354  0.00  0.00    -0.107 A 
ATOM      5  C4  BZF d   1       0.205  -2.262   2.041  0.00  0.00     0.055 A 
ATOM      6  C5  BZF d   1      -0.392  -1.112   1.632  0.00  0.00    -0.016 A 
ATOM      7  C6  BZF d   1       0.072  -0.399   0.546  0.00  0.00     0.022 A 
ATOM      8  C7  BZF d   1       1.142  -0.823  -0.170  0.00  0.00     0.029 A 
ATOM      9  C7A BZF d   1       1.727  -2.003   0.221  0.00  0.00     0.058 A 
ENDROOT
TORSDOF 0
ENDMDL
