MODEL 1
REMARK minimizedAffinity 3.71588683
REMARK minimizedRMSD -1
REMARK  0 active torsions:
REMARK  status: ('A' for Active; 'I' for Inactive)
ROOT
ATOM      1  O1  BZF d   1       2.540  -3.041   0.118  0.00  0.00    -0.204 OA
ATOM      2  C2  BZF d   1       2.282  -1.737  -0.258  0.00  0.00     0.174 A 
ATOM      3  C3  BZF d   1       1.276  -1.218   0.475  0.00  0.00    -0.012 A 
ATOM      4  C3A BZF d   1       0.942  -2.232   1.428  0.00  0.00    -0.107 A 
ATOM      5  C4  BZF d   1       0.030  -2.304   2.441  0.00  0.00     0.055 A 
ATOM      6  C5  BZF d   1      -0.092  -3.464   3.138  0.00  0.00    -0.016 A 
ATOM      7  C6  BZF d   1       0.678  -4.571   2.846  0.00  0.00     0.022 A 
ATOM      8  C7  BZF d   1       1.600  -4.546   1.853  0.00  0.00     0.029 A 
ATOM      9  C7A BZF d   1       1.748  -3.364   1.168  0.00  0.00     0.058 A 
ENDROOT
TORSDOF 0
ENDMDL
