MODEL 1
REMARK minimizedAffinity 2.07064271
REMARK minimizedRMSD -1
REMARK  0 active torsions:
REMARK  status: ('A' for Active; 'I' for Inactive)
ROOT
ATOM      1  O1  BZF d   1       1.370  -5.999   2.230  0.00  0.00    -0.204 OA
ATOM      2  C2  BZF d   1       0.432  -5.041   2.563  0.00  0.00     0.174 A 
ATOM      3  C3  BZF d   1       0.727  -3.861   1.982  0.00  0.00    -0.012 A 
ATOM      4  C3A BZF d   1       1.874  -4.119   1.166  0.00  0.00    -0.107 A 
ATOM      5  C4  BZF d   1       2.627  -3.343   0.331  0.00  0.00     0.055 A 
ATOM      6  C5  BZF d   1       3.725  -3.883  -0.260  0.00  0.00    -0.016 A 
ATOM      7  C6  BZF d   1       4.103  -5.190  -0.035  0.00  0.00     0.022 A 
ATOM      8  C7  BZF d   1       3.385  -6.000   0.781  0.00  0.00     0.029 A 
ATOM      9  C7A BZF d   1       2.256  -5.468   1.354  0.00  0.00     0.058 A 
ENDROOT
TORSDOF 0
ENDMDL
