MODEL 1
REMARK minimizedAffinity 2.87439609
REMARK minimizedRMSD -1
REMARK  0 active torsions:
REMARK  status: ('A' for Active; 'I' for Inactive)
ROOT
ATOM      1  O1  BZF d   1       2.173  -3.450  -0.049  0.00  0.00    -0.204 OA
ATOM      2  C2  BZF d   1       3.349  -4.168   0.050  0.00  0.00     0.174 A 
ATOM      3  C3  BZF d   1       4.418  -3.358  -0.093  0.00  0.00    -0.012 A 
ATOM      4  C3A BZF d   1       3.877  -2.037  -0.201  0.00  0.00    -0.107 A 
ATOM      5  C4  BZF d   1       4.440  -0.801  -0.346  0.00  0.00     0.055 A 
ATOM      6  C5  BZF d   1       3.630   0.280  -0.494  0.00  0.00    -0.016 A 
ATOM      7  C6  BZF d   1       2.256   0.161  -0.509  0.00  0.00     0.022 A 
ATOM      8  C7  BZF d   1       1.652  -1.043  -0.364  0.00  0.00     0.029 A 
ATOM      9  C7A BZF d   1       2.467  -2.134  -0.180  0.00  0.00     0.058 A 
ENDROOT
TORSDOF 0
ENDMDL
