MODEL 1
REMARK minimizedAffinity 4.29990339
REMARK minimizedRMSD -1
REMARK  0 active torsions:
REMARK  status: ('A' for Active; 'I' for Inactive)
ROOT
ATOM      1  O1  BZF d   1       1.074  -1.215  -0.367  0.00  0.00    -0.204 OA
ATOM      2  C2  BZF d   1       1.882  -2.282  -0.026  0.00  0.00     0.174 A 
ATOM      3  C3  BZF d   1       1.647  -2.674   1.242  0.00  0.00    -0.012 A 
ATOM      4  C3A BZF d   1       0.564  -1.856   1.695  0.00  0.00    -0.107 A 
ATOM      5  C4  BZF d   1      -0.131  -1.783   2.868  0.00  0.00     0.055 A 
ATOM      6  C5  BZF d   1      -1.084  -0.824   3.013  0.00  0.00    -0.016 A 
ATOM      7  C6  BZF d   1      -1.363   0.079   2.009  0.00  0.00     0.022 A 
ATOM      8  C7  BZF d   1      -0.703   0.043   0.825  0.00  0.00     0.029 A 
ATOM      9  C7A BZF d   1       0.236  -0.946   0.663  0.00  0.00     0.058 A 
ENDROOT
TORSDOF 0
ENDMDL
