MODEL 1
REMARK minimizedAffinity -4.99210691
REMARK minimizedRMSD -1
REMARK  0 active torsions:
REMARK  status: ('A' for Active; 'I' for Inactive)
ROOT
ATOM      1  C   UNL d   1      -1.861   0.013  -0.627  0.00  0.00     0.078 C 
ATOM      2  C1  UNL d   1      -0.496  -0.089  -0.015  0.00  0.00    -0.077 A 
ATOM      3  C2  UNL d   1      -0.119  -1.218   0.722  0.00  0.00    -0.001 A 
ATOM      4  C3  UNL d   1       1.152  -1.295   1.295  0.00  0.00     0.003 A 
ATOM      5  C4  UNL d   1       2.055  -0.245   1.138  0.00  0.00    -0.005 A 
ATOM      6  C5  UNL d   1       1.688   0.883   0.408  0.00  0.00     0.003 A 
ATOM      7  C6  UNL d   1       0.417   0.962  -0.165  0.00  0.00    -0.001 A 
ENDROOT
TORSDOF 0
ENDMDL
