MODEL 1
REMARK minimizedAffinity -3.20564032
REMARK minimizedRMSD -1
REMARK  0 active torsions:
REMARK  status: ('A' for Active; 'I' for Inactive)
ROOT
ATOM      1  C   UNL d   1       1.613  -1.735   2.501  0.00  0.00     0.078 C 
ATOM      2  C1  UNL d   1       1.528  -0.620   1.502  0.00  0.00    -0.077 A 
ATOM      3  C2  UNL d   1       2.673   0.079   1.102  0.00  0.00    -0.001 A 
ATOM      4  C3  UNL d   1       2.578   1.121   0.178  0.00  0.00     0.003 A 
ATOM      5  C4  UNL d   1       1.340   1.474  -0.353  0.00  0.00    -0.005 A 
ATOM      6  C5  UNL d   1       0.194   0.786   0.041  0.00  0.00     0.003 A 
ATOM      7  C6  UNL d   1       0.287  -0.256   0.964  0.00  0.00    -0.001 A 
ENDROOT
TORSDOF 0
ENDMDL
