MODEL 1
REMARK minimizedAffinity -2.1132803
REMARK minimizedRMSD -1
REMARK  0 active torsions:
REMARK  status: ('A' for Active; 'I' for Inactive)
ROOT
ATOM      1  C   UNL d   1      -1.485   0.317  -0.568  0.00  0.00     0.078 C 
ATOM      2  C1  UNL d   1      -0.153   0.412   0.115  0.00  0.00    -0.077 A 
ATOM      3  C2  UNL d   1       0.651   1.549  -0.030  0.00  0.00    -0.001 A 
ATOM      4  C3  UNL d   1       1.893   1.621   0.604  0.00  0.00     0.003 A 
ATOM      5  C4  UNL d   1       2.342   0.558   1.385  0.00  0.00    -0.005 A 
ATOM      6  C5  UNL d   1       1.549  -0.578   1.533  0.00  0.00     0.003 A 
ATOM      7  C6  UNL d   1       0.307  -0.652   0.901  0.00  0.00    -0.001 A 
ENDROOT
TORSDOF 0
ENDMDL
