MODEL 1
REMARK minimizedAffinity 0.831223309
REMARK minimizedRMSD -1
REMARK  0 active torsions:
REMARK  status: ('A' for Active; 'I' for Inactive)
ROOT
ATOM      1  C   UNL d   1      -1.370   0.308  -0.162  0.00  0.00     0.078 C 
ATOM      2  C1  UNL d   1       0.077   0.496   0.183  0.00  0.00    -0.077 A 
ATOM      3  C2  UNL d   1       0.613  -0.040   1.361  0.00  0.00    -0.001 A 
ATOM      4  C3  UNL d   1       1.959   0.151   1.675  0.00  0.00     0.003 A 
ATOM      5  C4  UNL d   1       2.781   0.879   0.816  0.00  0.00    -0.005 A 
ATOM      6  C5  UNL d   1       2.257   1.417  -0.357  0.00  0.00     0.003 A 
ATOM      7  C6  UNL d   1       0.911   1.228  -0.672  0.00  0.00    -0.001 A 
ENDROOT
TORSDOF 0
ENDMDL
