MODEL 1
REMARK minimizedAffinity -5.93463516
REMARK minimizedRMSD -1
REMARK  0 active torsions:
REMARK  status: ('A' for Active; 'I' for Inactive)
ROOT
ATOM      1  C   UNL d   1      -0.021   0.227  -0.501  0.00  0.00     0.078 C 
ATOM      2  C1  UNL d   1       1.162  -0.218   0.306  0.00  0.00    -0.077 A 
ATOM      3  C2  UNL d   1       1.122  -1.404   1.050  0.00  0.00    -0.001 A 
ATOM      4  C3  UNL d   1       2.227  -1.800   1.805  0.00  0.00     0.003 A 
ATOM      5  C4  UNL d   1       3.380  -1.017   1.824  0.00  0.00    -0.005 A 
ATOM      6  C5  UNL d   1       3.427   0.165   1.089  0.00  0.00     0.003 A 
ATOM      7  C6  UNL d   1       2.324   0.564   0.333  0.00  0.00    -0.001 A 
ENDROOT
TORSDOF 0
ENDMDL
