MODEL 1
REMARK minimizedAffinity -2.94305134
REMARK minimizedRMSD -1
REMARK  1 active torsions:
REMARK  status: ('A' for Active; 'I' for Inactive)
REMARK    1  A    between atoms: C1_2  and  C2_3 
ROOT
ATOM      1  C2  UNL d   1       3.076   0.137  -0.861  0.00  0.00    -0.076 A 
ATOM      2  C3  UNL d   1       2.127   0.604   0.065  0.00  0.00     0.004 A 
ATOM      3  C4  UNL d   1       0.771   0.638  -0.253  0.00  0.00    -0.003 A 
ATOM      4  C5  UNL d   1       0.341   0.206  -1.503  0.00  0.00     0.000 A 
ATOM      5  C6  UNL d   1       1.267  -0.277  -2.427  0.00  0.00     0.000 A 
ATOM      6  C7  UNL d   1       2.636  -0.334  -2.116  0.00  0.00    -0.073 A 
ATOM      7  C8  UNL d   1       3.591  -0.859  -3.153  0.00  0.00     0.078 C 
ENDROOT
BRANCH   1   8
ATOM      8  C1  UNL d   1       4.537   0.148  -0.469  0.00  0.00     0.053 C 
ATOM      9  C   UNL d   1       4.995   1.508   0.033  0.00  0.00     0.018 C 
ENDBRANCH   1   8
TORSDOF 1
ENDMDL
