MODEL 1
REMARK minimizedAffinity 2.07094097
REMARK minimizedRMSD -1
REMARK  1 active torsions:
REMARK  status: ('A' for Active; 'I' for Inactive)
REMARK    1  A    between atoms: C1_2  and  C2_3 
ROOT
ATOM      1  C2  UNL d   1       1.189  -0.414  -2.301  0.00  0.00    -0.076 A 
ATOM      2  C3  UNL d   1       0.857   0.564  -1.348  0.00  0.00     0.004 A 
ATOM      3  C4  UNL d   1       1.787   0.990  -0.402  0.00  0.00    -0.003 A 
ATOM      4  C5  UNL d   1       3.067   0.445  -0.394  0.00  0.00     0.000 A 
ATOM      5  C6  UNL d   1       3.420  -0.513  -1.343  0.00  0.00     0.000 A 
ATOM      6  C7  UNL d   1       2.498  -0.942  -2.314  0.00  0.00    -0.073 A 
ATOM      7  C8  UNL d   1       2.931  -1.983  -3.310  0.00  0.00     0.078 C 
ENDROOT
BRANCH   1   8
ATOM      8  C1  UNL d   1       0.130  -0.857  -3.285  0.00  0.00     0.053 C 
ATOM      9  C   UNL d   1      -0.332   0.273  -4.191  0.00  0.00     0.018 C 
ENDBRANCH   1   8
TORSDOF 1
ENDMDL
