MODEL 1
REMARK minimizedAffinity 0.791545391
REMARK minimizedRMSD -1
REMARK  1 active torsions:
REMARK  status: ('A' for Active; 'I' for Inactive)
REMARK    1  A    between atoms: C1_2  and  C2_3 
ROOT
ATOM      1  C2  UNL d   1       2.266  -0.366  -0.989  0.00  0.00    -0.076 A 
ATOM      2  C3  UNL d   1       2.982   0.843  -1.021  0.00  0.00     0.004 A 
ATOM      3  C4  UNL d   1       2.510   1.974  -0.355  0.00  0.00    -0.003 A 
ATOM      4  C5  UNL d   1       1.315   1.912   0.353  0.00  0.00     0.000 A 
ATOM      5  C6  UNL d   1       0.601   0.716   0.410  0.00  0.00     0.000 A 
ATOM      6  C7  UNL d   1       1.071  -0.437  -0.241  0.00  0.00    -0.073 A 
ATOM      7  C8  UNL d   1       0.258  -1.700  -0.152  0.00  0.00     0.078 C 
ENDROOT
BRANCH   1   8
ATOM      8  C1  UNL d   1       2.813  -1.552  -1.752  0.00  0.00     0.053 C 
ATOM      9  C   UNL d   1       4.204  -1.953  -1.286  0.00  0.00     0.018 C 
ENDBRANCH   1   8
TORSDOF 1
ENDMDL
