MODEL 1
REMARK minimizedAffinity 1.18922591
REMARK minimizedRMSD -1
REMARK  1 active torsions:
REMARK  status: ('A' for Active; 'I' for Inactive)
REMARK    1  A    between atoms: C1_2  and  C2_3 
ROOT
ATOM      1  C2  UNL d   1      -3.677   2.443  -5.980  0.00  0.00    -0.076 A 
ATOM      2  C3  UNL d   1      -2.273   2.494  -5.957  0.00  0.00     0.004 A 
ATOM      3  C4  UNL d   1      -1.598   3.714  -5.965  0.00  0.00    -0.003 A 
ATOM      4  C5  UNL d   1      -2.318   4.903  -5.994  0.00  0.00     0.000 A 
ATOM      5  C6  UNL d   1      -3.712   4.872  -5.999  0.00  0.00     0.000 A 
ATOM      6  C7  UNL d   1      -4.408   3.651  -5.976  0.00  0.00    -0.073 A 
ATOM      7  C8  UNL d   1      -5.911   3.676  -5.988  0.00  0.00     0.078 C 
ENDROOT
BRANCH   1   8
ATOM      8  C1  UNL d   1      -4.353   1.091  -5.999  0.00  0.00     0.053 C 
ATOM      9  C   UNL d   1      -3.549   0.027  -5.267  0.00  0.00     0.018 C 
ENDBRANCH   1   8
TORSDOF 1
ENDMDL
