MODEL 1
REMARK minimizedAffinity 3.37268114
REMARK minimizedRMSD -1
REMARK  1 active torsions:
REMARK  status: ('A' for Active; 'I' for Inactive)
REMARK    1  A    between atoms: C1_2  and  C2_3 
ROOT
ATOM      1  C2  UNL d   1       2.051  -0.382  -0.935  0.00  0.00    -0.076 A 
ATOM      2  C3  UNL d   1       1.658  -0.601  -2.267  0.00  0.00     0.004 A 
ATOM      3  C4  UNL d   1       0.353  -0.340  -2.682  0.00  0.00    -0.003 A 
ATOM      4  C5  UNL d   1      -0.580   0.145  -1.772  0.00  0.00     0.000 A 
ATOM      5  C6  UNL d   1      -0.203   0.384  -0.451  0.00  0.00     0.000 A 
ATOM      6  C7  UNL d   1       1.112   0.142  -0.020  0.00  0.00    -0.073 A 
ATOM      7  C8  UNL d   1       1.463   0.412   1.417  0.00  0.00     0.078 C 
ENDROOT
BRANCH   1   8
ATOM      8  C1  UNL d   1       3.472  -0.709  -0.537  0.00  0.00     0.053 C 
ATOM      9  C   UNL d   1       3.875  -2.123  -0.925  0.00  0.00     0.018 C 
ENDBRANCH   1   8
TORSDOF 1
ENDMDL
