MODEL 1
REMARK minimizedAffinity 1.22954679
REMARK minimizedRMSD -1
REMARK  1 active torsions:
REMARK  status: ('A' for Active; 'I' for Inactive)
REMARK    1  A    between atoms: C1_2  and  C2_3 
ROOT
ATOM      1  C2  UNL d   1      -3.640   2.659  -5.936  0.00  0.00    -0.076 A 
ATOM      2  C3  UNL d   1      -3.200   3.994  -5.908  0.00  0.00     0.004 A 
ATOM      3  C4  UNL d   1      -4.110   5.050  -5.931  0.00  0.00    -0.003 A 
ATOM      4  C5  UNL d   1      -5.474   4.788  -5.983  0.00  0.00     0.000 A 
ATOM      5  C6  UNL d   1      -5.929   3.470  -5.994  0.00  0.00     0.000 A 
ATOM      6  C7  UNL d   1      -5.026   2.394  -5.954  0.00  0.00    -0.073 A 
ATOM      7  C8  UNL d   1      -5.571   0.992  -5.974  0.00  0.00     0.078 C 
ENDROOT
BRANCH   1   8
ATOM      8  C1  UNL d   1      -2.606   1.556  -5.936  0.00  0.00     0.053 C 
ATOM      9  C   UNL d   1      -1.417   1.871  -5.041  0.00  0.00     0.018 C 
ENDBRANCH   1   8
TORSDOF 1
ENDMDL
