MODEL 1
REMARK minimizedAffinity 3.63637614
REMARK minimizedRMSD -1
REMARK  1 active torsions:
REMARK  status: ('A' for Active; 'I' for Inactive)
REMARK    1  A    between atoms: C1_2  and  C2_3 
ROOT
ATOM      1  C2  UNL d   1      -3.241   3.286  -5.964  0.00  0.00    -0.076 A 
ATOM      2  C3  UNL d   1      -4.519   3.871  -5.955  0.00  0.00     0.004 A 
ATOM      3  C4  UNL d   1      -5.669   3.083  -5.954  0.00  0.00    -0.003 A 
ATOM      4  C5  UNL d   1      -5.560   1.697  -5.962  0.00  0.00     0.000 A 
ATOM      5  C6  UNL d   1      -4.300   1.099  -5.953  0.00  0.00     0.000 A 
ATOM      6  C7  UNL d   1      -3.131   1.879  -5.937  0.00  0.00    -0.073 A 
ATOM      7  C8  UNL d   1      -1.798   1.182  -5.934  0.00  0.00     0.078 C 
ENDROOT
BRANCH   1   8
ATOM      8  C1  UNL d   1      -2.030   4.191  -5.992  0.00  0.00     0.053 C 
ATOM      9  C   UNL d   1      -2.395   5.657  -5.820  0.00  0.00     0.018 C 
ENDBRANCH   1   8
TORSDOF 1
ENDMDL
