MODEL 1
REMARK minimizedAffinity 2.74545884
REMARK minimizedRMSD -1
REMARK  1 active torsions:
REMARK  status: ('A' for Active; 'I' for Inactive)
REMARK    1  A    between atoms: C1_2  and  C2_3 
ROOT
ATOM      1  C2  UNL d   1       1.133   0.448  -1.284  0.00  0.00    -0.076 A 
ATOM      2  C3  UNL d   1       1.968   1.574  -1.385  0.00  0.00     0.004 A 
ATOM      3  C4  UNL d   1       2.231   2.374  -0.274  0.00  0.00    -0.003 A 
ATOM      4  C5  UNL d   1       1.663   2.060   0.956  0.00  0.00     0.000 A 
ATOM      5  C6  UNL d   1       0.847   0.936   1.078  0.00  0.00     0.000 A 
ATOM      6  C7  UNL d   1       0.585   0.110  -0.028  0.00  0.00    -0.073 A 
ATOM      7  C8  UNL d   1      -0.308  -1.086   0.159  0.00  0.00     0.078 C 
ENDROOT
BRANCH   1   8
ATOM      8  C1  UNL d   1       0.863  -0.367  -2.529  0.00  0.00     0.053 C 
ATOM      9  C   UNL d   1       1.589   0.177  -3.750  0.00  0.00     0.018 C 
ENDBRANCH   1   8
TORSDOF 1
ENDMDL
