MODEL 1
REMARK minimizedAffinity -3.09140825
REMARK minimizedRMSD -1
REMARK  1 active torsions:
REMARK  status: ('A' for Active; 'I' for Inactive)
REMARK    1  A    between atoms: C1_2  and  C2_3 
ROOT
ATOM      1  C2  UNL d   1      -4.107   2.010  -5.623  0.00  0.00    -0.076 A 
ATOM      2  C3  UNL d   1      -5.487   1.787  -5.768  0.00  0.00     0.004 A 
ATOM      3  C4  UNL d   1      -5.990   0.500  -5.954  0.00  0.00    -0.003 A 
ATOM      4  C5  UNL d   1      -5.120  -0.584  -5.997  0.00  0.00     0.000 A 
ATOM      5  C6  UNL d   1      -3.750  -0.383  -5.837  0.00  0.00     0.000 A 
ATOM      6  C7  UNL d   1      -3.228   0.906  -5.633  0.00  0.00    -0.073 A 
ATOM      7  C8  UNL d   1      -1.741   1.066  -5.472  0.00  0.00     0.078 C 
ENDROOT
BRANCH   1   8
ATOM      8  C1  UNL d   1      -3.617   3.431  -5.451  0.00  0.00     0.053 C 
ATOM      9  C   UNL d   1      -4.598   4.455  -6.000  0.00  0.00     0.018 C 
ENDBRANCH   1   8
TORSDOF 1
ENDMDL
