MODEL 1
REMARK minimizedAffinity 2.27925324
REMARK minimizedRMSD -1
REMARK  1 active torsions:
REMARK  status: ('A' for Active; 'I' for Inactive)
REMARK    1  A    between atoms: C1_2  and  C2_3 
ROOT
ATOM      1  C2  UNL d   1      -4.741   1.328  -5.441  0.00  0.00    -0.076 A 
ATOM      2  C3  UNL d   1      -5.955   0.687  -5.743  0.00  0.00     0.004 A 
ATOM      3  C4  UNL d   1      -5.999  -0.683  -6.000  0.00  0.00    -0.003 A 
ATOM      4  C5  UNL d   1      -4.829  -1.433  -5.959  0.00  0.00     0.000 A 
ATOM      5  C6  UNL d   1      -3.618  -0.817  -5.644  0.00  0.00     0.000 A 
ATOM      6  C7  UNL d   1      -3.559   0.560  -5.367  0.00  0.00    -0.073 A 
ATOM      7  C8  UNL d   1      -2.226   1.174  -5.039  0.00  0.00     0.078 C 
ENDROOT
BRANCH   1   8
ATOM      8  C1  UNL d   1      -4.751   2.820  -5.198  0.00  0.00     0.053 C 
ATOM      9  C   UNL d   1      -5.831   3.533  -5.997  0.00  0.00     0.018 C 
ENDBRANCH   1   8
TORSDOF 1
ENDMDL
