MODEL 1
REMARK minimizedAffinity -4.5968976
REMARK minimizedRMSD -1
REMARK  1 active torsions:
REMARK  status: ('A' for Active; 'I' for Inactive)
REMARK    1  A    between atoms: C1_2  and  C2_3 
ROOT
ATOM      1  C2  UNL d   1      -0.513   0.703   0.598  0.00  0.00    -0.076 A 
ATOM      2  C3  UNL d   1      -0.180   1.403  -0.574  0.00  0.00     0.004 A 
ATOM      3  C4  UNL d   1       0.709   0.864  -1.503  0.00  0.00    -0.003 A 
ATOM      4  C5  UNL d   1       1.277  -0.384  -1.276  0.00  0.00     0.000 A 
ATOM      5  C6  UNL d   1       0.944  -1.100  -0.127  0.00  0.00     0.000 A 
ATOM      6  C7  UNL d   1       0.038  -0.579   0.812  0.00  0.00    -0.073 A 
ATOM      7  C8  UNL d   1      -0.281  -1.392   2.037  0.00  0.00     0.078 C 
ENDROOT
BRANCH   1   8
ATOM      8  C1  UNL d   1      -1.461   1.349   1.583  0.00  0.00     0.053 C 
ATOM      9  C   UNL d   1      -2.683   1.952   0.906  0.00  0.00     0.018 C 
ENDBRANCH   1   8
TORSDOF 1
ENDMDL
