MODEL 1
REMARK minimizedAffinity -3.90604162
REMARK minimizedRMSD -1
REMARK  1 active torsions:
REMARK  status: ('A' for Active; 'I' for Inactive)
REMARK    1  A    between atoms: C1_2  and  C2_3 
ROOT
ATOM      1  C2  UNL d   1       0.178   0.169   0.114  0.00  0.00    -0.076 A 
ATOM      2  C3  UNL d   1      -0.435   1.219  -0.592  0.00  0.00     0.004 A 
ATOM      3  C4  UNL d   1      -1.423   2.002   0.002  0.00  0.00    -0.003 A 
ATOM      4  C5  UNL d   1      -1.814   1.749   1.312  0.00  0.00     0.000 A 
ATOM      5  C6  UNL d   1      -1.205   0.722   2.033  0.00  0.00     0.000 A 
ATOM      6  C7  UNL d   1      -0.195  -0.066   1.455  0.00  0.00    -0.073 A 
ATOM      7  C8  UNL d   1       0.423  -1.164   2.277  0.00  0.00     0.078 C 
ENDROOT
BRANCH   1   8
ATOM      8  C1  UNL d   1       1.224  -0.664  -0.591  0.00  0.00     0.053 C 
ATOM      9  C   UNL d   1       0.615  -1.781  -1.424  0.00  0.00     0.018 C 
ENDBRANCH   1   8
TORSDOF 1
ENDMDL
