MODEL 1
REMARK minimizedAffinity -0.596584082
REMARK minimizedRMSD -1
REMARK  1 active torsions:
REMARK  status: ('A' for Active; 'I' for Inactive)
REMARK    1  A    between atoms: C1_2  and  C2_3 
ROOT
ATOM      1  C2  UNL d   1       0.482  -0.287  -0.040  0.00  0.00    -0.076 A 
ATOM      2  C3  UNL d   1      -0.104  -0.985   1.031  0.00  0.00     0.004 A 
ATOM      3  C4  UNL d   1      -0.925  -0.331   1.948  0.00  0.00    -0.003 A 
ATOM      4  C5  UNL d   1      -1.174   1.030   1.810  0.00  0.00     0.000 A 
ATOM      5  C6  UNL d   1      -0.614   1.734   0.744  0.00  0.00     0.000 A 
ATOM      6  C7  UNL d   1       0.203   1.087  -0.199  0.00  0.00    -0.073 A 
ATOM      7  C8  UNL d   1       0.785   1.896  -1.326  0.00  0.00     0.078 C 
ENDROOT
BRANCH   1   8
ATOM      8  C1  UNL d   1       1.386  -1.043  -0.988  0.00  0.00     0.053 C 
ATOM      9  C   UNL d   1       0.755  -2.333  -1.490  0.00  0.00     0.018 C 
ENDBRANCH   1   8
TORSDOF 1
ENDMDL
