MODEL 1
REMARK minimizedAffinity -1.76537943
REMARK minimizedRMSD -1
REMARK  1 active torsions:
REMARK  status: ('A' for Active; 'I' for Inactive)
REMARK    1  A    between atoms: C1_2  and  C2_3 
ROOT
ATOM      1  C2  UNL d   1      -0.427   0.584  -0.278  0.00  0.00    -0.076 A 
ATOM      2  C3  UNL d   1      -0.747  -0.119   0.896  0.00  0.00     0.004 A 
ATOM      3  C4  UNL d   1      -1.574   0.443   1.867  0.00  0.00    -0.003 A 
ATOM      4  C5  UNL d   1      -2.096   1.718   1.678  0.00  0.00     0.000 A 
ATOM      5  C6  UNL d   1      -1.804   2.423   0.511  0.00  0.00     0.000 A 
ATOM      6  C7  UNL d   1      -0.985   1.864  -0.485  0.00  0.00    -0.073 A 
ATOM      7  C8  UNL d   1      -0.698   2.672  -1.721  0.00  0.00     0.078 C 
ENDROOT
BRANCH   1   8
ATOM      8  C1  UNL d   1       0.497  -0.065  -1.283  0.00  0.00     0.053 C 
ATOM      9  C   UNL d   1       0.456  -1.584  -1.216  0.00  0.00     0.018 C 
ENDBRANCH   1   8
TORSDOF 1
ENDMDL
