MODEL 1
REMARK minimizedAffinity -1.05997145
REMARK minimizedRMSD -1
REMARK  1 active torsions:
REMARK  status: ('A' for Active; 'I' for Inactive)
REMARK    1  A    between atoms: C1_2  and  C2_3 
ROOT
ATOM      1  C2  UNL d   1       0.181  -0.727  -1.225  0.00  0.00    -0.076 A 
ATOM      2  C3  UNL d   1       0.010  -1.155  -2.553  0.00  0.00     0.004 A 
ATOM      3  C4  UNL d   1      -0.332  -2.475  -2.842  0.00  0.00    -0.003 A 
ATOM      4  C5  UNL d   1      -0.509  -3.388  -1.809  0.00  0.00     0.000 A 
ATOM      5  C6  UNL d   1      -0.360  -2.977  -0.485  0.00  0.00     0.000 A 
ATOM      6  C7  UNL d   1      -0.032  -1.646  -0.175  0.00  0.00    -0.073 A 
ATOM      7  C8  UNL d   1       0.122  -1.258   1.271  0.00  0.00     0.078 C 
ENDROOT
BRANCH   1   8
ATOM      8  C1  UNL d   1       0.579   0.710  -0.973  0.00  0.00     0.053 C 
ATOM      9  C   UNL d   1      -0.621   1.641  -0.896  0.00  0.00     0.018 C 
ENDBRANCH   1   8
TORSDOF 1
ENDMDL
