MODEL 1
REMARK minimizedAffinity -5.60340786
REMARK minimizedRMSD -1
REMARK  1 active torsions:
REMARK  status: ('A' for Active; 'I' for Inactive)
REMARK    1  A    between atoms: C1_2  and  C2_3 
ROOT
ATOM      1  C2  UNL d   1      -0.077   0.274   0.098  0.00  0.00    -0.076 A 
ATOM      2  C3  UNL d   1      -0.839   1.271  -0.534  0.00  0.00     0.004 A 
ATOM      3  C4  UNL d   1      -1.664   2.119   0.203  0.00  0.00    -0.003 A 
ATOM      4  C5  UNL d   1      -1.739   1.984   1.585  0.00  0.00     0.000 A 
ATOM      5  C6  UNL d   1      -0.975   1.012   2.230  0.00  0.00     0.000 A 
ATOM      6  C7  UNL d   1      -0.127   0.159   1.503  0.00  0.00    -0.073 A 
ATOM      7  C8  UNL d   1       0.669  -0.876   2.250  0.00  0.00     0.078 C 
ENDROOT
BRANCH   1   8
ATOM      8  C1  UNL d   1       0.779  -0.634  -0.757  0.00  0.00     0.053 C 
ATOM      9  C   UNL d   1      -0.040  -1.688  -1.487  0.00  0.00     0.018 C 
ENDBRANCH   1   8
TORSDOF 1
ENDMDL
