MODEL 1
REMARK minimizedAffinity -3.24833727
REMARK minimizedRMSD -1
REMARK  1 active torsions:
REMARK  status: ('A' for Active; 'I' for Inactive)
REMARK    1  A    between atoms: C1_2  and  C2_3 
ROOT
ATOM      1  C2  UNL d   1       0.102  -0.186  -0.016  0.00  0.00    -0.076 A 
ATOM      2  C3  UNL d   1      -0.323  -0.972   1.069  0.00  0.00     0.004 A 
ATOM      3  C4  UNL d   1      -1.306  -0.514   1.945  0.00  0.00    -0.003 A 
ATOM      4  C5  UNL d   1      -1.881   0.737   1.749  0.00  0.00     0.000 A 
ATOM      5  C6  UNL d   1      -1.484   1.522   0.667  0.00  0.00     0.000 A 
ATOM      6  C7  UNL d   1      -0.505   1.069  -0.234  0.00  0.00    -0.073 A 
ATOM      7  C8  UNL d   1      -0.111   1.960  -1.380  0.00  0.00     0.078 C 
ENDROOT
BRANCH   1   8
ATOM      8  C1  UNL d   1       1.191  -0.724  -0.916  0.00  0.00     0.053 C 
ATOM      9  C   UNL d   1       0.815  -2.051  -1.557  0.00  0.00     0.018 C 
ENDBRANCH   1   8
TORSDOF 1
ENDMDL
