MODEL 1
REMARK minimizedAffinity -3.81216884
REMARK minimizedRMSD -1
REMARK  1 active torsions:
REMARK  status: ('A' for Active; 'I' for Inactive)
REMARK    1  A    between atoms: C1_2  and  C2_3 
ROOT
ATOM      1  C2  UNL d   1       0.002   0.518  -0.049  0.00  0.00    -0.076 A 
ATOM      2  C3  UNL d   1       0.078   1.811  -0.595  0.00  0.00     0.004 A 
ATOM      3  C4  UNL d   1      -0.722   2.844  -0.109  0.00  0.00    -0.003 A 
ATOM      4  C5  UNL d   1      -1.610   2.601   0.933  0.00  0.00     0.000 A 
ATOM      5  C6  UNL d   1      -1.686   1.329   1.499  0.00  0.00     0.000 A 
ATOM      6  C7  UNL d   1      -0.876   0.280   1.031  0.00  0.00    -0.073 A 
ATOM      7  C8  UNL d   1      -1.004  -1.074   1.674  0.00  0.00     0.078 C 
ENDROOT
BRANCH   1   8
ATOM      8  C1  UNL d   1       0.874  -0.569  -0.635  0.00  0.00     0.053 C 
ATOM      9  C   UNL d   1       1.999  -0.013  -1.494  0.00  0.00     0.018 C 
ENDBRANCH   1   8
TORSDOF 1
ENDMDL
