MODEL 1
REMARK minimizedAffinity -1.91124284
REMARK minimizedRMSD -1
REMARK  0 active torsions:
REMARK  status: ('A' for Active; 'I' for Inactive)
ROOT
ATOM      1  C   UNL d   1      -1.794   1.973   1.112  0.00  0.00     0.078 C 
ATOM      2  C1  UNL d   1      -0.882   0.974   0.466  0.00  0.00    -0.077 A 
ATOM      3  C2  UNL d   1      -0.458  -0.168   1.157  0.00  0.00    -0.001 A 
ATOM      4  C3  UNL d   1       0.400  -1.084   0.547  0.00  0.00     0.003 A 
ATOM      5  C4  UNL d   1       0.842  -0.869  -0.757  0.00  0.00    -0.005 A 
ATOM      6  C5  UNL d   1       0.427   0.266  -1.452  0.00  0.00     0.003 A 
ATOM      7  C6  UNL d   1      -0.431   1.184  -0.843  0.00  0.00    -0.001 A 
ENDROOT
TORSDOF 0
ENDMDL
