MODEL 1
REMARK minimizedAffinity -4.15851784
REMARK minimizedRMSD -1
REMARK  0 active torsions:
REMARK  status: ('A' for Active; 'I' for Inactive)
ROOT
ATOM      1  C   UNL d   1      -1.820   1.959   1.061  0.00  0.00     0.078 C 
ATOM      2  C1  UNL d   1      -0.737   1.329   0.236  0.00  0.00    -0.077 A 
ATOM      3  C2  UNL d   1      -0.181   2.003  -0.858  0.00  0.00    -0.001 A 
ATOM      4  C3  UNL d   1       0.820   1.401  -1.623  0.00  0.00     0.003 A 
ATOM      5  C4  UNL d   1       1.272   0.122  -1.302  0.00  0.00    -0.005 A 
ATOM      6  C5  UNL d   1       0.722  -0.556  -0.217  0.00  0.00     0.003 A 
ATOM      7  C6  UNL d   1      -0.279   0.044   0.549  0.00  0.00    -0.001 A 
ENDROOT
TORSDOF 0
ENDMDL
