MODEL 1
REMARK minimizedAffinity -3.84962869
REMARK minimizedRMSD -1
REMARK  0 active torsions:
REMARK  status: ('A' for Active; 'I' for Inactive)
ROOT
ATOM      1  C   UNL d   1       0.437  -1.090  -0.651  0.00  0.00     0.078 C 
ATOM      2  C1  UNL d   1      -0.195  -0.109   0.290  0.00  0.00    -0.077 A 
ATOM      3  C2  UNL d   1      -0.811  -0.537   1.472  0.00  0.00    -0.001 A 
ATOM      4  C3  UNL d   1      -1.404   0.387   2.334  0.00  0.00     0.003 A 
ATOM      5  C4  UNL d   1      -1.388   1.745   2.022  0.00  0.00    -0.005 A 
ATOM      6  C5  UNL d   1      -0.779   2.180   0.847  0.00  0.00     0.003 A 
ATOM      7  C6  UNL d   1      -0.186   1.258  -0.016  0.00  0.00    -0.001 A 
ENDROOT
TORSDOF 0
ENDMDL
