MODEL 1
REMARK minimizedAffinity -4.85462809
REMARK minimizedRMSD -1
REMARK  0 active torsions:
REMARK  status: ('A' for Active; 'I' for Inactive)
ROOT
ATOM      1  C   UNL d   1       0.887  -1.083  -0.561  0.00  0.00     0.078 C 
ATOM      2  C1  UNL d   1      -0.016  -0.087   0.103  0.00  0.00    -0.077 A 
ATOM      3  C2  UNL d   1      -0.640  -0.381   1.322  0.00  0.00    -0.001 A 
ATOM      4  C3  UNL d   1      -1.486   0.552   1.925  0.00  0.00     0.003 A 
ATOM      5  C4  UNL d   1      -1.717   1.783   1.315  0.00  0.00    -0.005 A 
ATOM      6  C5  UNL d   1      -1.103   2.083   0.101  0.00  0.00     0.003 A 
ATOM      7  C6  UNL d   1      -0.257   1.152  -0.503  0.00  0.00    -0.001 A 
ENDROOT
TORSDOF 0
ENDMDL
