MODEL 1
REMARK minimizedAffinity -5.47280455
REMARK minimizedRMSD -1
REMARK  0 active torsions:
REMARK  status: ('A' for Active; 'I' for Inactive)
ROOT
ATOM      1  C   UNL d   1      -2.341   2.120   1.427  0.00  0.00     0.078 C 
ATOM      2  C1  UNL d   1      -1.302   1.128   0.996  0.00  0.00    -0.077 A 
ATOM      3  C2  UNL d   1      -0.990   0.953  -0.357  0.00  0.00    -0.001 A 
ATOM      4  C3  UNL d   1      -0.028   0.020  -0.745  0.00  0.00     0.003 A 
ATOM      5  C4  UNL d   1       0.630  -0.747   0.215  0.00  0.00    -0.005 A 
ATOM      6  C5  UNL d   1       0.325  -0.581   1.564  0.00  0.00     0.003 A 
ATOM      7  C6  UNL d   1      -0.637   0.352   1.954  0.00  0.00    -0.001 A 
ENDROOT
TORSDOF 0
ENDMDL
