MODEL 1
REMARK minimizedAffinity -3.57945919
REMARK minimizedRMSD -1
REMARK  0 active torsions:
REMARK  status: ('A' for Active; 'I' for Inactive)
ROOT
ATOM      1  C   UNL d   1      -1.668   2.279   2.124  0.00  0.00     0.078 C 
ATOM      2  C1  UNL d   1      -0.932   1.317   1.240  0.00  0.00    -0.077 A 
ATOM      3  C2  UNL d   1      -0.733  -0.013   1.630  0.00  0.00    -0.001 A 
ATOM      4  C3  UNL d   1      -0.038  -0.895   0.801  0.00  0.00     0.003 A 
ATOM      5  C4  UNL d   1       0.464  -0.457  -0.423  0.00  0.00    -0.005 A 
ATOM      6  C5  UNL d   1       0.273   0.865  -0.818  0.00  0.00     0.003 A 
ATOM      7  C6  UNL d   1      -0.422   1.749   0.009  0.00  0.00    -0.001 A 
ENDROOT
TORSDOF 0
ENDMDL
