MODEL 1
REMARK minimizedAffinity -3.82918715
REMARK minimizedRMSD -1
REMARK  0 active torsions:
REMARK  status: ('A' for Active; 'I' for Inactive)
ROOT
ATOM      1  C   UNL d   1      -1.331   1.812   2.306  0.00  0.00     0.078 C 
ATOM      2  C1  UNL d   1      -0.568   1.220   1.158  0.00  0.00    -0.077 A 
ATOM      3  C2  UNL d   1      -0.276  -0.149   1.116  0.00  0.00    -0.001 A 
ATOM      4  C3  UNL d   1       0.442  -0.685   0.046  0.00  0.00     0.003 A 
ATOM      5  C4  UNL d   1       0.876   0.141  -0.989  0.00  0.00    -0.005 A 
ATOM      6  C5  UNL d   1       0.592   1.504  -0.955  0.00  0.00     0.003 A 
ATOM      7  C6  UNL d   1      -0.126   2.042   0.114  0.00  0.00    -0.001 A 
ENDROOT
TORSDOF 0
ENDMDL
