MODEL 1
REMARK minimizedAffinity -4.580091
REMARK minimizedRMSD -1
REMARK  0 active torsions:
REMARK  status: ('A' for Active; 'I' for Inactive)
ROOT
ATOM      1  C   UNL d   1       2.656  -1.041  -1.385  0.00  0.00     0.078 C 
ATOM      2  C1  UNL d   1       1.710  -1.866  -2.205  0.00  0.00    -0.077 A 
ATOM      3  C2  UNL d   1       1.720  -1.797  -3.604  0.00  0.00    -0.001 A 
ATOM      4  C3  UNL d   1       0.827  -2.563  -4.355  0.00  0.00     0.003 A 
ATOM      5  C4  UNL d   1      -0.083  -3.404  -3.716  0.00  0.00    -0.005 A 
ATOM      6  C5  UNL d   1      -0.102  -3.477  -2.325  0.00  0.00     0.003 A 
ATOM      7  C6  UNL d   1       0.790  -2.712  -1.572  0.00  0.00    -0.001 A 
ENDROOT
TORSDOF 0
ENDMDL
