MODEL 1
REMARK minimizedAffinity -5.30149984
REMARK minimizedRMSD -1
REMARK  0 active torsions:
REMARK  status: ('A' for Active; 'I' for Inactive)
ROOT
ATOM      1  C   UNL d   1       0.436  -0.900  -0.656  0.00  0.00     0.078 C 
ATOM      2  C1  UNL d   1      -0.279   0.156   0.133  0.00  0.00    -0.077 A 
ATOM      3  C2  UNL d   1      -0.757   1.318  -0.484  0.00  0.00    -0.001 A 
ATOM      4  C3  UNL d   1      -1.412   2.297   0.265  0.00  0.00     0.003 A 
ATOM      5  C4  UNL d   1      -1.594   2.124   1.636  0.00  0.00    -0.005 A 
ATOM      6  C5  UNL d   1      -1.119   0.972   2.259  0.00  0.00     0.003 A 
ATOM      7  C6  UNL d   1      -0.464  -0.008   1.512  0.00  0.00    -0.001 A 
ENDROOT
TORSDOF 0
ENDMDL
