MODEL 1
REMARK minimizedAffinity -4.20636415
REMARK minimizedRMSD -1
REMARK  0 active torsions:
REMARK  status: ('A' for Active; 'I' for Inactive)
ROOT
ATOM      1  C   UNL d   1      -1.769   2.273   1.018  0.00  0.00     0.078 C 
ATOM      2  C1  UNL d   1      -0.840   1.168   0.614  0.00  0.00    -0.077 A 
ATOM      3  C2  UNL d   1      -0.471   0.167   1.521  0.00  0.00    -0.001 A 
ATOM      4  C3  UNL d   1       0.402  -0.850   1.134  0.00  0.00     0.003 A 
ATOM      5  C4  UNL d   1       0.916  -0.876  -0.161  0.00  0.00    -0.005 A 
ATOM      6  C5  UNL d   1       0.556   0.117  -1.071  0.00  0.00     0.003 A 
ATOM      7  C6  UNL d   1      -0.317   1.135  -0.685  0.00  0.00    -0.001 A 
ENDROOT
TORSDOF 0
ENDMDL
