MODEL 1
REMARK minimizedAffinity -1.93033051
REMARK minimizedRMSD -1
REMARK  0 active torsions:
REMARK  status: ('A' for Active; 'I' for Inactive)
ROOT
ATOM      1  C   UNL d   1       1.063  -1.269  -0.934  0.00  0.00     0.078 C 
ATOM      2  C1  UNL d   1       0.245  -0.346  -0.081  0.00  0.00    -0.077 A 
ATOM      3  C2  UNL d   1      -0.139   0.917  -0.547  0.00  0.00    -0.001 A 
ATOM      4  C3  UNL d   1      -0.892   1.769   0.262  0.00  0.00     0.003 A 
ATOM      5  C4  UNL d   1      -1.266   1.368   1.543  0.00  0.00    -0.005 A 
ATOM      6  C5  UNL d   1      -0.887   0.114   2.017  0.00  0.00     0.003 A 
ATOM      7  C6  UNL d   1      -0.134  -0.740   1.209  0.00  0.00    -0.001 A 
ENDROOT
TORSDOF 0
ENDMDL
