MODEL 1
REMARK minimizedAffinity -5.34402037
REMARK minimizedRMSD -1
REMARK  0 active torsions:
REMARK  status: ('A' for Active; 'I' for Inactive)
ROOT
ATOM      1  C   UNL d   1      -1.919   1.859   1.603  0.00  0.00     0.078 C 
ATOM      2  C1  UNL d   1      -0.949   0.833   1.098  0.00  0.00    -0.077 A 
ATOM      3  C2  UNL d   1      -0.171   1.076  -0.040  0.00  0.00    -0.001 A 
ATOM      4  C3  UNL d   1       0.722   0.108  -0.505  0.00  0.00     0.003 A 
ATOM      5  C4  UNL d   1       0.844  -1.109   0.162  0.00  0.00    -0.005 A 
ATOM      6  C5  UNL d   1       0.072  -1.360   1.295  0.00  0.00     0.003 A 
ATOM      7  C6  UNL d   1      -0.821  -0.394   1.761  0.00  0.00    -0.001 A 
ENDROOT
TORSDOF 0
ENDMDL
