MODEL 1
REMARK minimizedAffinity -4.55093813
REMARK minimizedRMSD -1
REMARK  0 active torsions:
REMARK  status: ('A' for Active; 'I' for Inactive)
ROOT
ATOM      1  C   UNL d   1      -2.252   2.232   1.485  0.00  0.00     0.078 C 
ATOM      2  C1  UNL d   1      -1.173   1.417   0.837  0.00  0.00    -0.077 A 
ATOM      3  C2  UNL d   1      -0.715   0.231   1.424  0.00  0.00    -0.001 A 
ATOM      4  C3  UNL d   1       0.297  -0.513   0.815  0.00  0.00     0.003 A 
ATOM      5  C4  UNL d   1       0.860  -0.080  -0.383  0.00  0.00    -0.005 A 
ATOM      6  C5  UNL d   1       0.412   1.100  -0.974  0.00  0.00     0.003 A 
ATOM      7  C6  UNL d   1      -0.600   1.846  -0.366  0.00  0.00    -0.001 A 
ENDROOT
TORSDOF 0
ENDMDL
