MODEL 1
REMARK minimizedAffinity -4.76545143
REMARK minimizedRMSD -1
REMARK  0 active torsions:
REMARK  status: ('A' for Active; 'I' for Inactive)
ROOT
ATOM      1  C   UNL d   1      -2.187   2.196   0.901  0.00  0.00     0.078 C 
ATOM      2  C1  UNL d   1      -1.166   1.182   0.480  0.00  0.00    -0.077 A 
ATOM      3  C2  UNL d   1      -0.505   1.291  -0.749  0.00  0.00    -0.001 A 
ATOM      4  C3  UNL d   1       0.436   0.334  -1.133  0.00  0.00     0.003 A 
ATOM      5  C4  UNL d   1       0.723  -0.740  -0.293  0.00  0.00    -0.005 A 
ATOM      6  C5  UNL d   1       0.069  -0.859   0.932  0.00  0.00     0.003 A 
ATOM      7  C6  UNL d   1      -0.872   0.098   1.317  0.00  0.00    -0.001 A 
ENDROOT
TORSDOF 0
ENDMDL
