MODEL 1
REMARK minimizedAffinity 6.53823566
REMARK minimizedRMSD -1
REMARK  0 active torsions:
REMARK  status: ('A' for Active; 'I' for Inactive)
ROOT
ATOM      1  C1  BNZ d   1       0.390   1.524   1.160  0.00  0.00     0.000 A 
ATOM      2  C2  BNZ d   1       1.061   1.489  -0.033  0.00  0.00     0.000 A 
ATOM      3  C3  BNZ d   1       2.216   0.770  -0.166  0.00  0.00     0.000 A 
ATOM      4  C4  BNZ d   1       2.719   0.119   0.903  0.00  0.00     0.000 A 
ATOM      5  C5  BNZ d   1       2.059   0.152   2.115  0.00  0.00     0.000 A 
ATOM      6  C6  BNZ d   1       0.876   0.845   2.235  0.00  0.00     0.000 A 
ENDROOT
TORSDOF 0
ENDMDL
