MODEL 1
REMARK minimizedAffinity 0.0455566756
REMARK minimizedRMSD -1
REMARK  0 active torsions:
REMARK  status: ('A' for Active; 'I' for Inactive)
ROOT
ATOM      1  C1  BNZ d   1       3.640   5.499  -5.359  0.00  0.00     0.000 A 
ATOM      2  C2  BNZ d   1       3.698   4.453  -4.477  0.00  0.00     0.000 A 
ATOM      3  C3  BNZ d   1       4.882   3.821  -4.219  0.00  0.00     0.000 A 
ATOM      4  C4  BNZ d   1       5.997   4.209  -4.871  0.00  0.00     0.000 A 
ATOM      5  C5  BNZ d   1       5.953   5.256  -5.769  0.00  0.00     0.000 A 
ATOM      6  C6  BNZ d   1       4.767   5.916  -5.998  0.00  0.00     0.000 A 
ENDROOT
TORSDOF 0
ENDMDL
