MODEL 1
REMARK minimizedAffinity 2.27817702
REMARK minimizedRMSD -1
REMARK  0 active torsions:
REMARK  status: ('A' for Active; 'I' for Inactive)
ROOT
ATOM      1  C1  BNZ d   1      -2.584   2.764  -2.529  0.00  0.00     0.000 A 
ATOM      2  C2  BNZ d   1      -2.190   3.389  -3.681  0.00  0.00     0.000 A 
ATOM      3  C3  BNZ d   1      -1.489   4.562  -3.637  0.00  0.00     0.000 A 
ATOM      4  C4  BNZ d   1      -1.220   5.128  -2.442  0.00  0.00     0.000 A 
ATOM      5  C5  BNZ d   1      -1.619   4.514  -1.272  0.00  0.00     0.000 A 
ATOM      6  C6  BNZ d   1      -2.290   3.314  -1.320  0.00  0.00     0.000 A 
ENDROOT
TORSDOF 0
ENDMDL
