MODEL 1
REMARK minimizedAffinity 1.65748858
REMARK minimizedRMSD -1
REMARK  0 active torsions:
REMARK  status: ('A' for Active; 'I' for Inactive)
ROOT
ATOM      1  C1  BNZ d   1       5.097   5.990   3.385  0.00  0.00     0.000 A 
ATOM      2  C2  BNZ d   1       5.996   5.954   4.417  0.00  0.00     0.000 A 
ATOM      3  C3  BNZ d   1       5.569   5.911   5.715  0.00  0.00     0.000 A 
ATOM      4  C4  BNZ d   1       4.248   5.946   5.981  0.00  0.00     0.000 A 
ATOM      5  C5  BNZ d   1       3.329   5.992   4.951  0.00  0.00     0.000 A 
ATOM      6  C6  BNZ d   1       3.761   5.995   3.645  0.00  0.00     0.000 A 
ENDROOT
TORSDOF 0
ENDMDL
