MODEL 1
REMARK minimizedAffinity 0.169019178
REMARK minimizedRMSD -1
REMARK  0 active torsions:
REMARK  status: ('A' for Active; 'I' for Inactive)
ROOT
ATOM      1  C1  BNZ d   1       0.236   0.636   1.185  0.00  0.00     0.000 A 
ATOM      2  C2  BNZ d   1       0.516   1.958   1.411  0.00  0.00     0.000 A 
ATOM      3  C3  BNZ d   1       1.163   2.707   0.468  0.00  0.00     0.000 A 
ATOM      4  C4  BNZ d   1       1.565   2.126  -0.680  0.00  0.00     0.000 A 
ATOM      5  C5  BNZ d   1       1.299   0.792  -0.919  0.00  0.00     0.000 A 
ATOM      6  C6  BNZ d   1       0.612   0.050   0.015  0.00  0.00     0.000 A 
ENDROOT
TORSDOF 0
ENDMDL
