MODEL 1
REMARK minimizedAffinity -0.115707204
REMARK minimizedRMSD -1
REMARK  0 active torsions:
REMARK  status: ('A' for Active; 'I' for Inactive)
ROOT
ATOM      1  C1  BNZ d   1      -0.699   5.910  -3.612  0.00  0.00     0.000 A 
ATOM      2  C2  BNZ d   1      -1.336   6.000  -4.821  0.00  0.00     0.000 A 
ATOM      3  C3  BNZ d   1      -0.626   5.983  -5.989  0.00  0.00     0.000 A 
ATOM      4  C4  BNZ d   1       0.720   5.916  -5.946  0.00  0.00     0.000 A 
ATOM      5  C5  BNZ d   1       1.378   5.835  -4.735  0.00  0.00     0.000 A 
ATOM      6  C6  BNZ d   1       0.658   5.813  -3.562  0.00  0.00     0.000 A 
ENDROOT
TORSDOF 0
ENDMDL
