MODEL 1
REMARK minimizedAffinity -1.85475659
REMARK minimizedRMSD -1
REMARK  0 active torsions:
REMARK  status: ('A' for Active; 'I' for Inactive)
ROOT
ATOM      1  C1  BNZ d   1       3.285   5.009  -4.891  0.00  0.00     0.000 A 
ATOM      2  C2  BNZ d   1       2.700   4.098  -5.730  0.00  0.00     0.000 A 
ATOM      3  C3  BNZ d   1       1.359   4.146  -5.990  0.00  0.00     0.000 A 
ATOM      4  C4  BNZ d   1       0.598   5.079  -5.380  0.00  0.00     0.000 A 
ATOM      5  C5  BNZ d   1       1.172   5.998  -4.524  0.00  0.00     0.000 A 
ATOM      6  C6  BNZ d   1       2.528   5.971  -4.296  0.00  0.00     0.000 A 
ENDROOT
TORSDOF 0
ENDMDL
