MODEL 1
REMARK minimizedAffinity 0.638653398
REMARK minimizedRMSD -1
REMARK  0 active torsions:
REMARK  status: ('A' for Active; 'I' for Inactive)
ROOT
ATOM      1  C1  BNZ d   1      -1.547   5.940  -4.487  0.00  0.00     0.000 A 
ATOM      2  C2  BNZ d   1      -2.808   5.929  -5.022  0.00  0.00     0.000 A 
ATOM      3  C3  BNZ d   1      -3.911   5.978  -4.215  0.00  0.00     0.000 A 
ATOM      4  C4  BNZ d   1      -3.752   5.998  -2.876  0.00  0.00     0.000 A 
ATOM      5  C5  BNZ d   1      -2.488   6.000  -2.322  0.00  0.00     0.000 A 
ATOM      6  C6  BNZ d   1      -1.380   5.990  -3.137  0.00  0.00     0.000 A 
ENDROOT
TORSDOF 0
ENDMDL
