MODEL 1
REMARK minimizedAffinity 1.47100985
REMARK minimizedRMSD -1
REMARK  0 active torsions:
REMARK  status: ('A' for Active; 'I' for Inactive)
ROOT
ATOM      1  C1  BNZ d   1      -2.234   5.962  -2.323  0.00  0.00     0.000 A 
ATOM      2  C2  BNZ d   1      -2.696   5.956  -3.612  0.00  0.00     0.000 A 
ATOM      3  C3  BNZ d   1      -4.037   5.990  -3.875  0.00  0.00     0.000 A 
ATOM      4  C4  BNZ d   1      -4.913   5.989  -2.850  0.00  0.00     0.000 A 
ATOM      5  C5  BNZ d   1      -4.463   5.986  -1.545  0.00  0.00     0.000 A 
ATOM      6  C6  BNZ d   1      -3.112   5.991  -1.284  0.00  0.00     0.000 A 
ENDROOT
TORSDOF 0
ENDMDL
