MODEL 1
REMARK minimizedAffinity 2.88232207
REMARK minimizedRMSD -1
REMARK  0 active torsions:
REMARK  status: ('A' for Active; 'I' for Inactive)
ROOT
ATOM      1  C1  BNZ d   1      -3.833   5.962  -3.201  0.00  0.00     0.000 A 
ATOM      2  C2  BNZ d   1      -4.094   5.952  -1.857  0.00  0.00     0.000 A 
ATOM      3  C3  BNZ d   1      -3.075   5.992  -0.946  0.00  0.00     0.000 A 
ATOM      4  C4  BNZ d   1      -1.798   6.000  -1.380  0.00  0.00     0.000 A 
ATOM      5  C5  BNZ d   1      -1.519   6.000  -2.732  0.00  0.00     0.000 A 
ATOM      6  C6  BNZ d   1      -2.548   6.000  -3.646  0.00  0.00     0.000 A 
ENDROOT
TORSDOF 0
ENDMDL
