MODEL 1
REMARK minimizedAffinity 2.48582864
REMARK minimizedRMSD -1
REMARK  0 active torsions:
REMARK  status: ('A' for Active; 'I' for Inactive)
ROOT
ATOM      1  C1  BNZ d   1       0.685   0.011   0.451  0.00  0.00     0.000 A 
ATOM      2  C2  BNZ d   1      -0.482  -0.695   0.570  0.00  0.00     0.000 A 
ATOM      3  C3  BNZ d   1      -1.468  -0.278   1.421  0.00  0.00     0.000 A 
ATOM      4  C4  BNZ d   1      -1.269   0.819   2.179  0.00  0.00     0.000 A 
ATOM      5  C5  BNZ d   1      -0.094   1.537   2.076  0.00  0.00     0.000 A 
ATOM      6  C6  BNZ d   1       0.880   1.137   1.191  0.00  0.00     0.000 A 
ENDROOT
TORSDOF 0
ENDMDL
