MODEL 1
REMARK minimizedAffinity -1.15291822
REMARK minimizedRMSD -1
REMARK  0 active torsions:
REMARK  status: ('A' for Active; 'I' for Inactive)
ROOT
ATOM      1  C1  BNZ d   1       0.792   1.545  -1.333  0.00  0.00     0.000 A 
ATOM      2  C2  BNZ d   1       0.417   0.338  -0.805  0.00  0.00     0.000 A 
ATOM      3  C3  BNZ d   1       0.483   0.113   0.541  0.00  0.00     0.000 A 
ATOM      4  C4  BNZ d   1       0.961   1.078   1.353  0.00  0.00     0.000 A 
ATOM      5  C5  BNZ d   1       1.352   2.297   0.834  0.00  0.00     0.000 A 
ATOM      6  C6  BNZ d   1       1.248   2.534  -0.517  0.00  0.00     0.000 A 
ENDROOT
TORSDOF 0
ENDMDL
