MODEL 1
REMARK minimizedAffinity 1.14200246
REMARK minimizedRMSD -1
REMARK  0 active torsions:
REMARK  status: ('A' for Active; 'I' for Inactive)
ROOT
ATOM      1  C1  BNZ d   1      -0.088  -0.148   0.636  0.00  0.00     0.000 A 
ATOM      2  C2  BNZ d   1      -0.954   0.296   1.599  0.00  0.00     0.000 A 
ATOM      3  C3  BNZ d   1      -0.636   1.369   2.385  0.00  0.00     0.000 A 
ATOM      4  C4  BNZ d   1       0.562   1.969   2.234  0.00  0.00     0.000 A 
ATOM      5  C5  BNZ d   1       1.449   1.527   1.273  0.00  0.00     0.000 A 
ATOM      6  C6  BNZ d   1       1.110   0.472   0.458  0.00  0.00     0.000 A 
ENDROOT
TORSDOF 0
ENDMDL
