MODEL 1
REMARK minimizedAffinity -0.486364335
REMARK minimizedRMSD -1
REMARK  0 active torsions:
REMARK  status: ('A' for Active; 'I' for Inactive)
ROOT
ATOM      1  C1  BNZ d   1       0.670   1.225   2.624  0.00  0.00     0.000 A 
ATOM      2  C2  BNZ d   1      -0.308   0.446   2.065  0.00  0.00     0.000 A 
ATOM      3  C3  BNZ d   1      -0.311   0.182   0.724  0.00  0.00     0.000 A 
ATOM      4  C4  BNZ d   1       0.638   0.731  -0.062  0.00  0.00     0.000 A 
ATOM      5  C5  BNZ d   1       1.625   1.526   0.485  0.00  0.00     0.000 A 
ATOM      6  C6  BNZ d   1       1.648   1.757   1.842  0.00  0.00     0.000 A 
ENDROOT
TORSDOF 0
ENDMDL
