MODEL 1
REMARK minimizedAffinity 6.6411972
REMARK minimizedRMSD -1
REMARK  0 active torsions:
REMARK  status: ('A' for Active; 'I' for Inactive)
ROOT
ATOM      1  C1  BNZ d   1       0.090   1.573   0.163  0.00  0.00     0.000 A 
ATOM      2  C2  BNZ d   1      -0.167   2.530  -0.782  0.00  0.00     0.000 A 
ATOM      3  C3  BNZ d   1      -0.206   3.854  -0.445  0.00  0.00     0.000 A 
ATOM      4  C4  BNZ d   1      -0.029   4.216   0.842  0.00  0.00     0.000 A 
ATOM      5  C5  BNZ d   1       0.221   3.262   1.809  0.00  0.00     0.000 A 
ATOM      6  C6  BNZ d   1       0.298   1.933   1.459  0.00  0.00     0.000 A 
ENDROOT
TORSDOF 0
ENDMDL
