MODEL 1
REMARK minimizedAffinity 3.93857217
REMARK minimizedRMSD -1
REMARK  0 active torsions:
REMARK  status: ('A' for Active; 'I' for Inactive)
ROOT
ATOM      1  C1  BNZ d   1      -2.975  -5.983  -3.388  0.00  0.00     0.000 A 
ATOM      2  C2  BNZ d   1      -3.063  -5.992  -4.754  0.00  0.00     0.000 A 
ATOM      3  C3  BNZ d   1      -4.280  -5.980  -5.377  0.00  0.00     0.000 A 
ATOM      4  C4  BNZ d   1      -5.405  -5.999  -4.634  0.00  0.00     0.000 A 
ATOM      5  C5  BNZ d   1      -5.333  -6.000  -3.255  0.00  0.00     0.000 A 
ATOM      6  C6  BNZ d   1      -4.106  -5.972  -2.632  0.00  0.00     0.000 A 
ENDROOT
TORSDOF 0
ENDMDL
