MODEL 1
REMARK minimizedAffinity 7.26751328
REMARK minimizedRMSD -1
REMARK  0 active torsions:
REMARK  status: ('A' for Active; 'I' for Inactive)
ROOT
ATOM      1  C1  BNZ d   1      -5.568   5.405  -3.631  0.00  0.00     0.000 A 
ATOM      2  C2  BNZ d   1      -5.996   6.000  -4.788  0.00  0.00     0.000 A 
ATOM      3  C3  BNZ d   1      -5.999   5.312  -5.969  0.00  0.00     0.000 A 
ATOM      4  C4  BNZ d   1      -5.536   4.045  -6.000  0.00  0.00     0.000 A 
ATOM      5  C5  BNZ d   1      -5.092   3.435  -4.844  0.00  0.00     0.000 A 
ATOM      6  C6  BNZ d   1      -5.127   4.118  -3.649  0.00  0.00     0.000 A 
ENDROOT
TORSDOF 0
ENDMDL
