MODEL 1
REMARK minimizedAffinity 5.52734947
REMARK minimizedRMSD -1
REMARK  0 active torsions:
REMARK  status: ('A' for Active; 'I' for Inactive)
ROOT
ATOM      1  C1  BNZ d   1       0.171   4.422  -0.796  0.00  0.00     0.000 A 
ATOM      2  C2  BNZ d   1      -0.261   3.314  -0.116  0.00  0.00     0.000 A 
ATOM      3  C3  BNZ d   1       0.357   2.915   1.036  0.00  0.00     0.000 A 
ATOM      4  C4  BNZ d   1       1.430   3.599   1.484  0.00  0.00     0.000 A 
ATOM      5  C5  BNZ d   1       1.883   4.712   0.805  0.00  0.00     0.000 A 
ATOM      6  C6  BNZ d   1       1.235   5.134  -0.333  0.00  0.00     0.000 A 
ENDROOT
TORSDOF 0
ENDMDL
