MODEL 1
REMARK minimizedAffinity -4.28761959
REMARK minimizedRMSD -1
REMARK  0 active torsions:
REMARK  status: ('A' for Active; 'I' for Inactive)
ROOT
ATOM      1  N1  IND d   1       1.509   1.563  -0.263  0.00  0.00    -0.196 N 
ATOM      2  C2  IND d   1       0.156   1.752  -0.295  0.00  0.00     0.054 A 
ATOM      3  C3  IND d   1      -0.487   0.565  -0.231  0.00  0.00    -0.031 A 
ATOM      4  C4  IND d   1       0.480  -1.806   0.035  0.00  0.00     0.051 A 
ATOM      5  C5  IND d   1       1.663  -2.489   0.074  0.00  0.00    -0.031 A 
ATOM      6  C6  IND d   1       2.880  -1.843   0.004  0.00  0.00     0.015 A 
ATOM      7  C7  IND d   1       2.960  -0.483  -0.097  0.00  0.00    -0.016 A 
ATOM      8  C8  IND d   1       1.760   0.213  -0.144  0.00  0.00    -0.047 A 
ATOM      9  C9  IND d   1       0.522  -0.440  -0.115  0.00  0.00    -0.096 A 
ATOM     10  HN1 IND d   1       2.104   2.182  -0.309  0.00  0.00     0.298 HD
ENDROOT
TORSDOF 0
ENDMDL
