MODEL 1
REMARK minimizedAffinity -3.32499599
REMARK minimizedRMSD -1
REMARK  0 active torsions:
REMARK  status: ('A' for Active; 'I' for Inactive)
ROOT
ATOM      1  N1  IND d   1      -0.099  -0.047  -1.589  0.00  0.00    -0.196 N 
ATOM      2  C2  IND d   1       0.603  -0.953  -0.843  0.00  0.00     0.054 A 
ATOM      3  C3  IND d   1       0.127  -0.989   0.422  0.00  0.00    -0.031 A 
ATOM      4  C4  IND d   1      -1.860   0.277   1.460  0.00  0.00     0.051 A 
ATOM      5  C5  IND d   1      -2.784   1.244   1.181  0.00  0.00    -0.031 A 
ATOM      6  C6  IND d   1      -2.865   1.840  -0.061  0.00  0.00     0.015 A 
ATOM      7  C7  IND d   1      -2.027   1.482  -1.078  0.00  0.00    -0.016 A 
ATOM      8  C8  IND d   1      -1.082   0.505  -0.797  0.00  0.00    -0.047 A 
ATOM      9  C9  IND d   1      -0.968  -0.073   0.474  0.00  0.00    -0.096 A 
ATOM     10  HN1 IND d   1       0.050   0.146  -2.414  0.00  0.00     0.298 HD
ENDROOT
TORSDOF 0
ENDMDL
