MODEL 1
REMARK minimizedAffinity -0.170504898
REMARK minimizedRMSD -1
REMARK  0 active torsions:
REMARK  status: ('A' for Active; 'I' for Inactive)
ROOT
ATOM      1  N1  IND d   1       2.067  -1.586  -1.451  0.00  0.00    -0.196 N 
ATOM      2  C2  IND d   1       2.946  -1.187  -0.483  0.00  0.00     0.054 A 
ATOM      3  C3  IND d   1       2.314  -0.435   0.445  0.00  0.00    -0.031 A 
ATOM      4  C4  IND d   1      -0.179   0.183   0.629  0.00  0.00     0.051 A 
ATOM      5  C5  IND d   1      -1.366   0.080  -0.040  0.00  0.00    -0.031 A 
ATOM      6  C6  IND d   1      -1.472  -0.600  -1.236  0.00  0.00     0.015 A 
ATOM      7  C7  IND d   1      -0.393  -1.215  -1.805  0.00  0.00    -0.016 A 
ATOM      8  C8  IND d   1       0.816  -1.106  -1.132  0.00  0.00    -0.047 A 
ATOM      9  C9  IND d   1       0.939  -0.381   0.060  0.00  0.00    -0.096 A 
ATOM     10  HN1 IND d   1       2.263  -2.057  -2.143  0.00  0.00     0.298 HD
ENDROOT
TORSDOF 0
ENDMDL
