MODEL 1
REMARK minimizedAffinity -1.72355843
REMARK minimizedRMSD -1
REMARK  0 active torsions:
REMARK  status: ('A' for Active; 'I' for Inactive)
ROOT
ATOM      1  N1  IND d   1       0.108   1.374  -0.287  0.00  0.00    -0.196 N 
ATOM      2  C2  IND d   1      -1.164   0.877  -0.224  0.00  0.00     0.054 A 
ATOM      3  C3  IND d   1      -1.138  -0.474  -0.172  0.00  0.00    -0.031 A 
ATOM      4  C4  IND d   1       0.880  -2.069  -0.077  0.00  0.00     0.051 A 
ATOM      5  C5  IND d   1       2.245  -2.085  -0.146  0.00  0.00    -0.031 A 
ATOM      6  C6  IND d   1       2.982  -0.925  -0.265  0.00  0.00     0.015 A 
ATOM      7  C7  IND d   1       2.380   0.301  -0.309  0.00  0.00    -0.016 A 
ATOM      8  C8  IND d   1       0.994   0.320  -0.246  0.00  0.00    -0.047 A 
ATOM      9  C9  IND d   1       0.238  -0.857  -0.168  0.00  0.00    -0.096 A 
ATOM     10  HN1 IND d   1       0.319   2.206  -0.344  0.00  0.00     0.298 HD
ENDROOT
TORSDOF 0
ENDMDL
