MODEL 1
REMARK minimizedAffinity -0.551479638
REMARK minimizedRMSD -1
REMARK  0 active torsions:
REMARK  status: ('A' for Active; 'I' for Inactive)
ROOT
ATOM      1  N1  IND d   1       1.785   1.918   0.010  0.00  0.00    -0.196 N 
ATOM      2  C2  IND d   1       3.125   1.669   0.117  0.00  0.00     0.054 A 
ATOM      3  C3  IND d   1       3.369   0.345  -0.004  0.00  0.00    -0.031 A 
ATOM      4  C4  IND d   1       1.731  -1.583  -0.484  0.00  0.00     0.051 A 
ATOM      5  C5  IND d   1       0.399  -1.854  -0.625  0.00  0.00    -0.031 A 
ATOM      6  C6  IND d   1      -0.558  -0.862  -0.563  0.00  0.00     0.015 A 
ATOM      7  C7  IND d   1      -0.216   0.446  -0.369  0.00  0.00    -0.016 A 
ATOM      8  C8  IND d   1       1.135   0.725  -0.218  0.00  0.00    -0.047 A 
ATOM      9  C9  IND d   1       2.107  -0.283  -0.237  0.00  0.00    -0.096 A 
ATOM     10  HN1 IND d   1       1.412   2.689   0.074  0.00  0.00     0.298 HD
ENDROOT
TORSDOF 0
ENDMDL
