MODEL 1
REMARK minimizedAffinity -2.24439406
REMARK minimizedRMSD -1
REMARK  0 active torsions:
REMARK  status: ('A' for Active; 'I' for Inactive)
ROOT
ATOM      1  N1  IND d   1       0.286  -1.749   0.013  0.00  0.00    -0.196 N 
ATOM      2  C2  IND d   1       1.553  -2.109   0.377  0.00  0.00     0.054 A 
ATOM      3  C3  IND d   1       2.355  -1.022   0.430  0.00  0.00    -0.031 A 
ATOM      4  C4  IND d   1       1.774   1.458   0.056  0.00  0.00     0.051 A 
ATOM      5  C5  IND d   1       0.753   2.278  -0.332  0.00  0.00    -0.031 A 
ATOM      6  C6  IND d   1      -0.503   1.789  -0.629  0.00  0.00     0.015 A 
ATOM      7  C7  IND d   1      -0.788   0.456  -0.537  0.00  0.00    -0.016 A 
ATOM      8  C8  IND d   1       0.249  -0.381  -0.149  0.00  0.00    -0.047 A 
ATOM      9  C9  IND d   1       1.537   0.105   0.112  0.00  0.00    -0.096 A 
ATOM     10  HN1 IND d   1      -0.377  -2.286  -0.097  0.00  0.00     0.298 HD
ENDROOT
TORSDOF 0
ENDMDL
