MODEL 1
REMARK minimizedAffinity 1.11506605
REMARK minimizedRMSD -1
REMARK  0 active torsions:
REMARK  status: ('A' for Active; 'I' for Inactive)
ROOT
ATOM      1  N1  IND d   1       1.944   1.675  -0.684  0.00  0.00    -0.196 N 
ATOM      2  C2  IND d   1       1.061   2.572  -0.150  0.00  0.00     0.054 A 
ATOM      3  C3  IND d   1      -0.099   1.956   0.169  0.00  0.00    -0.031 A 
ATOM      4  C4  IND d   1      -0.731  -0.533  -0.005  0.00  0.00     0.051 A 
ATOM      5  C5  IND d   1      -0.266  -1.733  -0.466  0.00  0.00    -0.031 A 
ATOM      6  C6  IND d   1       0.986  -1.861  -1.032  0.00  0.00     0.015 A 
ATOM      7  C7  IND d   1       1.828  -0.791  -1.148  0.00  0.00    -0.016 A 
ATOM      8  C8  IND d   1       1.356   0.430  -0.688  0.00  0.00    -0.047 A 
ATOM      9  C9  IND d   1       0.070   0.574  -0.151  0.00  0.00    -0.096 A 
ATOM     10  HN1 IND d   1       2.735   1.859  -0.969  0.00  0.00     0.298 HD
ENDROOT
TORSDOF 0
ENDMDL
