MODEL 1
REMARK minimizedAffinity 0.308472276
REMARK minimizedRMSD -1
REMARK  0 active torsions:
REMARK  status: ('A' for Active; 'I' for Inactive)
ROOT
ATOM      1  C   UNL d   1      -0.542  -0.099  -0.869  0.00  0.00     0.078 C 
ATOM      2  C1  UNL d   1      -0.426   0.474   0.512  0.00  0.00    -0.077 A 
ATOM      3  C2  UNL d   1      -1.543   1.006   1.168  0.00  0.00    -0.001 A 
ATOM      4  C3  UNL d   1      -1.419   1.544   2.450  0.00  0.00     0.003 A 
ATOM      5  C4  UNL d   1      -0.179   1.557   3.086  0.00  0.00    -0.005 A 
ATOM      6  C5  UNL d   1       0.939   1.032   2.440  0.00  0.00     0.003 A 
ATOM      7  C6  UNL d   1       0.816   0.493   1.158  0.00  0.00    -0.001 A 
ENDROOT
TORSDOF 0
ENDMDL
