MODEL 1
REMARK minimizedAffinity 10.8819399
REMARK minimizedRMSD -1
REMARK  0 active torsions:
REMARK  status: ('A' for Active; 'I' for Inactive)
ROOT
ATOM      1  C   UNL d   1       5.238  -3.747   2.596  0.00  0.00     0.078 C 
ATOM      2  C1  UNL d   1       5.023  -2.317   2.995  0.00  0.00    -0.077 A 
ATOM      3  C2  UNL d   1       3.860  -1.632   2.623  0.00  0.00    -0.001 A 
ATOM      4  C3  UNL d   1       3.677  -0.298   2.993  0.00  0.00     0.003 A 
ATOM      5  C4  UNL d   1       4.654   0.362   3.736  0.00  0.00    -0.005 A 
ATOM      6  C5  UNL d   1       5.816  -0.311   4.109  0.00  0.00     0.003 A 
ATOM      7  C6  UNL d   1       6.000  -1.645   3.740  0.00  0.00    -0.001 A 
ENDROOT
TORSDOF 0
ENDMDL
