MODEL 1
REMARK minimizedAffinity 1.23552859
REMARK minimizedRMSD -1
REMARK  0 active torsions:
REMARK  status: ('A' for Active; 'I' for Inactive)
ROOT
ATOM      1  C   UNL d   1      -0.256  -1.998   2.619  0.00  0.00     0.078 C 
ATOM      2  C1  UNL d   1      -0.304  -1.531   1.194  0.00  0.00    -0.077 A 
ATOM      3  C2  UNL d   1       0.539  -0.509   0.742  0.00  0.00    -0.001 A 
ATOM      4  C3  UNL d   1       0.476  -0.078  -0.585  0.00  0.00     0.003 A 
ATOM      5  C4  UNL d   1      -0.428  -0.663  -1.468  0.00  0.00    -0.005 A 
ATOM      6  C5  UNL d   1      -1.272  -1.680  -1.026  0.00  0.00     0.003 A 
ATOM      7  C6  UNL d   1      -1.211  -2.112   0.299  0.00  0.00    -0.001 A 
ENDROOT
TORSDOF 0
ENDMDL
