MODEL 1
REMARK minimizedAffinity 0.694086432
REMARK minimizedRMSD -1
REMARK  0 active torsions:
REMARK  status: ('A' for Active; 'I' for Inactive)
ROOT
ATOM      1  C   UNL d   1       2.366   1.866   0.204  0.00  0.00     0.078 C 
ATOM      2  C1  UNL d   1       3.592   1.523   0.997  0.00  0.00    -0.077 A 
ATOM      3  C2  UNL d   1       4.863   1.929   0.571  0.00  0.00    -0.001 A 
ATOM      4  C3  UNL d   1       5.996   1.594   1.313  0.00  0.00     0.003 A 
ATOM      5  C4  UNL d   1       5.871   0.852   2.486  0.00  0.00    -0.005 A 
ATOM      6  C5  UNL d   1       4.610   0.442   2.917  0.00  0.00     0.003 A 
ATOM      7  C6  UNL d   1       3.476   0.776   2.175  0.00  0.00    -0.001 A 
ENDROOT
TORSDOF 0
ENDMDL
