MODEL 1
REMARK minimizedAffinity -1.03469658
REMARK minimizedRMSD -1
REMARK  0 active torsions:
REMARK  status: ('A' for Active; 'I' for Inactive)
ROOT
ATOM      1  C   UNL d   1       5.836   0.746   2.661  0.00  0.00     0.078 C 
ATOM      2  C1  UNL d   1       5.849  -0.352   3.683  0.00  0.00    -0.077 A 
ATOM      3  C2  UNL d   1       5.998  -1.691   3.300  0.00  0.00    -0.001 A 
ATOM      4  C3  UNL d   1       5.999  -2.703   4.261  0.00  0.00     0.003 A 
ATOM      5  C4  UNL d   1       5.851  -2.388   5.610  0.00  0.00    -0.005 A 
ATOM      6  C5  UNL d   1       5.701  -1.059   6.000  0.00  0.00     0.003 A 
ATOM      7  C6  UNL d   1       5.699  -0.045   5.041  0.00  0.00    -0.001 A 
ENDROOT
TORSDOF 0
ENDMDL
