MODEL 1
REMARK minimizedAffinity -1.37132597
REMARK minimizedRMSD -1
REMARK  0 active torsions:
REMARK  status: ('A' for Active; 'I' for Inactive)
ROOT
ATOM      1  C   UNL d   1       0.167  -2.178   3.200  0.00  0.00     0.078 C 
ATOM      2  C1  UNL d   1       0.313  -0.882   2.460  0.00  0.00    -0.077 A 
ATOM      3  C2  UNL d   1      -0.809  -0.197   1.978  0.00  0.00    -0.001 A 
ATOM      4  C3  UNL d   1      -0.658   1.004   1.283  0.00  0.00     0.003 A 
ATOM      5  C4  UNL d   1       0.613   1.530   1.062  0.00  0.00    -0.005 A 
ATOM      6  C5  UNL d   1       1.736   0.854   1.535  0.00  0.00     0.003 A 
ATOM      7  C6  UNL d   1       1.587  -0.347   2.231  0.00  0.00    -0.001 A 
ENDROOT
TORSDOF 0
ENDMDL
