MODEL 1
REMARK minimizedAffinity -0.00102634181
REMARK minimizedRMSD -1
REMARK  0 active torsions:
REMARK  status: ('A' for Active; 'I' for Inactive)
ROOT
ATOM      1  C   UNL d   1       1.099   0.880  -1.423  0.00  0.00     0.078 C 
ATOM      2  C1  UNL d   1       2.073   0.937  -2.561  0.00  0.00    -0.077 A 
ATOM      3  C2  UNL d   1       2.241   2.109  -3.309  0.00  0.00    -0.001 A 
ATOM      4  C3  UNL d   1       3.145   2.145  -4.372  0.00  0.00     0.003 A 
ATOM      5  C4  UNL d   1       3.888   1.012  -4.697  0.00  0.00    -0.005 A 
ATOM      6  C5  UNL d   1       3.727  -0.159  -3.960  0.00  0.00     0.003 A 
ATOM      7  C6  UNL d   1       2.823  -0.197  -2.897  0.00  0.00    -0.001 A 
ENDROOT
TORSDOF 0
ENDMDL
