MODEL 1
REMARK minimizedAffinity -2.64723992
REMARK minimizedRMSD -1
REMARK  0 active torsions:
REMARK  status: ('A' for Active; 'I' for Inactive)
ROOT
ATOM      1  C   UNL d   1       4.209  -5.253   5.782  0.00  0.00     0.078 C 
ATOM      2  C1  UNL d   1       4.842  -4.099   5.062  0.00  0.00    -0.077 A 
ATOM      3  C2  UNL d   1       5.403  -3.029   5.769  0.00  0.00    -0.001 A 
ATOM      4  C3  UNL d   1       5.980  -1.957   5.085  0.00  0.00     0.003 A 
ATOM      5  C4  UNL d   1       6.000  -1.944   3.692  0.00  0.00    -0.005 A 
ATOM      6  C5  UNL d   1       5.442  -3.004   2.980  0.00  0.00     0.003 A 
ATOM      7  C6  UNL d   1       4.864  -4.077   3.662  0.00  0.00    -0.001 A 
ENDROOT
TORSDOF 0
ENDMDL
