MODEL 1
REMARK minimizedAffinity 5.38092518
REMARK minimizedRMSD -1
REMARK  0 active torsions:
REMARK  status: ('A' for Active; 'I' for Inactive)
ROOT
ATOM      1  C   UNL d   1       3.682  -1.183  -3.420  0.00  0.00     0.078 C 
ATOM      2  C1  UNL d   1       3.070   0.059  -2.843  0.00  0.00    -0.077 A 
ATOM      3  C2  UNL d   1       2.528   1.048  -3.672  0.00  0.00    -0.001 A 
ATOM      4  C3  UNL d   1       1.970   2.203  -3.122  0.00  0.00     0.003 A 
ATOM      5  C4  UNL d   1       1.950   2.380  -1.740  0.00  0.00    -0.005 A 
ATOM      6  C5  UNL d   1       2.490   1.402  -0.907  0.00  0.00     0.003 A 
ATOM      7  C6  UNL d   1       3.048   0.247  -1.455  0.00  0.00    -0.001 A 
ENDROOT
TORSDOF 0
ENDMDL
