MODEL 1
REMARK minimizedAffinity -0.419393688
REMARK minimizedRMSD -1
REMARK  0 active torsions:
REMARK  status: ('A' for Active; 'I' for Inactive)
ROOT
ATOM      1  C   UNL d   1      -2.829  -0.158  -3.330  0.00  0.00     0.078 C 
ATOM      2  C1  UNL d   1      -2.294  -0.237  -1.931  0.00  0.00    -0.077 A 
ATOM      3  C2  UNL d   1      -2.518  -1.367  -1.136  0.00  0.00    -0.001 A 
ATOM      4  C3  UNL d   1      -2.023  -1.423   0.168  0.00  0.00     0.003 A 
ATOM      5  C4  UNL d   1      -1.302  -0.350   0.688  0.00  0.00    -0.005 A 
ATOM      6  C5  UNL d   1      -1.075   0.780  -0.095  0.00  0.00     0.003 A 
ATOM      7  C6  UNL d   1      -1.570   0.837  -1.399  0.00  0.00    -0.001 A 
ENDROOT
TORSDOF 0
ENDMDL
