MODEL 1
REMARK minimizedAffinity 6.34156322
REMARK minimizedRMSD -1
REMARK  0 active torsions:
REMARK  status: ('A' for Active; 'I' for Inactive)
ROOT
ATOM      1  C   UNL d   1       0.435   1.117  -0.527  0.00  0.00     0.078 C 
ATOM      2  C1  UNL d   1       0.182  -0.119   0.284  0.00  0.00    -0.077 A 
ATOM      3  C2  UNL d   1      -1.025  -0.820   0.172  0.00  0.00    -0.001 A 
ATOM      4  C3  UNL d   1      -1.251  -1.963   0.940  0.00  0.00     0.003 A 
ATOM      5  C4  UNL d   1      -0.275  -2.415   1.826  0.00  0.00    -0.005 A 
ATOM      6  C5  UNL d   1       0.928  -1.722   1.946  0.00  0.00     0.003 A 
ATOM      7  C6  UNL d   1       1.156  -0.579   1.179  0.00  0.00    -0.001 A 
ENDROOT
TORSDOF 0
ENDMDL
