MODEL 1
REMARK minimizedAffinity -1.24859595
REMARK minimizedRMSD -1
REMARK  0 active torsions:
REMARK  status: ('A' for Active; 'I' for Inactive)
ROOT
ATOM      1  C   UNL d   1       4.936  -4.553   5.971  0.00  0.00     0.078 C 
ATOM      2  C1  UNL d   1       5.304  -3.277   5.273  0.00  0.00    -0.077 A 
ATOM      3  C2  UNL d   1       5.653  -2.133   6.000  0.00  0.00    -0.001 A 
ATOM      4  C3  UNL d   1       5.984  -0.950   5.337  0.00  0.00     0.003 A 
ATOM      5  C4  UNL d   1       5.968  -0.899   3.945  0.00  0.00    -0.005 A 
ATOM      6  C5  UNL d   1       5.620  -2.033   3.213  0.00  0.00     0.003 A 
ATOM      7  C6  UNL d   1       5.288  -3.217   3.874  0.00  0.00    -0.001 A 
ENDROOT
TORSDOF 0
ENDMDL
