MODEL 1
REMARK minimizedAffinity 4.1106472
REMARK minimizedRMSD -1
REMARK  0 active torsions:
REMARK  status: ('A' for Active; 'I' for Inactive)
ROOT
ATOM      1  C   UNL d   1      -1.879   0.357   1.007  0.00  0.00     0.078 C 
ATOM      2  C1  UNL d   1      -3.271   0.470   1.554  0.00  0.00    -0.077 A 
ATOM      3  C2  UNL d   1      -4.022  -0.672   1.856  0.00  0.00    -0.001 A 
ATOM      4  C3  UNL d   1      -5.320  -0.552   2.355  0.00  0.00     0.003 A 
ATOM      5  C4  UNL d   1      -5.878   0.709   2.557  0.00  0.00    -0.005 A 
ATOM      6  C5  UNL d   1      -5.139   1.851   2.257  0.00  0.00     0.003 A 
ATOM      7  C6  UNL d   1      -3.841   1.733   1.757  0.00  0.00    -0.001 A 
ENDROOT
TORSDOF 0
ENDMDL
