MODEL 1
REMARK minimizedAffinity 6.52285528
REMARK minimizedRMSD -1
REMARK  0 active torsions:
REMARK  status: ('A' for Active; 'I' for Inactive)
ROOT
ATOM      1  C   UNL d   1      -5.097  -0.471   2.356  0.00  0.00     0.078 C 
ATOM      2  C1  UNL d   1      -3.765   0.021   1.876  0.00  0.00    -0.077 A 
ATOM      3  C2  UNL d   1      -3.434   1.380   1.934  0.00  0.00    -0.001 A 
ATOM      4  C3  UNL d   1      -2.193   1.825   1.474  0.00  0.00     0.003 A 
ATOM      5  C4  UNL d   1      -1.274   0.917   0.952  0.00  0.00    -0.005 A 
ATOM      6  C5  UNL d   1      -1.595  -0.437   0.888  0.00  0.00     0.003 A 
ATOM      7  C6  UNL d   1      -2.835  -0.884   1.347  0.00  0.00    -0.001 A 
ENDROOT
TORSDOF 0
ENDMDL
