MODEL 1
REMARK minimizedAffinity 5.23372746
REMARK minimizedRMSD -1
REMARK  0 active torsions:
REMARK  status: ('A' for Active; 'I' for Inactive)
ROOT
ATOM      1  C   UNL d   1       2.879  -0.714  -1.441  0.00  0.00     0.078 C 
ATOM      2  C1  UNL d   1       3.263  -0.854  -2.884  0.00  0.00    -0.077 A 
ATOM      3  C2  UNL d   1       2.471  -1.592  -3.772  0.00  0.00    -0.001 A 
ATOM      4  C3  UNL d   1       2.845  -1.722  -5.110  0.00  0.00     0.003 A 
ATOM      5  C4  UNL d   1       4.013  -1.118  -5.572  0.00  0.00    -0.005 A 
ATOM      6  C5  UNL d   1       4.808  -0.384  -4.695  0.00  0.00     0.003 A 
ATOM      7  C6  UNL d   1       4.436  -0.253  -3.357  0.00  0.00    -0.001 A 
ENDROOT
TORSDOF 0
ENDMDL
