MODEL 1
REMARK minimizedAffinity 1.46225274
REMARK minimizedRMSD -1
REMARK  2 active torsions:
REMARK  status: ('A' for Active; 'I' for Inactive)
REMARK    1  A    between atoms: C2'_3  and  C1'_4 
REMARK    2  A    between atoms: C1'_4  and  C1_5 
ROOT
ATOM      1  C1  I4B d   1      -2.198   1.608  -4.731  0.00  0.00    -0.075 A 
ATOM      2  C2  I4B d   1      -2.707   2.177  -3.590  0.00  0.00     0.003 A 
ATOM      3  C3  I4B d   1      -1.940   3.116  -2.859  0.00  0.00     0.002 A 
ATOM      4  C4  I4B d   1      -0.658   3.417  -3.274  0.00  0.00    -0.004 A 
ATOM      5  C5  I4B d   1      -0.153   2.856  -4.443  0.00  0.00     0.002 A 
ATOM      6  C6  I4B d   1      -0.932   1.955  -5.184  0.00  0.00     0.003 A 
ENDROOT
BRANCH   1   7
ATOM      7  C1' I4B d   1      -3.023   0.595  -5.461  0.00  0.00     0.060 C 
BRANCH   7   8
ATOM      8  C2' I4B d   1      -4.003  -0.006  -4.474  0.00  0.00    -0.013 C 
ATOM      9  C4' I4B d   1      -5.334  -0.278  -5.125  0.00  0.00     0.013 C 
ATOM     10  C3' I4B d   1      -3.399  -1.267  -3.931  0.00  0.00     0.013 C 
ENDBRANCH   7   8
ENDBRANCH   1   7
TORSDOF 2
ENDMDL
