MODEL 1
REMARK minimizedAffinity -1.33850026
REMARK minimizedRMSD -1
REMARK  2 active torsions:
REMARK  status: ('A' for Active; 'I' for Inactive)
REMARK    1  A    between atoms: C2'_3  and  C1'_4 
REMARK    2  A    between atoms: C1'_4  and  C1_5 
ROOT
ATOM      1  C1  I4B d   1       4.092   4.642   3.537  0.00  0.00    -0.075 A 
ATOM      2  C2  I4B d   1       5.047   5.625   3.469  0.00  0.00     0.003 A 
ATOM      3  C3  I4B d   1       5.999   5.624   2.422  0.00  0.00     0.002 A 
ATOM      4  C4  I4B d   1       5.992   4.599   1.498  0.00  0.00    -0.004 A 
ATOM      5  C5  I4B d   1       5.009   3.615   1.555  0.00  0.00     0.002 A 
ATOM      6  C6  I4B d   1       4.046   3.643   2.573  0.00  0.00     0.003 A 
ENDROOT
BRANCH   1   7
ATOM      7  C1' I4B d   1       3.122   4.655   4.675  0.00  0.00     0.060 C 
BRANCH   7   8
ATOM      8  C2' I4B d   1       2.318   5.937   4.588  0.00  0.00    -0.013 C 
ATOM      9  C4' I4B d   1       1.530   5.999   3.307  0.00  0.00     0.013 C 
ATOM     10  C3' I4B d   1       1.415   5.998   5.784  0.00  0.00     0.013 C 
ENDBRANCH   7   8
ENDBRANCH   1   7
TORSDOF 2
ENDMDL
