MODEL 1
REMARK minimizedAffinity 4.75061035
REMARK minimizedRMSD -1
REMARK  2 active torsions:
REMARK  status: ('A' for Active; 'I' for Inactive)
REMARK    1  A    between atoms: C2'_3  and  C1'_4 
REMARK    2  A    between atoms: C1'_4  and  C1_5 
ROOT
ATOM      1  C1  I4B d   1       0.870  -1.199   0.808  0.00  0.00    -0.075 A 
ATOM      2  C2  I4B d   1       0.010  -0.251   1.303  0.00  0.00     0.003 A 
ATOM      3  C3  I4B d   1      -0.785  -0.534   2.440  0.00  0.00     0.002 A 
ATOM      4  C4  I4B d   1      -0.726  -1.787   3.015  0.00  0.00    -0.004 A 
ATOM      5  C5  I4B d   1       0.163  -2.739   2.526  0.00  0.00     0.002 A 
ATOM      6  C6  I4B d   1       0.976  -2.439   1.423  0.00  0.00     0.003 A 
ENDROOT
BRANCH   1   7
ATOM      7  C1' I4B d   1       1.672  -0.877  -0.414  0.00  0.00     0.060 C 
BRANCH   7   8
ATOM      8  C2' I4B d   1       2.253   0.511  -0.238  0.00  0.00    -0.013 C 
ATOM      9  C4' I4B d   1       3.663   0.450   0.287  0.00  0.00     0.013 C 
ATOM     10  C3' I4B d   1       2.199   1.207  -1.566  0.00  0.00     0.013 C 
ENDBRANCH   7   8
ENDBRANCH   1   7
TORSDOF 2
ENDMDL
