MODEL 1
REMARK minimizedAffinity -3.40546203
REMARK minimizedRMSD -1
REMARK  2 active torsions:
REMARK  status: ('A' for Active; 'I' for Inactive)
REMARK    1  A    between atoms: C2'_3  and  C1'_4 
REMARK    2  A    between atoms: C1'_4  and  C1_5 
ROOT
ATOM      1  C1  I4B d   1       4.831   5.767   3.899  0.00  0.00    -0.075 A 
ATOM      2  C2  I4B d   1       5.983   5.976   3.182  0.00  0.00     0.003 A 
ATOM      3  C3  I4B d   1       6.000   5.764   1.782  0.00  0.00     0.002 A 
ATOM      4  C4  I4B d   1       4.865   5.298   1.152  0.00  0.00    -0.004 A 
ATOM      5  C5  I4B d   1       3.691   5.108   1.876  0.00  0.00     0.002 A 
ATOM      6  C6  I4B d   1       3.670   5.356   3.256  0.00  0.00     0.003 A 
ENDROOT
BRANCH   1   7
ATOM      7  C1' I4B d   1       4.857   5.968   5.381  0.00  0.00     0.060 C 
BRANCH   7   8
ATOM      8  C2' I4B d   1       3.629   5.300   5.965  0.00  0.00    -0.013 C 
ATOM      9  C4' I4B d   1       2.369   6.000   5.530  0.00  0.00     0.013 C 
ATOM     10  C3' I4B d   1       3.631   3.865   5.527  0.00  0.00     0.013 C 
ENDBRANCH   7   8
ENDBRANCH   1   7
TORSDOF 2
ENDMDL
