MODEL 1
REMARK minimizedAffinity 1.00536859
REMARK minimizedRMSD -1
REMARK  2 active torsions:
REMARK  status: ('A' for Active; 'I' for Inactive)
REMARK    1  A    between atoms: C2'_3  and  C1'_4 
REMARK    2  A    between atoms: C1'_4  and  C1_5 
ROOT
ATOM      1  C1  I4B d   1       1.704   0.420  -1.917  0.00  0.00    -0.075 A 
ATOM      2  C2  I4B d   1       0.906   1.536  -1.949  0.00  0.00     0.003 A 
ATOM      3  C3  I4B d   1       1.347   2.709  -2.609  0.00  0.00     0.002 A 
ATOM      4  C4  I4B d   1       2.605   2.738  -3.176  0.00  0.00    -0.004 A 
ATOM      5  C5  I4B d   1       3.404   1.598  -3.162  0.00  0.00     0.002 A 
ATOM      6  C6  I4B d   1       2.946   0.427  -2.540  0.00  0.00     0.003 A 
ENDROOT
BRANCH   1   7
ATOM      7  C1' I4B d   1       1.221  -0.790  -1.183  0.00  0.00     0.060 C 
BRANCH   7   8
ATOM      8  C2' I4B d   1      -0.058  -0.419  -0.460  0.00  0.00    -0.013 C 
ATOM      9  C4' I4B d   1      -1.264  -0.994  -1.155  0.00  0.00     0.013 C 
ATOM     10  C3' I4B d   1       0.045  -0.919   0.950  0.00  0.00     0.013 C 
ENDBRANCH   7   8
ENDBRANCH   1   7
TORSDOF 2
ENDMDL
