MODEL 1
REMARK minimizedAffinity 4.75351572
REMARK minimizedRMSD -1
REMARK  2 active torsions:
REMARK  status: ('A' for Active; 'I' for Inactive)
REMARK    1  A    between atoms: C1_2  and  C2_3 
REMARK    2  A    between atoms: C2_3  and  C3_4 
ROOT
ATOM      1  C3  UNL d   1      -0.842  -0.397   1.097  0.00  0.00    -0.075 A 
ATOM      2  C4  UNL d   1      -1.985  -0.084   0.347  0.00  0.00     0.002 A 
ATOM      3  C5  UNL d   1      -1.941  -0.087  -1.047  0.00  0.00     0.002 A 
ATOM      4  C6  UNL d   1      -0.754  -0.393  -1.709  0.00  0.00    -0.004 A 
ATOM      5  C7  UNL d   1       0.392  -0.689  -0.974  0.00  0.00     0.002 A 
ATOM      6  C8  UNL d   1       0.350  -0.691   0.421  0.00  0.00     0.002 A 
ENDROOT
BRANCH   1   7
ATOM      7  C2  UNL d   1      -0.891  -0.423   2.606  0.00  0.00     0.056 C 
BRANCH   7   8
ATOM      8  C1  UNL d   1      -0.562  -1.790   3.216  0.00  0.00     0.007 C 
ATOM      9  C   UNL d   1      -1.700  -2.794   3.091  0.00  0.00     0.009 C 
ENDBRANCH   7   8
ENDBRANCH   1   7
TORSDOF 2
ENDMDL
