MODEL 1
REMARK minimizedAffinity 4.38640738
REMARK minimizedRMSD -1
REMARK  2 active torsions:
REMARK  status: ('A' for Active; 'I' for Inactive)
REMARK    1  A    between atoms: C1_2  and  C2_3 
REMARK    2  A    between atoms: C2_3  and  C3_4 
ROOT
ATOM      1  C3  UNL d   1       0.021  -0.427   0.389  0.00  0.00    -0.075 A 
ATOM      2  C4  UNL d   1      -1.283  -0.173  -0.059  0.00  0.00     0.002 A 
ATOM      3  C5  UNL d   1      -2.345  -0.122   0.844  0.00  0.00     0.002 A 
ATOM      4  C6  UNL d   1      -2.119  -0.334   2.202  0.00  0.00    -0.004 A 
ATOM      5  C7  UNL d   1      -0.829  -0.604   2.656  0.00  0.00     0.002 A 
ATOM      6  C8  UNL d   1       0.236  -0.651   1.755  0.00  0.00     0.002 A 
ENDROOT
BRANCH   1   7
ATOM      7  C2  UNL d   1       1.179  -0.453  -0.580  0.00  0.00     0.056 C 
BRANCH   7   8
ATOM      8  C1  UNL d   1       1.584   0.928  -1.106  0.00  0.00     0.007 C 
ATOM      9  C   UNL d   1       3.009   1.317  -0.735  0.00  0.00     0.009 C 
ENDBRANCH   7   8
ENDBRANCH   1   7
TORSDOF 2
ENDMDL
