MODEL 1
REMARK minimizedAffinity -2.62498713
REMARK minimizedRMSD -1
REMARK  2 active torsions:
REMARK  status: ('A' for Active; 'I' for Inactive)
REMARK    1  A    between atoms: C1_2  and  C2_3 
REMARK    2  A    between atoms: C2_3  and  C3_4 
ROOT
ATOM      1  C3  UNL d   1       0.011  -1.683   2.083  0.00  0.00    -0.075 A 
ATOM      2  C4  UNL d   1       1.026  -2.553   1.660  0.00  0.00     0.002 A 
ATOM      3  C5  UNL d   1       1.193  -3.797   2.270  0.00  0.00     0.002 A 
ATOM      4  C6  UNL d   1       0.356  -4.181   3.315  0.00  0.00    -0.004 A 
ATOM      5  C7  UNL d   1      -0.645  -3.318   3.754  0.00  0.00     0.002 A 
ATOM      6  C8  UNL d   1      -0.818  -2.075   3.143  0.00  0.00     0.002 A 
ENDROOT
BRANCH   1   7
ATOM      7  C2  UNL d   1      -0.194  -0.348   1.407  0.00  0.00     0.056 C 
BRANCH   7   8
ATOM      8  C1  UNL d   1      -1.389  -0.312   0.448  0.00  0.00     0.007 C 
ATOM      9  C   UNL d   1      -0.991  -0.474  -1.013  0.00  0.00     0.009 C 
ENDBRANCH   7   8
ENDBRANCH   1   7
TORSDOF 2
ENDMDL
