MODEL 1
REMARK minimizedAffinity 4.32038832
REMARK minimizedRMSD -1
REMARK  2 active torsions:
REMARK  status: ('A' for Active; 'I' for Inactive)
REMARK    1  A    between atoms: C1_2  and  C2_3 
REMARK    2  A    between atoms: C2_3  and  C3_4 
ROOT
ATOM      1  C3  UNL d   1       0.794  -2.140   1.178  0.00  0.00    -0.075 A 
ATOM      2  C4  UNL d   1       0.283  -1.177   0.295  0.00  0.00     0.002 A 
ATOM      3  C5  UNL d   1      -0.710  -0.290   0.712  0.00  0.00     0.002 A 
ATOM      4  C6  UNL d   1      -1.211  -0.361   2.010  0.00  0.00    -0.004 A 
ATOM      5  C7  UNL d   1      -0.722  -1.324   2.890  0.00  0.00     0.002 A 
ATOM      6  C8  UNL d   1       0.274  -2.210   2.477  0.00  0.00     0.002 A 
ENDROOT
BRANCH   1   7
ATOM      7  C2  UNL d   1       1.890  -3.083   0.742  0.00  0.00     0.056 C 
BRANCH   7   8
ATOM      8  C1  UNL d   1       2.016  -4.337   1.613  0.00  0.00     0.007 C 
ATOM      9  C   UNL d   1       3.441  -4.601   2.082  0.00  0.00     0.009 C 
ENDBRANCH   7   8
ENDBRANCH   1   7
TORSDOF 2
ENDMDL
