MODEL 1
REMARK minimizedAffinity -2.08860326
REMARK minimizedRMSD -1
REMARK  2 active torsions:
REMARK  status: ('A' for Active; 'I' for Inactive)
REMARK    1  A    between atoms: C1_2  and  C2_3 
REMARK    2  A    between atoms: C2_3  and  C3_4 
ROOT
ATOM      1  C3  UNL d   1      -0.477   0.877  -0.675  0.00  0.00    -0.075 A 
ATOM      2  C4  UNL d   1      -0.000   0.770   0.639  0.00  0.00     0.002 A 
ATOM      3  C5  UNL d   1      -0.432  -0.267   1.467  0.00  0.00     0.002 A 
ATOM      4  C6  UNL d   1      -1.352  -1.201   0.996  0.00  0.00    -0.004 A 
ATOM      5  C7  UNL d   1      -1.846  -1.094  -0.302  0.00  0.00     0.002 A 
ATOM      6  C8  UNL d   1      -1.412  -0.061  -1.134  0.00  0.00     0.002 A 
ENDROOT
BRANCH   1   7
ATOM      7  C2  UNL d   1       0.008   1.980  -1.585  0.00  0.00     0.056 C 
BRANCH   7   8
ATOM      8  C1  UNL d   1      -0.961   2.323  -2.721  0.00  0.00     0.007 C 
ATOM      9  C   UNL d   1      -1.603   3.696  -2.568  0.00  0.00     0.009 C 
ENDBRANCH   7   8
ENDBRANCH   1   7
TORSDOF 2
ENDMDL
