MODEL 1
REMARK minimizedAffinity 14.6065273
REMARK minimizedRMSD -1
REMARK  0 active torsions:
REMARK  status: ('A' for Active; 'I' for Inactive)
ROOT
ATOM      1  C   UNL d   1       1.245   1.514  -2.765  0.00  0.00     0.077 C 
ATOM      2  C1  UNL d   1       1.930   1.143  -1.484  0.00  0.00    -0.074 A 
ATOM      3  C2  UNL d   1       2.693  -0.025  -1.388  0.00  0.00    -0.005 A 
ATOM      4  C3  UNL d   1       3.332  -0.352  -0.192  0.00  0.00     0.006 A 
ATOM      5  C4  UNL d   1       3.215   0.485   0.918  0.00  0.00    -0.005 A 
ATOM      6  C5  UNL d   1       2.458   1.658   0.841  0.00  0.00    -0.074 A 
ATOM      7  C6  UNL d   1       2.330   2.573   2.022  0.00  0.00     0.077 C 
ATOM      8  C7  UNL d   1       1.824   1.983  -0.366  0.00  0.00    -0.001 A 
ENDROOT
TORSDOF 0
ENDMDL
