MODEL 1
REMARK minimizedAffinity 13.3072577
REMARK minimizedRMSD -1
REMARK  0 active torsions:
REMARK  status: ('A' for Active; 'I' for Inactive)
ROOT
ATOM      1  C   UNL d   1       4.344  -3.381  -0.519  0.00  0.00     0.077 C 
ATOM      2  C1  UNL d   1       3.034  -2.817  -0.980  0.00  0.00    -0.074 A 
ATOM      3  C2  UNL d   1       2.810  -1.436  -0.991  0.00  0.00    -0.005 A 
ATOM      4  C3  UNL d   1       1.589  -0.925  -1.431  0.00  0.00     0.006 A 
ATOM      5  C4  UNL d   1       0.582  -1.788  -1.865  0.00  0.00    -0.005 A 
ATOM      6  C5  UNL d   1       0.788  -3.171  -1.863  0.00  0.00    -0.074 A 
ATOM      7  C6  UNL d   1      -0.281  -4.112  -2.335  0.00  0.00     0.077 C 
ATOM      8  C7  UNL d   1       2.020  -3.677  -1.425  0.00  0.00    -0.001 A 
ENDROOT
TORSDOF 0
ENDMDL
