MODEL 1
REMARK minimizedAffinity 12.1211042
REMARK minimizedRMSD -1
REMARK  0 active torsions:
REMARK  status: ('A' for Active; 'I' for Inactive)
ROOT
ATOM      1  C   UNL d   1       2.268  -2.167  -0.455  0.00  0.00     0.077 C 
ATOM      2  C1  UNL d   1       2.702  -3.509  -0.966  0.00  0.00    -0.074 A 
ATOM      3  C2  UNL d   1       1.860  -4.622  -0.870  0.00  0.00    -0.005 A 
ATOM      4  C3  UNL d   1       2.273  -5.861  -1.359  0.00  0.00     0.006 A 
ATOM      5  C4  UNL d   1       3.531  -6.000  -1.947  0.00  0.00    -0.005 A 
ATOM      6  C5  UNL d   1       4.386  -4.898  -2.053  0.00  0.00    -0.074 A 
ATOM      7  C6  UNL d   1       5.737  -5.028  -2.691  0.00  0.00     0.077 C 
ATOM      8  C7  UNL d   1       3.961  -3.655  -1.566  0.00  0.00    -0.001 A 
ENDROOT
TORSDOF 0
ENDMDL
