MODEL 1
REMARK minimizedAffinity 9.45517254
REMARK minimizedRMSD -1
REMARK  0 active torsions:
REMARK  status: ('A' for Active; 'I' for Inactive)
ROOT
ATOM      1  C   UNL d   1       3.790   4.353   5.969  0.00  0.00     0.077 C 
ATOM      2  C1  UNL d   1       3.283   3.124   5.274  0.00  0.00    -0.074 A 
ATOM      3  C2  UNL d   1       2.941   1.978   5.998  0.00  0.00    -0.005 A 
ATOM      4  C3  UNL d   1       2.462   0.846   5.338  0.00  0.00     0.006 A 
ATOM      5  C4  UNL d   1       2.321   0.849   3.950  0.00  0.00    -0.005 A 
ATOM      6  C5  UNL d   1       2.658   1.987   3.209  0.00  0.00    -0.074 A 
ATOM      7  C6  UNL d   1       2.503   2.010   1.717  0.00  0.00     0.077 C 
ATOM      8  C7  UNL d   1       3.132   3.122   3.880  0.00  0.00    -0.001 A 
ENDROOT
TORSDOF 0
ENDMDL
