MODEL 1
REMARK minimizedAffinity 7.75256205
REMARK minimizedRMSD -1
REMARK  0 active torsions:
REMARK  status: ('A' for Active; 'I' for Inactive)
ROOT
ATOM      1  C   UNL d   1       3.263   2.299   1.626  0.00  0.00     0.077 C 
ATOM      2  C1  UNL d   1       3.050   1.181   0.649  0.00  0.00    -0.074 A 
ATOM      3  C2  UNL d   1       2.118   1.301  -0.387  0.00  0.00    -0.005 A 
ATOM      4  C3  UNL d   1       1.937   0.257  -1.294  0.00  0.00     0.006 A 
ATOM      5  C4  UNL d   1       2.684  -0.915  -1.175  0.00  0.00    -0.005 A 
ATOM      6  C5  UNL d   1       3.621  -1.053  -0.146  0.00  0.00    -0.074 A 
ATOM      7  C6  UNL d   1       4.440  -2.302  -0.009  0.00  0.00     0.077 C 
ATOM      8  C7  UNL d   1       3.802   0.004   0.758  0.00  0.00    -0.001 A 
ENDROOT
TORSDOF 0
ENDMDL
