MODEL 1
REMARK minimizedAffinity 7.56492186
REMARK minimizedRMSD -1
REMARK  0 active torsions:
REMARK  status: ('A' for Active; 'I' for Inactive)
ROOT
ATOM      1  C   UNL d   1       1.151   0.945  -3.344  0.00  0.00     0.077 C 
ATOM      2  C1  UNL d   1       1.280  -0.363  -2.620  0.00  0.00    -0.074 A 
ATOM      3  C2  UNL d   1       2.209  -0.523  -1.587  0.00  0.00    -0.005 A 
ATOM      4  C3  UNL d   1       2.311  -1.742  -0.916  0.00  0.00     0.006 A 
ATOM      5  C4  UNL d   1       1.487  -2.811  -1.271  0.00  0.00    -0.005 A 
ATOM      6  C5  UNL d   1       0.552  -2.668  -2.302  0.00  0.00    -0.074 A 
ATOM      7  C6  UNL d   1      -0.348  -3.804  -2.690  0.00  0.00     0.077 C 
ATOM      8  C7  UNL d   1       0.451  -1.439  -2.966  0.00  0.00    -0.001 A 
ENDROOT
TORSDOF 0
ENDMDL
