MODEL 1
REMARK minimizedAffinity 13.2033529
REMARK minimizedRMSD -1
REMARK  0 active torsions:
REMARK  status: ('A' for Active; 'I' for Inactive)
ROOT
ATOM      1  C   UNL d   1       1.851   2.828  -2.070  0.00  0.00     0.077 C 
ATOM      2  C1  UNL d   1       2.285   1.528  -1.461  0.00  0.00    -0.074 A 
ATOM      3  C2  UNL d   1       3.535   1.404  -0.846  0.00  0.00    -0.005 A 
ATOM      4  C3  UNL d   1       3.921   0.191  -0.275  0.00  0.00     0.006 A 
ATOM      5  C4  UNL d   1       3.062  -0.908  -0.313  0.00  0.00    -0.005 A 
ATOM      6  C5  UNL d   1       1.808  -0.803  -0.922  0.00  0.00    -0.074 A 
ATOM      7  C6  UNL d   1       0.869  -1.971  -0.963  0.00  0.00     0.077 C 
ATOM      8  C7  UNL d   1       1.424   0.421  -1.488  0.00  0.00    -0.001 A 
ENDROOT
TORSDOF 0
ENDMDL
