MODEL 1
REMARK minimizedAffinity 1.58959174
REMARK minimizedRMSD -1
REMARK  0 active torsions:
REMARK  status: ('A' for Active; 'I' for Inactive)
ROOT
ATOM      1  C   UNL d   1       2.889   3.110   5.989  0.00  0.00     0.077 C 
ATOM      2  C1  UNL d   1       2.448   2.191   4.889  0.00  0.00    -0.074 A 
ATOM      3  C2  UNL d   1       1.708   1.037   5.169  0.00  0.00    -0.005 A 
ATOM      4  C3  UNL d   1       1.297   0.197   4.135  0.00  0.00     0.006 A 
ATOM      5  C4  UNL d   1       1.621   0.501   2.812  0.00  0.00    -0.005 A 
ATOM      6  C5  UNL d   1       2.360   1.650   2.513  0.00  0.00    -0.074 A 
ATOM      7  C6  UNL d   1       2.708   1.996   1.095  0.00  0.00     0.077 C 
ATOM      8  C7  UNL d   1       2.763   2.493   3.557  0.00  0.00    -0.001 A 
ENDROOT
TORSDOF 0
ENDMDL
