MODEL 1
REMARK minimizedAffinity 1.37620604
REMARK minimizedRMSD -1
REMARK  0 active torsions:
REMARK  status: ('A' for Active; 'I' for Inactive)
ROOT
ATOM      1  C   UNL d   1       1.266   1.699  -3.042  0.00  0.00     0.077 C 
ATOM      2  C1  UNL d   1       1.500   0.482  -2.198  0.00  0.00    -0.074 A 
ATOM      3  C2  UNL d   1       2.583   0.416  -1.316  0.00  0.00    -0.005 A 
ATOM      4  C3  UNL d   1       2.783  -0.719  -0.531  0.00  0.00     0.006 A 
ATOM      5  C4  UNL d   1       1.902  -1.798  -0.619  0.00  0.00    -0.005 A 
ATOM      6  C5  UNL d   1       0.813  -1.750  -1.494  0.00  0.00    -0.074 A 
ATOM      7  C6  UNL d   1      -0.149  -2.897  -1.594  0.00  0.00     0.077 C 
ATOM      8  C7  UNL d   1       0.615  -0.603  -2.275  0.00  0.00    -0.001 A 
ENDROOT
TORSDOF 0
ENDMDL
