MODEL 1
REMARK minimizedAffinity 9.45819092
REMARK minimizedRMSD -1
REMARK  0 active torsions:
REMARK  status: ('A' for Active; 'I' for Inactive)
ROOT
ATOM      1  C   UNL d   1      -1.339  -5.899  -2.466  0.00  0.00     0.077 C 
ATOM      2  C1  UNL d   1      -1.377  -4.403  -2.374  0.00  0.00    -0.074 A 
ATOM      3  C2  UNL d   1      -2.572  -3.701  -2.561  0.00  0.00    -0.005 A 
ATOM      4  C3  UNL d   1      -2.594  -2.310  -2.463  0.00  0.00     0.006 A 
ATOM      5  C4  UNL d   1      -1.422  -1.607  -2.178  0.00  0.00    -0.005 A 
ATOM      6  C5  UNL d   1      -0.218  -2.292  -1.987  0.00  0.00    -0.074 A 
ATOM      7  C6  UNL d   1       1.048  -1.553  -1.669  0.00  0.00     0.077 C 
ATOM      8  C7  UNL d   1      -0.206  -3.691  -2.080  0.00  0.00    -0.001 A 
ENDROOT
TORSDOF 0
ENDMDL
