MODEL 1
REMARK minimizedAffinity 4.0922575
REMARK minimizedRMSD -1
REMARK  0 active torsions:
REMARK  status: ('A' for Active; 'I' for Inactive)
ROOT
ATOM      1  C   UNL d   1      -1.203  -3.943  -2.134  0.00  0.00     0.077 C 
ATOM      2  C1  UNL d   1      -0.032  -3.028  -1.936  0.00  0.00    -0.074 A 
ATOM      3  C2  UNL d   1       0.766  -3.119  -0.791  0.00  0.00    -0.005 A 
ATOM      4  C3  UNL d   1       1.858  -2.267  -0.625  0.00  0.00     0.006 A 
ATOM      5  C4  UNL d   1       2.162  -1.316  -1.600  0.00  0.00    -0.005 A 
ATOM      6  C5  UNL d   1       1.376  -1.211  -2.752  0.00  0.00    -0.074 A 
ATOM      7  C6  UNL d   1       1.695  -0.201  -3.814  0.00  0.00     0.077 C 
ATOM      8  C7  UNL d   1       0.285  -2.075  -2.915  0.00  0.00    -0.001 A 
ENDROOT
TORSDOF 0
ENDMDL
