MODEL 1
REMARK minimizedAffinity 11.6738663
REMARK minimizedRMSD -1
REMARK  0 active torsions:
REMARK  status: ('A' for Active; 'I' for Inactive)
ROOT
ATOM      1  C   UNL d   1       4.309   0.909  -0.613  0.00  0.00     0.077 C 
ATOM      2  C1  UNL d   1       3.072   0.905  -1.462  0.00  0.00    -0.074 A 
ATOM      3  C2  UNL d   1       2.471   2.103  -1.861  0.00  0.00    -0.005 A 
ATOM      4  C3  UNL d   1       1.326   2.083  -2.658  0.00  0.00     0.006 A 
ATOM      5  C4  UNL d   1       0.773   0.868  -3.063  0.00  0.00    -0.005 A 
ATOM      6  C5  UNL d   1       1.361  -0.340  -2.674  0.00  0.00    -0.074 A 
ATOM      7  C6  UNL d   1       0.784  -1.654  -3.109  0.00  0.00     0.077 C 
ATOM      8  C7  UNL d   1       2.515  -0.312  -1.879  0.00  0.00    -0.001 A 
ENDROOT
TORSDOF 0
ENDMDL
