MODEL 1
REMARK minimizedAffinity 7.31048298
REMARK minimizedRMSD -1
REMARK  0 active torsions:
REMARK  status: ('A' for Active; 'I' for Inactive)
ROOT
ATOM      1  C   UNL d   1       3.297   4.857   1.970  0.00  0.00     0.077 C 
ATOM      2  C1  UNL d   1       2.848   3.432   1.843  0.00  0.00    -0.074 A 
ATOM      3  C2  UNL d   1       1.638   3.007   2.401  0.00  0.00    -0.005 A 
ATOM      4  C3  UNL d   1       1.228   1.680   2.267  0.00  0.00     0.006 A 
ATOM      5  C4  UNL d   1       2.024   0.766   1.574  0.00  0.00    -0.005 A 
ATOM      6  C5  UNL d   1       3.236   1.173   1.009  0.00  0.00    -0.074 A 
ATOM      7  C6  UNL d   1       4.098   0.206   0.253  0.00  0.00     0.077 C 
ATOM      8  C7  UNL d   1       3.637   2.509   1.142  0.00  0.00    -0.001 A 
ENDROOT
TORSDOF 0
ENDMDL
