MODEL 1
REMARK minimizedAffinity 16.7226238
REMARK minimizedRMSD -1
REMARK  0 active torsions:
REMARK  status: ('A' for Active; 'I' for Inactive)
ROOT
ATOM      1  C   UNL d   1       1.100  -1.276  -0.895  0.00  0.00     0.077 C 
ATOM      2  C1  UNL d   1       1.678  -0.083  -0.194  0.00  0.00    -0.074 A 
ATOM      3  C2  UNL d   1       1.125   0.386   1.002  0.00  0.00    -0.005 A 
ATOM      4  C3  UNL d   1       1.680   1.491   1.648  0.00  0.00     0.006 A 
ATOM      5  C4  UNL d   1       2.791   2.138   1.105  0.00  0.00    -0.005 A 
ATOM      6  C5  UNL d   1       3.358   1.683  -0.090  0.00  0.00    -0.074 A 
ATOM      7  C6  UNL d   1       4.558   2.360  -0.682  0.00  0.00     0.077 C 
ATOM      8  C7  UNL d   1       2.799   0.568  -0.729  0.00  0.00    -0.001 A 
ENDROOT
TORSDOF 0
ENDMDL
