MODEL 1
REMARK minimizedAffinity 0.02188164
REMARK minimizedRMSD -1
REMARK  0 active torsions:
REMARK  status: ('A' for Active; 'I' for Inactive)
ROOT
ATOM      1  C   UNL d   1       0.858  -2.616  -1.237  0.00  0.00     0.077 C 
ATOM      2  C1  UNL d   1      -0.319  -2.987  -2.089  0.00  0.00    -0.074 A 
ATOM      3  C2  UNL d   1      -1.359  -2.079  -2.312  0.00  0.00    -0.005 A 
ATOM      4  C3  UNL d   1      -2.443  -2.435  -3.115  0.00  0.00     0.006 A 
ATOM      5  C4  UNL d   1      -2.498  -3.700  -3.702  0.00  0.00    -0.005 A 
ATOM      6  C5  UNL d   1      -1.466  -4.621  -3.490  0.00  0.00    -0.074 A 
ATOM      7  C6  UNL d   1      -1.504  -5.981  -4.121  0.00  0.00     0.077 C 
ATOM      8  C7  UNL d   1      -0.377  -4.253  -2.688  0.00  0.00    -0.001 A 
ENDROOT
TORSDOF 0
ENDMDL
