MODEL 1
REMARK minimizedAffinity 14.5824747
REMARK minimizedRMSD -1
REMARK  0 active torsions:
REMARK  status: ('A' for Active; 'I' for Inactive)
ROOT
ATOM      1  C   UNL d   1      -2.120  -1.746  -2.467  0.00  0.00     0.077 C 
ATOM      2  C1  UNL d   1      -1.941  -3.198  -2.138  0.00  0.00    -0.074 A 
ATOM      3  C2  UNL d   1      -0.945  -3.959  -2.759  0.00  0.00    -0.005 A 
ATOM      4  C3  UNL d   1      -0.785  -5.306  -2.435  0.00  0.00     0.006 A 
ATOM      5  C4  UNL d   1      -1.617  -5.905  -1.488  0.00  0.00    -0.005 A 
ATOM      6  C5  UNL d   1      -2.617  -5.160  -0.856  0.00  0.00    -0.074 A 
ATOM      7  C6  UNL d   1      -3.513  -5.786   0.171  0.00  0.00     0.077 C 
ATOM      8  C7  UNL d   1      -2.768  -3.805  -1.182  0.00  0.00    -0.001 A 
ENDROOT
TORSDOF 0
ENDMDL
