MODEL 1
REMARK minimizedAffinity 12.0892687
REMARK minimizedRMSD -1
REMARK  0 active torsions:
REMARK  status: ('A' for Active; 'I' for Inactive)
ROOT
ATOM      1  C   UNL d   1       1.126   3.519  -2.681  0.00  0.00     0.077 C 
ATOM      2  C1  UNL d   1       1.474   2.119  -2.272  0.00  0.00    -0.074 A 
ATOM      3  C2  UNL d   1       0.974   1.019  -2.977  0.00  0.00    -0.005 A 
ATOM      4  C3  UNL d   1       1.314  -0.277  -2.591  0.00  0.00     0.006 A 
ATOM      5  C4  UNL d   1       2.155  -0.487  -1.497  0.00  0.00    -0.005 A 
ATOM      6  C5  UNL d   1       2.665   0.600  -0.780  0.00  0.00    -0.074 A 
ATOM      7  C6  UNL d   1       3.578   0.393   0.391  0.00  0.00     0.077 C 
ATOM      8  C7  UNL d   1       2.325   1.900  -1.179  0.00  0.00    -0.001 A 
ENDROOT
TORSDOF 0
ENDMDL
