MODEL 1
REMARK minimizedAffinity 19.1360512
REMARK minimizedRMSD -1
REMARK  0 active torsions:
REMARK  status: ('A' for Active; 'I' for Inactive)
ROOT
ATOM      1  C   UNL d   1       0.680   1.956  -3.958  0.00  0.00     0.077 C 
ATOM      2  C1  UNL d   1       1.405   1.143  -2.928  0.00  0.00    -0.074 A 
ATOM      3  C2  UNL d   1       1.183  -0.232  -2.810  0.00  0.00    -0.005 A 
ATOM      4  C3  UNL d   1       1.872  -0.977  -1.853  0.00  0.00     0.006 A 
ATOM      5  C4  UNL d   1       2.790  -0.355  -1.006  0.00  0.00    -0.005 A 
ATOM      6  C5  UNL d   1       3.026   1.020  -1.110  0.00  0.00    -0.074 A 
ATOM      7  C6  UNL d   1       4.017   1.703  -0.214  0.00  0.00     0.077 C 
ATOM      8  C7  UNL d   1       2.335   1.760  -2.078  0.00  0.00    -0.001 A 
ENDROOT
TORSDOF 0
ENDMDL
