MODEL 1
REMARK minimizedAffinity 11.8716068
REMARK minimizedRMSD -1
REMARK  0 active torsions:
REMARK  status: ('A' for Active; 'I' for Inactive)
ROOT
ATOM      1  C   UNL d   1       6.000  -0.541   1.276  0.00  0.00    -0.002 A 
ATOM      2  C1  UNL d   1       5.733   0.811   1.112  0.00  0.00     0.010 A 
ATOM      3  C2  UNL d   1       4.610   1.232   0.397  0.00  0.00     0.041 A 
ATOM      4  C3  UNL d   1       3.749   0.262  -0.153  0.00  0.00    -0.075 A 
ATOM      5  S   UNL d   1       2.314   0.543  -1.065  0.00  0.00     0.015 SA
ATOM      6  C4  UNL d   1       2.020  -1.124  -1.258  0.00  0.00     0.022 A 
ATOM      7  C5  UNL d   1       2.984  -1.892  -0.648  0.00  0.00     0.026 A 
ATOM      8  C6  UNL d   1       3.996  -1.105  -0.001  0.00  0.00    -0.082 A 
ATOM      9  C7  UNL d   1       5.144  -1.500   0.728  0.00  0.00     0.045 A 
ENDROOT
TORSDOF 0
ENDMDL
