MODEL 1
REMARK minimizedAffinity 3.28189206
REMARK minimizedRMSD -1
REMARK  0 active torsions:
REMARK  status: ('A' for Active; 'I' for Inactive)
ROOT
ATOM      1  C   UNL d   1       2.387  -0.976  -0.983  0.00  0.00    -0.002 A 
ATOM      2  C1  UNL d   1       1.122  -1.028  -1.552  0.00  0.00     0.010 A 
ATOM      3  C2  UNL d   1      -0.011  -1.184  -0.750  0.00  0.00     0.041 A 
ATOM      4  C3  UNL d   1       0.150  -1.285   0.645  0.00  0.00    -0.075 A 
ATOM      5  S   UNL d   1      -1.093  -1.479   1.824  0.00  0.00     0.015 SA
ATOM      6  C4  UNL d   1       0.025  -1.496   3.110  0.00  0.00     0.022 A 
ATOM      7  C5  UNL d   1       1.320  -1.358   2.669  0.00  0.00     0.026 A 
ATOM      8  C6  UNL d   1       1.413  -1.234   1.241  0.00  0.00    -0.082 A 
ATOM      9  C7  UNL d   1       2.542  -1.076   0.402  0.00  0.00     0.045 A 
ENDROOT
TORSDOF 0
ENDMDL
