MODEL 1
REMARK minimizedAffinity 16.7988262
REMARK minimizedRMSD -1
REMARK  0 active torsions:
REMARK  status: ('A' for Active; 'I' for Inactive)
ROOT
ATOM      1  C   UNL d   1      -5.298   4.396  -4.077  0.00  0.00    -0.002 A 
ATOM      2  C1  UNL d   1      -4.146   3.998  -3.415  0.00  0.00     0.010 A 
ATOM      3  C2  UNL d   1      -3.643   2.706  -3.579  0.00  0.00     0.041 A 
ATOM      4  C3  UNL d   1      -4.324   1.813  -4.430  0.00  0.00    -0.075 A 
ATOM      5  S   UNL d   1      -3.893   0.181  -4.784  0.00  0.00     0.015 SA
ATOM      6  C4  UNL d   1      -5.227  -0.025  -5.823  0.00  0.00     0.022 A 
ATOM      7  C5  UNL d   1      -5.994   1.113  -5.910  0.00  0.00     0.026 A 
ATOM      8  C6  UNL d   1      -5.486   2.191  -5.108  0.00  0.00    -0.082 A 
ATOM      9  C7  UNL d   1      -5.971   3.508  -4.920  0.00  0.00     0.045 A 
ENDROOT
TORSDOF 0
ENDMDL
