MODEL 1
REMARK minimizedAffinity 8.33532715
REMARK minimizedRMSD -1
REMARK  0 active torsions:
REMARK  status: ('A' for Active; 'I' for Inactive)
ROOT
ATOM      1  C   UNL d   1      -4.427  -2.406  -2.948  0.00  0.00    -0.002 A 
ATOM      2  C1  UNL d   1      -3.495  -1.756  -2.152  0.00  0.00     0.010 A 
ATOM      3  C2  UNL d   1      -3.189  -0.411  -2.371  0.00  0.00     0.041 A 
ATOM      4  C3  UNL d   1      -3.844   0.276  -3.412  0.00  0.00    -0.075 A 
ATOM      5  S   UNL d   1      -3.630   1.926  -3.863  0.00  0.00     0.015 SA
ATOM      6  C4  UNL d   1      -4.772   1.807  -5.123  0.00  0.00     0.022 A 
ATOM      7  C5  UNL d   1      -5.313   0.546  -5.211  0.00  0.00     0.026 A 
ATOM      8  C6  UNL d   1      -4.787  -0.357  -4.226  0.00  0.00    -0.082 A 
ATOM      9  C7  UNL d   1      -5.074  -1.721  -3.979  0.00  0.00     0.045 A 
ENDROOT
TORSDOF 0
ENDMDL
