MODEL 1
REMARK minimizedAffinity 4.10299397
REMARK minimizedRMSD -1
REMARK  0 active torsions:
REMARK  status: ('A' for Active; 'I' for Inactive)
ROOT
ATOM      1  C   UNL d   1       2.253   3.156  -1.824  0.00  0.00    -0.002 A 
ATOM      2  C1  UNL d   1       1.739   2.766  -3.053  0.00  0.00     0.010 A 
ATOM      3  C2  UNL d   1       1.433   1.427  -3.302  0.00  0.00     0.041 A 
ATOM      4  C3  UNL d   1       1.652   0.477  -2.285  0.00  0.00    -0.075 A 
ATOM      5  S   UNL d   1       1.350  -1.218  -2.364  0.00  0.00     0.015 SA
ATOM      6  C4  UNL d   1       1.895  -1.465  -0.768  0.00  0.00     0.022 A 
ATOM      7  C5  UNL d   1       2.302  -0.294  -0.175  0.00  0.00     0.026 A 
ATOM      8  C6  UNL d   1       2.168   0.845  -1.039  0.00  0.00    -0.082 A 
ATOM      9  C7  UNL d   1       2.469   2.211  -0.818  0.00  0.00     0.045 A 
ENDROOT
TORSDOF 0
ENDMDL
