MODEL 1
REMARK minimizedAffinity -5.03274393
REMARK minimizedRMSD -1
REMARK  1 active torsions:
REMARK  status: ('A' for Active; 'I' for Inactive)
REMARK    1  A    between atoms: C3_4  and  O_7 
ROOT
ATOM      1  C   UNL d   1      -0.011  -0.023  -0.524  0.00  0.00    -0.033 A 
ATOM      2  C1  UNL d   1      -0.674   0.790  -1.445  0.00  0.00     0.039 A 
ATOM      3  C2  UNL d   1      -2.069   0.830  -1.467  0.00  0.00    -0.080 A 
ATOM      4  C3  UNL d   1      -2.789   0.055  -0.562  0.00  0.00     0.150 A 
ATOM      5  C4  UNL d   1      -2.135  -0.754   0.362  0.00  0.00    -0.007 A 
ATOM      6  C5  UNL d   1      -0.741  -0.794   0.381  0.00  0.00     0.039 A 
ENDROOT
BRANCH   4   7
ATOM      7  O   UNL d   1      -4.152   0.057  -0.547  0.00  0.00    -0.526 OA
ATOM      8  H5  UNL d   1      -4.466   0.640  -1.259  0.00  0.00     0.418 HD
ENDBRANCH   4   7
TORSDOF 1
ENDMDL
