MODEL 1
REMARK minimizedAffinity -4.75240898
REMARK minimizedRMSD -1
REMARK  1 active torsions:
REMARK  status: ('A' for Active; 'I' for Inactive)
REMARK    1  A    between atoms: C3_4  and  O_7 
ROOT
ATOM      1  C   UNL d   1       0.279   0.081  -0.415  0.00  0.00    -0.033 A 
ATOM      2  C1  UNL d   1      -0.315  -0.299   0.790  0.00  0.00     0.039 A 
ATOM      3  C2  UNL d   1      -1.696  -0.493   0.858  0.00  0.00    -0.080 A 
ATOM      4  C3  UNL d   1      -2.470  -0.305  -0.284  0.00  0.00     0.150 A 
ATOM      5  C4  UNL d   1      -1.884   0.070  -1.488  0.00  0.00    -0.007 A 
ATOM      6  C5  UNL d   1      -0.505   0.265  -1.554  0.00  0.00     0.039 A 
ENDROOT
BRANCH   4   7
ATOM      7  O   UNL d   1      -3.822  -0.478  -0.265  0.00  0.00    -0.526 OA
ATOM      8  H5  UNL d   1      -4.090  -0.708   0.640  0.00  0.00     0.418 HD
ENDBRANCH   4   7
TORSDOF 1
ENDMDL
