MODEL 1
REMARK minimizedAffinity -3.04582644
REMARK minimizedRMSD -1
REMARK  1 active torsions:
REMARK  status: ('A' for Active; 'I' for Inactive)
REMARK    1  A    between atoms: C3_4  and  O_7 
ROOT
ATOM      1  C   UNL d   1       2.754   2.782   1.516  0.00  0.00    -0.033 A 
ATOM      2  C1  UNL d   1       2.545   2.314   0.217  0.00  0.00     0.039 A 
ATOM      3  C2  UNL d   1       1.772   1.172   0.001  0.00  0.00    -0.080 A 
ATOM      4  C3  UNL d   1       1.214   0.508   1.089  0.00  0.00     0.150 A 
ATOM      5  C4  UNL d   1       1.414   0.971   2.386  0.00  0.00    -0.007 A 
ATOM      6  C5  UNL d   1       2.188   2.111   2.600  0.00  0.00     0.039 A 
ENDROOT
BRANCH   4   7
ATOM      7  O   UNL d   1       0.456  -0.613   0.928  0.00  0.00    -0.526 OA
ATOM      8  H5  UNL d   1       0.427  -0.831  -0.019  0.00  0.00     0.418 HD
ENDBRANCH   4   7
TORSDOF 1
ENDMDL
