MODEL 1
REMARK minimizedAffinity -3.42593932
REMARK minimizedRMSD -1
REMARK  1 active torsions:
REMARK  status: ('A' for Active; 'I' for Inactive)
REMARK    1  A    between atoms: C3_4  and  O_7 
ROOT
ATOM      1  C   UNL d   1      -2.787  -0.657  -0.707  0.00  0.00    -0.033 A 
ATOM      2  C1  UNL d   1      -2.048  -1.108   0.389  0.00  0.00     0.039 A 
ATOM      3  C2  UNL d   1      -0.713  -0.730   0.537  0.00  0.00    -0.080 A 
ATOM      4  C3  UNL d   1      -0.129   0.101  -0.416  0.00  0.00     0.150 A 
ATOM      5  C4  UNL d   1      -0.859   0.557  -1.508  0.00  0.00    -0.007 A 
ATOM      6  C5  UNL d   1      -2.193   0.177  -1.654  0.00  0.00     0.039 A 
ENDROOT
BRANCH   4   7
ATOM      7  O   UNL d   1       1.173   0.493  -0.317  0.00  0.00    -0.526 OA
ATOM      8  H5  UNL d   1       1.561   0.078   0.472  0.00  0.00     0.418 HD
ENDBRANCH   4   7
TORSDOF 1
ENDMDL
