MODEL 1
REMARK minimizedAffinity -2.84247231
REMARK minimizedRMSD -1
REMARK  1 active torsions:
REMARK  status: ('A' for Active; 'I' for Inactive)
REMARK    1  A    between atoms: C3_4  and  O_7 
ROOT
ATOM      1  C   UNL d   1      -0.005   0.158  -0.453  0.00  0.00    -0.033 A 
ATOM      2  C1  UNL d   1      -0.727   0.068  -1.645  0.00  0.00     0.039 A 
ATOM      3  C2  UNL d   1      -1.992  -0.523  -1.654  0.00  0.00    -0.080 A 
ATOM      4  C3  UNL d   1      -2.523  -1.019  -0.467  0.00  0.00     0.150 A 
ATOM      5  C4  UNL d   1      -1.811  -0.928   0.725  0.00  0.00    -0.007 A 
ATOM      6  C5  UNL d   1      -0.548  -0.339   0.732  0.00  0.00     0.039 A 
ENDROOT
BRANCH   4   7
ATOM      7  O   UNL d   1      -3.752  -1.608  -0.427  0.00  0.00    -0.526 OA
ATOM      8  H5  UNL d   1      -4.114  -1.626  -1.329  0.00  0.00     0.418 HD
ENDBRANCH   4   7
TORSDOF 1
ENDMDL
