MODEL 1
REMARK minimizedAffinity -4.74933243
REMARK minimizedRMSD -1
REMARK  1 active torsions:
REMARK  status: ('A' for Active; 'I' for Inactive)
REMARK    1  A    between atoms: C3_4  and  O_7 
ROOT
ATOM      1  C   UNL d   1       0.885  -0.484   0.819  0.00  0.00    -0.033 A 
ATOM      2  C1  UNL d   1       0.331   0.343  -0.161  0.00  0.00     0.039 A 
ATOM      3  C2  UNL d   1      -1.029   0.254  -0.464  0.00  0.00    -0.080 A 
ATOM      4  C3  UNL d   1      -1.823  -0.662   0.219  0.00  0.00     0.150 A 
ATOM      5  C4  UNL d   1      -1.279  -1.485   1.200  0.00  0.00    -0.007 A 
ATOM      6  C5  UNL d   1       0.079  -1.396   1.500  0.00  0.00     0.039 A 
ENDROOT
BRANCH   4   7
ATOM      7  O   UNL d   1      -3.155  -0.787  -0.045  0.00  0.00    -0.526 OA
ATOM      8  H5  UNL d   1      -3.385  -0.176  -0.764  0.00  0.00     0.418 HD
ENDBRANCH   4   7
TORSDOF 1
ENDMDL
