MODEL 1
REMARK minimizedAffinity -1.11647034
REMARK minimizedRMSD -1
REMARK  1 active torsions:
REMARK  status: ('A' for Active; 'I' for Inactive)
REMARK    1  A    between atoms: C3_4  and  O_7 
ROOT
ATOM      1  C   UNL d   1      -0.958   0.581  -1.324  0.00  0.00    -0.033 A 
ATOM      2  C1  UNL d   1       0.039   0.846  -0.383  0.00  0.00     0.039 A 
ATOM      3  C2  UNL d   1       0.374  -0.116   0.572  0.00  0.00    -0.080 A 
ATOM      4  C3  UNL d   1      -0.295  -1.338   0.575  0.00  0.00     0.150 A 
ATOM      5  C4  UNL d   1      -1.287  -1.610  -0.362  0.00  0.00    -0.007 A 
ATOM      6  C5  UNL d   1      -1.620  -0.647  -1.314  0.00  0.00     0.039 A 
ENDROOT
BRANCH   4   7
ATOM      7  O   UNL d   1      -0.006  -2.306   1.490  0.00  0.00    -0.526 OA
ATOM      8  H5  UNL d   1       0.678  -1.967   2.091  0.00  0.00     0.418 HD
ENDBRANCH   4   7
TORSDOF 1
ENDMDL
