MODEL 1
REMARK minimizedAffinity -5.24180984
REMARK minimizedRMSD -1
REMARK  1 active torsions:
REMARK  status: ('A' for Active; 'I' for Inactive)
REMARK    1  A    between atoms: C3_4  and  O_7 
ROOT
ATOM      1  C   UNL d   1       0.488   0.079  -0.812  0.00  0.00    -0.033 A 
ATOM      2  C1  UNL d   1       0.056  -0.555   0.354  0.00  0.00     0.039 A 
ATOM      3  C2  UNL d   1      -1.309  -0.723   0.595  0.00  0.00    -0.080 A 
ATOM      4  C3  UNL d   1      -2.230  -0.253  -0.338  0.00  0.00     0.150 A 
ATOM      5  C4  UNL d   1      -1.806   0.376  -1.504  0.00  0.00    -0.007 A 
ATOM      6  C5  UNL d   1      -0.443   0.543  -1.742  0.00  0.00     0.039 A 
ENDROOT
BRANCH   4   7
ATOM      7  O   UNL d   1      -3.573  -0.390  -0.145  0.00  0.00    -0.526 OA
ATOM      8  H5  UNL d   1      -3.718  -0.817   0.716  0.00  0.00     0.418 HD
ENDBRANCH   4   7
TORSDOF 1
ENDMDL
