MODEL 1
REMARK minimizedAffinity -4.48733759
REMARK minimizedRMSD -1
REMARK  1 active torsions:
REMARK  status: ('A' for Active; 'I' for Inactive)
REMARK    1  A    between atoms: C3_4  and  O_7 
ROOT
ATOM      1  C   UNL d   1       0.204   0.001  -0.093  0.00  0.00    -0.033 A 
ATOM      2  C1  UNL d   1      -0.409  -0.465   1.072  0.00  0.00     0.039 A 
ATOM      3  C2  UNL d   1      -1.754  -0.839   1.053  0.00  0.00    -0.080 A 
ATOM      4  C3  UNL d   1      -2.474  -0.743  -0.135  0.00  0.00     0.150 A 
ATOM      5  C4  UNL d   1      -1.868  -0.283  -1.300  0.00  0.00    -0.007 A 
ATOM      6  C5  UNL d   1      -0.525   0.091  -1.279  0.00  0.00     0.039 A 
ENDROOT
BRANCH   4   7
ATOM      7  O   UNL d   1      -3.790  -1.091  -0.201  0.00  0.00    -0.526 OA
ATOM      8  H5  UNL d   1      -4.081  -1.363   0.685  0.00  0.00     0.418 HD
ENDBRANCH   4   7
TORSDOF 1
ENDMDL
