MODEL 1
REMARK minimizedAffinity -4.48590183
REMARK minimizedRMSD -1
REMARK  1 active torsions:
REMARK  status: ('A' for Active; 'I' for Inactive)
REMARK    1  A    between atoms: C3_4  and  O_7 
ROOT
ATOM      1  C   UNL d   1       0.217   0.166  -0.316  0.00  0.00    -0.033 A 
ATOM      2  C1  UNL d   1      -0.656   0.310  -1.396  0.00  0.00     0.039 A 
ATOM      3  C2  UNL d   1      -2.014   0.026  -1.242  0.00  0.00    -0.080 A 
ATOM      4  C3  UNL d   1      -2.487  -0.398  -0.003  0.00  0.00     0.150 A 
ATOM      5  C4  UNL d   1      -1.624  -0.539   1.079  0.00  0.00    -0.007 A 
ATOM      6  C5  UNL d   1      -0.268  -0.257   0.922  0.00  0.00     0.039 A 
ENDROOT
BRANCH   4   7
ATOM      7  O   UNL d   1      -3.803  -0.691   0.195  0.00  0.00    -0.526 OA
ATOM      8  H5  UNL d   1      -4.274  -0.576  -0.647  0.00  0.00     0.418 HD
ENDBRANCH   4   7
TORSDOF 1
ENDMDL
