MODEL 1
REMARK minimizedAffinity -4.38369083
REMARK minimizedRMSD -1
REMARK  1 active torsions:
REMARK  status: ('A' for Active; 'I' for Inactive)
REMARK    1  A    between atoms: C3_4  and  O_7 
ROOT
ATOM      1  C   UNL d   1       0.226  -0.231   0.002  0.00  0.00    -0.033 A 
ATOM      2  C1  UNL d   1      -0.473  -0.538   1.172  0.00  0.00     0.039 A 
ATOM      3  C2  UNL d   1      -1.832  -0.852   1.113  0.00  0.00    -0.080 A 
ATOM      4  C3  UNL d   1      -2.479  -0.857  -0.119  0.00  0.00     0.150 A 
ATOM      5  C4  UNL d   1      -1.789  -0.556  -1.288  0.00  0.00    -0.007 A 
ATOM      6  C5  UNL d   1      -0.432  -0.241  -1.228  0.00  0.00     0.039 A 
ENDROOT
BRANCH   4   7
ATOM      7  O   UNL d   1      -3.806  -1.152  -0.225  0.00  0.00    -0.526 OA
ATOM      8  H5  UNL d   1      -4.159  -1.311   0.666  0.00  0.00     0.418 HD
ENDBRANCH   4   7
TORSDOF 1
ENDMDL
