MODEL 1
REMARK minimizedAffinity -4.60778141
REMARK minimizedRMSD -1
REMARK  1 active torsions:
REMARK  status: ('A' for Active; 'I' for Inactive)
REMARK    1  A    between atoms: C3_4  and  O_7 
ROOT
ATOM      1  C   UNL d   1       0.603   0.027  -0.323  0.00  0.00    -0.033 A 
ATOM      2  C1  UNL d   1      -0.091   0.450  -1.459  0.00  0.00     0.039 A 
ATOM      3  C2  UNL d   1      -1.483   0.360  -1.502  0.00  0.00    -0.080 A 
ATOM      4  C3  UNL d   1      -2.170  -0.152  -0.405  0.00  0.00     0.150 A 
ATOM      5  C4  UNL d   1      -1.485  -0.572   0.731  0.00  0.00    -0.007 A 
ATOM      6  C5  UNL d   1      -0.095  -0.482   0.772  0.00  0.00     0.039 A 
ENDROOT
BRANCH   4   7
ATOM      7  O   UNL d   1      -3.528  -0.264  -0.403  0.00  0.00    -0.526 OA
ATOM      8  H5  UNL d   1      -3.863   0.037  -1.264  0.00  0.00     0.418 HD
ENDBRANCH   4   7
TORSDOF 1
ENDMDL
