MODEL 1
REMARK minimizedAffinity -1.41668916
REMARK minimizedRMSD -1
REMARK  1 active torsions:
REMARK  status: ('A' for Active; 'I' for Inactive)
REMARK    1  A    between atoms: C3_4  and  O_7 
ROOT
ATOM      1  C   UNL d   1      -1.255  -1.366   1.839  0.00  0.00    -0.033 A 
ATOM      2  C1  UNL d   1       0.141  -1.346   1.798  0.00  0.00     0.039 A 
ATOM      3  C2  UNL d   1       0.801  -0.627   0.800  0.00  0.00    -0.080 A 
ATOM      4  C3  UNL d   1       0.056   0.066  -0.150  0.00  0.00     0.150 A 
ATOM      5  C4  UNL d   1      -1.334   0.054  -0.112  0.00  0.00    -0.007 A 
ATOM      6  C5  UNL d   1      -1.992  -0.665   0.885  0.00  0.00     0.039 A 
ENDROOT
BRANCH   4   7
ATOM      7  O   UNL d   1       0.656   0.778  -1.146  0.00  0.00    -0.526 OA
ATOM      8  H5  UNL d   1       1.618   0.672  -1.062  0.00  0.00     0.418 HD
ENDBRANCH   4   7
TORSDOF 1
ENDMDL
