MODEL 1
REMARK minimizedAffinity -4.51824808
REMARK minimizedRMSD -1
REMARK  1 active torsions:
REMARK  status: ('A' for Active; 'I' for Inactive)
REMARK    1  A    between atoms: C3_4  and  O_7 
ROOT
ATOM      1  C   UNL d   1       0.705  -0.430   0.694  0.00  0.00    -0.033 A 
ATOM      2  C1  UNL d   1      -0.057  -1.378   1.380  0.00  0.00     0.039 A 
ATOM      3  C2  UNL d   1      -1.415  -1.527   1.091  0.00  0.00    -0.080 A 
ATOM      4  C3  UNL d   1      -1.998  -0.723   0.116  0.00  0.00     0.150 A 
ATOM      5  C4  UNL d   1      -1.245   0.221  -0.574  0.00  0.00    -0.007 A 
ATOM      6  C5  UNL d   1       0.111   0.369  -0.284  0.00  0.00     0.039 A 
ENDROOT
BRANCH   4   7
ATOM      7  O   UNL d   1      -3.321  -0.828  -0.197  0.00  0.00    -0.526 OA
ATOM      8  H5  UNL d   1      -3.721  -1.500   0.379  0.00  0.00     0.418 HD
ENDBRANCH   4   7
TORSDOF 1
ENDMDL
