MODEL 1
REMARK minimizedAffinity -4.99636841
REMARK minimizedRMSD -1
REMARK  1 active torsions:
REMARK  status: ('A' for Active; 'I' for Inactive)
REMARK    1  A    between atoms: C3_4  and  O_7 
ROOT
ATOM      1  C   UNL d   1       0.224  -0.518  -0.012  0.00  0.00    -0.033 A 
ATOM      2  C1  UNL d   1      -0.302  -1.261   1.047  0.00  0.00     0.039 A 
ATOM      3  C2  UNL d   1      -1.669  -1.542   1.093  0.00  0.00    -0.080 A 
ATOM      4  C3  UNL d   1      -2.497  -1.078   0.075  0.00  0.00     0.150 A 
ATOM      5  C4  UNL d   1      -1.979  -0.341  -0.985  0.00  0.00    -0.007 A 
ATOM      6  C5  UNL d   1      -0.615  -0.060  -1.029  0.00  0.00     0.039 A 
ENDROOT
BRANCH   4   7
ATOM      7  O   UNL d   1      -3.838  -1.324   0.080  0.00  0.00    -0.526 OA
ATOM      8  H5  UNL d   1      -4.058  -1.818   0.887  0.00  0.00     0.418 HD
ENDBRANCH   4   7
TORSDOF 1
ENDMDL
