MODEL 1
REMARK minimizedAffinity -4.32691908
REMARK minimizedRMSD -1
REMARK  1 active torsions:
REMARK  status: ('A' for Active; 'I' for Inactive)
REMARK    1  A    between atoms: C3_4  and  O_7 
ROOT
ATOM      1  C   UNL d   1       0.472   0.020  -0.708  0.00  0.00    -0.033 A 
ATOM      2  C1  UNL d   1      -0.394   0.273  -1.773  0.00  0.00     0.039 A 
ATOM      3  C2  UNL d   1      -1.775   0.199  -1.584  0.00  0.00    -0.080 A 
ATOM      4  C3  UNL d   1      -2.277  -0.128  -0.327  0.00  0.00     0.150 A 
ATOM      5  C4  UNL d   1      -1.420  -0.377   0.739  0.00  0.00    -0.007 A 
ATOM      6  C5  UNL d   1      -0.041  -0.303   0.549  0.00  0.00     0.039 A 
ENDROOT
BRANCH   4   7
ATOM      7  O   UNL d   1      -3.618  -0.217  -0.096  0.00  0.00    -0.526 OA
ATOM      8  H5  UNL d   1      -4.086  -0.047  -0.931  0.00  0.00     0.418 HD
ENDBRANCH   4   7
TORSDOF 1
ENDMDL
