MODEL 1
REMARK minimizedAffinity -4.96495867
REMARK minimizedRMSD -1
REMARK  1 active torsions:
REMARK  status: ('A' for Active; 'I' for Inactive)
REMARK    1  A    between atoms: C3_4  and  O_7 
ROOT
ATOM      1  C   UNL d   1       0.364  -0.543   1.068  0.00  0.00    -0.033 A 
ATOM      2  C1  UNL d   1       0.025   0.221  -0.050  0.00  0.00     0.039 A 
ATOM      3  C2  UNL d   1      -1.257   0.131  -0.597  0.00  0.00    -0.080 A 
ATOM      4  C3  UNL d   1      -2.189  -0.724  -0.016  0.00  0.00     0.150 A 
ATOM      5  C4  UNL d   1      -1.859  -1.485   1.101  0.00  0.00    -0.007 A 
ATOM      6  C5  UNL d   1      -0.579  -1.394   1.645  0.00  0.00     0.039 A 
ENDROOT
BRANCH   4   7
ATOM      7  O   UNL d   1      -3.451  -0.849  -0.517  0.00  0.00    -0.526 OA
ATOM      8  H5  UNL d   1      -3.526  -0.286  -1.305  0.00  0.00     0.418 HD
ENDBRANCH   4   7
TORSDOF 1
ENDMDL
