MODEL 1
REMARK minimizedAffinity 8.99332619
REMARK minimizedRMSD -1
REMARK  1 active torsions:
REMARK  status: ('A' for Active; 'I' for Inactive)
REMARK    1  A    between atoms: C1_2  and  C2_3 
ROOT
ATOM      1  C2  UNL d   1      -0.750  -4.293   0.838  0.00  0.00    -0.077 A 
ATOM      2  C3  UNL d   1      -1.318  -3.398   1.755  0.00  0.00     0.002 A 
ATOM      3  C4  UNL d   1      -1.869  -2.193   1.317  0.00  0.00     0.002 A 
ATOM      4  C5  UNL d   1      -1.863  -1.874  -0.040  0.00  0.00    -0.004 A 
ATOM      5  C6  UNL d   1      -1.299  -2.757  -0.960  0.00  0.00     0.002 A 
ATOM      6  C7  UNL d   1      -0.746  -3.962  -0.523  0.00  0.00     0.002 A 
ENDROOT
BRANCH   1   7
ATOM      7  C1  UNL d   1      -0.199  -5.616   1.303  0.00  0.00     0.055 C 
ATOM      8  C   UNL d   1      -0.757  -6.000   2.666  0.00  0.00     0.019 C 
ENDBRANCH   1   7
TORSDOF 1
ENDMDL
