MODEL 1
REMARK minimizedAffinity 2.69412088
REMARK minimizedRMSD -1
REMARK  1 active torsions:
REMARK  status: ('A' for Active; 'I' for Inactive)
REMARK    1  A    between atoms: C1_2  and  C2_3 
ROOT
ATOM      1  C2  UNL d   1      -1.786  -2.611   2.451  0.00  0.00    -0.077 A 
ATOM      2  C3  UNL d   1      -1.515  -3.986   2.414  0.00  0.00     0.002 A 
ATOM      3  C4  UNL d   1      -1.121  -4.597   1.221  0.00  0.00     0.002 A 
ATOM      4  C5  UNL d   1      -0.991  -3.840   0.059  0.00  0.00    -0.004 A 
ATOM      5  C6  UNL d   1      -1.260  -2.472   0.085  0.00  0.00     0.002 A 
ATOM      6  C7  UNL d   1      -1.654  -1.860   1.276  0.00  0.00     0.002 A 
ENDROOT
BRANCH   1   7
ATOM      7  C1  UNL d   1      -2.163  -1.942   3.746  0.00  0.00     0.055 C 
ATOM      8  C   UNL d   1      -0.990  -1.911   4.715  0.00  0.00     0.019 C 
ENDBRANCH   1   7
TORSDOF 1
ENDMDL
