MODEL 1
REMARK minimizedAffinity 9.7840662
REMARK minimizedRMSD -1
REMARK  1 active torsions:
REMARK  status: ('A' for Active; 'I' for Inactive)
REMARK    1  A    between atoms: C1_2  and  C2_3 
ROOT
ATOM      1  C2  UNL d   1      -1.090  -3.550  -0.051  0.00  0.00    -0.077 A 
ATOM      2  C3  UNL d   1      -1.151  -4.743  -0.784  0.00  0.00     0.002 A 
ATOM      3  C4  UNL d   1      -0.832  -5.961  -0.179  0.00  0.00     0.002 A 
ATOM      4  C5  UNL d   1      -0.454  -5.997   1.161  0.00  0.00    -0.004 A 
ATOM      5  C6  UNL d   1      -0.389  -4.815   1.898  0.00  0.00     0.002 A 
ATOM      6  C7  UNL d   1      -0.706  -3.597   1.296  0.00  0.00     0.002 A 
ENDROOT
BRANCH   1   7
ATOM      7  C1  UNL d   1      -1.482  -2.242  -0.687  0.00  0.00     0.055 C 
ATOM      8  C   UNL d   1      -2.555  -1.531   0.124  0.00  0.00     0.019 C 
ENDBRANCH   1   7
TORSDOF 1
ENDMDL
