MODEL 1
REMARK minimizedAffinity 3.11312532
REMARK minimizedRMSD -1
REMARK  1 active torsions:
REMARK  status: ('A' for Active; 'I' for Inactive)
REMARK    1  A    between atoms: C1_2  and  C2_3 
ROOT
ATOM      1  C2  UNL d   1      -1.760  -2.525  -0.864  0.00  0.00    -0.077 A 
ATOM      2  C3  UNL d   1      -2.276  -1.758   0.191  0.00  0.00     0.002 A 
ATOM      3  C4  UNL d   1      -1.960  -2.075   1.514  0.00  0.00     0.002 A 
ATOM      4  C5  UNL d   1      -1.125  -3.154   1.793  0.00  0.00    -0.004 A 
ATOM      5  C6  UNL d   1      -0.608  -3.923   0.751  0.00  0.00     0.002 A 
ATOM      6  C7  UNL d   1      -0.924  -3.610  -0.571  0.00  0.00     0.002 A 
ENDROOT
BRANCH   1   7
ATOM      7  C1  UNL d   1      -2.060  -2.155  -2.293  0.00  0.00     0.055 C 
ATOM      8  C   UNL d   1      -1.397  -3.121  -3.265  0.00  0.00     0.019 C 
ENDBRANCH   1   7
TORSDOF 1
ENDMDL
