MODEL 1
REMARK minimizedAffinity 4.59815788
REMARK minimizedRMSD -1
REMARK  1 active torsions:
REMARK  status: ('A' for Active; 'I' for Inactive)
REMARK    1  A    between atoms: C1_2  and  C2_3 
ROOT
ATOM      1  C2  UNL d   1       5.997   1.371  -1.676  0.00  0.00    -0.077 A 
ATOM      2  C3  UNL d   1       6.000   1.510  -3.071  0.00  0.00     0.002 A 
ATOM      3  C4  UNL d   1       5.995   0.382  -3.893  0.00  0.00     0.002 A 
ATOM      4  C5  UNL d   1       5.984  -0.893  -3.330  0.00  0.00    -0.004 A 
ATOM      5  C6  UNL d   1       5.982  -1.041  -1.943  0.00  0.00     0.002 A 
ATOM      6  C7  UNL d   1       5.988   0.086  -1.120  0.00  0.00     0.002 A 
ENDROOT
BRANCH   1   7
ATOM      7  C1  UNL d   1       5.951   2.587  -0.788  0.00  0.00     0.055 C 
ATOM      8  C   UNL d   1       4.525   2.919  -0.375  0.00  0.00     0.019 C 
ENDBRANCH   1   7
TORSDOF 1
ENDMDL
