MODEL 1
REMARK minimizedAffinity 5.9028511
REMARK minimizedRMSD -1
REMARK  1 active torsions:
REMARK  status: ('A' for Active; 'I' for Inactive)
REMARK    1  A    between atoms: C1_2  and  C2_3 
ROOT
ATOM      1  C2  UNL d   1      -2.856  -0.749   5.298  0.00  0.00    -0.077 A 
ATOM      2  C3  UNL d   1      -4.176  -1.071   5.645  0.00  0.00     0.002 A 
ATOM      3  C4  UNL d   1      -5.080  -0.065   5.992  0.00  0.00     0.002 A 
ATOM      4  C5  UNL d   1      -4.676   1.268   5.992  0.00  0.00    -0.004 A 
ATOM      5  C6  UNL d   1      -3.365   1.598   5.651  0.00  0.00     0.002 A 
ATOM      6  C7  UNL d   1      -2.459   0.594   5.305  0.00  0.00     0.002 A 
ENDROOT
BRANCH   1   7
ATOM      7  C1  UNL d   1      -1.893  -1.827   4.876  0.00  0.00     0.055 C 
ATOM      8  C   UNL d   1      -2.617  -2.978   4.192  0.00  0.00     0.019 C 
ENDBRANCH   1   7
TORSDOF 1
ENDMDL
