MODEL 1
REMARK minimizedAffinity 8.84727764
REMARK minimizedRMSD -1
REMARK  1 active torsions:
REMARK  status: ('A' for Active; 'I' for Inactive)
REMARK    1  A    between atoms: C1_2  and  C2_3 
ROOT
ATOM      1  C2  UNL d   1      -1.880  -2.213   2.335  0.00  0.00    -0.077 A 
ATOM      2  C3  UNL d   1      -2.330  -1.292   1.378  0.00  0.00     0.002 A 
ATOM      3  C4  UNL d   1      -1.851  -1.344   0.067  0.00  0.00     0.002 A 
ATOM      4  C5  UNL d   1      -0.923  -2.317  -0.299  0.00  0.00    -0.004 A 
ATOM      5  C6  UNL d   1      -0.468  -3.236   0.646  0.00  0.00     0.002 A 
ATOM      6  C7  UNL d   1      -0.945  -3.185   1.956  0.00  0.00     0.002 A 
ENDROOT
BRANCH   1   7
ATOM      7  C1  UNL d   1      -2.432  -2.189   3.736  0.00  0.00     0.055 C 
ATOM      8  C   UNL d   1      -1.493  -1.465   4.689  0.00  0.00     0.019 C 
ENDBRANCH   1   7
TORSDOF 1
ENDMDL
