MODEL 1
REMARK minimizedAffinity 19.4318275
REMARK minimizedRMSD -1
REMARK  1 active torsions:
REMARK  status: ('A' for Active; 'I' for Inactive)
REMARK    1  A    between atoms: C1_2  and  C2_3 
ROOT
ATOM      1  C2  UNL d   1      -2.547   0.047   5.603  0.00  0.00    -0.077 A 
ATOM      2  C3  UNL d   1      -1.212  -0.249   5.913  0.00  0.00     0.002 A 
ATOM      3  C4  UNL d   1      -0.646  -1.462   5.513  0.00  0.00     0.002 A 
ATOM      4  C5  UNL d   1      -1.407  -2.385   4.799  0.00  0.00    -0.004 A 
ATOM      5  C6  UNL d   1      -2.736  -2.101   4.488  0.00  0.00     0.002 A 
ATOM      6  C7  UNL d   1      -3.303  -0.890   4.887  0.00  0.00     0.002 A 
ENDROOT
BRANCH   1   7
ATOM      7  C1  UNL d   1      -3.144   1.375   5.990  0.00  0.00     0.055 C 
ATOM      8  C   UNL d   1      -4.664   1.319   5.989  0.00  0.00     0.019 C 
ENDBRANCH   1   7
TORSDOF 1
ENDMDL
