MODEL 1
REMARK minimizedAffinity 15.356946
REMARK minimizedRMSD -1
REMARK  1 active torsions:
REMARK  status: ('A' for Active; 'I' for Inactive)
REMARK    1  A    between atoms: C1_2  and  C2_3 
ROOT
ATOM      1  C2  UNL d   1       4.735   2.233  -1.710  0.00  0.00    -0.077 A 
ATOM      2  C3  UNL d   1       3.799   1.332  -2.237  0.00  0.00     0.002 A 
ATOM      3  C4  UNL d   1       2.606   1.076  -1.557  0.00  0.00     0.002 A 
ATOM      4  C5  UNL d   1       2.338   1.719  -0.351  0.00  0.00    -0.004 A 
ATOM      5  C6  UNL d   1       3.264   2.614   0.182  0.00  0.00     0.002 A 
ATOM      6  C7  UNL d   1       4.457   2.871  -0.495  0.00  0.00     0.002 A 
ENDROOT
BRANCH   1   7
ATOM      7  C1  UNL d   1       6.000   2.548  -2.466  0.00  0.00     0.055 C 
ATOM      8  C   UNL d   1       6.000   1.896  -3.841  0.00  0.00     0.019 C 
ENDBRANCH   1   7
TORSDOF 1
ENDMDL
