MODEL 1
REMARK minimizedAffinity 10.1166067
REMARK minimizedRMSD -1
REMARK  1 active torsions:
REMARK  status: ('A' for Active; 'I' for Inactive)
REMARK    1  A    between atoms: C1_2  and  C2_3 
ROOT
ATOM      1  C2  UNL d   1       0.037  -0.412  -2.347  0.00  0.00    -0.077 A 
ATOM      2  C3  UNL d   1       0.881  -0.834  -3.383  0.00  0.00     0.002 A 
ATOM      3  C4  UNL d   1       2.210  -0.409  -3.428  0.00  0.00     0.002 A 
ATOM      4  C5  UNL d   1       2.707   0.437  -2.439  0.00  0.00    -0.004 A 
ATOM      5  C6  UNL d   1       1.875   0.864  -1.406  0.00  0.00     0.002 A 
ATOM      6  C7  UNL d   1       0.546   0.441  -1.359  0.00  0.00     0.002 A 
ENDROOT
BRANCH   1   7
ATOM      7  C1  UNL d   1      -1.383  -0.909  -2.269  0.00  0.00     0.055 C 
ATOM      8  C   UNL d   1      -1.796  -1.181  -0.830  0.00  0.00     0.019 C 
ENDBRANCH   1   7
TORSDOF 1
ENDMDL
