MODEL 1
REMARK minimizedAffinity 10.6405458
REMARK minimizedRMSD -1
REMARK  1 active torsions:
REMARK  status: ('A' for Active; 'I' for Inactive)
REMARK    1  A    between atoms: C1_2  and  C2_3 
ROOT
ATOM      1  C2  UNL d   1       3.735   2.926   0.031  0.00  0.00    -0.077 A 
ATOM      2  C3  UNL d   1       3.704   4.280   0.392  0.00  0.00     0.002 A 
ATOM      3  C4  UNL d   1       4.813   5.098   0.163  0.00  0.00     0.002 A 
ATOM      4  C5  UNL d   1       5.958   4.571  -0.429  0.00  0.00    -0.004 A 
ATOM      5  C6  UNL d   1       6.000   3.225  -0.790  0.00  0.00     0.002 A 
ATOM      6  C7  UNL d   1       4.893   2.406  -0.561  0.00  0.00     0.002 A 
ENDROOT
BRANCH   1   7
ATOM      7  C1  UNL d   1       2.523   2.054   0.231  0.00  0.00     0.055 C 
ATOM      8  C   UNL d   1       2.359   1.063  -0.912  0.00  0.00     0.019 C 
ENDBRANCH   1   7
TORSDOF 1
ENDMDL
