MODEL 1
REMARK minimizedAffinity 13.1476316
REMARK minimizedRMSD -1
REMARK  1 active torsions:
REMARK  status: ('A' for Active; 'I' for Inactive)
REMARK    1  A    between atoms: C1_2  and  C2_3 
ROOT
ATOM      1  C2  UNL d   1       4.328   2.911   0.572  0.00  0.00    -0.077 A 
ATOM      2  C3  UNL d   1       5.197   2.459  -0.430  0.00  0.00     0.002 A 
ATOM      3  C4  UNL d   1       5.999   3.362  -1.130  0.00  0.00     0.002 A 
ATOM      4  C5  UNL d   1       5.943   4.722  -0.831  0.00  0.00    -0.004 A 
ATOM      5  C6  UNL d   1       5.081   5.182   0.163  0.00  0.00     0.002 A 
ATOM      6  C7  UNL d   1       4.277   4.281   0.862  0.00  0.00     0.002 A 
ENDROOT
BRANCH   1   7
ATOM      7  C1  UNL d   1       3.498   1.933   1.362  0.00  0.00     0.055 C 
ATOM      8  C   UNL d   1       4.352   1.155   2.352  0.00  0.00     0.019 C 
ENDBRANCH   1   7
TORSDOF 1
ENDMDL
