MODEL 1
REMARK minimizedAffinity 6.56619358
REMARK minimizedRMSD -1
REMARK  1 active torsions:
REMARK  status: ('A' for Active; 'I' for Inactive)
REMARK    1  A    between atoms: C1_2  and  C2_3 
ROOT
ATOM      1  C2  UNL d   1       2.724   0.446  -1.559  0.00  0.00    -0.077 A 
ATOM      2  C3  UNL d   1       3.310   1.718  -1.511  0.00  0.00     0.002 A 
ATOM      3  C4  UNL d   1       3.048   2.577  -0.442  0.00  0.00     0.002 A 
ATOM      4  C5  UNL d   1       2.202   2.171   0.588  0.00  0.00    -0.004 A 
ATOM      5  C6  UNL d   1       1.612   0.909   0.548  0.00  0.00     0.002 A 
ATOM      6  C7  UNL d   1       1.872   0.049  -0.520  0.00  0.00     0.002 A 
ENDROOT
BRANCH   1   7
ATOM      7  C1  UNL d   1       3.045  -0.501  -2.686  0.00  0.00     0.055 C 
ATOM      8  C   UNL d   1       4.547  -0.641  -2.881  0.00  0.00     0.019 C 
ENDBRANCH   1   7
TORSDOF 1
ENDMDL
