MODEL 1
REMARK minimizedAffinity 7.6070261
REMARK minimizedRMSD -1
REMARK  1 active torsions:
REMARK  status: ('A' for Active; 'I' for Inactive)
REMARK    1  A    between atoms: C1_2  and  C2_3 
ROOT
ATOM      1  C2  UNL d   1      -1.205  -3.532   0.090  0.00  0.00    -0.077 A 
ATOM      2  C3  UNL d   1      -0.545  -2.463  -0.532  0.00  0.00     0.002 A 
ATOM      3  C4  UNL d   1      -1.135  -1.198  -0.576  0.00  0.00     0.002 A 
ATOM      4  C5  UNL d   1      -2.385  -0.990   0.004  0.00  0.00    -0.004 A 
ATOM      5  C6  UNL d   1      -3.050  -2.047   0.623  0.00  0.00     0.002 A 
ATOM      6  C7  UNL d   1      -2.462  -3.313   0.666  0.00  0.00     0.002 A 
ENDROOT
BRANCH   1   7
ATOM      7  C1  UNL d   1      -0.549  -4.885   0.181  0.00  0.00     0.055 C 
ATOM      8  C   UNL d   1       0.231  -5.036   1.480  0.00  0.00     0.019 C 
ENDBRANCH   1   7
TORSDOF 1
ENDMDL
