MODEL 1
REMARK minimizedAffinity 4.0355773
REMARK minimizedRMSD -1
REMARK  2 active torsions:
REMARK  status: ('A' for Active; 'I' for Inactive)
REMARK    1  A    between atoms: C1_2  and  C2_3 
REMARK    2  A    between atoms: C2_3  and  C3_4 
ROOT
ATOM      1  C3  UNL d   1       1.849  -0.136   2.503  0.00  0.00    -0.075 A 
ATOM      2  C4  UNL d   1       0.770   0.721   2.761  0.00  0.00     0.002 A 
ATOM      3  C5  UNL d   1       0.947   2.105   2.757  0.00  0.00     0.002 A 
ATOM      4  C6  UNL d   1       2.205   2.648   2.505  0.00  0.00    -0.004 A 
ATOM      5  C7  UNL d   1       3.288   1.805   2.264  0.00  0.00     0.002 A 
ATOM      6  C8  UNL d   1       3.112   0.421   2.263  0.00  0.00     0.002 A 
ENDROOT
BRANCH   1   7
ATOM      7  C2  UNL d   1       1.657  -1.634   2.477  0.00  0.00     0.056 C 
BRANCH   7   8
ATOM      8  C1  UNL d   1       1.564  -2.275   3.866  0.00  0.00     0.007 C 
ATOM      9  C   UNL d   1       2.898  -2.314   4.600  0.00  0.00     0.009 C 
ENDBRANCH   7   8
ENDBRANCH   1   7
TORSDOF 2
ENDMDL
