MODEL 1
REMARK minimizedAffinity 3.96860623
REMARK minimizedRMSD -1
REMARK  2 active torsions:
REMARK  status: ('A' for Active; 'I' for Inactive)
REMARK    1  A    between atoms: C1_2  and  C2_3 
REMARK    2  A    between atoms: C2_3  and  C3_4 
ROOT
ATOM      1  C3  UNL d   1       1.144  -1.806   4.399  0.00  0.00    -0.075 A 
ATOM      2  C4  UNL d   1       1.523  -0.503   4.752  0.00  0.00     0.002 A 
ATOM      3  C5  UNL d   1       1.115   0.587   3.981  0.00  0.00     0.002 A 
ATOM      4  C6  UNL d   1       0.334   0.387   2.845  0.00  0.00    -0.004 A 
ATOM      5  C7  UNL d   1      -0.034  -0.905   2.476  0.00  0.00     0.002 A 
ATOM      6  C8  UNL d   1       0.369  -1.997   3.247  0.00  0.00     0.002 A 
ENDROOT
BRANCH   1   7
ATOM      7  C2  UNL d   1       1.557  -2.986   5.245  0.00  0.00     0.056 C 
BRANCH   7   8
ATOM      8  C1  UNL d   1       2.906  -2.807   5.951  0.00  0.00     0.007 C 
ATOM      9  C   UNL d   1       3.737  -4.082   5.990  0.00  0.00     0.009 C 
ENDBRANCH   7   8
ENDBRANCH   1   7
TORSDOF 2
ENDMDL
