MODEL 1
REMARK minimizedAffinity 9.30867863
REMARK minimizedRMSD -1
REMARK  2 active torsions:
REMARK  status: ('A' for Active; 'I' for Inactive)
REMARK    1  A    between atoms: C1_2  and  C2_3 
REMARK    2  A    between atoms: C2_3  and  C3_4 
ROOT
ATOM      1  C3  UNL d   1      -0.853   0.324   3.052  0.00  0.00    -0.075 A 
ATOM      2  C4  UNL d   1      -1.380   1.561   2.654  0.00  0.00     0.002 A 
ATOM      3  C5  UNL d   1      -2.685   1.652   2.168  0.00  0.00     0.002 A 
ATOM      4  C6  UNL d   1      -3.474   0.509   2.066  0.00  0.00    -0.004 A 
ATOM      5  C7  UNL d   1      -2.956  -0.728   2.443  0.00  0.00     0.002 A 
ATOM      6  C8  UNL d   1      -1.652  -0.821   2.933  0.00  0.00     0.002 A 
ENDROOT
BRANCH   1   7
ATOM      7  C2  UNL d   1       0.548   0.223   3.606  0.00  0.00     0.056 C 
BRANCH   7   8
ATOM      8  C1  UNL d   1       1.192  -1.156   3.425  0.00  0.00     0.007 C 
ATOM      9  C   UNL d   1       1.155  -2.006   4.688  0.00  0.00     0.009 C 
ENDBRANCH   7   8
ENDBRANCH   1   7
TORSDOF 2
ENDMDL
