MODEL 1
REMARK minimizedAffinity 7.48842192
REMARK minimizedRMSD -1
REMARK  2 active torsions:
REMARK  status: ('A' for Active; 'I' for Inactive)
REMARK    1  A    between atoms: C1_2  and  C2_3 
REMARK    2  A    between atoms: C2_3  and  C3_4 
ROOT
ATOM      1  C3  UNL d   1       1.095  -1.313   3.425  0.00  0.00    -0.075 A 
ATOM      2  C4  UNL d   1      -0.138  -1.842   3.015  0.00  0.00     0.002 A 
ATOM      3  C5  UNL d   1      -1.151  -1.002   2.552  0.00  0.00     0.002 A 
ATOM      4  C6  UNL d   1      -0.949   0.376   2.503  0.00  0.00    -0.004 A 
ATOM      5  C7  UNL d   1       0.265   0.914   2.924  0.00  0.00     0.002 A 
ATOM      6  C8  UNL d   1       1.282   0.075   3.383  0.00  0.00     0.002 A 
ENDROOT
BRANCH   1   7
ATOM      7  C2  UNL d   1       2.206  -2.219   3.899  0.00  0.00     0.056 C 
BRANCH   7   8
ATOM      8  C1  UNL d   1       2.017  -2.743   5.327  0.00  0.00     0.007 C 
ATOM      9  C   UNL d   1       3.325  -3.137   5.999  0.00  0.00     0.009 C 
ENDBRANCH   7   8
ENDBRANCH   1   7
TORSDOF 2
ENDMDL
