MODEL 1
REMARK minimizedAffinity 13.4448395
REMARK minimizedRMSD -1
REMARK  2 active torsions:
REMARK  status: ('A' for Active; 'I' for Inactive)
REMARK    1  A    between atoms: C1_2  and  C2_3 
REMARK    2  A    between atoms: C2_3  and  C3_4 
ROOT
ATOM      1  C3  UNL d   1       2.065  -0.121   3.749  0.00  0.00    -0.075 A 
ATOM      2  C4  UNL d   1       2.266  -1.371   3.145  0.00  0.00     0.002 A 
ATOM      3  C5  UNL d   1       1.494  -1.760   2.051  0.00  0.00     0.002 A 
ATOM      4  C6  UNL d   1       0.507  -0.913   1.553  0.00  0.00    -0.004 A 
ATOM      5  C7  UNL d   1       0.288   0.324   2.156  0.00  0.00     0.002 A 
ATOM      6  C8  UNL d   1       1.061   0.719   3.248  0.00  0.00     0.002 A 
ENDROOT
BRANCH   1   7
ATOM      7  C2  UNL d   1       2.917   0.319   4.916  0.00  0.00     0.056 C 
BRANCH   7   8
ATOM      8  C1  UNL d   1       4.340   0.736   4.527  0.00  0.00     0.007 C 
ATOM      9  C   UNL d   1       4.704   2.138   4.996  0.00  0.00     0.009 C 
ENDBRANCH   7   8
ENDBRANCH   1   7
TORSDOF 2
ENDMDL
