MODEL 1
REMARK minimizedAffinity 3.77890658
REMARK minimizedRMSD -1
REMARK  2 active torsions:
REMARK  status: ('A' for Active; 'I' for Inactive)
REMARK    1  A    between atoms: C1_2  and  C2_3 
REMARK    2  A    between atoms: C2_3  and  C3_4 
ROOT
ATOM      1  C3  UNL d   1       1.419  -1.046   4.913  0.00  0.00    -0.075 A 
ATOM      2  C4  UNL d   1       0.727   0.146   5.174  0.00  0.00     0.002 A 
ATOM      3  C5  UNL d   1      -0.024   0.763   4.173  0.00  0.00     0.002 A 
ATOM      4  C6  UNL d   1      -0.084   0.204   2.899  0.00  0.00    -0.004 A 
ATOM      5  C7  UNL d   1       0.612  -0.971   2.623  0.00  0.00     0.002 A 
ATOM      6  C8  UNL d   1       1.361  -1.593   3.624  0.00  0.00     0.002 A 
ENDROOT
BRANCH   1   7
ATOM      7  C2  UNL d   1       2.209  -1.735   5.999  0.00  0.00     0.056 C 
BRANCH   7   8
ATOM      8  C1  UNL d   1       3.702  -1.391   5.998  0.00  0.00     0.007 C 
ATOM      9  C   UNL d   1       3.984   0.061   5.633  0.00  0.00     0.009 C 
ENDBRANCH   7   8
ENDBRANCH   1   7
TORSDOF 2
ENDMDL
