MODEL 1
REMARK minimizedAffinity 13.7654781
REMARK minimizedRMSD -1
REMARK  2 active torsions:
REMARK  status: ('A' for Active; 'I' for Inactive)
REMARK    1  A    between atoms: C1_2  and  C2_3 
REMARK    2  A    between atoms: C2_3  and  C3_4 
ROOT
ATOM      1  C3  UNL d   1       0.963  -0.867   3.045  0.00  0.00    -0.075 A 
ATOM      2  C4  UNL d   1      -0.122  -1.235   2.235  0.00  0.00     0.002 A 
ATOM      3  C5  UNL d   1      -1.155  -0.333   1.983  0.00  0.00     0.002 A 
ATOM      4  C6  UNL d   1      -1.124   0.942   2.544  0.00  0.00    -0.004 A 
ATOM      5  C7  UNL d   1      -0.060   1.313   3.363  0.00  0.00     0.002 A 
ATOM      6  C8  UNL d   1       0.978   0.414   3.614  0.00  0.00     0.002 A 
ENDROOT
BRANCH   1   7
ATOM      7  C2  UNL d   1       2.099  -1.828   3.299  0.00  0.00     0.056 C 
BRANCH   7   8
ATOM      8  C1  UNL d   1       2.031  -2.530   4.659  0.00  0.00     0.007 C 
ATOM      9  C   UNL d   1       3.397  -2.947   5.188  0.00  0.00     0.009 C 
ENDBRANCH   7   8
ENDBRANCH   1   7
TORSDOF 2
ENDMDL
