MODEL 1
REMARK minimizedAffinity 10.587656
REMARK minimizedRMSD -1
REMARK  2 active torsions:
REMARK  status: ('A' for Active; 'I' for Inactive)
REMARK    1  A    between atoms: C1_2  and  C2_3 
REMARK    2  A    between atoms: C2_3  and  C3_4 
ROOT
ATOM      1  C3  UNL d   1       2.516  -1.986  -4.346  0.00  0.00    -0.075 A 
ATOM      2  C4  UNL d   1       1.674  -2.803  -5.114  0.00  0.00     0.002 A 
ATOM      3  C5  UNL d   1       0.349  -2.436  -5.347  0.00  0.00     0.002 A 
ATOM      4  C6  UNL d   1      -0.154  -1.254  -4.808  0.00  0.00    -0.004 A 
ATOM      5  C7  UNL d   1       0.668  -0.442  -4.029  0.00  0.00     0.002 A 
ATOM      6  C8  UNL d   1       1.996  -0.805  -3.798  0.00  0.00     0.002 A 
ENDROOT
BRANCH   1   7
ATOM      7  C2  UNL d   1       3.960  -2.363  -4.115  0.00  0.00     0.056 C 
BRANCH   7   8
ATOM      8  C1  UNL d   1       4.434  -3.556  -4.951  0.00  0.00     0.007 C 
ATOM      9  C   UNL d   1       5.950  -3.665  -5.036  0.00  0.00     0.009 C 
ENDBRANCH   7   8
ENDBRANCH   1   7
TORSDOF 2
ENDMDL
