MODEL 1
REMARK minimizedAffinity 16.0813713
REMARK minimizedRMSD -1
REMARK  2 active torsions:
REMARK  status: ('A' for Active; 'I' for Inactive)
REMARK    1  A    between atoms: C1_2  and  C2_3 
REMARK    2  A    between atoms: C2_3  and  C3_4 
ROOT
ATOM      1  C3  UNL d   1       0.029  -2.294   2.598  0.00  0.00    -0.075 A 
ATOM      2  C4  UNL d   1      -0.439  -1.312   1.713  0.00  0.00     0.002 A 
ATOM      3  C5  UNL d   1      -1.776  -1.297   1.313  0.00  0.00     0.002 A 
ATOM      4  C6  UNL d   1      -2.658  -2.267   1.785  0.00  0.00    -0.004 A 
ATOM      5  C7  UNL d   1      -2.200  -3.257   2.652  0.00  0.00     0.002 A 
ATOM      6  C8  UNL d   1      -0.864  -3.271   3.056  0.00  0.00     0.002 A 
ENDROOT
BRANCH   1   7
ATOM      7  C2  UNL d   1       1.467  -2.298   3.057  0.00  0.00     0.056 C 
BRANCH   7   8
ATOM      8  C1  UNL d   1       1.675  -2.896   4.453  0.00  0.00     0.007 C 
ATOM      9  C   UNL d   1       3.138  -2.949   4.872  0.00  0.00     0.009 C 
ENDBRANCH   7   8
ENDBRANCH   1   7
TORSDOF 2
ENDMDL
