MODEL 1
REMARK minimizedAffinity 11.8043194
REMARK minimizedRMSD -1
REMARK  2 active torsions:
REMARK  status: ('A' for Active; 'I' for Inactive)
REMARK    1  A    between atoms: C1_2  and  C2_3 
REMARK    2  A    between atoms: C2_3  and  C3_4 
ROOT
ATOM      1  C3  UNL d   1       3.662  -2.616   5.087  0.00  0.00    -0.075 A 
ATOM      2  C4  UNL d   1       2.583  -3.487   4.879  0.00  0.00     0.002 A 
ATOM      3  C5  UNL d   1       1.544  -3.135   4.017  0.00  0.00     0.002 A 
ATOM      4  C6  UNL d   1       1.565  -1.906   3.362  0.00  0.00    -0.004 A 
ATOM      5  C7  UNL d   1       2.624  -1.025   3.573  0.00  0.00     0.002 A 
ATOM      6  C8  UNL d   1       3.667  -1.377   4.431  0.00  0.00     0.002 A 
ENDROOT
BRANCH   1   7
ATOM      7  C2  UNL d   1       4.804  -3.003   5.995  0.00  0.00     0.056 C 
BRANCH   7   8
ATOM      8  C1  UNL d   1       6.000  -3.624   5.264  0.00  0.00     0.007 C 
ATOM      9  C   UNL d   1       5.991  -5.147   5.284  0.00  0.00     0.009 C 
ENDBRANCH   7   8
ENDBRANCH   1   7
TORSDOF 2
ENDMDL
