MODEL 1
REMARK minimizedAffinity 20.0562897
REMARK minimizedRMSD -1
REMARK  2 active torsions:
REMARK  status: ('A' for Active; 'I' for Inactive)
REMARK    1  A    between atoms: C1_2  and  C2_3 
REMARK    2  A    between atoms: C2_3  and  C3_4 
ROOT
ATOM      1  C3  UNL d   1      -0.480   0.355   2.466  0.00  0.00    -0.075 A 
ATOM      2  C4  UNL d   1      -1.744   0.962   2.457  0.00  0.00     0.002 A 
ATOM      3  C5  UNL d   1      -2.901   0.189   2.359  0.00  0.00     0.002 A 
ATOM      4  C6  UNL d   1      -2.809  -1.198   2.258  0.00  0.00    -0.004 A 
ATOM      5  C7  UNL d   1      -1.558  -1.811   2.249  0.00  0.00     0.002 A 
ATOM      6  C8  UNL d   1      -0.399  -1.040   2.351  0.00  0.00     0.002 A 
ENDROOT
BRANCH   1   7
ATOM      7  C2  UNL d   1       0.775   1.184   2.601  0.00  0.00     0.056 C 
BRANCH   7   8
ATOM      8  C1  UNL d   1       1.844   0.873   1.549  0.00  0.00     0.007 C 
ATOM      9  C   UNL d   1       3.174   1.562   1.823  0.00  0.00     0.009 C 
ENDBRANCH   7   8
ENDBRANCH   1   7
TORSDOF 2
ENDMDL
