MODEL 1
REMARK minimizedAffinity -4.69082403
REMARK minimizedRMSD -1
REMARK  3 active torsions:
REMARK  status: ('A' for Active; 'I' for Inactive)
REMARK    1  A    between atoms: C3'_2  and  C2'_3 
REMARK    2  A    between atoms: C2'_3  and  C1'_4 
REMARK    3  A    between atoms: C1'_4  and  C1_5 
ROOT
ATOM      1  C1  N4B d   1      -1.007   0.846  -0.197  0.00  0.00    -0.075 A 
ATOM      2  C2  N4B d   1      -0.500   1.972  -0.883  0.00  0.00     0.002 A 
ATOM      3  C3  N4B d   1       0.726   1.906  -1.498  0.00  0.00     0.002 A 
ATOM      4  C4  N4B d   1       1.469   0.737  -1.424  0.00  0.00    -0.004 A 
ATOM      5  C5  N4B d   1       0.961  -0.353  -0.781  0.00  0.00     0.002 A 
ATOM      6  C6  N4B d   1      -0.272  -0.303  -0.162  0.00  0.00     0.002 A 
ENDROOT
BRANCH   1   7
ATOM      7  C1' N4B d   1      -2.304   0.897   0.563  0.00  0.00     0.057 C 
BRANCH   7   8
ATOM      8  C2' N4B d   1      -2.227   2.004   1.611  0.00  0.00     0.009 C 
BRANCH   8   9
ATOM      9  C3' N4B d   1      -1.002   1.862   2.498  0.00  0.00     0.004 C 
ATOM     10  C4' N4B d   1      -0.880   0.497   3.107  0.00  0.00     0.003 C 
ENDBRANCH   8   9
ENDBRANCH   7   8
ENDBRANCH   1   7
TORSDOF 3
ENDMDL
