MODEL 1
REMARK minimizedAffinity -4.27618504
REMARK minimizedRMSD -1
REMARK  3 active torsions:
REMARK  status: ('A' for Active; 'I' for Inactive)
REMARK    1  A    between atoms: C3'_2  and  C2'_3 
REMARK    2  A    between atoms: C2'_3  and  C1'_4 
REMARK    3  A    between atoms: C1'_4  and  C1_5 
ROOT
ATOM      1  C1  N4B d   1       0.466  -0.002   0.216  0.00  0.00    -0.075 A 
ATOM      2  C2  N4B d   1       0.026  -0.871   1.238  0.00  0.00     0.002 A 
ATOM      3  C3  N4B d   1      -0.807  -0.403   2.225  0.00  0.00     0.002 A 
ATOM      4  C4  N4B d   1      -1.197   0.928   2.220  0.00  0.00    -0.004 A 
ATOM      5  C5  N4B d   1      -0.788   1.754   1.215  0.00  0.00     0.002 A 
ATOM      6  C6  N4B d   1       0.046   1.297   0.214  0.00  0.00     0.002 A 
ENDROOT
BRANCH   1   7
ATOM      7  C1' N4B d   1       1.446  -0.445  -0.836  0.00  0.00     0.057 C 
BRANCH   7   8
ATOM      8  C2' N4B d   1       1.253  -1.935  -1.104  0.00  0.00     0.009 C 
BRANCH   8   9
ATOM      9  C3' N4B d   1       0.502  -2.187  -2.400  0.00  0.00     0.004 C 
ATOM     10  C4' N4B d   1      -0.426  -3.362  -2.315  0.00  0.00     0.003 C 
ENDBRANCH   8   9
ENDBRANCH   7   8
ENDBRANCH   1   7
TORSDOF 3
ENDMDL
