MODEL 1
REMARK minimizedAffinity -6.24961519
REMARK minimizedRMSD -1
REMARK  3 active torsions:
REMARK  status: ('A' for Active; 'I' for Inactive)
REMARK    1  A    between atoms: C3'_2  and  C2'_3 
REMARK    2  A    between atoms: C2'_3  and  C1'_4 
REMARK    3  A    between atoms: C1'_4  and  C1_5 
ROOT
ATOM      1  C1  N4B d   1      -0.045  -0.043   0.108  0.00  0.00    -0.075 A 
ATOM      2  C2  N4B d   1      -0.951   0.712  -0.669  0.00  0.00     0.002 A 
ATOM      3  C3  N4B d   1      -1.928   1.456  -0.055  0.00  0.00     0.002 A 
ATOM      4  C4  N4B d   1      -2.031   1.446   1.328  0.00  0.00    -0.004 A 
ATOM      5  C5  N4B d   1      -1.136   0.734   2.073  0.00  0.00     0.002 A 
ATOM      6  C6  N4B d   1      -0.146  -0.015   1.469  0.00  0.00     0.002 A 
ENDROOT
BRANCH   1   7
ATOM      7  C1' N4B d   1       0.986  -0.940  -0.521  0.00  0.00     0.057 C 
BRANCH   7   8
ATOM      8  C2' N4B d   1       0.416  -1.533  -1.806  0.00  0.00     0.009 C 
BRANCH   8   9
ATOM      9  C3' N4B d   1       0.428  -3.052  -1.785  0.00  0.00     0.004 C 
ATOM     10  C4' N4B d   1       1.169  -3.643  -2.946  0.00  0.00     0.003 C 
ENDBRANCH   8   9
ENDBRANCH   7   8
ENDBRANCH   1   7
TORSDOF 3
ENDMDL
