MODEL 1
REMARK minimizedAffinity -5.17337418
REMARK minimizedRMSD -1
REMARK  3 active torsions:
REMARK  status: ('A' for Active; 'I' for Inactive)
REMARK    1  A    between atoms: C3'_2  and  C2'_3 
REMARK    2  A    between atoms: C2'_3  and  C1'_4 
REMARK    3  A    between atoms: C1'_4  and  C1_5 
ROOT
ATOM      1  C1  N4B d   1      -0.011   1.181   0.137  0.00  0.00    -0.075 A 
ATOM      2  C2  N4B d   1      -0.979   0.688   1.040  0.00  0.00     0.002 A 
ATOM      3  C3  N4B d   1      -1.940   1.530   1.544  0.00  0.00     0.002 A 
ATOM      4  C4  N4B d   1      -1.941   2.867   1.176  0.00  0.00    -0.004 A 
ATOM      5  C5  N4B d   1      -1.018   3.330   0.284  0.00  0.00     0.002 A 
ATOM      6  C6  N4B d   1      -0.050   2.494  -0.234  0.00  0.00     0.002 A 
ENDROOT
BRANCH   1   7
ATOM      7  C1' N4B d   1       1.110   0.318  -0.374  0.00  0.00     0.057 C 
BRANCH   7   8
ATOM      8  C2' N4B d   1       0.704  -1.148  -0.264  0.00  0.00     0.009 C 
BRANCH   8   9
ATOM      9  C3' N4B d   1       0.741  -1.851  -1.610  0.00  0.00     0.004 C 
ATOM     10  C4' N4B d   1       1.053  -3.313  -1.494  0.00  0.00     0.003 C 
ENDBRANCH   8   9
ENDBRANCH   7   8
ENDBRANCH   1   7
TORSDOF 3
ENDMDL
