MODEL 1
REMARK minimizedAffinity -5.49238968
REMARK minimizedRMSD -1
REMARK  3 active torsions:
REMARK  status: ('A' for Active; 'I' for Inactive)
REMARK    1  A    between atoms: C3'_2  and  C2'_3 
REMARK    2  A    between atoms: C2'_3  and  C1'_4 
REMARK    3  A    between atoms: C1'_4  and  C1_5 
ROOT
ATOM      1  C1  N4B d   1       0.108   0.115   0.239  0.00  0.00    -0.075 A 
ATOM      2  C2  N4B d   1      -0.744   1.069  -0.359  0.00  0.00     0.002 A 
ATOM      3  C3  N4B d   1      -1.718   1.684   0.389  0.00  0.00     0.002 A 
ATOM      4  C4  N4B d   1      -1.869   1.350   1.727  0.00  0.00    -0.004 A 
ATOM      5  C5  N4B d   1      -1.025   0.446   2.303  0.00  0.00     0.002 A 
ATOM      6  C6  N4B d   1      -0.039  -0.177   1.564  0.00  0.00     0.002 A 
ENDROOT
BRANCH   1   7
ATOM      7  C1' N4B d   1       1.131  -0.646  -0.559  0.00  0.00     0.057 C 
BRANCH   7   8
ATOM      8  C2' N4B d   1       0.419  -1.483  -1.617  0.00  0.00     0.009 C 
BRANCH   8   9
ATOM      9  C3' N4B d   1       1.007  -2.880  -1.727  0.00  0.00     0.004 C 
ATOM     10  C4' N4B d   1       0.506  -3.627  -2.927  0.00  0.00     0.003 C 
ENDBRANCH   8   9
ENDBRANCH   7   8
ENDBRANCH   1   7
TORSDOF 3
ENDMDL
