MODEL 1
REMARK minimizedAffinity -4.91346645
REMARK minimizedRMSD -1
REMARK  3 active torsions:
REMARK  status: ('A' for Active; 'I' for Inactive)
REMARK    1  A    between atoms: C3'_2  and  C2'_3 
REMARK    2  A    between atoms: C2'_3  and  C1'_4 
REMARK    3  A    between atoms: C1'_4  and  C1_5 
ROOT
ATOM      1  C1  N4B d   1      -0.217   0.273   0.407  0.00  0.00    -0.075 A 
ATOM      2  C2  N4B d   1      -0.282   0.235   1.817  0.00  0.00     0.002 A 
ATOM      3  C3  N4B d   1      -0.980   1.201   2.499  0.00  0.00     0.002 A 
ATOM      4  C4  N4B d   1      -1.602   2.222   1.796  0.00  0.00    -0.004 A 
ATOM      5  C5  N4B d   1      -1.556   2.238   0.433  0.00  0.00     0.002 A 
ATOM      6  C6  N4B d   1      -0.861   1.271  -0.265  0.00  0.00     0.002 A 
ENDROOT
BRANCH   1   7
ATOM      7  C1' N4B d   1       0.606  -0.712  -0.377  0.00  0.00     0.057 C 
BRANCH   7   8
ATOM      8  C2' N4B d   1      -0.310  -1.493  -1.316  0.00  0.00     0.009 C 
BRANCH   8   9
ATOM      9  C3' N4B d   1       0.296  -2.826  -1.721  0.00  0.00     0.004 C 
ATOM     10  C4' N4B d   1      -0.123  -3.261  -3.093  0.00  0.00     0.003 C 
ENDBRANCH   8   9
ENDBRANCH   7   8
ENDBRANCH   1   7
TORSDOF 3
ENDMDL
