MODEL 1
REMARK minimizedAffinity -5.88472652
REMARK minimizedRMSD -1
REMARK  3 active torsions:
REMARK  status: ('A' for Active; 'I' for Inactive)
REMARK    1  A    between atoms: C3'_2  and  C2'_3 
REMARK    2  A    between atoms: C2'_3  and  C1'_4 
REMARK    3  A    between atoms: C1'_4  and  C1_5 
ROOT
ATOM      1  C1  N4B d   1       0.252   1.054   0.195  0.00  0.00    -0.075 A 
ATOM      2  C2  N4B d   1      -0.214   2.226  -0.439  0.00  0.00     0.002 A 
ATOM      3  C3  N4B d   1      -1.204   2.976   0.148  0.00  0.00     0.002 A 
ATOM      4  C4  N4B d   1      -1.754   2.565   1.353  0.00  0.00    -0.004 A 
ATOM      5  C5  N4B d   1      -1.280   1.445   1.971  0.00  0.00     0.002 A 
ATOM      6  C6  N4B d   1      -0.283   0.684   1.395  0.00  0.00     0.002 A 
ENDROOT
BRANCH   1   7
ATOM      7  C1' N4B d   1       1.272   0.155  -0.449  0.00  0.00     0.057 C 
BRANCH   7   8
ATOM      8  C2' N4B d   1       0.749  -1.278  -0.448  0.00  0.00     0.009 C 
BRANCH   8   9
ATOM      9  C3' N4B d   1       0.049  -1.629  -1.749  0.00  0.00     0.004 C 
ATOM     10  C4' N4B d   1       0.146  -3.086  -2.087  0.00  0.00     0.003 C 
ENDBRANCH   8   9
ENDBRANCH   7   8
ENDBRANCH   1   7
TORSDOF 3
ENDMDL
