MODEL 1
REMARK minimizedAffinity -4.41341162
REMARK minimizedRMSD -1
REMARK  3 active torsions:
REMARK  status: ('A' for Active; 'I' for Inactive)
REMARK    1  A    between atoms: C3'_2  and  C2'_3 
REMARK    2  A    between atoms: C2'_3  and  C1'_4 
REMARK    3  A    between atoms: C1'_4  and  C1_5 
ROOT
ATOM      1  C1  N4B d   1      -0.605   0.838   0.532  0.00  0.00    -0.075 A 
ATOM      2  C2  N4B d   1      -1.381   1.368   1.587  0.00  0.00     0.002 A 
ATOM      3  C3  N4B d   1      -1.797   2.676   1.544  0.00  0.00     0.002 A 
ATOM      4  C4  N4B d   1      -1.434   3.476   0.471  0.00  0.00    -0.004 A 
ATOM      5  C5  N4B d   1      -0.706   2.950  -0.556  0.00  0.00     0.002 A 
ATOM      6  C6  N4B d   1      -0.285   1.636  -0.528  0.00  0.00     0.002 A 
ENDROOT
BRANCH   1   7
ATOM      7  C1' N4B d   1      -0.056  -0.561   0.576  0.00  0.00     0.057 C 
BRANCH   7   8
ATOM      8  C2' N4B d   1       0.674  -0.853  -0.732  0.00  0.00     0.009 C 
BRANCH   8   9
ATOM      9  C3' N4B d   1       1.129  -2.300  -0.818  0.00  0.00     0.004 C 
ATOM     10  C4' N4B d   1       0.732  -2.958  -2.106  0.00  0.00     0.003 C 
ENDBRANCH   8   9
ENDBRANCH   7   8
ENDBRANCH   1   7
TORSDOF 3
ENDMDL
