MODEL 1
REMARK minimizedAffinity -5.14841461
REMARK minimizedRMSD -1
REMARK  3 active torsions:
REMARK  status: ('A' for Active; 'I' for Inactive)
REMARK    1  A    between atoms: C3'_2  and  C2'_3 
REMARK    2  A    between atoms: C2'_3  and  C1'_4 
REMARK    3  A    between atoms: C1'_4  and  C1_5 
ROOT
ATOM      1  C1  N4B d   1       0.753  -1.556  -1.331  0.00  0.00    -0.075 A 
ATOM      2  C2  N4B d   1       1.598  -2.640  -1.008  0.00  0.00     0.002 A 
ATOM      3  C3  N4B d   1       1.471  -3.833  -1.675  0.00  0.00     0.002 A 
ATOM      4  C4  N4B d   1       0.497  -3.972  -2.653  0.00  0.00    -0.004 A 
ATOM      5  C5  N4B d   1      -0.299  -2.912  -2.977  0.00  0.00     0.002 A 
ATOM      6  C6  N4B d   1      -0.179  -1.705  -2.317  0.00  0.00     0.002 A 
ENDROOT
BRANCH   1   7
ATOM      7  C1' N4B d   1       0.797  -0.259  -0.570  0.00  0.00     0.057 C 
BRANCH   7   8
ATOM      8  C2' N4B d   1      -0.525  -0.066   0.167  0.00  0.00     0.009 C 
BRANCH   8   9
ATOM      9  C3' N4B d   1      -0.314   0.242   1.640  0.00  0.00     0.004 C 
ATOM     10  C4' N4B d   1      -1.002   1.502   2.074  0.00  0.00     0.003 C 
ENDBRANCH   8   9
ENDBRANCH   7   8
ENDBRANCH   1   7
TORSDOF 3
ENDMDL
