MODEL 1
REMARK minimizedAffinity 1.3677038
REMARK minimizedRMSD -1
REMARK  0 active torsions:
REMARK  status: ('A' for Active; 'I' for Inactive)
ROOT
ATOM      1  C1  DEN d   1       0.703   4.241   0.865  0.00  0.00     0.130 A 
ATOM      2  C2  DEN d   1       2.016   4.867   0.731  0.00  0.00    -0.031 A 
ATOM      3  C3  DEN d   1       2.981   3.824   0.330  0.00  0.00     0.027 A 
ATOM      4  C4  DEN d   1       2.570   1.314  -0.101  0.00  0.00     0.027 A 
ATOM      5  C5  DEN d   1       1.621   0.316  -0.103  0.00  0.00    -0.003 A 
ATOM      6  C6  DEN d   1       0.317   0.548   0.248  0.00  0.00     0.001 A 
ATOM      7  C7  DEN d   1      -0.083   1.817   0.572  0.00  0.00     0.017 A 
ATOM      8  C8  DEN d   1       0.870   2.827   0.583  0.00  0.00    -0.094 A 
ATOM      9  C9  DEN d   1       2.180   2.575   0.214  0.00  0.00    -0.072 A 
ENDROOT
TORSDOF 0
ENDMDL
