MODEL 1
REMARK minimizedAffinity 1.99985075
REMARK minimizedRMSD -1
REMARK  0 active torsions:
REMARK  status: ('A' for Active; 'I' for Inactive)
ROOT
ATOM      1  C1  DEN d   1      -0.876   0.432  -0.846  0.00  0.00     0.130 A 
ATOM      2  C2  DEN d   1      -1.822  -0.671  -0.992  0.00  0.00    -0.031 A 
ATOM      3  C3  DEN d   1      -2.314  -1.031   0.352  0.00  0.00     0.027 A 
ATOM      4  C4  DEN d   1      -1.709   0.008   2.634  0.00  0.00     0.027 A 
ATOM      5  C5  DEN d   1      -0.942   0.962   3.265  0.00  0.00    -0.003 A 
ATOM      6  C6  DEN d   1      -0.081   1.777   2.579  0.00  0.00     0.001 A 
ATOM      7  C7  DEN d   1       0.001   1.684   1.215  0.00  0.00     0.017 A 
ATOM      8  C8  DEN d   1      -0.764   0.719   0.572  0.00  0.00    -0.094 A 
ATOM      9  C9  DEN d   1      -1.638  -0.087   1.282  0.00  0.00    -0.072 A 
ENDROOT
TORSDOF 0
ENDMDL
