MODEL 1
REMARK minimizedAffinity -4.2942276
REMARK minimizedRMSD -1
REMARK  0 active torsions:
REMARK  status: ('A' for Active; 'I' for Inactive)
ROOT
ATOM      1  C1  DEN d   1      -2.073   0.441   1.613  0.00  0.00     0.130 A 
ATOM      2  C2  DEN d   1      -1.891  -0.459   0.477  0.00  0.00    -0.031 A 
ATOM      3  C3  DEN d   1      -0.479  -0.379   0.053  0.00  0.00     0.027 A 
ATOM      4  C4  DEN d   1       1.435   1.040   1.041  0.00  0.00     0.027 A 
ATOM      5  C5  DEN d   1       1.762   1.967   2.006  0.00  0.00    -0.003 A 
ATOM      6  C6  DEN d   1       0.834   2.473   2.877  0.00  0.00     0.001 A 
ATOM      7  C7  DEN d   1      -0.458   2.019   2.832  0.00  0.00     0.017 A 
ATOM      8  C8  DEN d   1      -0.797   1.089   1.858  0.00  0.00    -0.094 A 
ATOM      9  C9  DEN d   1       0.158   0.581   0.993  0.00  0.00    -0.072 A 
ENDROOT
TORSDOF 0
ENDMDL
