MODEL 1
REMARK minimizedAffinity -2.05265856
REMARK minimizedRMSD -1
REMARK  0 active torsions:
REMARK  status: ('A' for Active; 'I' for Inactive)
ROOT
ATOM      1  C1  DEN d   1      -1.620   1.012   2.299  0.00  0.00     0.130 A 
ATOM      2  C2  DEN d   1      -0.711   1.560   3.302  0.00  0.00    -0.031 A 
ATOM      3  C3  DEN d   1       0.653   1.089   2.988  0.00  0.00     0.027 A 
ATOM      4  C4  DEN d   1       1.442  -0.426   1.055  0.00  0.00     0.027 A 
ATOM      5  C5  DEN d   1       1.032  -1.148  -0.044  0.00  0.00    -0.003 A 
ATOM      6  C6  DEN d   1      -0.283  -1.228  -0.416  0.00  0.00     0.001 A 
ATOM      7  C7  DEN d   1      -1.232  -0.537   0.291  0.00  0.00     0.017 A 
ATOM      8  C8  DEN d   1      -0.828   0.187   1.405  0.00  0.00    -0.094 A 
ATOM      9  C9  DEN d   1       0.509   0.265   1.758  0.00  0.00    -0.072 A 
ENDROOT
TORSDOF 0
ENDMDL
