MODEL 1
REMARK minimizedAffinity -1.78332567
REMARK minimizedRMSD -1
REMARK  0 active torsions:
REMARK  status: ('A' for Active; 'I' for Inactive)
ROOT
ATOM      1  C1  DEN d   1       1.883  -0.371   2.296  0.00  0.00     0.130 A 
ATOM      2  C2  DEN d   1       2.706  -0.810   1.172  0.00  0.00    -0.031 A 
ATOM      3  C3  DEN d   1       1.853  -0.845  -0.033  0.00  0.00     0.027 A 
ATOM      4  C4  DEN d   1      -0.649  -0.261  -0.266  0.00  0.00     0.027 A 
ATOM      5  C5  DEN d   1      -1.774   0.150   0.414  0.00  0.00    -0.003 A 
ATOM      6  C6  DEN d   1      -1.767   0.382   1.764  0.00  0.00     0.001 A 
ATOM      7  C7  DEN d   1      -0.601   0.248   2.470  0.00  0.00     0.017 A 
ATOM      8  C8  DEN d   1       0.536  -0.174   1.792  0.00  0.00    -0.094 A 
ATOM      9  C9  DEN d   1       0.512  -0.392   0.425  0.00  0.00    -0.072 A 
ENDROOT
TORSDOF 0
ENDMDL
