MODEL 1
REMARK minimizedAffinity -1.43438756
REMARK minimizedRMSD -1
REMARK  0 active torsions:
REMARK  status: ('A' for Active; 'I' for Inactive)
ROOT
ATOM      1  C1  DEN d   1       1.139  -0.400   1.097  0.00  0.00     0.130 A 
ATOM      2  C2  DEN d   1       2.132   0.660   0.944  0.00  0.00    -0.031 A 
ATOM      3  C3  DEN d   1       2.047   1.539   2.127  0.00  0.00     0.027 A 
ATOM      4  C4  DEN d   1       0.485   1.362   4.172  0.00  0.00     0.027 A 
ATOM      5  C5  DEN d   1      -0.536   0.637   4.745  0.00  0.00    -0.003 A 
ATOM      6  C6  DEN d   1      -1.090  -0.455   4.131  0.00  0.00     0.001 A 
ATOM      7  C7  DEN d   1      -0.594  -0.881   2.927  0.00  0.00     0.017 A 
ATOM      8  C8  DEN d   1       0.431  -0.151   2.340  0.00  0.00    -0.094 A 
ATOM      9  C9  DEN d   1       0.986   0.943   2.982  0.00  0.00    -0.072 A 
ENDROOT
TORSDOF 0
ENDMDL
