MODEL 1
REMARK minimizedAffinity 2.0594697
REMARK minimizedRMSD -1
REMARK  0 active torsions:
REMARK  status: ('A' for Active; 'I' for Inactive)
ROOT
ATOM      1  C1  DEN d   1       1.143  -1.013  -0.468  0.00  0.00     0.130 A 
ATOM      2  C2  DEN d   1       2.106  -0.638   0.563  0.00  0.00    -0.031 A 
ATOM      3  C3  DEN d   1       1.367   0.012   1.664  0.00  0.00     0.027 A 
ATOM      4  C4  DEN d   1      -1.164   0.467   1.872  0.00  0.00     0.027 A 
ATOM      5  C5  DEN d   1      -2.382   0.340   1.243  0.00  0.00    -0.003 A 
ATOM      6  C6  DEN d   1      -2.506  -0.212  -0.005  0.00  0.00     0.001 A 
ATOM      7  C7  DEN d   1      -1.397  -0.699  -0.645  0.00  0.00     0.017 A 
ATOM      8  C8  DEN d   1      -0.164  -0.567  -0.020  0.00  0.00    -0.094 A 
ATOM      9  C9  DEN d   1      -0.061  -0.018   1.246  0.00  0.00    -0.072 A 
ENDROOT
TORSDOF 0
ENDMDL
