MODEL 1
REMARK minimizedAffinity -6.90965748
REMARK minimizedRMSD -1
REMARK  0 active torsions:
REMARK  status: ('A' for Active; 'I' for Inactive)
ROOT
ATOM      1  C1  DEN d   1      -0.394   0.885   2.237  0.00  0.00     0.130 A 
ATOM      2  C2  DEN d   1       0.514   0.998   3.374  0.00  0.00    -0.031 A 
ATOM      3  C3  DEN d   1       1.839   0.501   2.952  0.00  0.00     0.027 A 
ATOM      4  C4  DEN d   1       2.570  -0.425   0.658  0.00  0.00     0.027 A 
ATOM      5  C5  DEN d   1       2.146  -0.726  -0.617  0.00  0.00    -0.003 A 
ATOM      6  C6  DEN d   1       0.848  -0.546  -1.017  0.00  0.00     0.001 A 
ATOM      7  C7  DEN d   1      -0.062  -0.007  -0.146  0.00  0.00     0.017 A 
ATOM      8  C8  DEN d   1       0.356   0.293   1.144  0.00  0.00    -0.094 A 
ATOM      9  C9  DEN d   1       1.675   0.115   1.525  0.00  0.00    -0.072 A 
ENDROOT
TORSDOF 0
ENDMDL
