MODEL 1
REMARK minimizedAffinity -6.5935235
REMARK minimizedRMSD -1
REMARK  0 active torsions:
REMARK  status: ('A' for Active; 'I' for Inactive)
ROOT
ATOM      1  C1  DEN d   1       2.043   0.054   0.635  0.00  0.00     0.130 A 
ATOM      2  C2  DEN d   1       2.230  -0.912  -0.444  0.00  0.00    -0.031 A 
ATOM      3  C3  DEN d   1       0.897  -1.302  -0.944  0.00  0.00     0.027 A 
ATOM      4  C4  DEN d   1      -1.427  -0.505  -0.160  0.00  0.00     0.027 A 
ATOM      5  C5  DEN d   1      -2.094   0.303   0.735  0.00  0.00    -0.003 A 
ATOM      6  C6  DEN d   1      -1.436   1.051   1.674  0.00  0.00     0.001 A 
ATOM      7  C7  DEN d   1      -0.066   1.043   1.710  0.00  0.00     0.017 A 
ATOM      8  C8  DEN d   1       0.613   0.226   0.816  0.00  0.00    -0.094 A 
ATOM      9  C9  DEN d   1      -0.070  -0.514  -0.134  0.00  0.00    -0.072 A 
ENDROOT
TORSDOF 0
ENDMDL
