MODEL 1
REMARK minimizedAffinity -3.93743467
REMARK minimizedRMSD -1
REMARK  0 active torsions:
REMARK  status: ('A' for Active; 'I' for Inactive)
ROOT
ATOM      1  C1  DEN d   1       2.397  -0.769   1.842  0.00  0.00     0.130 A 
ATOM      2  C2  DEN d   1       2.151  -0.548   3.264  0.00  0.00    -0.031 A 
ATOM      3  C3  DEN d   1       0.739  -0.148   3.427  0.00  0.00     0.027 A 
ATOM      4  C4  DEN d   1      -1.082   0.144   1.624  0.00  0.00     0.027 A 
ATOM      5  C5  DEN d   1      -1.346   0.080   0.274  0.00  0.00    -0.003 A 
ATOM      6  C6  DEN d   1      -0.380  -0.236  -0.644  0.00  0.00     0.001 A 
ATOM      7  C7  DEN d   1       0.886  -0.544  -0.220  0.00  0.00     0.017 A 
ATOM      8  C8  DEN d   1       1.161  -0.474   1.140  0.00  0.00    -0.094 A 
ATOM      9  C9  DEN d   1       0.167  -0.165   2.053  0.00  0.00    -0.072 A 
ENDROOT
TORSDOF 0
ENDMDL
