MODEL 1
REMARK minimizedAffinity 0.69932586
REMARK minimizedRMSD -1
REMARK  0 active torsions:
REMARK  status: ('A' for Active; 'I' for Inactive)
ROOT
ATOM      1  C1  DEN d   1       1.347  -0.164   0.734  0.00  0.00     0.130 A 
ATOM      2  C2  DEN d   1       0.503  -0.573  -0.385  0.00  0.00    -0.031 A 
ATOM      3  C3  DEN d   1      -0.900  -0.572   0.077  0.00  0.00     0.027 A 
ATOM      4  C4  DEN d   1      -1.841   0.025   2.403  0.00  0.00     0.027 A 
ATOM      5  C5  DEN d   1      -1.511   0.421   3.680  0.00  0.00    -0.003 A 
ATOM      6  C6  DEN d   1      -0.212   0.614   4.071  0.00  0.00     0.001 A 
ATOM      7  C7  DEN d   1       0.801   0.456   3.163  0.00  0.00     0.017 A 
ATOM      8  C8  DEN d   1       0.476   0.051   1.875  0.00  0.00    -0.094 A 
ATOM      9  C9  DEN d   1      -0.844  -0.128   1.496  0.00  0.00    -0.072 A 
ENDROOT
TORSDOF 0
ENDMDL
