MODEL 1
REMARK minimizedAffinity -5.23323393
REMARK minimizedRMSD -1
REMARK  2 active torsions:
REMARK  status: ('A' for Active; 'I' for Inactive)
REMARK    1  A    between atoms: C1_2  and  C2_3 
REMARK    2  A    between atoms: C2_3  and  C3_4 
ROOT
ATOM      1  C3  UNL d   1      -0.769   0.324  -0.250  0.00  0.00    -0.075 A 
ATOM      2  C4  UNL d   1      -1.178   0.079  -1.569  0.00  0.00     0.002 A 
ATOM      3  C5  UNL d   1      -2.209   0.823  -2.141  0.00  0.00     0.002 A 
ATOM      4  C6  UNL d   1      -2.852   1.813  -1.401  0.00  0.00    -0.004 A 
ATOM      5  C7  UNL d   1      -2.466   2.054  -0.084  0.00  0.00     0.002 A 
ATOM      6  C8  UNL d   1      -1.431   1.313   0.490  0.00  0.00     0.002 A 
ENDROOT
BRANCH   1   7
ATOM      7  C2  UNL d   1       0.366  -0.458   0.365  0.00  0.00     0.056 C 
BRANCH   7   8
ATOM      8  C1  UNL d   1       1.659   0.347   0.533  0.00  0.00     0.007 C 
ATOM      9  C   UNL d   1       2.903  -0.419   0.103  0.00  0.00     0.009 C 
ENDBRANCH   7   8
ENDBRANCH   1   7
TORSDOF 2
ENDMDL
