MODEL 1
REMARK minimizedAffinity 0.112113453
REMARK minimizedRMSD -1
REMARK  2 active torsions:
REMARK  status: ('A' for Active; 'I' for Inactive)
REMARK    1  A    between atoms: C1_2  and  C2_3 
REMARK    2  A    between atoms: C2_3  and  C3_4 
ROOT
ATOM      1  C3  UNL d   1      -0.245   1.211   0.478  0.00  0.00    -0.075 A 
ATOM      2  C4  UNL d   1      -1.311   0.300   0.513  0.00  0.00     0.002 A 
ATOM      3  C5  UNL d   1      -1.075  -1.071   0.408  0.00  0.00     0.002 A 
ATOM      4  C6  UNL d   1       0.226  -1.547   0.257  0.00  0.00    -0.004 A 
ATOM      5  C7  UNL d   1       1.290  -0.650   0.205  0.00  0.00     0.002 A 
ATOM      6  C8  UNL d   1       1.057   0.722   0.314  0.00  0.00     0.002 A 
ENDROOT
BRANCH   1   7
ATOM      7  C2  UNL d   1      -0.492   2.694   0.621  0.00  0.00     0.056 C 
BRANCH   7   8
ATOM      8  C1  UNL d   1      -1.725   3.043   1.460  0.00  0.00     0.007 C 
ATOM      9  C   UNL d   1      -1.793   4.516   1.844  0.00  0.00     0.009 C 
ENDBRANCH   7   8
ENDBRANCH   1   7
TORSDOF 2
ENDMDL
