MODEL 1
REMARK minimizedAffinity -1.65274751
REMARK minimizedRMSD -1
REMARK  2 active torsions:
REMARK  status: ('A' for Active; 'I' for Inactive)
REMARK    1  A    between atoms: C1_2  and  C2_3 
REMARK    2  A    between atoms: C2_3  and  C3_4 
ROOT
ATOM      1  C3  UNL d   1      -1.377  -0.354  -1.547  0.00  0.00    -0.075 A 
ATOM      2  C4  UNL d   1      -2.258  -1.441  -1.645  0.00  0.00     0.002 A 
ATOM      3  C5  UNL d   1      -2.982  -1.663  -2.816  0.00  0.00     0.002 A 
ATOM      4  C6  UNL d   1      -2.842  -0.797  -3.899  0.00  0.00    -0.004 A 
ATOM      5  C7  UNL d   1      -1.983   0.295  -3.807  0.00  0.00     0.002 A 
ATOM      6  C8  UNL d   1      -1.254   0.517  -2.638  0.00  0.00     0.002 A 
ENDROOT
BRANCH   1   7
ATOM      7  C2  UNL d   1      -0.569  -0.125  -0.292  0.00  0.00     0.056 C 
BRANCH   7   8
ATOM      8  C1  UNL d   1      -0.150  -1.414   0.424  0.00  0.00     0.007 C 
ATOM      9  C   UNL d   1       1.341  -1.473   0.730  0.00  0.00     0.009 C 
ENDBRANCH   7   8
ENDBRANCH   1   7
TORSDOF 2
ENDMDL
