MODEL 1
REMARK minimizedAffinity -3.74335027
REMARK minimizedRMSD -1
REMARK  2 active torsions:
REMARK  status: ('A' for Active; 'I' for Inactive)
REMARK    1  A    between atoms: C1_2  and  C2_3 
REMARK    2  A    between atoms: C2_3  and  C3_4 
ROOT
ATOM      1  C3  UNL d   1       1.696   0.048   1.337  0.00  0.00    -0.075 A 
ATOM      2  C4  UNL d   1       1.053   0.791   0.336  0.00  0.00     0.002 A 
ATOM      3  C5  UNL d   1      -0.171   0.369  -0.184  0.00  0.00     0.002 A 
ATOM      4  C6  UNL d   1      -0.761  -0.804   0.280  0.00  0.00    -0.004 A 
ATOM      5  C7  UNL d   1      -0.123  -1.559   1.262  0.00  0.00     0.002 A 
ATOM      6  C8  UNL d   1       1.099  -1.137   1.787  0.00  0.00     0.002 A 
ENDROOT
BRANCH   1   7
ATOM      7  C2  UNL d   1       3.006   0.515   1.925  0.00  0.00     0.056 C 
BRANCH   7   8
ATOM      8  C1  UNL d   1       2.957   1.929   2.513  0.00  0.00     0.007 C 
ATOM      9  C   UNL d   1       2.985   1.947   4.036  0.00  0.00     0.009 C 
ENDBRANCH   7   8
ENDBRANCH   1   7
TORSDOF 2
ENDMDL
