MODEL 1
REMARK minimizedAffinity -0.811455369
REMARK minimizedRMSD -1
REMARK  2 active torsions:
REMARK  status: ('A' for Active; 'I' for Inactive)
REMARK    1  A    between atoms: C1_2  and  C2_3 
REMARK    2  A    between atoms: C2_3  and  C3_4 
ROOT
ATOM      1  C3  UNL d   1       0.467  -0.152   0.067  0.00  0.00    -0.075 A 
ATOM      2  C4  UNL d   1       1.304  -1.251   0.307  0.00  0.00     0.002 A 
ATOM      3  C5  UNL d   1       2.467  -1.103   1.064  0.00  0.00     0.002 A 
ATOM      4  C6  UNL d   1       2.813   0.144   1.579  0.00  0.00    -0.004 A 
ATOM      5  C7  UNL d   1       1.997   1.246   1.333  0.00  0.00     0.002 A 
ATOM      6  C8  UNL d   1       0.830   1.100   0.581  0.00  0.00     0.002 A 
ENDROOT
BRANCH   1   7
ATOM      7  C2  UNL d   1      -0.809  -0.312  -0.725  0.00  0.00     0.056 C 
BRANCH   7   8
ATOM      8  C1  UNL d   1      -1.931   0.640  -0.299  0.00  0.00     0.007 C 
ATOM      9  C   UNL d   1      -2.839   1.052  -1.450  0.00  0.00     0.009 C 
ENDBRANCH   7   8
ENDBRANCH   1   7
TORSDOF 2
ENDMDL
