MODEL 1
REMARK minimizedAffinity -3.49319005
REMARK minimizedRMSD -1
REMARK  2 active torsions:
REMARK  status: ('A' for Active; 'I' for Inactive)
REMARK    1  A    between atoms: C1_2  and  C2_3 
REMARK    2  A    between atoms: C2_3  and  C3_4 
ROOT
ATOM      1  C3  UNL d   1       0.006   0.337   0.425  0.00  0.00    -0.075 A 
ATOM      2  C4  UNL d   1       1.367   0.676   0.409  0.00  0.00     0.002 A 
ATOM      3  C5  UNL d   1       2.345  -0.313   0.512  0.00  0.00     0.002 A 
ATOM      4  C6  UNL d   1       1.976  -1.651   0.641  0.00  0.00    -0.004 A 
ATOM      5  C7  UNL d   1       0.627  -1.997   0.674  0.00  0.00     0.002 A 
ATOM      6  C8  UNL d   1      -0.354  -1.009   0.568  0.00  0.00     0.002 A 
ENDROOT
BRANCH   1   7
ATOM      7  C2  UNL d   1      -1.057   1.401   0.285  0.00  0.00     0.056 C 
BRANCH   7   8
ATOM      8  C1  UNL d   1      -0.881   2.588   1.239  0.00  0.00     0.007 C 
ATOM      9  C   UNL d   1      -2.186   3.040   1.881  0.00  0.00     0.009 C 
ENDBRANCH   7   8
ENDBRANCH   1   7
TORSDOF 2
ENDMDL
