MODEL 1
REMARK minimizedAffinity -5.66845083
REMARK minimizedRMSD -1
REMARK  2 active torsions:
REMARK  status: ('A' for Active; 'I' for Inactive)
REMARK    1  A    between atoms: C1_2  and  C2_3 
REMARK    2  A    between atoms: C2_3  and  C3_4 
ROOT
ATOM      1  C3  UNL d   1       0.757   1.468   0.552  0.00  0.00    -0.075 A 
ATOM      2  C4  UNL d   1       2.088   1.429   0.991  0.00  0.00     0.002 A 
ATOM      3  C5  UNL d   1       2.750   0.210   1.136  0.00  0.00     0.002 A 
ATOM      4  C6  UNL d   1       2.089  -0.983   0.855  0.00  0.00    -0.004 A 
ATOM      5  C7  UNL d   1       0.761  -0.957   0.434  0.00  0.00     0.002 A 
ATOM      6  C8  UNL d   1       0.097   0.261   0.284  0.00  0.00     0.002 A 
ENDROOT
BRANCH   1   7
ATOM      7  C2  UNL d   1       0.043   2.786   0.364  0.00  0.00     0.056 C 
BRANCH   7   8
ATOM      8  C1  UNL d   1      -0.884   3.164   1.524  0.00  0.00     0.007 C 
ATOM      9  C   UNL d   1      -1.295   4.630   1.510  0.00  0.00     0.009 C 
ENDBRANCH   7   8
ENDBRANCH   1   7
TORSDOF 2
ENDMDL
