MODEL 1
REMARK minimizedAffinity -3.63664603
REMARK minimizedRMSD -1
REMARK  0 active torsions:
REMARK  status: ('A' for Active; 'I' for Inactive)
ROOT
ATOM      1  O1  BZF d   1       1.155  -1.964  -3.501  0.00  0.00    -0.204 OA
ATOM      2  C2  BZF d   1       2.322  -1.238  -3.365  0.00  0.00     0.174 A 
ATOM      3  C3  BZF d   1       2.128  -0.164  -2.573  0.00  0.00    -0.012 A 
ATOM      4  C3A BZF d   1       0.777  -0.273  -2.115  0.00  0.00    -0.107 A 
ATOM      5  C4  BZF d   1       0.003   0.486  -1.285  0.00  0.00     0.055 A 
ATOM      6  C5  BZF d   1      -1.300   0.145  -1.101  0.00  0.00    -0.016 A 
ATOM      7  C6  BZF d   1      -1.861  -0.944  -1.735  0.00  0.00     0.022 A 
ATOM      8  C7  BZF d   1      -1.131  -1.731  -2.563  0.00  0.00     0.029 A 
ATOM      9  C7A BZF d   1       0.194  -1.408  -2.725  0.00  0.00     0.058 A 
ENDROOT
TORSDOF 0
ENDMDL
