MODEL 1
REMARK minimizedAffinity 2.60714006
REMARK minimizedRMSD -1
REMARK  0 active torsions:
REMARK  status: ('A' for Active; 'I' for Inactive)
ROOT
ATOM      1  O1  BZF d   1      -2.369   0.516   0.264  0.00  0.00    -0.204 OA
ATOM      2  C2  BZF d   1      -2.832   0.091  -0.966  0.00  0.00     0.174 A 
ATOM      3  C3  BZF d   1      -1.805  -0.171  -1.800  0.00  0.00    -0.012 A 
ATOM      4  C3A BZF d   1      -0.625   0.020  -1.015  0.00  0.00    -0.107 A 
ATOM      5  C4  BZF d   1       0.709  -0.105  -1.279  0.00  0.00     0.055 A 
ATOM      6  C5  BZF d   1       1.608   0.226  -0.315  0.00  0.00    -0.016 A 
ATOM      7  C6  BZF d   1       1.208   0.689   0.921  0.00  0.00     0.022 A 
ATOM      8  C7  BZF d   1      -0.104   0.824   1.232  0.00  0.00     0.029 A 
ATOM      9  C7A BZF d   1      -1.015   0.460   0.271  0.00  0.00     0.058 A 
ENDROOT
TORSDOF 0
ENDMDL
