MODEL 1
REMARK minimizedAffinity -2.312886
REMARK minimizedRMSD -1
REMARK  0 active torsions:
REMARK  status: ('A' for Active; 'I' for Inactive)
ROOT
ATOM      1  O1  BZF d   1      -1.032  -1.682  -2.643  0.00  0.00    -0.204 OA
ATOM      2  C2  BZF d   1       0.124  -1.953  -3.350  0.00  0.00     0.174 A 
ATOM      3  C3  BZF d   1       1.161  -1.244  -2.860  0.00  0.00    -0.012 A 
ATOM      4  C3A BZF d   1       0.640  -0.554  -1.720  0.00  0.00    -0.107 A 
ATOM      5  C4  BZF d   1       1.192   0.297  -0.805  0.00  0.00     0.055 A 
ATOM      6  C5  BZF d   1       0.393   0.855   0.143  0.00  0.00    -0.016 A 
ATOM      7  C6  BZF d   1      -0.959   0.589   0.202  0.00  0.00     0.022 A 
ATOM      8  C7  BZF d   1      -1.550  -0.253  -0.681  0.00  0.00     0.029 A 
ATOM      9  C7A BZF d   1      -0.740  -0.844  -1.620  0.00  0.00     0.058 A 
ENDROOT
TORSDOF 0
ENDMDL
