MODEL 1
REMARK minimizedAffinity -4.34592199
REMARK minimizedRMSD -1
REMARK  0 active torsions:
REMARK  status: ('A' for Active; 'I' for Inactive)
ROOT
ATOM      1  O1  BZF d   1      -0.595   0.297  -0.632  0.00  0.00    -0.204 OA
ATOM      2  C2  BZF d   1      -1.824  -0.291  -0.860  0.00  0.00     0.174 A 
ATOM      3  C3  BZF d   1      -2.239  -0.969   0.230  0.00  0.00    -0.012 A 
ATOM      4  C3A BZF d   1      -1.248  -0.717   1.230  0.00  0.00    -0.107 A 
ATOM      5  C4  BZF d   1      -1.108  -1.104   2.532  0.00  0.00     0.055 A 
ATOM      6  C5  BZF d   1       0.013  -0.746   3.211  0.00  0.00    -0.016 A 
ATOM      7  C6  BZF d   1       1.016  -0.008   2.619  0.00  0.00     0.022 A 
ATOM      8  C7  BZF d   1       0.921   0.404   1.331  0.00  0.00     0.029 A 
ATOM      9  C7A BZF d   1      -0.226   0.072   0.652  0.00  0.00     0.058 A 
ENDROOT
TORSDOF 0
ENDMDL
