MODEL 1
REMARK minimizedAffinity -4.53008175
REMARK minimizedRMSD -1
REMARK  0 active torsions:
REMARK  status: ('A' for Active; 'I' for Inactive)
ROOT
ATOM      1  O1  BZF d   1      -0.609   0.089  -2.365  0.00  0.00    -0.204 OA
ATOM      2  C2  BZF d   1       0.742   0.314  -2.185  0.00  0.00     0.174 A 
ATOM      3  C3  BZF d   1       1.064   0.273  -0.876  0.00  0.00    -0.012 A 
ATOM      4  C3A BZF d   1      -0.146  -0.084  -0.202  0.00  0.00    -0.107 A 
ATOM      5  C4  BZF d   1      -0.463  -0.297   1.109  0.00  0.00     0.055 A 
ATOM      6  C5  BZF d   1      -1.753  -0.560   1.443  0.00  0.00    -0.016 A 
ATOM      7  C6  BZF d   1      -2.752  -0.614   0.493  0.00  0.00     0.022 A 
ATOM      8  C7  BZF d   1      -2.486  -0.416  -0.821  0.00  0.00     0.029 A 
ATOM      9  C7A BZF d   1      -1.177  -0.182  -1.165  0.00  0.00     0.058 A 
ENDROOT
TORSDOF 0
ENDMDL
