MODEL 1
REMARK minimizedAffinity -6.76498079
REMARK minimizedRMSD -1
REMARK  0 active torsions:
REMARK  status: ('A' for Active; 'I' for Inactive)
ROOT
ATOM      1  O1  BZF d   1       0.358  -0.393   1.956  0.00  0.00    -0.204 OA
ATOM      2  C2  BZF d   1      -0.018  -0.529   3.279  0.00  0.00     0.174 A 
ATOM      3  C3  BZF d   1      -1.346  -0.340   3.420  0.00  0.00    -0.012 A 
ATOM      4  C3A BZF d   1      -1.845  -0.161   2.091  0.00  0.00    -0.107 A 
ATOM      5  C4  BZF d   1      -3.092   0.053   1.577  0.00  0.00     0.055 A 
ATOM      6  C5  BZF d   1      -3.229   0.259   0.241  0.00  0.00    -0.016 A 
ATOM      7  C6  BZF d   1      -2.142   0.264  -0.608  0.00  0.00     0.022 A 
ATOM      8  C7  BZF d   1      -0.886   0.052  -0.145  0.00  0.00     0.029 A 
ATOM      9  C7A BZF d   1      -0.748  -0.189   1.200  0.00  0.00     0.058 A 
ENDROOT
TORSDOF 0
ENDMDL
