MODEL 1
REMARK minimizedAffinity -6.59859753
REMARK minimizedRMSD -1
REMARK  0 active torsions:
REMARK  status: ('A' for Active; 'I' for Inactive)
ROOT
ATOM      1  O1  BZF d   1       0.353  -0.421   1.183  0.00  0.00    -0.204 OA
ATOM      2  C2  BZF d   1       0.248  -0.563   2.554  0.00  0.00     0.174 A 
ATOM      3  C3  BZF d   1      -1.021  -0.356   2.960  0.00  0.00    -0.012 A 
ATOM      4  C3A BZF d   1      -1.773  -0.156   1.760  0.00  0.00    -0.107 A 
ATOM      5  C4  BZF d   1      -3.095   0.080   1.508  0.00  0.00     0.055 A 
ATOM      6  C5  BZF d   1      -3.494   0.301   0.228  0.00  0.00    -0.016 A 
ATOM      7  C6  BZF d   1      -2.600   0.298  -0.822  0.00  0.00     0.022 A 
ATOM      8  C7  BZF d   1      -1.280   0.062  -0.623  0.00  0.00     0.029 A 
ATOM      9  C7A BZF d   1      -0.878  -0.194   0.666  0.00  0.00     0.058 A 
ENDROOT
TORSDOF 0
ENDMDL
