MODEL 1
REMARK minimizedAffinity -6.37247992
REMARK minimizedRMSD -1
REMARK  0 active torsions:
REMARK  status: ('A' for Active; 'I' for Inactive)
ROOT
ATOM      1  O1  BZF d   1       0.724  -0.141   0.317  0.00  0.00    -0.204 OA
ATOM      2  C2  BZF d   1       0.380  -0.030  -1.016  0.00  0.00     0.174 A 
ATOM      3  C3  BZF d   1      -0.958   0.053  -1.160  0.00  0.00    -0.012 A 
ATOM      4  C3A BZF d   1      -1.478   0.082   0.173  0.00  0.00    -0.107 A 
ATOM      5  C4  BZF d   1      -2.741   0.174   0.686  0.00  0.00     0.055 A 
ATOM      6  C5  BZF d   1      -2.913   0.103   2.032  0.00  0.00    -0.016 A 
ATOM      7  C6  BZF d   1      -1.848  -0.066   2.893  0.00  0.00     0.022 A 
ATOM      8  C7  BZF d   1      -0.577  -0.156   2.431  0.00  0.00     0.029 A 
ATOM      9  C7A BZF d   1      -0.396  -0.051   1.073  0.00  0.00     0.058 A 
ENDROOT
TORSDOF 0
ENDMDL
