MODEL 1
REMARK minimizedAffinity -6.57072258
REMARK minimizedRMSD -1
REMARK  0 active torsions:
REMARK  status: ('A' for Active; 'I' for Inactive)
ROOT
ATOM      1  O1  BZF d   1       0.608  -0.203  -0.256  0.00  0.00    -0.204 OA
ATOM      2  C2  BZF d   1       0.159   0.005  -1.546  0.00  0.00     0.174 A 
ATOM      3  C3  BZF d   1      -1.183   0.141  -1.569  0.00  0.00    -0.012 A 
ATOM      4  C3A BZF d   1      -1.588   0.102  -0.197  0.00  0.00    -0.107 A 
ATOM      5  C4  BZF d   1      -2.799   0.203   0.428  0.00  0.00     0.055 A 
ATOM      6  C5  BZF d   1      -2.861   0.051   1.777  0.00  0.00    -0.016 A 
ATOM      7  C6  BZF d   1      -1.734  -0.207   2.530  0.00  0.00     0.022 A 
ATOM      8  C7  BZF d   1      -0.511  -0.310   1.956  0.00  0.00     0.029 A 
ATOM      9  C7A BZF d   1      -0.441  -0.125   0.597  0.00  0.00     0.058 A 
ENDROOT
TORSDOF 0
ENDMDL
