MODEL 1
REMARK minimizedAffinity -3.39740872
REMARK minimizedRMSD -1
REMARK  0 active torsions:
REMARK  status: ('A' for Active; 'I' for Inactive)
ROOT
ATOM      1  O1  BZF d   1      -0.100   0.815  -0.649  0.00  0.00    -0.204 OA
ATOM      2  C2  BZF d   1      -1.406   0.591  -0.259  0.00  0.00     0.174 A 
ATOM      3  C3  BZF d   1      -1.998  -0.313  -1.065  0.00  0.00    -0.012 A 
ATOM      4  C3A BZF d   1      -0.972  -0.746  -1.963  0.00  0.00    -0.107 A 
ATOM      5  C4  BZF d   1      -0.940  -1.648  -2.987  0.00  0.00     0.055 A 
ATOM      6  C5  BZF d   1       0.201  -1.783  -3.713  0.00  0.00    -0.016 A 
ATOM      7  C6  BZF d   1       1.325  -1.030  -3.446  0.00  0.00     0.022 A 
ATOM      8  C7  BZF d   1       1.343  -0.126  -2.436  0.00  0.00     0.029 A 
ATOM      9  C7A BZF d   1       0.203  -0.011  -1.680  0.00  0.00     0.058 A 
ENDROOT
TORSDOF 0
ENDMDL
