MODEL 1
REMARK minimizedAffinity -6.33612299
REMARK minimizedRMSD -1
REMARK  0 active torsions:
REMARK  status: ('A' for Active; 'I' for Inactive)
ROOT
ATOM      1  O1  BZF d   1      -1.555   0.329  -0.792  0.00  0.00    -0.204 OA
ATOM      2  C2  BZF d   1      -0.310   0.328  -1.390  0.00  0.00     0.174 A 
ATOM      3  C3  BZF d   1       0.653   0.041  -0.491  0.00  0.00    -0.012 A 
ATOM      4  C3A BZF d   1      -0.042  -0.239   0.728  0.00  0.00    -0.107 A 
ATOM      5  C4  BZF d   1       0.366  -0.603   1.979  0.00  0.00     0.055 A 
ATOM      6  C5  BZF d   1      -0.561  -0.728   2.966  0.00  0.00    -0.016 A 
ATOM      7  C6  BZF d   1      -1.900  -0.492   2.738  0.00  0.00     0.022 A 
ATOM      8  C7  BZF d   1      -2.354  -0.134   1.512  0.00  0.00     0.029 A 
ATOM      9  C7A BZF d   1      -1.424  -0.039   0.505  0.00  0.00     0.058 A 
ENDROOT
TORSDOF 0
ENDMDL
