MODEL 1
REMARK minimizedAffinity -6.9159646
REMARK minimizedRMSD -1
REMARK  0 active torsions:
REMARK  status: ('A' for Active; 'I' for Inactive)
ROOT
ATOM      1  O1  BZF d   1      -1.169   0.210  -0.488  0.00  0.00    -0.204 OA
ATOM      2  C2  BZF d   1       0.206   0.071  -0.478  0.00  0.00     0.174 A 
ATOM      3  C3  BZF d   1       0.652  -0.188   0.768  0.00  0.00    -0.012 A 
ATOM      4  C3A BZF d   1      -0.525  -0.305   1.572  0.00  0.00    -0.107 A 
ATOM      5  C4  BZF d   1      -0.736  -0.571   2.895  0.00  0.00     0.055 A 
ATOM      6  C5  BZF d   1      -2.005  -0.541   3.381  0.00  0.00    -0.016 A 
ATOM      7  C6  BZF d   1      -3.084  -0.243   2.575  0.00  0.00     0.022 A 
ATOM      8  C7  BZF d   1      -2.925   0.023   1.255  0.00  0.00     0.029 A 
ATOM      9  C7A BZF d   1      -1.648  -0.039   0.754  0.00  0.00     0.058 A 
ENDROOT
TORSDOF 0
ENDMDL
