MODEL 1
REMARK minimizedAffinity -2.35017204
REMARK minimizedRMSD -1
REMARK  0 active torsions:
REMARK  status: ('A' for Active; 'I' for Inactive)
ROOT
ATOM      1  O1  BZF d   1       1.042  -1.654  -4.022  0.00  0.00    -0.204 OA
ATOM      2  C2  BZF d   1       2.154  -0.849  -3.869  0.00  0.00     0.174 A 
ATOM      3  C3  BZF d   1       1.944   0.081  -2.915  0.00  0.00    -0.012 A 
ATOM      4  C3A BZF d   1       0.651  -0.215  -2.379  0.00  0.00    -0.107 A 
ATOM      5  C4  BZF d   1      -0.107   0.347  -1.392  0.00  0.00     0.055 A 
ATOM      6  C5  BZF d   1      -1.357  -0.135  -1.164  0.00  0.00    -0.016 A 
ATOM      7  C6  BZF d   1      -1.882  -1.173  -1.907  0.00  0.00     0.022 A 
ATOM      8  C7  BZF d   1      -1.166  -1.765  -2.893  0.00  0.00     0.029 A 
ATOM      9  C7A BZF d   1       0.110  -1.302  -3.104  0.00  0.00     0.058 A 
ENDROOT
TORSDOF 0
ENDMDL
