MODEL 1
REMARK minimizedAffinity -4.45448685
REMARK minimizedRMSD -1
REMARK  0 active torsions:
REMARK  status: ('A' for Active; 'I' for Inactive)
ROOT
ATOM      1  O1  BZF d   1       0.028   0.865  -0.759  0.00  0.00    -0.204 OA
ATOM      2  C2  BZF d   1      -1.223   0.695  -0.199  0.00  0.00     0.174 A 
ATOM      3  C3  BZF d   1      -1.895  -0.295  -0.821  0.00  0.00    -0.012 A 
ATOM      4  C3A BZF d   1      -0.974  -0.835  -1.773  0.00  0.00    -0.107 A 
ATOM      5  C4  BZF d   1      -1.051  -1.851  -2.682  0.00  0.00     0.055 A 
ATOM      6  C5  BZF d   1       0.002  -2.076  -3.512  0.00  0.00    -0.016 A 
ATOM      7  C6  BZF d   1       1.142  -1.301  -3.464  0.00  0.00     0.022 A 
ATOM      8  C7  BZF d   1       1.267  -0.285  -2.576  0.00  0.00     0.029 A 
ATOM      9  C7A BZF d   1       0.218  -0.077  -1.714  0.00  0.00     0.058 A 
ENDROOT
TORSDOF 0
ENDMDL
