MODEL 1
REMARK minimizedAffinity -3.68661928
REMARK minimizedRMSD -1
REMARK  0 active torsions:
REMARK  status: ('A' for Active; 'I' for Inactive)
ROOT
ATOM      1  O1  BZF d   1       0.843  -1.709  -3.596  0.00  0.00    -0.204 OA
ATOM      2  C2  BZF d   1       2.012  -0.988  -3.748  0.00  0.00     0.174 A 
ATOM      3  C3  BZF d   1       2.039   0.063  -2.902  0.00  0.00    -0.012 A 
ATOM      4  C3A BZF d   1       0.853  -0.060  -2.112  0.00  0.00    -0.107 A 
ATOM      5  C4  BZF d   1       0.326   0.676  -1.089  0.00  0.00     0.055 A 
ATOM      6  C5  BZF d   1      -0.886   0.330  -0.582  0.00  0.00    -0.016 A 
ATOM      7  C6  BZF d   1      -1.602  -0.741  -1.078  0.00  0.00     0.022 A 
ATOM      8  C7  BZF d   1      -1.118  -1.503  -2.090  0.00  0.00     0.029 A 
ATOM      9  C7A BZF d   1       0.122  -1.175  -2.581  0.00  0.00     0.058 A 
ENDROOT
TORSDOF 0
ENDMDL
