MODEL 1
REMARK minimizedAffinity -4.38880587
REMARK minimizedRMSD -1
REMARK  0 active torsions:
REMARK  status: ('A' for Active; 'I' for Inactive)
ROOT
ATOM      1  O1  BZF d   1       1.356   0.294  -2.978  0.00  0.00    -0.204 OA
ATOM      2  C2  BZF d   1       0.753  -0.659  -3.776  0.00  0.00     0.174 A 
ATOM      3  C3  BZF d   1      -0.093  -1.421  -3.054  0.00  0.00    -0.012 A 
ATOM      4  C3A BZF d   1      -0.084  -0.853  -1.741  0.00  0.00    -0.107 A 
ATOM      5  C4  BZF d   1      -0.736  -1.160  -0.581  0.00  0.00     0.055 A 
ATOM      6  C5  BZF d   1      -0.450  -0.454   0.544  0.00  0.00    -0.016 A 
ATOM      7  C6  BZF d   1       0.486   0.560   0.547  0.00  0.00     0.022 A 
ATOM      8  C7  BZF d   1       1.154   0.904  -0.581  0.00  0.00     0.029 A 
ATOM      9  C7A BZF d   1       0.843   0.214  -1.727  0.00  0.00     0.058 A 
ENDROOT
TORSDOF 0
ENDMDL
