MODEL 1
REMARK minimizedAffinity -6.08809042
REMARK minimizedRMSD -1
REMARK  0 active torsions:
REMARK  status: ('A' for Active; 'I' for Inactive)
ROOT
ATOM      1  O1  BZF d   1      -0.635   0.103  -1.154  0.00  0.00    -0.204 OA
ATOM      2  C2  BZF d   1      -1.725  -0.646  -1.554  0.00  0.00     0.174 A 
ATOM      3  C3  BZF d   1      -2.184  -1.403  -0.537  0.00  0.00    -0.012 A 
ATOM      4  C3A BZF d   1      -1.385  -1.040   0.593  0.00  0.00    -0.107 A 
ATOM      5  C4  BZF d   1      -1.371  -1.438   1.899  0.00  0.00     0.055 A 
ATOM      6  C5  BZF d   1      -0.416  -0.944   2.730  0.00  0.00    -0.016 A 
ATOM      7  C6  BZF d   1       0.543  -0.056   2.287  0.00  0.00     0.022 A 
ATOM      8  C7  BZF d   1       0.567   0.371   1.001  0.00  0.00     0.029 A 
ATOM      9  C7A BZF d   1      -0.418  -0.101   0.167  0.00  0.00     0.058 A 
ENDROOT
TORSDOF 0
ENDMDL
