MODEL 1
REMARK minimizedAffinity -5.05705595
REMARK minimizedRMSD -1
REMARK  0 active torsions:
REMARK  status: ('A' for Active; 'I' for Inactive)
ROOT
ATOM      1  O1  BZF d   1      -1.810   0.045   0.040  0.00  0.00    -0.204 OA
ATOM      2  C2  BZF d   1      -1.048  -0.167  -1.092  0.00  0.00     0.174 A 
ATOM      3  C3  BZF d   1       0.262  -0.244  -0.780  0.00  0.00    -0.012 A 
ATOM      4  C3A BZF d   1       0.314  -0.161   0.648  0.00  0.00    -0.107 A 
ATOM      5  C4  BZF d   1       1.335  -0.196   1.554  0.00  0.00     0.055 A 
ATOM      6  C5  BZF d   1       1.055  -0.016   2.872  0.00  0.00    -0.016 A 
ATOM      7  C6  BZF d   1      -0.232   0.206   3.317  0.00  0.00     0.022 A 
ATOM      8  C7  BZF d   1      -1.278   0.244   2.456  0.00  0.00     0.029 A 
ATOM      9  C7A BZF d   1      -1.003   0.030   1.128  0.00  0.00     0.058 A 
ENDROOT
TORSDOF 0
ENDMDL
