MODEL 1
REMARK minimizedAffinity -4.95679474
REMARK minimizedRMSD -1
REMARK  1 active torsions:
REMARK  status: ('A' for Active; 'I' for Inactive)
REMARK    1  A    between atoms: C1_2  and  C2_3 
ROOT
ATOM      1  C2  UNL d   1      -0.147  -0.453  -0.871  0.00  0.00    -0.081 A 
ATOM      2  C3  UNL d   1      -1.438  -0.243  -0.373  0.00  0.00     0.006 A 
ATOM      3  C4  UNL d   1      -1.627   0.271   0.912  0.00  0.00     0.002 A 
ATOM      4  C5  UNL d   1      -0.528   0.589   1.718  0.00  0.00    -0.080 A 
ATOM      5  C6  UNL d   1      -0.717   1.168   3.088  0.00  0.00     0.076 C 
ATOM      6  C7  UNL d   1       0.762   0.362   1.227  0.00  0.00     0.002 A 
ATOM      7  C8  UNL d   1       0.951  -0.152  -0.057  0.00  0.00     0.006 A 
ENDROOT
BRANCH   1   8
ATOM      8  C1  UNL d   1       0.061  -0.946  -2.280  0.00  0.00     0.054 C 
ATOM      9  C   UNL d   1       0.754   0.104  -3.137  0.00  0.00     0.018 C 
ENDBRANCH   1   8
TORSDOF 1
ENDMDL
