MODEL 1
REMARK minimizedAffinity -4.31811142
REMARK minimizedRMSD -1
REMARK  1 active torsions:
REMARK  status: ('A' for Active; 'I' for Inactive)
REMARK    1  A    between atoms: C1_2  and  C2_3 
ROOT
ATOM      1  C2  UNL d   1      -0.021  -0.369  -1.140  0.00  0.00    -0.081 A 
ATOM      2  C3  UNL d   1      -1.400  -0.327  -0.905  0.00  0.00     0.006 A 
ATOM      3  C4  UNL d   1      -1.896   0.110   0.326  0.00  0.00     0.002 A 
ATOM      4  C5  UNL d   1      -1.021   0.518   1.339  0.00  0.00    -0.080 A 
ATOM      5  C6  UNL d   1      -1.541   1.018   2.654  0.00  0.00     0.076 C 
ATOM      6  C7  UNL d   1       0.358   0.460   1.110  0.00  0.00     0.002 A 
ATOM      7  C8  UNL d   1       0.854   0.023  -0.120  0.00  0.00     0.006 A 
ENDROOT
BRANCH   1   8
ATOM      8  C1  UNL d   1       0.515  -0.778  -2.489  0.00  0.00     0.054 C 
ATOM      9  C   UNL d   1       0.617   0.415  -3.428  0.00  0.00     0.018 C 
ENDBRANCH   1   8
TORSDOF 1
ENDMDL
