MODEL 1
REMARK minimizedAffinity -1.75585651
REMARK minimizedRMSD -1
REMARK  1 active torsions:
REMARK  status: ('A' for Active; 'I' for Inactive)
REMARK    1  A    between atoms: C1_2  and  C2_3 
ROOT
ATOM      1  C2  UNL d   1       0.074  -0.530  -0.833  0.00  0.00    -0.081 A 
ATOM      2  C3  UNL d   1       0.491   0.029   0.381  0.00  0.00     0.006 A 
ATOM      3  C4  UNL d   1      -0.447   0.428   1.336  0.00  0.00     0.002 A 
ATOM      4  C5  UNL d   1      -1.816   0.268   1.097  0.00  0.00    -0.080 A 
ATOM      5  C6  UNL d   1      -2.832   0.664   2.127  0.00  0.00     0.076 C 
ATOM      6  C7  UNL d   1      -2.233  -0.274  -0.123  0.00  0.00     0.002 A 
ATOM      7  C8  UNL d   1      -1.296  -0.673  -1.079  0.00  0.00     0.006 A 
ENDROOT
BRANCH   1   8
ATOM      8  C1  UNL d   1       1.084  -1.020  -1.838  0.00  0.00     0.054 C 
ATOM      9  C   UNL d   1       0.703  -0.607  -3.253  0.00  0.00     0.018 C 
ENDBRANCH   1   8
TORSDOF 1
ENDMDL
