MODEL 1
REMARK minimizedAffinity -2.67362142
REMARK minimizedRMSD -1
REMARK  1 active torsions:
REMARK  status: ('A' for Active; 'I' for Inactive)
REMARK    1  A    between atoms: C1_2  and  C2_3 
ROOT
ATOM      1  C2  UNL d   1      -0.001  -0.518  -1.399  0.00  0.00    -0.081 A 
ATOM      2  C3  UNL d   1      -1.155   0.050  -0.845  0.00  0.00     0.006 A 
ATOM      3  C4  UNL d   1      -1.146   0.537   0.464  0.00  0.00     0.002 A 
ATOM      4  C5  UNL d   1       0.017   0.472   1.238  0.00  0.00    -0.080 A 
ATOM      5  C6  UNL d   1       0.049   1.019   2.634  0.00  0.00     0.076 C 
ATOM      6  C7  UNL d   1       1.165  -0.112   0.691  0.00  0.00     0.002 A 
ATOM      7  C8  UNL d   1       1.157  -0.600  -0.618  0.00  0.00     0.006 A 
ENDROOT
BRANCH   1   8
ATOM      8  C1  UNL d   1       0.011  -0.986  -2.832  0.00  0.00     0.054 C 
ATOM      9  C   UNL d   1       0.466   0.122  -3.771  0.00  0.00     0.018 C 
ENDBRANCH   1   8
TORSDOF 1
ENDMDL
