MODEL 1
REMARK minimizedAffinity -3.88072228
REMARK minimizedRMSD -1
REMARK  1 active torsions:
REMARK  status: ('A' for Active; 'I' for Inactive)
REMARK    1  A    between atoms: C3_4  and  O_7 
ROOT
ATOM      1  C   UNL d   1      -0.090  -0.380  -2.507  0.00  0.00    -0.033 A 
ATOM      2  C1  UNL d   1       0.283  -1.523  -3.217  0.00  0.00     0.039 A 
ATOM      3  C2  UNL d   1       1.632  -1.862  -3.339  0.00  0.00    -0.080 A 
ATOM      4  C3  UNL d   1       2.596  -1.052  -2.746  0.00  0.00     0.150 A 
ATOM      5  C4  UNL d   1       2.231   0.086  -2.034  0.00  0.00    -0.007 A 
ATOM      6  C5  UNL d   1       0.884   0.424  -1.915  0.00  0.00     0.039 A 
ENDROOT
BRANCH   4   7
ATOM      7  O   UNL d   1       3.925  -1.339  -2.842  0.00  0.00    -0.526 OA
ATOM      8  H5  UNL d   1       4.029  -2.137  -3.386  0.00  0.00     0.418 HD
ENDBRANCH   4   7
TORSDOF 1
ENDMDL
