MODEL 1
REMARK minimizedAffinity -4.61244106
REMARK minimizedRMSD -1
REMARK  1 active torsions:
REMARK  status: ('A' for Active; 'I' for Inactive)
REMARK    1  A    between atoms: C3_4  and  O_7 
ROOT
ATOM      1  C   UNL d   1      -0.731  -0.388   2.972  0.00  0.00    -0.033 A 
ATOM      2  C1  UNL d   1      -0.273  -0.491   1.657  0.00  0.00     0.039 A 
ATOM      3  C2  UNL d   1      -1.102  -0.124   0.596  0.00  0.00    -0.080 A 
ATOM      4  C3  UNL d   1      -2.386   0.345   0.863  0.00  0.00     0.150 A 
ATOM      5  C4  UNL d   1      -2.848   0.454   2.170  0.00  0.00    -0.007 A 
ATOM      6  C5  UNL d   1      -2.018   0.086   3.229  0.00  0.00     0.039 A 
ENDROOT
BRANCH   4   7
ATOM      7  O   UNL d   1      -3.233   0.711  -0.141  0.00  0.00    -0.526 OA
ATOM      8  H5  UNL d   1      -2.789   0.556  -0.991  0.00  0.00     0.418 HD
ENDBRANCH   4   7
TORSDOF 1
ENDMDL
