MODEL 1
REMARK minimizedAffinity -5.65698719
REMARK minimizedRMSD -1
REMARK  1 active torsions:
REMARK  status: ('A' for Active; 'I' for Inactive)
REMARK    1  A    between atoms: C3_4  and  O_7 
ROOT
ATOM      1  C   UNL d   1      -1.906   0.187   0.083  0.00  0.00    -0.033 A 
ATOM      2  C1  UNL d   1      -0.656  -0.408   0.267  0.00  0.00     0.039 A 
ATOM      3  C2  UNL d   1      -0.191  -0.675   1.556  0.00  0.00    -0.080 A 
ATOM      4  C3  UNL d   1      -0.985  -0.344   2.651  0.00  0.00     0.150 A 
ATOM      5  C4  UNL d   1      -2.233   0.245   2.474  0.00  0.00    -0.007 A 
ATOM      6  C5  UNL d   1      -2.695   0.512   1.186  0.00  0.00     0.039 A 
ENDROOT
BRANCH   4   7
ATOM      7  O   UNL d   1      -0.572  -0.581   3.928  0.00  0.00    -0.526 OA
ATOM      8  H5  UNL d   1       0.320  -0.965   3.897  0.00  0.00     0.418 HD
ENDBRANCH   4   7
TORSDOF 1
ENDMDL
