MODEL 1
REMARK minimizedAffinity -3.56243825
REMARK minimizedRMSD -1
REMARK  1 active torsions:
REMARK  status: ('A' for Active; 'I' for Inactive)
REMARK    1  A    between atoms: C3_4  and  O_7 
ROOT
ATOM      1  C   UNL d   1       1.859  -2.093  -3.606  0.00  0.00    -0.033 A 
ATOM      2  C1  UNL d   1       2.727  -1.162  -3.033  0.00  0.00     0.039 A 
ATOM      3  C2  UNL d   1       2.226  -0.150  -2.213  0.00  0.00    -0.080 A 
ATOM      4  C3  UNL d   1       0.856  -0.080  -1.973  0.00  0.00     0.150 A 
ATOM      5  C4  UNL d   1      -0.015  -1.006  -2.538  0.00  0.00    -0.007 A 
ATOM      6  C5  UNL d   1       0.488  -2.016  -3.358  0.00  0.00     0.039 A 
ENDROOT
BRANCH   4   7
ATOM      7  O   UNL d   1       0.319   0.893  -1.184  0.00  0.00    -0.526 OA
ATOM      8  H5  UNL d   1       1.036   1.478  -0.886  0.00  0.00     0.418 HD
ENDBRANCH   4   7
TORSDOF 1
ENDMDL
