MODEL 1
REMARK minimizedAffinity -4.39219522
REMARK minimizedRMSD -1
REMARK  1 active torsions:
REMARK  status: ('A' for Active; 'I' for Inactive)
REMARK    1  A    between atoms: C3_4  and  O_7 
ROOT
ATOM      1  C   UNL d   1      -0.396  -0.616   2.670  0.00  0.00    -0.033 A 
ATOM      2  C1  UNL d   1       0.777   0.071   2.349  0.00  0.00     0.039 A 
ATOM      3  C2  UNL d   1       0.914   0.676   1.098  0.00  0.00    -0.080 A 
ATOM      4  C3  UNL d   1      -0.127   0.587   0.178  0.00  0.00     0.150 A 
ATOM      5  C4  UNL d   1      -1.299  -0.093   0.492  0.00  0.00    -0.007 A 
ATOM      6  C5  UNL d   1      -1.435  -0.697   1.742  0.00  0.00     0.039 A 
ENDROOT
BRANCH   4   7
ATOM      7  O   UNL d   1      -0.037   1.156  -1.057  0.00  0.00    -0.526 OA
ATOM      8  H5  UNL d   1       0.840   1.566  -1.144  0.00  0.00     0.418 HD
ENDBRANCH   4   7
TORSDOF 1
ENDMDL
