MODEL 1
REMARK minimizedAffinity -4.00390911
REMARK minimizedRMSD -1
REMARK  1 active torsions:
REMARK  status: ('A' for Active; 'I' for Inactive)
REMARK    1  A    between atoms: C3_4  and  O_7 
ROOT
ATOM      1  C   UNL d   1       0.613  -0.372   1.398  0.00  0.00    -0.033 A 
ATOM      2  C1  UNL d   1      -0.030  -0.156   2.618  0.00  0.00     0.039 A 
ATOM      3  C2  UNL d   1      -1.379   0.203   2.644  0.00  0.00    -0.080 A 
ATOM      4  C3  UNL d   1      -2.073   0.341   1.445  0.00  0.00     0.150 A 
ATOM      5  C4  UNL d   1      -1.439   0.124   0.226  0.00  0.00    -0.007 A 
ATOM      6  C5  UNL d   1      -0.091  -0.234   0.202  0.00  0.00     0.039 A 
ENDROOT
BRANCH   4   7
ATOM      7  O   UNL d   1      -3.389   0.695   1.419  0.00  0.00    -0.526 OA
ATOM      8  H5  UNL d   1      -3.686   0.840   2.333  0.00  0.00     0.418 HD
ENDBRANCH   4   7
TORSDOF 1
ENDMDL
