MODEL 1
REMARK minimizedAffinity -4.0758462
REMARK minimizedRMSD -1
REMARK  1 active torsions:
REMARK  status: ('A' for Active; 'I' for Inactive)
REMARK    1  A    between atoms: C3_4  and  O_7 
ROOT
ATOM      1  C   UNL d   1      -0.741  -0.578   3.019  0.00  0.00    -0.033 A 
ATOM      2  C1  UNL d   1      -1.712  -0.758   2.032  0.00  0.00     0.039 A 
ATOM      3  C2  UNL d   1      -1.459  -0.353   0.720  0.00  0.00    -0.080 A 
ATOM      4  C3  UNL d   1      -0.233   0.230   0.409  0.00  0.00     0.150 A 
ATOM      5  C4  UNL d   1       0.739   0.410   1.387  0.00  0.00    -0.007 A 
ATOM      6  C5  UNL d   1       0.485   0.005   2.697  0.00  0.00     0.039 A 
ENDROOT
BRANCH   4   7
ATOM      7  O   UNL d   1       0.057   0.646  -0.856  0.00  0.00    -0.526 OA
ATOM      8  H5  UNL d   1      -0.719   0.485  -1.419  0.00  0.00     0.418 HD
ENDBRANCH   4   7
TORSDOF 1
ENDMDL
