MODEL 1
REMARK minimizedAffinity -3.82584906
REMARK minimizedRMSD -1
REMARK  1 active torsions:
REMARK  status: ('A' for Active; 'I' for Inactive)
REMARK    1  A    between atoms: C3_4  and  O_7 
ROOT
ATOM      1  C   UNL d   1       0.409   0.457  -0.293  0.00  0.00    -0.033 A 
ATOM      2  C1  UNL d   1       1.034   0.909   0.871  0.00  0.00     0.039 A 
ATOM      3  C2  UNL d   1       0.568   0.497   2.120  0.00  0.00    -0.080 A 
ATOM      4  C3  UNL d   1      -0.522  -0.366   2.192  0.00  0.00     0.150 A 
ATOM      5  C4  UNL d   1      -1.147  -0.823   1.037  0.00  0.00    -0.007 A 
ATOM      6  C5  UNL d   1      -0.681  -0.410  -0.210  0.00  0.00     0.039 A 
ENDROOT
BRANCH   4   7
ATOM      7  O   UNL d   1      -1.016  -0.792   3.389  0.00  0.00    -0.526 OA
ATOM      8  H5  UNL d   1      -0.503  -0.373   4.101  0.00  0.00     0.418 HD
ENDBRANCH   4   7
TORSDOF 1
ENDMDL
