MODEL 1
REMARK minimizedAffinity -4.01024914
REMARK minimizedRMSD -1
REMARK  1 active torsions:
REMARK  status: ('A' for Active; 'I' for Inactive)
REMARK    1  A    between atoms: C3_4  and  O_7 
ROOT
ATOM      1  C   UNL d   1       0.352  -0.077  -0.449  0.00  0.00    -0.033 A 
ATOM      2  C1  UNL d   1      -0.925  -0.511  -0.089  0.00  0.00     0.039 A 
ATOM      3  C2  UNL d   1      -1.220  -0.787   1.248  0.00  0.00    -0.080 A 
ATOM      4  C3  UNL d   1      -0.230  -0.624   2.213  0.00  0.00     0.150 A 
ATOM      5  C4  UNL d   1       1.044  -0.188   1.862  0.00  0.00    -0.007 A 
ATOM      6  C5  UNL d   1       1.336   0.086   0.527  0.00  0.00     0.039 A 
ENDROOT
BRANCH   4   7
ATOM      7  O   UNL d   1      -0.468  -0.886   3.530  0.00  0.00    -0.526 OA
ATOM      8  H5  UNL d   1      -1.382  -1.206   3.619  0.00  0.00     0.418 HD
ENDBRANCH   4   7
TORSDOF 1
ENDMDL
