MODEL 1
REMARK minimizedAffinity -3.74988675
REMARK minimizedRMSD -1
REMARK  1 active torsions:
REMARK  status: ('A' for Active; 'I' for Inactive)
REMARK    1  A    between atoms: C3_4  and  O_7 
ROOT
ATOM      1  C   UNL d   1      -0.793   0.073  -0.561  0.00  0.00    -0.033 A 
ATOM      2  C1  UNL d   1      -2.006  -0.049   0.120  0.00  0.00     0.039 A 
ATOM      3  C2  UNL d   1      -2.018  -0.389   1.474  0.00  0.00    -0.080 A 
ATOM      4  C3  UNL d   1      -0.811  -0.604   2.135  0.00  0.00     0.150 A 
ATOM      5  C4  UNL d   1       0.401  -0.481   1.464  0.00  0.00    -0.007 A 
ATOM      6  C5  UNL d   1       0.410  -0.142   0.111  0.00  0.00     0.039 A 
ENDROOT
BRANCH   4   7
ATOM      7  O   UNL d   1      -0.772  -0.943   3.455  0.00  0.00    -0.526 OA
ATOM      8  H5  UNL d   1      -1.685  -1.019   3.780  0.00  0.00     0.418 HD
ENDBRANCH   4   7
TORSDOF 1
ENDMDL
