MODEL 1
REMARK minimizedAffinity -5.43996
REMARK minimizedRMSD -1
REMARK  1 active torsions:
REMARK  status: ('A' for Active; 'I' for Inactive)
REMARK    1  A    between atoms: C3_4  and  O_7 
ROOT
ATOM      1  C   UNL d   1      -0.750   0.419  -0.389  0.00  0.00    -0.033 A 
ATOM      2  C1  UNL d   1       0.477   0.425   0.276  0.00  0.00     0.039 A 
ATOM      3  C2  UNL d   1       0.553   0.017   1.609  0.00  0.00    -0.080 A 
ATOM      4  C3  UNL d   1      -0.605  -0.396   2.264  0.00  0.00     0.150 A 
ATOM      5  C4  UNL d   1      -1.830  -0.408   1.606  0.00  0.00    -0.007 A 
ATOM      6  C5  UNL d   1      -1.904   0.001   0.275  0.00  0.00     0.039 A 
ENDROOT
BRANCH   4   7
ATOM      7  O   UNL d   1      -0.581  -0.798   3.566  0.00  0.00    -0.526 OA
ATOM      8  H5  UNL d   1       0.327  -0.710   3.899  0.00  0.00     0.418 HD
ENDBRANCH   4   7
TORSDOF 1
ENDMDL
