MODEL 1
REMARK minimizedAffinity -4.29098129
REMARK minimizedRMSD -1
REMARK  1 active torsions:
REMARK  status: ('A' for Active; 'I' for Inactive)
REMARK    1  A    between atoms: C3_4  and  O_7 
ROOT
ATOM      1  C   UNL d   1       0.003   0.829  -0.196  0.00  0.00    -0.033 A 
ATOM      2  C1  UNL d   1      -1.123   0.018  -0.042  0.00  0.00     0.039 A 
ATOM      3  C2  UNL d   1      -1.354  -0.635   1.170  0.00  0.00    -0.080 A 
ATOM      4  C3  UNL d   1      -0.453  -0.469   2.219  0.00  0.00     0.150 A 
ATOM      5  C4  UNL d   1       0.668   0.340   2.073  0.00  0.00    -0.007 A 
ATOM      6  C5  UNL d   1       0.898   0.991   0.862  0.00  0.00     0.039 A 
ENDROOT
BRANCH   4   7
ATOM      7  O   UNL d   1      -0.634  -1.090   3.419  0.00  0.00    -0.526 OA
ATOM      8  H5  UNL d   1      -1.434  -1.639   3.364  0.00  0.00     0.418 HD
ENDBRANCH   4   7
TORSDOF 1
ENDMDL
