MODEL 1
REMARK minimizedAffinity -2.0429945
REMARK minimizedRMSD -1
REMARK  1 active torsions:
REMARK  status: ('A' for Active; 'I' for Inactive)
REMARK    1  A    between atoms: C3_4  and  O_7 
ROOT
ATOM      1  C   UNL d   1      -0.694  -1.114   0.564  0.00  0.00    -0.033 A 
ATOM      2  C1  UNL d   1       0.172  -0.060   0.264  0.00  0.00     0.039 A 
ATOM      3  C2  UNL d   1       0.558   0.835   1.264  0.00  0.00    -0.080 A 
ATOM      4  C3  UNL d   1       0.072   0.665   2.558  0.00  0.00     0.150 A 
ATOM      5  C4  UNL d   1      -0.788  -0.384   2.864  0.00  0.00    -0.007 A 
ATOM      6  C5  UNL d   1      -1.173  -1.277   1.864  0.00  0.00     0.039 A 
ENDROOT
BRANCH   4   7
ATOM      7  O   UNL d   1       0.416   1.516   3.565  0.00  0.00    -0.526 OA
ATOM      8  H5  UNL d   1       0.992   2.209   3.200  0.00  0.00     0.418 HD
ENDBRANCH   4   7
TORSDOF 1
ENDMDL
