MODEL 1
REMARK minimizedAffinity 12.5511608
REMARK minimizedRMSD -1
REMARK  1 active torsions:
REMARK  status: ('A' for Active; 'I' for Inactive)
REMARK    1  A    between atoms: C1_2  and  C2_3 
ROOT
ATOM      1  C2  UNL d   1       1.782  -1.790   1.365  0.00  0.00    -0.081 A 
ATOM      2  C3  UNL d   1       2.640  -1.700   0.262  0.00  0.00     0.006 A 
ATOM      3  C4  UNL d   1       2.522  -2.597  -0.802  0.00  0.00     0.002 A 
ATOM      4  C5  UNL d   1       1.541  -3.594  -0.784  0.00  0.00    -0.080 A 
ATOM      5  C6  UNL d   1       1.384  -4.545  -1.934  0.00  0.00     0.076 C 
ATOM      6  C7  UNL d   1       0.695  -3.695   0.325  0.00  0.00     0.002 A 
ATOM      7  C8  UNL d   1       0.812  -2.798   1.389  0.00  0.00     0.006 A 
ENDROOT
BRANCH   1   8
ATOM      8  C1  UNL d   1       1.864  -0.783   2.484  0.00  0.00     0.054 C 
ATOM      9  C   UNL d   1       1.549  -1.423   3.828  0.00  0.00     0.018 C 
ENDBRANCH   1   8
TORSDOF 1
ENDMDL
