MODEL 1
REMARK minimizedAffinity 16.184618
REMARK minimizedRMSD -1
REMARK  1 active torsions:
REMARK  status: ('A' for Active; 'I' for Inactive)
REMARK    1  A    between atoms: C1_2  and  C2_3 
ROOT
ATOM      1  C2  UNL d   1       1.475  -1.862   3.799  0.00  0.00    -0.081 A 
ATOM      2  C3  UNL d   1       2.142  -2.952   3.226  0.00  0.00     0.006 A 
ATOM      3  C4  UNL d   1       2.559  -2.907   1.893  0.00  0.00     0.002 A 
ATOM      4  C5  UNL d   1       2.324  -1.769   1.115  0.00  0.00    -0.080 A 
ATOM      5  C6  UNL d   1       2.793  -1.695  -0.308  0.00  0.00     0.076 C 
ATOM      6  C7  UNL d   1       1.642  -0.686   1.682  0.00  0.00     0.002 A 
ATOM      7  C8  UNL d   1       1.224  -0.732   3.014  0.00  0.00     0.006 A 
ENDROOT
BRANCH   1   8
ATOM      8  C1  UNL d   1       1.082  -1.883   5.254  0.00  0.00     0.054 C 
ATOM      9  C   UNL d   1       1.777  -3.013   5.999  0.00  0.00     0.018 C 
ENDBRANCH   1   8
TORSDOF 1
ENDMDL
