MODEL 1
REMARK minimizedAffinity 10.3090334
REMARK minimizedRMSD -1
REMARK  1 active torsions:
REMARK  status: ('A' for Active; 'I' for Inactive)
REMARK    1  A    between atoms: C1_2  and  C2_3 
ROOT
ATOM      1  C2  UNL d   1       2.204  -2.374   1.253  0.00  0.00    -0.081 A 
ATOM      2  C3  UNL d   1       2.274  -3.737   1.567  0.00  0.00     0.006 A 
ATOM      3  C4  UNL d   1       3.420  -4.476   1.261  0.00  0.00     0.002 A 
ATOM      4  C5  UNL d   1       4.516  -3.863   0.645  0.00  0.00    -0.080 A 
ATOM      5  C6  UNL d   1       5.763  -4.638   0.339  0.00  0.00     0.076 C 
ATOM      6  C7  UNL d   1       4.439  -2.506   0.316  0.00  0.00     0.002 A 
ATOM      7  C8  UNL d   1       3.294  -1.767   0.620  0.00  0.00     0.006 A 
ENDROOT
BRANCH   1   8
ATOM      8  C1  UNL d   1       0.995  -1.560   1.639  0.00  0.00     0.054 C 
ATOM      9  C   UNL d   1       1.354  -0.094   1.830  0.00  0.00     0.018 C 
ENDBRANCH   1   8
TORSDOF 1
ENDMDL
