MODEL 1
REMARK minimizedAffinity 10.0275679
REMARK minimizedRMSD -1
REMARK  0 active torsions:
REMARK  status: ('A' for Active; 'I' for Inactive)
ROOT
ATOM      1  C1  DEN d   1       4.190  -3.896  -6.000  0.00  0.00     0.130 A 
ATOM      2  C2  DEN d   1       4.341  -2.632  -5.284  0.00  0.00    -0.031 A 
ATOM      3  C3  DEN d   1       3.158  -2.455  -4.417  0.00  0.00     0.027 A 
ATOM      4  C4  DEN d   1       1.121  -4.008  -4.113  0.00  0.00     0.027 A 
ATOM      5  C5  DEN d   1       0.541  -5.189  -4.517  0.00  0.00    -0.003 A 
ATOM      6  C6  DEN d   1       1.114  -5.999  -5.461  0.00  0.00     0.001 A 
ATOM      7  C7  DEN d   1       2.327  -5.661  -6.000  0.00  0.00     0.017 A 
ATOM      8  C8  DEN d   1       2.915  -4.467  -5.603  0.00  0.00    -0.094 A 
ATOM      9  C9  DEN d   1       2.326  -3.668  -4.638  0.00  0.00    -0.072 A 
ENDROOT
TORSDOF 0
ENDMDL
