MODEL 1
REMARK minimizedAffinity 19.0568504
REMARK minimizedRMSD -1
REMARK  0 active torsions:
REMARK  status: ('A' for Active; 'I' for Inactive)
ROOT
ATOM      1  C1  DEN d   1      -0.468  -3.280  -0.786  0.00  0.00     0.130 A 
ATOM      2  C2  DEN d   1      -1.515  -3.130   0.220  0.00  0.00    -0.031 A 
ATOM      3  C3  DEN d   1      -1.057  -3.791   1.458  0.00  0.00     0.027 A 
ATOM      4  C4  DEN d   1       1.163  -5.023   1.913  0.00  0.00     0.027 A 
ATOM      5  C5  DEN d   1       2.361  -5.420   1.360  0.00  0.00    -0.003 A 
ATOM      6  C6  DEN d   1       2.682  -5.163   0.054  0.00  0.00     0.001 A 
ATOM      7  C7  DEN d   1       1.815  -4.451  -0.731  0.00  0.00     0.017 A 
ATOM      8  C8  DEN d   1       0.602  -4.054  -0.183  0.00  0.00    -0.094 A 
ATOM      9  C9  DEN d   1       0.301  -4.313   1.143  0.00  0.00    -0.072 A 
ENDROOT
TORSDOF 0
ENDMDL
