MODEL 1
REMARK minimizedAffinity 12.7417345
REMARK minimizedRMSD -1
REMARK  0 active torsions:
REMARK  status: ('A' for Active; 'I' for Inactive)
ROOT
ATOM      1  C1  DEN d   1       3.908  -3.808  -6.000  0.00  0.00     0.130 A 
ATOM      2  C2  DEN d   1       4.192  -2.681  -5.116  0.00  0.00    -0.031 A 
ATOM      3  C3  DEN d   1       3.164  -2.662  -4.055  0.00  0.00     0.027 A 
ATOM      4  C4  DEN d   1       1.174  -4.263  -3.696  0.00  0.00     0.027 A 
ATOM      5  C5  DEN d   1       0.516  -5.365  -4.195  0.00  0.00    -0.003 A 
ATOM      6  C6  DEN d   1       0.919  -6.000  -5.339  0.00  0.00     0.001 A 
ATOM      7  C7  DEN d   1       2.037  -5.564  -5.999  0.00  0.00     0.017 A 
ATOM      8  C8  DEN d   1       2.702  -4.449  -5.507  0.00  0.00    -0.094 A 
ATOM      9  C9  DEN d   1       2.286  -3.828  -4.341  0.00  0.00    -0.072 A 
ENDROOT
TORSDOF 0
ENDMDL
