MODEL 1
REMARK minimizedAffinity 23.5422993
REMARK minimizedRMSD -1
REMARK  0 active torsions:
REMARK  status: ('A' for Active; 'I' for Inactive)
ROOT
ATOM      1  C1  DEN d   1       3.985  -0.879   0.937  0.00  0.00     0.130 A 
ATOM      2  C2  DEN d   1       4.352   0.394   1.551  0.00  0.00    -0.031 A 
ATOM      3  C3  DEN d   1       3.239   0.818   2.424  0.00  0.00     0.027 A 
ATOM      4  C4  DEN d   1       0.997  -0.370   2.886  0.00  0.00     0.027 A 
ATOM      5  C5  DEN d   1       0.227  -1.472   2.585  0.00  0.00    -0.003 A 
ATOM      6  C6  DEN d   1       0.638  -2.428   1.695  0.00  0.00     0.001 A 
ATOM      7  C7  DEN d   1       1.871  -2.324   1.108  0.00  0.00     0.017 A 
ATOM      8  C8  DEN d   1       2.650  -1.212   1.401  0.00  0.00    -0.094 A 
ATOM      9  C9  DEN d   1       2.222  -0.262   2.313  0.00  0.00    -0.072 A 
ENDROOT
TORSDOF 0
ENDMDL
