MODEL 1
REMARK minimizedAffinity 11.4667645
REMARK minimizedRMSD -1
REMARK  0 active torsions:
REMARK  status: ('A' for Active; 'I' for Inactive)
ROOT
ATOM      1  C1  DEN d   1      -3.776  -3.004   5.621  0.00  0.00     0.130 A 
ATOM      2  C2  DEN d   1      -5.185  -3.063   6.000  0.00  0.00    -0.031 A 
ATOM      3  C3  DEN d   1      -5.992  -3.005   4.765  0.00  0.00     0.027 A 
ATOM      4  C4  DEN d   1      -5.202  -2.838   2.315  0.00  0.00     0.027 A 
ATOM      5  C5  DEN d   1      -4.098  -2.749   1.496  0.00  0.00    -0.003 A 
ATOM      6  C6  DEN d   1      -2.822  -2.705   1.991  0.00  0.00     0.001 A 
ATOM      7  C7  DEN d   1      -2.615  -2.795   3.342  0.00  0.00     0.017 A 
ATOM      8  C8  DEN d   1      -3.723  -2.878   4.175  0.00  0.00    -0.094 A 
ATOM      9  C9  DEN d   1      -5.004  -2.934   3.655  0.00  0.00    -0.072 A 
ENDROOT
TORSDOF 0
ENDMDL
