MODEL 1
REMARK minimizedAffinity 8.03251266
REMARK minimizedRMSD -1
REMARK  0 active torsions:
REMARK  status: ('A' for Active; 'I' for Inactive)
ROOT
ATOM      1  C1  DEN d   1       4.450  -4.597  -6.000  0.00  0.00     0.130 A 
ATOM      2  C2  DEN d   1       4.729  -3.230  -5.569  0.00  0.00    -0.031 A 
ATOM      3  C3  DEN d   1       3.479  -2.655  -5.034  0.00  0.00     0.027 A 
ATOM      4  C4  DEN d   1       1.150  -3.746  -4.827  0.00  0.00     0.027 A 
ATOM      5  C5  DEN d   1       0.420  -4.888  -5.070  0.00  0.00    -0.003 A 
ATOM      6  C6  DEN d   1       0.969  -5.992  -5.666  0.00  0.00     0.001 A 
ATOM      7  C7  DEN d   1       2.297  -5.994  -5.999  0.00  0.00     0.017 A 
ATOM      8  C8  DEN d   1       3.038  -4.844  -5.763  0.00  0.00    -0.094 A 
ATOM      9  C9  DEN d   1       2.469  -3.742  -5.148  0.00  0.00    -0.072 A 
ENDROOT
TORSDOF 0
ENDMDL
