MODEL 1
REMARK minimizedAffinity 19.6818237
REMARK minimizedRMSD -1
REMARK  0 active torsions:
REMARK  status: ('A' for Active; 'I' for Inactive)
ROOT
ATOM      1  C1  DEN d   1       1.915  -4.363   0.895  0.00  0.00     0.130 A 
ATOM      2  C2  DEN d   1       0.568  -4.719   1.330  0.00  0.00    -0.031 A 
ATOM      3  C3  DEN d   1      -0.108  -3.485   1.780  0.00  0.00     0.027 A 
ATOM      4  C4  DEN d   1       0.797  -1.070   1.839  0.00  0.00     0.027 A 
ATOM      5  C5  DEN d   1       1.891  -0.275   1.581  0.00  0.00    -0.003 A 
ATOM      6  C6  DEN d   1       3.072  -0.787   1.112  0.00  0.00     0.001 A 
ATOM      7  C7  DEN d   1       3.172  -2.127   0.843  0.00  0.00     0.017 A 
ATOM      8  C8  DEN d   1       2.075  -2.936   1.109  0.00  0.00    -0.094 A 
ATOM      9  C9  DEN d   1       0.886  -2.397   1.571  0.00  0.00    -0.072 A 
ENDROOT
TORSDOF 0
ENDMDL
