MODEL 1
REMARK minimizedAffinity 9.10933304
REMARK minimizedRMSD -1
REMARK  0 active torsions:
REMARK  status: ('A' for Active; 'I' for Inactive)
ROOT
ATOM      1  C1  DEN d   1       0.235   1.376  -0.455  0.00  0.00     0.130 A 
ATOM      2  C2  DEN d   1       1.124   2.531  -0.550  0.00  0.00    -0.031 A 
ATOM      3  C3  DEN d   1       2.413   2.167   0.071  0.00  0.00     0.027 A 
ATOM      4  C4  DEN d   1       3.118  -0.062   1.160  0.00  0.00     0.027 A 
ATOM      5  C5  DEN d   1       2.700  -1.332   1.488  0.00  0.00    -0.003 A 
ATOM      6  C6  DEN d   1       1.430  -1.774   1.224  0.00  0.00     0.001 A 
ATOM      7  C7  DEN d   1       0.548  -0.954   0.574  0.00  0.00     0.017 A 
ATOM      8  C8  DEN d   1       0.960   0.332   0.246  0.00  0.00    -0.094 A 
ATOM      9  C9  DEN d   1       2.251   0.755   0.511  0.00  0.00    -0.072 A 
ENDROOT
TORSDOF 0
ENDMDL
