MODEL 1
REMARK minimizedAffinity 23.8190613
REMARK minimizedRMSD -1
REMARK  0 active torsions:
REMARK  status: ('A' for Active; 'I' for Inactive)
ROOT
ATOM      1  C1  DEN d   1       0.344   1.798  -0.635  0.00  0.00     0.130 A 
ATOM      2  C2  DEN d   1       1.153   3.002  -0.801  0.00  0.00    -0.031 A 
ATOM      3  C3  DEN d   1       2.427   2.799  -0.082  0.00  0.00     0.027 A 
ATOM      4  C4  DEN d   1       3.222   0.747   1.263  0.00  0.00     0.027 A 
ATOM      5  C5  DEN d   1       2.875  -0.514   1.697  0.00  0.00    -0.003 A 
ATOM      6  C6  DEN d   1       1.658  -1.074   1.415  0.00  0.00     0.001 A 
ATOM      7  C7  DEN d   1       0.759  -0.390   0.640  0.00  0.00     0.017 A 
ATOM      8  C8  DEN d   1       1.098   0.884   0.205  0.00  0.00    -0.094 A 
ATOM      9  C9  DEN d   1       2.339   1.428   0.491  0.00  0.00    -0.072 A 
ENDROOT
TORSDOF 0
ENDMDL
