MODEL 1
REMARK minimizedAffinity 14.1058998
REMARK minimizedRMSD -1
REMARK  0 active torsions:
REMARK  status: ('A' for Active; 'I' for Inactive)
ROOT
ATOM      1  C1  DEN d   1      -1.790   3.062  -3.465  0.00  0.00     0.130 A 
ATOM      2  C2  DEN d   1      -3.055   3.049  -2.736  0.00  0.00    -0.031 A 
ATOM      3  C3  DEN d   1      -2.764   2.741  -1.321  0.00  0.00     0.027 A 
ATOM      4  C4  DEN d   1      -0.488   2.290  -0.195  0.00  0.00     0.027 A 
ATOM      5  C5  DEN d   1       0.869   2.181  -0.409  0.00  0.00    -0.003 A 
ATOM      6  C6  DEN d   1       1.426   2.323  -1.652  0.00  0.00     0.001 A 
ATOM      7  C7  DEN d   1       0.627   2.628  -2.723  0.00  0.00     0.017 A 
ATOM      8  C8  DEN d   1      -0.742   2.732  -2.516  0.00  0.00    -0.094 A 
ATOM      9  C9  DEN d   1      -1.285   2.596  -1.250  0.00  0.00    -0.072 A 
ENDROOT
TORSDOF 0
ENDMDL
