MODEL 1
REMARK minimizedAffinity 11.9452095
REMARK minimizedRMSD -1
REMARK  0 active torsions:
REMARK  status: ('A' for Active; 'I' for Inactive)
ROOT
ATOM      1  C1  DEN d   1       2.270   3.012   0.330  0.00  0.00     0.130 A 
ATOM      2  C2  DEN d   1       0.919   2.825  -0.190  0.00  0.00    -0.031 A 
ATOM      3  C3  DEN d   1       0.553   1.405  -0.008  0.00  0.00     0.027 A 
ATOM      4  C4  DEN d   1       1.938  -0.508   1.026  0.00  0.00     0.027 A 
ATOM      5  C5  DEN d   1       3.148  -0.837   1.597  0.00  0.00    -0.003 A 
ATOM      6  C6  DEN d   1       4.154   0.079   1.753  0.00  0.00     0.001 A 
ATOM      7  C7  DEN d   1       3.953   1.380   1.375  0.00  0.00     0.017 A 
ATOM      8  C8  DEN d   1       2.738   1.717   0.792  0.00  0.00    -0.094 A 
ATOM      9  C9  DEN d   1       1.729   0.780   0.654  0.00  0.00    -0.072 A 
ENDROOT
TORSDOF 0
ENDMDL
