MODEL 1
REMARK minimizedAffinity 17.9143581
REMARK minimizedRMSD -1
REMARK  0 active torsions:
REMARK  status: ('A' for Active; 'I' for Inactive)
ROOT
ATOM      1  C1  DEN d   1      -1.919   2.270  -3.460  0.00  0.00     0.130 A 
ATOM      2  C2  DEN d   1      -1.219   2.585  -2.219  0.00  0.00    -0.031 A 
ATOM      3  C3  DEN d   1      -0.901   4.027  -2.227  0.00  0.00     0.027 A 
ATOM      4  C4  DEN d   1      -1.428   5.794  -4.031  0.00  0.00     0.027 A 
ATOM      5  C5  DEN d   1      -1.998   6.000  -5.268  0.00  0.00    -0.003 A 
ATOM      6  C6  DEN d   1      -2.546   4.979  -5.998  0.00  0.00     0.001 A 
ATOM      7  C7  DEN d   1      -2.577   3.713  -5.478  0.00  0.00     0.017 A 
ATOM      8  C8  DEN d   1      -1.998   3.496  -4.234  0.00  0.00    -0.094 A 
ATOM      9  C9  DEN d   1      -1.460   4.543  -3.506  0.00  0.00    -0.072 A 
ENDROOT
TORSDOF 0
ENDMDL
