MODEL 1
REMARK minimizedAffinity 6.07621479
REMARK minimizedRMSD -1
REMARK  0 active torsions:
REMARK  status: ('A' for Active; 'I' for Inactive)
ROOT
ATOM      1  C1  DEN d   1       2.731  -1.068   2.770  0.00  0.00     0.130 A 
ATOM      2  C2  DEN d   1       2.322  -1.138   1.369  0.00  0.00    -0.031 A 
ATOM      3  C3  DEN d   1       0.854  -0.996   1.315  0.00  0.00     0.027 A 
ATOM      4  C4  DEN d   1      -0.819  -0.671   3.251  0.00  0.00     0.027 A 
ATOM      5  C5  DEN d   1      -0.945  -0.561   4.618  0.00  0.00    -0.003 A 
ATOM      6  C6  DEN d   1       0.132  -0.645   5.461  0.00  0.00     0.001 A 
ATOM      7  C7  DEN d   1       1.389  -0.801   4.941  0.00  0.00     0.017 A 
ATOM      8  C8  DEN d   1       1.524  -0.920   3.564  0.00  0.00    -0.094 A 
ATOM      9  C9  DEN d   1       0.425  -0.820   2.728  0.00  0.00    -0.072 A 
ENDROOT
TORSDOF 0
ENDMDL
