MODEL 1
REMARK minimizedAffinity 11.59902
REMARK minimizedRMSD -1
REMARK  0 active torsions:
REMARK  status: ('A' for Active; 'I' for Inactive)
ROOT
ATOM      1  C1  DEN d   1      -4.126  -4.947  -0.715  0.00  0.00     0.130 A 
ATOM      2  C2  DEN d   1      -5.139  -6.000  -0.718  0.00  0.00    -0.031 A 
ATOM      3  C3  DEN d   1      -5.802  -5.999   0.601  0.00  0.00     0.027 A 
ATOM      4  C4  DEN d   1      -5.366  -4.475   2.636  0.00  0.00     0.027 A 
ATOM      5  C5  DEN d   1      -4.596  -3.441   3.119  0.00  0.00    -0.003 A 
ATOM      6  C6  DEN d   1      -3.600  -2.863   2.376  0.00  0.00     0.001 A 
ATOM      7  C7  DEN d   1      -3.379  -3.286   1.092  0.00  0.00     0.017 A 
ATOM      8  C8  DEN d   1      -4.146  -4.334   0.601  0.00  0.00    -0.094 A 
ATOM      9  C9  DEN d   1      -5.156  -4.897   1.363  0.00  0.00    -0.072 A 
ENDROOT
TORSDOF 0
ENDMDL
