MODEL 1
REMARK minimizedAffinity 21.8155823
REMARK minimizedRMSD -1
REMARK  0 active torsions:
REMARK  status: ('A' for Active; 'I' for Inactive)
ROOT
ATOM      1  C1  DEN d   1      -2.631   3.667  -5.106  0.00  0.00     0.130 A 
ATOM      2  C2  DEN d   1      -2.206   4.871  -5.816  0.00  0.00    -0.031 A 
ATOM      3  C3  DEN d   1      -2.247   6.000  -4.864  0.00  0.00     0.027 A 
ATOM      4  C4  DEN d   1      -2.920   6.000  -2.374  0.00  0.00     0.027 A 
ATOM      5  C5  DEN d   1      -3.366   5.217  -1.332  0.00  0.00    -0.003 A 
ATOM      6  C6  DEN d   1      -3.629   3.881  -1.482  0.00  0.00     0.001 A 
ATOM      7  C7  DEN d   1      -3.404   3.277  -2.691  0.00  0.00     0.017 A 
ATOM      8  C8  DEN d   1      -2.962   4.061  -3.749  0.00  0.00    -0.094 A 
ATOM      9  C9  DEN d   1      -2.690   5.407  -3.573  0.00  0.00    -0.072 A 
ENDROOT
TORSDOF 0
ENDMDL
