MODEL 1
REMARK minimizedAffinity 0.459241807
REMARK minimizedRMSD -1
REMARK  0 active torsions:
REMARK  status: ('A' for Active; 'I' for Inactive)
ROOT
ATOM      1  C1  DEN d   1      -4.932  -3.702   2.169  0.00  0.00     0.130 A 
ATOM      2  C2  DEN d   1      -5.336  -4.857   1.371  0.00  0.00    -0.031 A 
ATOM      3  C3  DEN d   1      -5.671  -5.957   2.296  0.00  0.00     0.027 A 
ATOM      4  C4  DEN d   1      -5.610  -5.985   4.874  0.00  0.00     0.027 A 
ATOM      5  C5  DEN d   1      -5.322  -5.243   5.998  0.00  0.00    -0.003 A 
ATOM      6  C6  DEN d   1      -4.855  -3.957   5.925  0.00  0.00     0.001 A 
ATOM      7  C7  DEN d   1      -4.705  -3.359   4.701  0.00  0.00     0.017 A 
ATOM      8  C8  DEN d   1      -4.987  -4.103   3.564  0.00  0.00    -0.094 A 
ATOM      9  C9  DEN d   1      -5.470  -5.397   3.659  0.00  0.00    -0.072 A 
ENDROOT
TORSDOF 0
ENDMDL
