MODEL 1
REMARK minimizedAffinity 13.6422186
REMARK minimizedRMSD -1
REMARK  0 active torsions:
REMARK  status: ('A' for Active; 'I' for Inactive)
ROOT
ATOM      1  C   UNL d   1      -0.708  -2.850   1.534  0.00  0.00    -0.002 A 
ATOM      2  C1  UNL d   1      -1.854  -2.203   1.094  0.00  0.00     0.010 A 
ATOM      3  C2  UNL d   1      -1.976  -1.800  -0.237  0.00  0.00     0.041 A 
ATOM      4  C3  UNL d   1      -0.917  -2.064  -1.128  0.00  0.00    -0.075 A 
ATOM      5  S   UNL d   1      -0.845  -1.664  -2.804  0.00  0.00     0.015 SA
ATOM      6  C4  UNL d   1       0.708  -2.345  -2.976  0.00  0.00     0.022 A 
ATOM      7  C5  UNL d   1       1.175  -2.869  -1.794  0.00  0.00     0.026 A 
ATOM      8  C6  UNL d   1       0.246  -2.716  -0.710  0.00  0.00    -0.082 A 
ATOM      9  C7  UNL d   1       0.340  -3.111   0.647  0.00  0.00     0.045 A 
ENDROOT
TORSDOF 0
ENDMDL
