MODEL 1
REMARK minimizedAffinity 17.8686638
REMARK minimizedRMSD -1
REMARK  0 active torsions:
REMARK  status: ('A' for Active; 'I' for Inactive)
ROOT
ATOM      1  C   UNL d   1      -1.576  -2.479   0.883  0.00  0.00    -0.002 A 
ATOM      2  C1  UNL d   1      -0.301  -3.002   1.044  0.00  0.00     0.010 A 
ATOM      3  C2  UNL d   1       0.508  -3.257  -0.065  0.00  0.00     0.041 A 
ATOM      4  C3  UNL d   1       0.009  -2.974  -1.352  0.00  0.00    -0.075 A 
ATOM      5  S   UNL d   1       0.821  -3.205  -2.855  0.00  0.00     0.015 SA
ATOM      6  C4  UNL d   1      -0.505  -2.614  -3.747  0.00  0.00     0.022 A 
ATOM      7  C5  UNL d   1      -1.551  -2.246  -2.934  0.00  0.00     0.026 A 
ATOM      8  C6  UNL d   1      -1.271  -2.447  -1.540  0.00  0.00    -0.082 A 
ATOM      9  C7  UNL d   1      -2.067  -2.200  -0.395  0.00  0.00     0.045 A 
ENDROOT
TORSDOF 0
ENDMDL
