MODEL 1
REMARK minimizedAffinity 20.3268204
REMARK minimizedRMSD -1
REMARK  0 active torsions:
REMARK  status: ('A' for Active; 'I' for Inactive)
ROOT
ATOM      1  C   UNL d   1      -0.359  -2.625  -2.560  0.00  0.00    -0.002 A 
ATOM      2  C1  UNL d   1      -1.621  -2.771  -3.118  0.00  0.00     0.010 A 
ATOM      3  C2  UNL d   1      -2.766  -2.618  -2.333  0.00  0.00     0.041 A 
ATOM      4  C3  UNL d   1      -2.619  -2.310  -0.966  0.00  0.00    -0.075 A 
ATOM      5  S   UNL d   1      -3.879  -2.075   0.187  0.00  0.00     0.015 SA
ATOM      6  C4  UNL d   1      -2.771  -1.774   1.447  0.00  0.00     0.022 A 
ATOM      7  C5  UNL d   1      -1.468  -1.847   1.016  0.00  0.00     0.026 A 
ATOM      8  C6  UNL d   1      -1.359  -2.156  -0.382  0.00  0.00    -0.082 A 
ATOM      9  C7  UNL d   1      -0.217  -2.319  -1.204  0.00  0.00     0.045 A 
ENDROOT
TORSDOF 0
ENDMDL
