MODEL 1
REMARK minimizedAffinity 17.1301422
REMARK minimizedRMSD -1
REMARK  0 active torsions:
REMARK  status: ('A' for Active; 'I' for Inactive)
ROOT
ATOM      1  C   UNL d   1       3.723   5.629  -2.643  0.00  0.00    -0.002 A 
ATOM      2  C1  UNL d   1       2.591   5.973  -3.368  0.00  0.00     0.010 A 
ATOM      3  C2  UNL d   1       1.334   5.984  -2.761  0.00  0.00     0.041 A 
ATOM      4  C3  UNL d   1       1.233   5.643  -1.397  0.00  0.00    -0.075 A 
ATOM      5  S   UNL d   1      -0.202   5.589  -0.443  0.00  0.00     0.015 SA
ATOM      6  C4  UNL d   1       0.654   5.110   0.951  0.00  0.00     0.022 A 
ATOM      7  C5  UNL d   1       2.003   4.989   0.712  0.00  0.00     0.026 A 
ATOM      8  C6  UNL d   1       2.359   5.295  -0.645  0.00  0.00    -0.082 A 
ATOM      9  C7  UNL d   1       3.619   5.292  -1.291  0.00  0.00     0.045 A 
ENDROOT
TORSDOF 0
ENDMDL
