MODEL 1
REMARK minimizedAffinity 15.5598755
REMARK minimizedRMSD -1
REMARK  0 active torsions:
REMARK  status: ('A' for Active; 'I' for Inactive)
ROOT
ATOM      1  C   UNL d   1       5.720  -5.359   4.989  0.00  0.00    -0.002 A 
ATOM      2  C1  UNL d   1       6.000  -4.451   6.000  0.00  0.00     0.010 A 
ATOM      3  C2  UNL d   1       5.414  -3.184   5.998  0.00  0.00     0.041 A 
ATOM      4  C3  UNL d   1       4.532  -2.842   4.954  0.00  0.00    -0.075 A 
ATOM      5  S   UNL d   1       3.697  -1.348   4.746  0.00  0.00     0.015 SA
ATOM      6  C4  UNL d   1       2.948  -1.881   3.310  0.00  0.00     0.022 A 
ATOM      7  C5  UNL d   1       3.315  -3.165   2.983  0.00  0.00     0.026 A 
ATOM      8  C6  UNL d   1       4.234  -3.740   3.925  0.00  0.00    -0.082 A 
ATOM      9  C7  UNL d   1       4.845  -5.017   3.955  0.00  0.00     0.045 A 
ENDROOT
TORSDOF 0
ENDMDL
