MODEL 1
REMARK minimizedAffinity 17.3021183
REMARK minimizedRMSD -1
REMARK  0 active torsions:
REMARK  status: ('A' for Active; 'I' for Inactive)
ROOT
ATOM      1  C   UNL d   1      -1.573  -2.030   0.571  0.00  0.00    -0.002 A 
ATOM      2  C1  UNL d   1      -0.409  -2.769   0.730  0.00  0.00     0.010 A 
ATOM      3  C2  UNL d   1       0.253  -3.299  -0.379  0.00  0.00     0.041 A 
ATOM      4  C3  UNL d   1      -0.277  -3.069  -1.663  0.00  0.00    -0.075 A 
ATOM      5  S   UNL d   1       0.364  -3.620  -3.166  0.00  0.00     0.015 SA
ATOM      6  C4  UNL d   1      -0.891  -2.886  -4.056  0.00  0.00     0.022 A 
ATOM      7  C5  UNL d   1      -1.786  -2.233  -3.242  0.00  0.00     0.026 A 
ATOM      8  C6  UNL d   1      -1.447  -2.327  -1.850  0.00  0.00    -0.082 A 
ATOM      9  C7  UNL d   1      -2.096  -1.804  -0.705  0.00  0.00     0.045 A 
ENDROOT
TORSDOF 0
ENDMDL
