MODEL 1
REMARK minimizedAffinity 10.6298323
REMARK minimizedRMSD -1
REMARK  0 active torsions:
REMARK  status: ('A' for Active; 'I' for Inactive)
ROOT
ATOM      1  C   UNL d   1       1.501   5.982  -3.439  0.00  0.00    -0.002 A 
ATOM      2  C1  UNL d   1       2.144   5.975  -4.669  0.00  0.00     0.010 A 
ATOM      3  C2  UNL d   1       3.539   5.978  -4.741  0.00  0.00     0.041 A 
ATOM      4  C3  UNL d   1       4.283   5.986  -3.545  0.00  0.00    -0.075 A 
ATOM      5  S   UNL d   1       6.000   5.989  -3.389  0.00  0.00     0.015 SA
ATOM      6  C4  UNL d   1       5.920   5.998  -1.686  0.00  0.00     0.022 A 
ATOM      7  C5  UNL d   1       4.623   5.999  -1.231  0.00  0.00     0.026 A 
ATOM      8  C6  UNL d   1       3.658   5.991  -2.294  0.00  0.00    -0.082 A 
ATOM      9  C7  UNL d   1       2.243   5.989  -2.255  0.00  0.00     0.045 A 
ENDROOT
TORSDOF 0
ENDMDL
