MODEL 1
REMARK minimizedAffinity 24.7048893
REMARK minimizedRMSD -1
REMARK  0 active torsions:
REMARK  status: ('A' for Active; 'I' for Inactive)
ROOT
ATOM      1  C   UNL d   1       5.632   5.792  -1.451  0.00  0.00    -0.002 A 
ATOM      2  C1  UNL d   1       5.999   5.176  -0.263  0.00  0.00     0.010 A 
ATOM      3  C2  UNL d   1       5.029   4.751   0.647  0.00  0.00     0.041 A 
ATOM      4  C3  UNL d   1       3.670   4.957   0.339  0.00  0.00    -0.075 A 
ATOM      5  S   UNL d   1       2.308   4.519   1.302  0.00  0.00     0.015 SA
ATOM      6  C4  UNL d   1       1.206   5.139   0.159  0.00  0.00     0.022 A 
ATOM      7  C5  UNL d   1       1.844   5.671  -0.936  0.00  0.00     0.026 A 
ATOM      8  C6  UNL d   1       3.275   5.574  -0.851  0.00  0.00    -0.082 A 
ATOM      9  C7  UNL d   1       4.282   5.994  -1.752  0.00  0.00     0.045 A 
ENDROOT
TORSDOF 0
ENDMDL
