MODEL 1
REMARK minimizedAffinity 10.7520771
REMARK minimizedRMSD -1
REMARK  0 active torsions:
REMARK  status: ('A' for Active; 'I' for Inactive)
ROOT
ATOM      1  C   UNL d   1       5.992   2.830  -5.931  0.00  0.00    -0.002 A 
ATOM      2  C1  UNL d   1       5.976   1.896  -4.906  0.00  0.00     0.010 A 
ATOM      3  C2  UNL d   1       5.949   2.306  -3.571  0.00  0.00     0.041 A 
ATOM      4  C3  UNL d   1       5.937   3.685  -3.282  0.00  0.00    -0.075 A 
ATOM      5  S   UNL d   1       5.903   4.420  -1.723  0.00  0.00     0.015 SA
ATOM      6  C4  UNL d   1       5.908   5.992  -2.382  0.00  0.00     0.022 A 
ATOM      7  C5  UNL d   1       5.935   5.975  -3.756  0.00  0.00     0.026 A 
ATOM      8  C6  UNL d   1       5.952   4.645  -4.298  0.00  0.00    -0.082 A 
ATOM      9  C7  UNL d   1       5.980   4.197  -5.641  0.00  0.00     0.045 A 
ENDROOT
TORSDOF 0
ENDMDL
