MODEL 1
REMARK minimizedAffinity 10.2704659
REMARK minimizedRMSD -1
REMARK  3 active torsions:
REMARK  status: ('A' for Active; 'I' for Inactive)
REMARK    1  A    between atoms: C3'_2  and  C2'_3 
REMARK    2  A    between atoms: C2'_3  and  C1'_4 
REMARK    3  A    between atoms: C1'_4  and  C1_5 
ROOT
ATOM      1  C1  N4B d   1      -4.592   2.073   1.926  0.00  0.00    -0.075 A 
ATOM      2  C2  N4B d   1      -4.900   0.824   2.508  0.00  0.00     0.002 A 
ATOM      3  C3  N4B d   1      -3.892   0.024   2.988  0.00  0.00     0.002 A 
ATOM      4  C4  N4B d   1      -2.574   0.441   2.880  0.00  0.00    -0.004 A 
ATOM      5  C5  N4B d   1      -2.287   1.660   2.338  0.00  0.00     0.002 A 
ATOM      6  C6  N4B d   1      -3.290   2.477   1.856  0.00  0.00     0.002 A 
ENDROOT
BRANCH   1   7
ATOM      7  C1' N4B d   1      -5.653   2.945   1.310  0.00  0.00     0.057 C 
BRANCH   7   8
ATOM      8  C2' N4B d   1      -5.189   3.396  -0.072  0.00  0.00     0.009 C 
BRANCH   8   9
ATOM      9  C3' N4B d   1      -5.882   4.673  -0.515  0.00  0.00     0.004 C 
ATOM     10  C4' N4B d   1      -5.239   5.907   0.046  0.00  0.00     0.003 C 
ENDBRANCH   8   9
ENDBRANCH   7   8
ENDBRANCH   1   7
TORSDOF 3
ENDMDL
