MODEL 1
REMARK minimizedAffinity 9.0120697
REMARK minimizedRMSD -1
REMARK  3 active torsions:
REMARK  status: ('A' for Active; 'I' for Inactive)
REMARK    1  A    between atoms: C3'_2  and  C2'_3 
REMARK    2  A    between atoms: C2'_3  and  C1'_4 
REMARK    3  A    between atoms: C1'_4  and  C1_5 
ROOT
ATOM      1  C1  N4B d   1      -3.968  -0.047   2.003  0.00  0.00    -0.075 A 
ATOM      2  C2  N4B d   1      -2.711   0.573   2.174  0.00  0.00     0.002 A 
ATOM      3  C3  N4B d   1      -2.576   1.923   1.964  0.00  0.00     0.002 A 
ATOM      4  C4  N4B d   1      -3.676   2.668   1.565  0.00  0.00    -0.004 A 
ATOM      5  C5  N4B d   1      -4.893   2.067   1.426  0.00  0.00     0.002 A 
ATOM      6  C6  N4B d   1      -5.043   0.711   1.638  0.00  0.00     0.002 A 
ENDROOT
BRANCH   1   7
ATOM      7  C1' N4B d   1      -4.146  -1.534   2.138  0.00  0.00     0.057 C 
BRANCH   7   8
ATOM      8  C2' N4B d   1      -3.362  -2.235   1.032  0.00  0.00     0.009 C 
BRANCH   8   9
ATOM      9  C3' N4B d   1      -2.640  -3.470   1.541  0.00  0.00     0.004 C 
ATOM     10  C4' N4B d   1      -3.490  -4.704   1.487  0.00  0.00     0.003 C 
ENDBRANCH   8   9
ENDBRANCH   7   8
ENDBRANCH   1   7
TORSDOF 3
ENDMDL
