MODEL 1
REMARK minimizedAffinity 6.24468374
REMARK minimizedRMSD -1
REMARK  3 active torsions:
REMARK  status: ('A' for Active; 'I' for Inactive)
REMARK    1  A    between atoms: C3'_2  and  C2'_3 
REMARK    2  A    between atoms: C2'_3  and  C1'_4 
REMARK    3  A    between atoms: C1'_4  and  C1_5 
ROOT
ATOM      1  C1  N4B d   1       4.025  -0.943  -1.347  0.00  0.00    -0.075 A 
ATOM      2  C2  N4B d   1       5.219  -1.442  -1.913  0.00  0.00     0.002 A 
ATOM      3  C3  N4B d   1       5.999  -0.630  -2.699  0.00  0.00     0.002 A 
ATOM      4  C4  N4B d   1       5.597   0.674  -2.949  0.00  0.00    -0.004 A 
ATOM      5  C5  N4B d   1       4.456   1.156  -2.378  0.00  0.00     0.002 A 
ATOM      6  C6  N4B d   1       3.664   0.352  -1.582  0.00  0.00     0.002 A 
ENDROOT
BRANCH   1   7
ATOM      7  C1' N4B d   1       3.096  -1.818  -0.552  0.00  0.00     0.057 C 
BRANCH   7   8
ATOM      8  C2' N4B d   1       2.730  -3.045  -1.382  0.00  0.00     0.009 C 
BRANCH   8   9
ATOM      9  C3' N4B d   1       2.332  -2.673  -2.800  0.00  0.00     0.004 C 
ATOM     10  C4' N4B d   1       0.853  -2.480  -2.957  0.00  0.00     0.003 C 
ENDBRANCH   8   9
ENDBRANCH   7   8
ENDBRANCH   1   7
TORSDOF 3
ENDMDL
