MODEL 1
REMARK minimizedAffinity 4.28295565
REMARK minimizedRMSD -1
REMARK  3 active torsions:
REMARK  status: ('A' for Active; 'I' for Inactive)
REMARK    1  A    between atoms: C3'_2  and  C2'_3 
REMARK    2  A    between atoms: C2'_3  and  C1'_4 
REMARK    3  A    between atoms: C1'_4  and  C1_5 
ROOT
ATOM      1  C1  N4B d   1      -0.911   5.412  -1.995  0.00  0.00    -0.075 A 
ATOM      2  C2  N4B d   1      -1.673   4.319  -2.462  0.00  0.00     0.002 A 
ATOM      3  C3  N4B d   1      -1.505   3.864  -3.747  0.00  0.00     0.002 A 
ATOM      4  C4  N4B d   1      -0.598   4.496  -4.585  0.00  0.00    -0.004 A 
ATOM      5  C5  N4B d   1       0.152   5.535  -4.118  0.00  0.00     0.002 A 
ATOM      6  C6  N4B d   1      -0.003   6.000  -2.828  0.00  0.00     0.002 A 
ENDROOT
BRANCH   1   7
ATOM      7  C1' N4B d   1      -1.121   5.999  -0.626  0.00  0.00     0.057 C 
BRANCH   7   8
ATOM      8  C2' N4B d   1      -0.754   4.958   0.427  0.00  0.00     0.009 C 
BRANCH   8   9
ATOM      9  C3' N4B d   1      -1.869   4.754   1.438  0.00  0.00     0.004 C 
ATOM     10  C4' N4B d   1      -2.672   5.998   1.676  0.00  0.00     0.003 C 
ENDBRANCH   8   9
ENDBRANCH   7   8
ENDBRANCH   1   7
TORSDOF 3
ENDMDL
