MODEL 1
REMARK minimizedAffinity 4.38736773
REMARK minimizedRMSD -1
REMARK  3 active torsions:
REMARK  status: ('A' for Active; 'I' for Inactive)
REMARK    1  A    between atoms: C3'_2  and  C2'_3 
REMARK    2  A    between atoms: C2'_3  and  C1'_4 
REMARK    3  A    between atoms: C1'_4  and  C1_5 
ROOT
ATOM      1  C1  N4B d   1      -0.637   4.215  -3.171  0.00  0.00    -0.075 A 
ATOM      2  C2  N4B d   1      -1.982   3.837  -3.377  0.00  0.00     0.002 A 
ATOM      3  C3  N4B d   1      -2.273   2.627  -3.959  0.00  0.00     0.002 A 
ATOM      4  C4  N4B d   1      -1.241   1.792  -4.358  0.00  0.00    -0.004 A 
ATOM      5  C5  N4B d   1       0.055   2.153  -4.132  0.00  0.00     0.002 A 
ATOM      6  C6  N4B d   1       0.362   3.364  -3.545  0.00  0.00     0.002 A 
ENDROOT
BRANCH   1   7
ATOM      7  C1' N4B d   1      -0.268   5.564  -2.617  0.00  0.00     0.057 C 
BRANCH   7   8
ATOM      8  C2' N4B d   1      -1.238   5.929  -1.498  0.00  0.00     0.009 C 
BRANCH   8   9
ATOM      9  C3' N4B d   1      -0.808   5.350  -0.161  0.00  0.00     0.004 C 
ATOM     10  C4' N4B d   1      -1.498   5.999   1.002  0.00  0.00     0.003 C 
ENDBRANCH   8   9
ENDBRANCH   7   8
ENDBRANCH   1   7
TORSDOF 3
ENDMDL
