MODEL 1
REMARK minimizedAffinity 9.73095131
REMARK minimizedRMSD -1
REMARK  3 active torsions:
REMARK  status: ('A' for Active; 'I' for Inactive)
REMARK    1  A    between atoms: C3'_2  and  C2'_3 
REMARK    2  A    between atoms: C2'_3  and  C1'_4 
REMARK    3  A    between atoms: C1'_4  and  C1_5 
ROOT
ATOM      1  C1  N4B d   1      -0.918   4.430  -1.856  0.00  0.00    -0.075 A 
ATOM      2  C2  N4B d   1       0.461   4.411  -2.159  0.00  0.00     0.002 A 
ATOM      3  C3  N4B d   1       0.961   3.466  -3.020  0.00  0.00     0.002 A 
ATOM      4  C4  N4B d   1       0.109   2.522  -3.573  0.00  0.00    -0.004 A 
ATOM      5  C5  N4B d   1      -1.226   2.563  -3.295  0.00  0.00     0.002 A 
ATOM      6  C6  N4B d   1      -1.744   3.510  -2.435  0.00  0.00     0.002 A 
ENDROOT
BRANCH   1   7
ATOM      7  C1' N4B d   1      -1.498   5.390  -0.854  0.00  0.00     0.057 C 
BRANCH   7   8
ATOM      8  C2' N4B d   1      -1.277   4.841   0.552  0.00  0.00     0.009 C 
BRANCH   8   9
ATOM      9  C3' N4B d   1      -1.477   3.336   0.612  0.00  0.00     0.004 C 
ATOM     10  C4' N4B d   1      -2.641   2.938   1.470  0.00  0.00     0.003 C 
ENDBRANCH   8   9
ENDBRANCH   7   8
ENDBRANCH   1   7
TORSDOF 3
ENDMDL
