MODEL 1
REMARK minimizedAffinity 14.075036
REMARK minimizedRMSD -1
REMARK  3 active torsions:
REMARK  status: ('A' for Active; 'I' for Inactive)
REMARK    1  A    between atoms: C3'_2  and  C2'_3 
REMARK    2  A    between atoms: C2'_3  and  C1'_4 
REMARK    3  A    between atoms: C1'_4  and  C1_5 
ROOT
ATOM      1  C1  N4B d   1       0.697   2.819  -4.053  0.00  0.00    -0.075 A 
ATOM      2  C2  N4B d   1       0.128   3.888  -3.327  0.00  0.00     0.002 A 
ATOM      3  C3  N4B d   1      -1.054   3.708  -2.651  0.00  0.00     0.002 A 
ATOM      4  C4  N4B d   1      -1.692   2.477  -2.702  0.00  0.00    -0.004 A 
ATOM      5  C5  N4B d   1      -1.123   1.442  -3.385  0.00  0.00     0.002 A 
ATOM      6  C6  N4B d   1       0.066   1.608  -4.065  0.00  0.00     0.002 A 
ENDROOT
BRANCH   1   7
ATOM      7  C1' N4B d   1       1.943   2.993  -4.877  0.00  0.00     0.057 C 
BRANCH   7   8
ATOM      8  C2' N4B d   1       2.615   4.309  -4.497  0.00  0.00     0.009 C 
BRANCH   8   9
ATOM      9  C3' N4B d   1       4.101   4.300  -4.813  0.00  0.00     0.004 C 
ATOM     10  C4' N4B d   1       4.437   3.447  -6.000  0.00  0.00     0.003 C 
ENDBRANCH   8   9
ENDBRANCH   7   8
ENDBRANCH   1   7
TORSDOF 3
ENDMDL
