MODEL 1
REMARK minimizedAffinity 9.70328903
REMARK minimizedRMSD -1
REMARK  3 active torsions:
REMARK  status: ('A' for Active; 'I' for Inactive)
REMARK    1  A    between atoms: C3'_2  and  C2'_3 
REMARK    2  A    between atoms: C2'_3  and  C1'_4 
REMARK    3  A    between atoms: C1'_4  and  C1_5 
ROOT
ATOM      1  C1  N4B d   1      -3.805  -0.240   2.018  0.00  0.00    -0.075 A 
ATOM      2  C2  N4B d   1      -4.888   0.494   1.486  0.00  0.00     0.002 A 
ATOM      3  C3  N4B d   1      -4.759   1.842   1.259  0.00  0.00     0.002 A 
ATOM      4  C4  N4B d   1      -3.568   2.479   1.572  0.00  0.00    -0.004 A 
ATOM      5  C5  N4B d   1      -2.518   1.759   2.062  0.00  0.00     0.002 A 
ATOM      6  C6  N4B d   1      -2.632   0.403   2.292  0.00  0.00     0.002 A 
ENDROOT
BRANCH   1   7
ATOM      7  C1' N4B d   1      -3.927  -1.698   2.364  0.00  0.00     0.057 C 
BRANCH   7   8
ATOM      8  C2' N4B d   1      -4.149  -2.500   1.085  0.00  0.00     0.009 C 
BRANCH   8   9
ATOM      9  C3' N4B d   1      -4.210  -3.993   1.353  0.00  0.00     0.004 C 
ATOM     10  C4' N4B d   1      -4.355  -4.803   0.099  0.00  0.00     0.003 C 
ENDBRANCH   8   9
ENDBRANCH   7   8
ENDBRANCH   1   7
TORSDOF 3
ENDMDL
