MODEL 1
REMARK minimizedAffinity 6.44308424
REMARK minimizedRMSD -1
REMARK  3 active torsions:
REMARK  status: ('A' for Active; 'I' for Inactive)
REMARK    1  A    between atoms: C3'_2  and  C2'_3 
REMARK    2  A    between atoms: C2'_3  and  C1'_4 
REMARK    3  A    between atoms: C1'_4  and  C1_5 
ROOT
ATOM      1  C1  N4B d   1       3.501  -0.744  -1.304  0.00  0.00    -0.075 A 
ATOM      2  C2  N4B d   1       3.325   0.581  -1.761  0.00  0.00     0.002 A 
ATOM      3  C3  N4B d   1       4.310   1.188  -2.501  0.00  0.00     0.002 A 
ATOM      4  C4  N4B d   1       5.482   0.500  -2.779  0.00  0.00    -0.004 A 
ATOM      5  C5  N4B d   1       5.633  -0.788  -2.355  0.00  0.00     0.002 A 
ATOM      6  C6  N4B d   1       4.650  -1.412  -1.614  0.00  0.00     0.002 A 
ENDROOT
BRANCH   1   7
ATOM      7  C1' N4B d   1       2.489  -1.420  -0.420  0.00  0.00     0.057 C 
BRANCH   7   8
ATOM      8  C2' N4B d   1       2.661  -0.918   1.011  0.00  0.00     0.009 C 
BRANCH   8   9
ATOM      9  C3' N4B d   1       2.576   0.596   1.097  0.00  0.00     0.004 C 
ATOM     10  C4' N4B d   1       2.869   1.117   2.472  0.00  0.00     0.003 C 
ENDBRANCH   8   9
ENDBRANCH   7   8
ENDBRANCH   1   7
TORSDOF 3
ENDMDL
