MODEL 1
REMARK minimizedAffinity 6.98472309
REMARK minimizedRMSD -1
REMARK  3 active torsions:
REMARK  status: ('A' for Active; 'I' for Inactive)
REMARK    1  A    between atoms: C3'_2  and  C2'_3 
REMARK    2  A    between atoms: C2'_3  and  C1'_4 
REMARK    3  A    between atoms: C1'_4  and  C1_5 
ROOT
ATOM      1  C1  N4B d   1      -0.227   3.446  -2.381  0.00  0.00    -0.075 A 
ATOM      2  C2  N4B d   1       0.883   3.190  -3.215  0.00  0.00     0.002 A 
ATOM      3  C3  N4B d   1       0.801   2.228  -4.192  0.00  0.00     0.002 A 
ATOM      4  C4  N4B d   1      -0.369   1.500  -4.341  0.00  0.00    -0.004 A 
ATOM      5  C5  N4B d   1      -1.446   1.771  -3.548  0.00  0.00     0.002 A 
ATOM      6  C6  N4B d   1      -1.379   2.737  -2.565  0.00  0.00     0.002 A 
ENDROOT
BRANCH   1   7
ATOM      7  C1' N4B d   1      -0.156   4.427  -1.243  0.00  0.00     0.057 C 
BRANCH   7   8
ATOM      8  C2' N4B d   1       0.228   3.687   0.034  0.00  0.00     0.009 C 
BRANCH   8   9
ATOM      9  C3' N4B d   1       1.339   2.679  -0.206  0.00  0.00     0.004 C 
ATOM     10  C4' N4B d   1       2.230   2.501   0.987  0.00  0.00     0.003 C 
ENDBRANCH   8   9
ENDBRANCH   7   8
ENDBRANCH   1   7
TORSDOF 3
ENDMDL
