MODEL 1
REMARK minimizedAffinity -4.19267797
REMARK minimizedRMSD -1
REMARK  2 active torsions:
REMARK  status: ('A' for Active; 'I' for Inactive)
REMARK    1  A    between atoms: C2'_3  and  C1'_4 
REMARK    2  A    between atoms: C1'_4  and  C1_5 
ROOT
ATOM      1  C1  I4B d   1       0.859   0.440  -0.432  0.00  0.00    -0.075 A 
ATOM      2  C2  I4B d   1       1.120   0.985   0.801  0.00  0.00     0.003 A 
ATOM      3  C3  I4B d   1       2.234   0.542   1.555  0.00  0.00     0.002 A 
ATOM      4  C4  I4B d   1       3.025  -0.476   1.063  0.00  0.00    -0.004 A 
ATOM      5  C5  I4B d   1       2.773  -1.011  -0.197  0.00  0.00     0.002 A 
ATOM      6  C6  I4B d   1       1.691  -0.542  -0.955  0.00  0.00     0.003 A 
ENDROOT
BRANCH   1   7
ATOM      7  C1' I4B d   1      -0.344   0.909  -1.187  0.00  0.00     0.060 C 
BRANCH   7   8
ATOM      8  C2' I4B d   1      -1.366  -0.210  -1.177  0.00  0.00    -0.013 C 
ATOM      9  C4' I4B d   1      -1.684  -0.645   0.229  0.00  0.00     0.013 C 
ATOM     10  C3' I4B d   1      -2.594   0.279  -1.884  0.00  0.00     0.013 C 
ENDBRANCH   7   8
ENDBRANCH   1   7
TORSDOF 2
ENDMDL
