MODEL 1
REMARK minimizedAffinity -3.65548491
REMARK minimizedRMSD -1
REMARK  2 active torsions:
REMARK  status: ('A' for Active; 'I' for Inactive)
REMARK    1  A    between atoms: C2'_3  and  C1'_4 
REMARK    2  A    between atoms: C1'_4  and  C1_5 
ROOT
ATOM      1  C1  I4B d   1       0.597  -0.920   1.349  0.00  0.00    -0.075 A 
ATOM      2  C2  I4B d   1       0.781  -2.060   2.091  0.00  0.00     0.003 A 
ATOM      3  C3  I4B d   1       2.059  -2.371   2.616  0.00  0.00     0.002 A 
ATOM      4  C4  I4B d   1       3.128  -1.546   2.334  0.00  0.00    -0.004 A 
ATOM      5  C5  I4B d   1       2.935  -0.378   1.601  0.00  0.00     0.002 A 
ATOM      6  C6  I4B d   1       1.660  -0.056   1.116  0.00  0.00     0.003 A 
ENDROOT
BRANCH   1   7
ATOM      7  C1' I4B d   1      -0.758  -0.639   0.782  0.00  0.00     0.060 C 
BRANCH   7   8
ATOM      8  C2' I4B d   1      -0.595   0.359  -0.345  0.00  0.00    -0.013 C 
ATOM      9  C4' I4B d   1      -1.804   0.369  -1.244  0.00  0.00     0.013 C 
ATOM     10  C3' I4B d   1      -0.362   1.710   0.263  0.00  0.00     0.013 C 
ENDBRANCH   7   8
ENDBRANCH   1   7
TORSDOF 2
ENDMDL
