MODEL 1
REMARK minimizedAffinity -3.17016935
REMARK minimizedRMSD -1
REMARK  2 active torsions:
REMARK  status: ('A' for Active; 'I' for Inactive)
REMARK    1  A    between atoms: C2'_3  and  C1'_4 
REMARK    2  A    between atoms: C1'_4  and  C1_5 
ROOT
ATOM      1  C1  I4B d   1      -0.848   0.064  -0.412  0.00  0.00    -0.075 A 
ATOM      2  C2  I4B d   1      -0.155   0.955  -1.192  0.00  0.00     0.003 A 
ATOM      3  C3  I4B d   1       1.181   1.295  -0.869  0.00  0.00     0.002 A 
ATOM      4  C4  I4B d   1       1.764   0.763   0.264  0.00  0.00    -0.004 A 
ATOM      5  C5  I4B d   1       1.066  -0.158   1.040  0.00  0.00     0.002 A 
ATOM      6  C6  I4B d   1      -0.244  -0.520   0.694  0.00  0.00     0.003 A 
ENDROOT
BRANCH   1   7
ATOM      7  C1' I4B d   1      -2.269  -0.248  -0.763  0.00  0.00     0.060 C 
BRANCH   7   8
ATOM      8  C2' I4B d   1      -2.381  -0.275  -2.274  0.00  0.00    -0.013 C 
ATOM      9  C4' I4B d   1      -3.071  -1.527  -2.747  0.00  0.00     0.013 C 
ATOM     10  C3' I4B d   1      -3.128   0.952  -2.705  0.00  0.00     0.013 C 
ENDBRANCH   7   8
ENDBRANCH   1   7
TORSDOF 2
ENDMDL
