MODEL 1
REMARK minimizedAffinity -0.790127337
REMARK minimizedRMSD -1
REMARK  2 active torsions:
REMARK  status: ('A' for Active; 'I' for Inactive)
REMARK    1  A    between atoms: C2'_3  and  C1'_4 
REMARK    2  A    between atoms: C1'_4  and  C1_5 
ROOT
ATOM      1  C1  I4B d   1      -1.099   0.434  -1.082  0.00  0.00    -0.075 A 
ATOM      2  C2  I4B d   1      -0.614   0.201  -2.345  0.00  0.00     0.003 A 
ATOM      3  C3  I4B d   1      -1.480   0.265  -3.463  0.00  0.00     0.002 A 
ATOM      4  C4  I4B d   1      -2.823   0.514  -3.270  0.00  0.00    -0.004 A 
ATOM      5  C5  I4B d   1      -3.309   0.772  -1.991  0.00  0.00     0.002 A 
ATOM      6  C6  I4B d   1      -2.439   0.745  -0.891  0.00  0.00     0.003 A 
ENDROOT
BRANCH   1   7
ATOM      7  C1' I4B d   1      -0.164   0.326   0.081  0.00  0.00     0.060 C 
BRANCH   7   8
ATOM      8  C2' I4B d   1       0.956   1.325  -0.127  0.00  0.00    -0.013 C 
ATOM      9  C4' I4B d   1       0.463   2.738   0.038  0.00  0.00     0.013 C 
ATOM     10  C3' I4B d   1       2.044   1.012   0.857  0.00  0.00     0.013 C 
ENDBRANCH   7   8
ENDBRANCH   1   7
TORSDOF 2
ENDMDL
