MODEL 1
REMARK minimizedAffinity -3.39784551
REMARK minimizedRMSD -1
REMARK  2 active torsions:
REMARK  status: ('A' for Active; 'I' for Inactive)
REMARK    1  A    between atoms: C2'_3  and  C1'_4 
REMARK    2  A    between atoms: C1'_4  and  C1_5 
ROOT
ATOM      1  C1  I4B d   1       0.479  -0.165   0.925  0.00  0.00    -0.075 A 
ATOM      2  C2  I4B d   1       1.528   0.720   0.950  0.00  0.00     0.003 A 
ATOM      3  C3  I4B d   1       2.728   0.386   1.622  0.00  0.00     0.002 A 
ATOM      4  C4  I4B d   1       2.818  -0.816   2.295  0.00  0.00    -0.004 A 
ATOM      5  C5  I4B d   1       1.762  -1.722   2.250  0.00  0.00     0.002 A 
ATOM      6  C6  I4B d   1       0.590  -1.400   1.551  0.00  0.00     0.003 A 
ENDROOT
BRANCH   1   7
ATOM      7  C1' I4B d   1      -0.785   0.234   0.233  0.00  0.00     0.060 C 
BRANCH   7   8
ATOM      8  C2' I4B d   1      -0.654  -0.137  -1.230  0.00  0.00    -0.013 C 
ATOM      9  C4' I4B d   1      -1.936   0.126  -1.976  0.00  0.00     0.013 C 
ATOM     10  C3' I4B d   1       0.481   0.653  -1.808  0.00  0.00     0.013 C 
ENDBRANCH   7   8
ENDBRANCH   1   7
TORSDOF 2
ENDMDL
