MODEL 1
REMARK minimizedAffinity -5.74712896
REMARK minimizedRMSD -1
REMARK  2 active torsions:
REMARK  status: ('A' for Active; 'I' for Inactive)
REMARK    1  A    between atoms: C2'_3  and  C1'_4 
REMARK    2  A    between atoms: C1'_4  and  C1_5 
ROOT
ATOM      1  C1  I4B d   1       1.159   0.091  -0.223  0.00  0.00    -0.075 A 
ATOM      2  C2  I4B d   1       1.527  -1.105   0.342  0.00  0.00     0.003 A 
ATOM      3  C3  I4B d   1       2.398  -1.128   1.458  0.00  0.00     0.002 A 
ATOM      4  C4  I4B d   1       2.913   0.057   1.942  0.00  0.00    -0.004 A 
ATOM      5  C5  I4B d   1       2.521   1.270   1.383  0.00  0.00     0.002 A 
ATOM      6  C6  I4B d   1       1.629   1.288   0.301  0.00  0.00     0.003 A 
ENDROOT
BRANCH   1   7
ATOM      7  C1' I4B d   1       0.264   0.077  -1.422  0.00  0.00     0.060 C 
BRANCH   7   8
ATOM      8  C2' I4B d   1      -1.063  -0.523  -1.006  0.00  0.00    -0.013 C 
ATOM      9  C4' I4B d   1      -1.738   0.321   0.043  0.00  0.00     0.013 C 
ATOM     10  C3' I4B d   1      -1.918  -0.650  -2.232  0.00  0.00     0.013 C 
ENDBRANCH   7   8
ENDBRANCH   1   7
TORSDOF 2
ENDMDL
