MODEL 1
REMARK minimizedAffinity -4.33299685
REMARK minimizedRMSD -1
REMARK  2 active torsions:
REMARK  status: ('A' for Active; 'I' for Inactive)
REMARK    1  A    between atoms: C2'_3  and  C1'_4 
REMARK    2  A    between atoms: C1'_4  and  C1_5 
ROOT
ATOM      1  C1  I4B d   1       0.554  -0.004   0.064  0.00  0.00    -0.075 A 
ATOM      2  C2  I4B d   1       1.180  -1.002  -0.640  0.00  0.00     0.003 A 
ATOM      3  C3  I4B d   1       2.568  -1.231  -0.471  0.00  0.00     0.002 A 
ATOM      4  C4  I4B d   1       3.295  -0.411   0.368  0.00  0.00    -0.004 A 
ATOM      5  C5  I4B d   1       2.654   0.587   1.097  0.00  0.00     0.002 A 
ATOM      6  C6  I4B d   1       1.272   0.784   0.954  0.00  0.00     0.003 A 
ENDROOT
BRANCH   1   7
ATOM      7  C1' I4B d   1      -0.906   0.231  -0.164  0.00  0.00     0.060 C 
BRANCH   7   8
ATOM      8  C2' I4B d   1      -1.121   0.428  -1.651  0.00  0.00    -0.013 C 
ATOM      9  C4' I4B d   1      -2.551   0.791  -1.951  0.00  0.00     0.013 C 
ATOM     10  C3' I4B d   1      -0.181   1.500  -2.116  0.00  0.00     0.013 C 
ENDBRANCH   7   8
ENDBRANCH   1   7
TORSDOF 2
ENDMDL
