MODEL 1
REMARK minimizedAffinity -4.25406075
REMARK minimizedRMSD -1
REMARK  2 active torsions:
REMARK  status: ('A' for Active; 'I' for Inactive)
REMARK    1  A    between atoms: C2'_3  and  C1'_4 
REMARK    2  A    between atoms: C1'_4  and  C1_5 
ROOT
ATOM      1  C1  I4B d   1      -0.362   0.276  -0.081  0.00  0.00    -0.075 A 
ATOM      2  C2  I4B d   1       0.271   1.444  -0.424  0.00  0.00     0.003 A 
ATOM      3  C3  I4B d   1       1.656   1.605  -0.173  0.00  0.00     0.002 A 
ATOM      4  C4  I4B d   1       2.352   0.598   0.463  0.00  0.00    -0.004 A 
ATOM      5  C5  I4B d   1       1.713  -0.595   0.789  0.00  0.00     0.002 A 
ATOM      6  C6  I4B d   1       0.350  -0.763   0.504  0.00  0.00     0.003 A 
ENDROOT
BRANCH   1   7
ATOM      7  C1' I4B d   1      -1.832   0.153  -0.330  0.00  0.00     0.060 C 
BRANCH   7   8
ATOM      8  C2' I4B d   1      -2.109   0.640  -1.738  0.00  0.00    -0.013 C 
ATOM      9  C4' I4B d   1      -2.539  -0.493  -2.632  0.00  0.00     0.013 C 
ATOM     10  C3' I4B d   1      -3.167   1.700  -1.661  0.00  0.00     0.013 C 
ENDBRANCH   7   8
ENDBRANCH   1   7
TORSDOF 2
ENDMDL
