MODEL 1
REMARK minimizedAffinity -4.64768696
REMARK minimizedRMSD -1
REMARK  2 active torsions:
REMARK  status: ('A' for Active; 'I' for Inactive)
REMARK    1  A    between atoms: C2'_3  and  C1'_4 
REMARK    2  A    between atoms: C1'_4  and  C1_5 
ROOT
ATOM      1  C1  I4B d   1      -0.255   0.142   0.213  0.00  0.00    -0.075 A 
ATOM      2  C2  I4B d   1       0.679   1.098  -0.101  0.00  0.00     0.003 A 
ATOM      3  C3  I4B d   1       2.037   0.910   0.252  0.00  0.00     0.002 A 
ATOM      4  C4  I4B d   1       2.406  -0.216   0.959  0.00  0.00    -0.004 A 
ATOM      5  C5  I4B d   1       1.461  -1.195   1.256  0.00  0.00     0.002 A 
ATOM      6  C6  I4B d   1       0.124  -1.020   0.870  0.00  0.00     0.003 A 
ENDROOT
BRANCH   1   7
ATOM      7  C1' I4B d   1      -1.687   0.388  -0.146  0.00  0.00     0.060 C 
BRANCH   7   8
ATOM      8  C2' I4B d   1      -1.803   0.342  -1.656  0.00  0.00    -0.013 C 
ATOM      9  C4' I4B d   1      -1.738  -1.074  -2.165  0.00  0.00     0.013 C 
ATOM     10  C3' I4B d   1      -3.097   0.996  -2.041  0.00  0.00     0.013 C 
ENDBRANCH   7   8
ENDBRANCH   1   7
TORSDOF 2
ENDMDL
