MODEL 1
REMARK minimizedAffinity -4.17852449
REMARK minimizedRMSD -1
REMARK  2 active torsions:
REMARK  status: ('A' for Active; 'I' for Inactive)
REMARK    1  A    between atoms: C2'_3  and  C1'_4 
REMARK    2  A    between atoms: C1'_4  and  C1_5 
ROOT
ATOM      1  C1  I4B d   1      -0.237  -0.260   0.477  0.00  0.00    -0.075 A 
ATOM      2  C2  I4B d   1       0.770   0.584   0.082  0.00  0.00     0.003 A 
ATOM      3  C3  I4B d   1       2.096   0.371   0.531  0.00  0.00     0.002 A 
ATOM      4  C4  I4B d   1       2.359  -0.662   1.408  0.00  0.00    -0.004 A 
ATOM      5  C5  I4B d   1       1.340  -1.531   1.789  0.00  0.00     0.002 A 
ATOM      6  C6  I4B d   1       0.036  -1.337   1.311  0.00  0.00     0.003 A 
ENDROOT
BRANCH   1   7
ATOM      7  C1' I4B d   1      -1.632   0.014   0.010  0.00  0.00     0.060 C 
BRANCH   7   8
ATOM      8  C2' I4B d   1      -1.576   0.317  -1.473  0.00  0.00    -0.013 C 
ATOM      9  C4' I4B d   1      -1.592  -0.949  -2.289  0.00  0.00     0.013 C 
ATOM     10  C3' I4B d   1      -2.746   1.193  -1.811  0.00  0.00     0.013 C 
ENDBRANCH   7   8
ENDBRANCH   1   7
TORSDOF 2
ENDMDL
