MODEL 1
REMARK minimizedAffinity -4.13239861
REMARK minimizedRMSD -1
REMARK  2 active torsions:
REMARK  status: ('A' for Active; 'I' for Inactive)
REMARK    1  A    between atoms: C2'_3  and  C1'_4 
REMARK    2  A    between atoms: C1'_4  and  C1_5 
ROOT
ATOM      1  C1  I4B d   1       1.101   0.156  -0.169  0.00  0.00    -0.075 A 
ATOM      2  C2  I4B d   1       1.709  -1.069  -0.053  0.00  0.00     0.003 A 
ATOM      3  C3  I4B d   1       2.723  -1.273   0.915  0.00  0.00     0.002 A 
ATOM      4  C4  I4B d   1       3.129  -0.218   1.706  0.00  0.00    -0.004 A 
ATOM      5  C5  I4B d   1       2.496   1.017   1.603  0.00  0.00     0.002 A 
ATOM      6  C6  I4B d   1       1.467   1.202   0.668  0.00  0.00     0.003 A 
ENDROOT
BRANCH   1   7
ATOM      7  C1' I4B d   1       0.058   0.346  -1.223  0.00  0.00     0.060 C 
BRANCH   7   8
ATOM      8  C2' I4B d   1      -1.149  -0.487  -0.841  0.00  0.00    -0.013 C 
ATOM      9  C4' I4B d   1      -1.684  -0.086   0.508  0.00  0.00     0.013 C 
ATOM     10  C3' I4B d   1      -2.188  -0.313  -1.909  0.00  0.00     0.013 C 
ENDBRANCH   7   8
ENDBRANCH   1   7
TORSDOF 2
ENDMDL
