MODEL 1
REMARK minimizedAffinity -3.29635453
REMARK minimizedRMSD -1
REMARK  0 active torsions:
REMARK  status: ('A' for Active; 'I' for Inactive)
ROOT
ATOM      1  C   UNL d   1      -1.091  -0.845  -5.611  0.00  0.00     0.077 C 
ATOM      2  C1  UNL d   1      -0.098  -0.356  -4.599  0.00  0.00    -0.074 A 
ATOM      3  C2  UNL d   1       1.072   0.299  -4.998  0.00  0.00    -0.005 A 
ATOM      4  C3  UNL d   1       1.981   0.757  -4.046  0.00  0.00     0.006 A 
ATOM      5  C4  UNL d   1       1.732   0.566  -2.686  0.00  0.00    -0.005 A 
ATOM      6  C5  UNL d   1       0.567  -0.086  -2.268  0.00  0.00    -0.074 A 
ATOM      7  C6  UNL d   1       0.279  -0.291  -0.811  0.00  0.00     0.077 C 
ATOM      8  C7  UNL d   1      -0.346  -0.537  -3.231  0.00  0.00    -0.001 A 
ENDROOT
TORSDOF 0
ENDMDL
