MODEL 1
REMARK minimizedAffinity -4.51837969
REMARK minimizedRMSD -1
REMARK  0 active torsions:
REMARK  status: ('A' for Active; 'I' for Inactive)
ROOT
ATOM      1  C   UNL d   1       1.363  -0.176  -0.867  0.00  0.00     0.077 C 
ATOM      2  C1  UNL d   1       0.211   0.096   0.054  0.00  0.00    -0.074 A 
ATOM      3  C2  UNL d   1      -1.091  -0.276  -0.294  0.00  0.00    -0.005 A 
ATOM      4  C3  UNL d   1      -2.151  -0.025   0.577  0.00  0.00     0.006 A 
ATOM      5  C4  UNL d   1      -1.920   0.598   1.804  0.00  0.00    -0.005 A 
ATOM      6  C5  UNL d   1      -0.624   0.976   2.170  0.00  0.00    -0.074 A 
ATOM      7  C6  UNL d   1      -0.356   1.638   3.489  0.00  0.00     0.077 C 
ATOM      8  C7  UNL d   1       0.437   0.714   1.292  0.00  0.00    -0.001 A 
ENDROOT
TORSDOF 0
ENDMDL
