MODEL 1
REMARK minimizedAffinity -4.47716236
REMARK minimizedRMSD -1
REMARK  0 active torsions:
REMARK  status: ('A' for Active; 'I' for Inactive)
ROOT
ATOM      1  C   UNL d   1      -0.184   1.346   2.462  0.00  0.00     0.077 C 
ATOM      2  C1  UNL d   1       0.554   0.449   1.513  0.00  0.00    -0.074 A 
ATOM      3  C2  UNL d   1       1.732  -0.197   1.903  0.00  0.00    -0.005 A 
ATOM      4  C3  UNL d   1       2.402  -1.035   1.012  0.00  0.00     0.006 A 
ATOM      5  C4  UNL d   1       1.902  -1.237  -0.275  0.00  0.00    -0.005 A 
ATOM      6  C5  UNL d   1       0.725  -0.600  -0.682  0.00  0.00    -0.074 A 
ATOM      7  C6  UNL d   1       0.169  -0.814  -2.059  0.00  0.00     0.077 C 
ATOM      8  C7  UNL d   1       0.054   0.235   0.220  0.00  0.00    -0.001 A 
ENDROOT
TORSDOF 0
ENDMDL
