MODEL 1
REMARK minimizedAffinity -1.7494899
REMARK minimizedRMSD -1
REMARK  0 active torsions:
REMARK  status: ('A' for Active; 'I' for Inactive)
ROOT
ATOM      1  C   UNL d   1      -1.072   2.020   2.969  0.00  0.00     0.077 C 
ATOM      2  C1  UNL d   1      -1.112   1.136   1.758  0.00  0.00    -0.074 A 
ATOM      3  C2  UNL d   1      -2.302   0.943   1.048  0.00  0.00    -0.005 A 
ATOM      4  C3  UNL d   1      -2.322   0.125  -0.081  0.00  0.00     0.006 A 
ATOM      5  C4  UNL d   1      -1.155  -0.508  -0.512  0.00  0.00    -0.005 A 
ATOM      6  C5  UNL d   1       0.044  -0.327   0.186  0.00  0.00    -0.074 A 
ATOM      7  C6  UNL d   1       1.309  -0.992  -0.269  0.00  0.00     0.077 C 
ATOM      8  C7  UNL d   1       0.058   0.502   1.316  0.00  0.00    -0.001 A 
ENDROOT
TORSDOF 0
ENDMDL
