MODEL 1
REMARK minimizedAffinity -5.08832788
REMARK minimizedRMSD -1
REMARK  0 active torsions:
REMARK  status: ('A' for Active; 'I' for Inactive)
ROOT
ATOM      1  C   UNL d   1      -0.352   1.757   2.934  0.00  0.00     0.077 C 
ATOM      2  C1  UNL d   1      -0.428   0.878   1.722  0.00  0.00    -0.074 A 
ATOM      3  C2  UNL d   1      -1.629   0.722   1.021  0.00  0.00    -0.005 A 
ATOM      4  C3  UNL d   1      -1.682  -0.092  -0.111  0.00  0.00     0.006 A 
ATOM      5  C4  UNL d   1      -0.537  -0.757  -0.552  0.00  0.00    -0.005 A 
ATOM      6  C5  UNL d   1       0.672  -0.612   0.135  0.00  0.00    -0.074 A 
ATOM      7  C6  UNL d   1       1.914  -1.312  -0.332  0.00  0.00     0.077 C 
ATOM      8  C7  UNL d   1       0.719   0.213   1.267  0.00  0.00    -0.001 A 
ENDROOT
TORSDOF 0
ENDMDL
