MODEL 1
REMARK minimizedAffinity -5.37671089
REMARK minimizedRMSD -1
REMARK  0 active torsions:
REMARK  status: ('A' for Active; 'I' for Inactive)
ROOT
ATOM      1  C   UNL d   1      -0.670   1.580   3.401  0.00  0.00     0.077 C 
ATOM      2  C1  UNL d   1      -0.686   0.931   2.049  0.00  0.00    -0.074 A 
ATOM      3  C2  UNL d   1       0.505   0.579   1.406  0.00  0.00    -0.005 A 
ATOM      4  C3  UNL d   1       0.473  -0.033   0.153  0.00  0.00     0.006 A 
ATOM      5  C4  UNL d   1      -0.747  -0.298  -0.469  0.00  0.00    -0.005 A 
ATOM      6  C5  UNL d   1      -1.949   0.046   0.159  0.00  0.00    -0.074 A 
ATOM      7  C6  UNL d   1      -3.269  -0.241  -0.492  0.00  0.00     0.077 C 
ATOM      8  C7  UNL d   1      -1.909   0.654   1.421  0.00  0.00    -0.001 A 
ENDROOT
TORSDOF 0
ENDMDL
