MODEL 1
REMARK minimizedAffinity -4.40699244
REMARK minimizedRMSD -1
REMARK  0 active torsions:
REMARK  status: ('A' for Active; 'I' for Inactive)
ROOT
ATOM      1  C   UNL d   1      -0.158   1.140   3.437  0.00  0.00     0.077 C 
ATOM      2  C1  UNL d   1      -0.291   0.510   2.082  0.00  0.00    -0.074 A 
ATOM      3  C2  UNL d   1      -1.511   0.528   1.398  0.00  0.00    -0.005 A 
ATOM      4  C3  UNL d   1      -1.617  -0.054   0.135  0.00  0.00     0.006 A 
ATOM      5  C4  UNL d   1      -0.507  -0.658  -0.456  0.00  0.00    -0.005 A 
ATOM      6  C5  UNL d   1       0.721  -0.684   0.212  0.00  0.00    -0.074 A 
ATOM      7  C6  UNL d   1       1.927  -1.321  -0.413  0.00  0.00     0.077 C 
ATOM      8  C7  UNL d   1       0.822  -0.092   1.478  0.00  0.00    -0.001 A 
ENDROOT
TORSDOF 0
ENDMDL
