MODEL 1
REMARK minimizedAffinity -2.92741537
REMARK minimizedRMSD -1
REMARK  0 active torsions:
REMARK  status: ('A' for Active; 'I' for Inactive)
ROOT
ATOM      1  C   UNL d   1       2.657  -0.845   0.588  0.00  0.00     0.077 C 
ATOM      2  C1  UNL d   1       1.197  -0.500   0.568  0.00  0.00    -0.074 A 
ATOM      3  C2  UNL d   1       0.385  -0.874  -0.507  0.00  0.00    -0.005 A 
ATOM      4  C3  UNL d   1      -0.973  -0.555  -0.508  0.00  0.00     0.006 A 
ATOM      5  C4  UNL d   1      -1.531   0.140   0.566  0.00  0.00    -0.005 A 
ATOM      6  C5  UNL d   1      -0.735   0.521   1.650  0.00  0.00    -0.074 A 
ATOM      7  C6  UNL d   1      -1.321   1.260   2.817  0.00  0.00     0.077 C 
ATOM      8  C7  UNL d   1       0.627   0.191   1.646  0.00  0.00    -0.001 A 
ENDROOT
TORSDOF 0
ENDMDL
