MODEL 1
REMARK minimizedAffinity -0.658377886
REMARK minimizedRMSD -1
REMARK  0 active torsions:
REMARK  status: ('A' for Active; 'I' for Inactive)
ROOT
ATOM      1  C   UNL d   1       0.013  -0.681   2.301  0.00  0.00     0.020 A 
ATOM      2  C1  UNL d   1      -1.067   0.146   1.993  0.00  0.00     0.020 A 
ATOM      3  C2  UNL d   1      -1.297   0.531   0.671  0.00  0.00     0.034 A 
ATOM      4  C3  UNL d   1      -0.446   0.089  -0.349  0.00  0.00     0.017 A 
ATOM      5  C4  UNL d   1       0.637  -0.741  -0.039  0.00  0.00     0.017 A 
ATOM      6  C5  UNL d   1       0.863  -1.124   1.287  0.00  0.00     0.034 A 
ATOM      7 Cl   UNL d   1       1.730  -1.327  -1.243  0.00  0.00    -0.070 Cl
ATOM      8 Cl1  UNL d   1      -0.790   0.604  -1.962  0.00  0.00    -0.070 Cl
ENDROOT
TORSDOF 0
ENDMDL
