MODEL 1
REMARK minimizedAffinity -2.82633448
REMARK minimizedRMSD -1
REMARK  0 active torsions:
REMARK  status: ('A' for Active; 'I' for Inactive)
ROOT
ATOM      1  C   UNL d   1      -1.312   0.505   0.150  0.00  0.00     0.020 A 
ATOM      2  C1  UNL d   1      -0.637   0.492  -1.069  0.00  0.00     0.020 A 
ATOM      3  C2  UNL d   1       0.686   0.048  -1.130  0.00  0.00     0.034 A 
ATOM      4  C3  UNL d   1       1.337  -0.386   0.030  0.00  0.00     0.017 A 
ATOM      5  C4  UNL d   1       0.658  -0.373   1.254  0.00  0.00     0.017 A 
ATOM      6  C5  UNL d   1      -0.666   0.073   1.309  0.00  0.00     0.034 A 
ATOM      7 Cl   UNL d   1       1.395  -0.892   2.728  0.00  0.00    -0.070 Cl
ATOM      8 Cl1  UNL d   1       2.973  -0.922  -0.119  0.00  0.00    -0.070 Cl
ENDROOT
TORSDOF 0
ENDMDL
