MODEL 1
REMARK minimizedAffinity -4.40350914
REMARK minimizedRMSD -1
REMARK  0 active torsions:
REMARK  status: ('A' for Active; 'I' for Inactive)
ROOT
ATOM      1  C   UNL d   1       1.356  -0.833   2.723  0.00  0.00     0.020 A 
ATOM      2  C1  UNL d   1       2.093  -0.749   1.543  0.00  0.00     0.020 A 
ATOM      3  C2  UNL d   1       1.462  -0.388   0.350  0.00  0.00     0.034 A 
ATOM      4  C3  UNL d   1       0.090  -0.109   0.336  0.00  0.00     0.017 A 
ATOM      5  C4  UNL d   1      -0.648  -0.194   1.522  0.00  0.00     0.017 A 
ATOM      6  C5  UNL d   1      -0.011  -0.556   2.713  0.00  0.00     0.034 A 
ATOM      7 Cl   UNL d   1      -2.344   0.134   1.583  0.00  0.00    -0.070 Cl
ATOM      8 Cl1  UNL d   1      -0.624   0.331  -1.174  0.00  0.00    -0.070 Cl
ENDROOT
TORSDOF 0
ENDMDL
