MODEL 1
REMARK minimizedAffinity -2.78042388
REMARK minimizedRMSD -1
REMARK  0 active torsions:
REMARK  status: ('A' for Active; 'I' for Inactive)
ROOT
ATOM      1  C   UNL d   1      -1.461   0.201   0.369  0.00  0.00     0.020 A 
ATOM      2  C1  UNL d   1      -0.778   0.095  -0.842  0.00  0.00     0.020 A 
ATOM      3  C2  UNL d   1       0.572  -0.265  -0.853  0.00  0.00     0.034 A 
ATOM      4  C3  UNL d   1       1.242  -0.520   0.349  0.00  0.00     0.017 A 
ATOM      5  C4  UNL d   1       0.555  -0.413   1.564  0.00  0.00     0.017 A 
ATOM      6  C5  UNL d   1      -0.796  -0.052   1.569  0.00  0.00     0.034 A 
ATOM      7 Cl   UNL d   1       1.315  -0.712   3.087  0.00  0.00    -0.070 Cl
ATOM      8 Cl1  UNL d   1       2.910  -0.961   0.260  0.00  0.00    -0.070 Cl
ENDROOT
TORSDOF 0
ENDMDL
