MODEL 1
REMARK minimizedAffinity -3.11040044
REMARK minimizedRMSD -1
REMARK  0 active torsions:
REMARK  status: ('A' for Active; 'I' for Inactive)
ROOT
ATOM      1  C   UNL d   1      -0.392   0.067  -1.259  0.00  0.00     0.020 A 
ATOM      2  C1  UNL d   1      -1.161   0.150  -0.099  0.00  0.00     0.020 A 
ATOM      3  C2  UNL d   1      -0.604  -0.190   1.135  0.00  0.00     0.034 A 
ATOM      4  C3  UNL d   1       0.727  -0.617   1.213  0.00  0.00     0.017 A 
ATOM      5  C4  UNL d   1       1.499  -0.701   0.048  0.00  0.00     0.017 A 
ATOM      6  C5  UNL d   1       0.935  -0.358  -1.185  0.00  0.00     0.034 A 
ATOM      7 Cl   UNL d   1       3.148  -1.218   0.064  0.00  0.00    -0.070 Cl
ATOM      8 Cl1  UNL d   1       1.351  -1.022   2.772  0.00  0.00    -0.070 Cl
ENDROOT
TORSDOF 0
ENDMDL
