MODEL 1
REMARK minimizedAffinity -2.65385699
REMARK minimizedRMSD -1
REMARK  0 active torsions:
REMARK  status: ('A' for Active; 'I' for Inactive)
ROOT
ATOM      1  C   UNL d   1       1.802  -0.063   2.100  0.00  0.00     0.020 A 
ATOM      2  C1  UNL d   1       0.871  -0.680   2.935  0.00  0.00     0.020 A 
ATOM      3  C2  UNL d   1      -0.469  -0.754   2.551  0.00  0.00     0.034 A 
ATOM      4  C3  UNL d   1      -0.882  -0.212   1.329  0.00  0.00     0.017 A 
ATOM      5  C4  UNL d   1       0.053   0.407   0.491  0.00  0.00     0.017 A 
ATOM      6  C5  UNL d   1       1.394   0.479   0.881  0.00  0.00     0.034 A 
ATOM      7 Cl   UNL d   1      -0.381   1.099  -1.032  0.00  0.00    -0.070 Cl
ATOM      8 Cl1  UNL d   1      -2.556  -0.340   0.917  0.00  0.00    -0.070 Cl
ENDROOT
TORSDOF 0
ENDMDL
