MODEL 1
REMARK minimizedAffinity -4.8376627
REMARK minimizedRMSD -1
REMARK  0 active torsions:
REMARK  status: ('A' for Active; 'I' for Inactive)
ROOT
ATOM      1  C   UNL d   1       1.946  -0.623   2.222  0.00  0.00     0.020 A 
ATOM      2  C1  UNL d   1       1.056  -0.882   3.264  0.00  0.00     0.020 A 
ATOM      3  C2  UNL d   1      -0.297  -0.571   3.120  0.00  0.00     0.034 A 
ATOM      4  C3  UNL d   1      -0.765   0.002   1.932  0.00  0.00     0.017 A 
ATOM      5  C4  UNL d   1       0.129   0.261   0.886  0.00  0.00     0.017 A 
ATOM      6  C5  UNL d   1       1.483  -0.053   1.036  0.00  0.00     0.034 A 
ATOM      7 Cl   UNL d   1      -0.374   0.966  -0.610  0.00  0.00    -0.070 Cl
ATOM      8 Cl1  UNL d   1      -2.452   0.361   1.822  0.00  0.00    -0.070 Cl
ENDROOT
TORSDOF 0
ENDMDL
