MODEL 1
REMARK minimizedAffinity -3.00517011
REMARK minimizedRMSD -1
REMARK  0 active torsions:
REMARK  status: ('A' for Active; 'I' for Inactive)
ROOT
ATOM      1  C   UNL d   1      -0.323   3.004  -3.172  0.00  0.00     0.020 A 
ATOM      2  C1  UNL d   1      -0.543   3.594  -1.929  0.00  0.00     0.020 A 
ATOM      3  C2  UNL d   1      -0.524   2.812  -0.772  0.00  0.00     0.034 A 
ATOM      4  C3  UNL d   1      -0.285   1.436  -0.856  0.00  0.00     0.017 A 
ATOM      5  C4  UNL d   1      -0.064   0.844  -2.105  0.00  0.00     0.017 A 
ATOM      6  C5  UNL d   1      -0.084   1.632  -3.260  0.00  0.00     0.034 A 
ATOM      7 Cl   UNL d   1       0.238  -0.848  -2.288  0.00  0.00    -0.070 Cl
ATOM      8 Cl1  UNL d   1      -0.275   0.531   0.616  0.00  0.00    -0.070 Cl
ENDROOT
TORSDOF 0
ENDMDL
