MODEL 1
REMARK minimizedAffinity -4.93372059
REMARK minimizedRMSD -1
REMARK  0 active torsions:
REMARK  status: ('A' for Active; 'I' for Inactive)
ROOT
ATOM      1  C   UNL d   1      -0.678  -0.116   2.615  0.00  0.00     0.020 A 
ATOM      2  C1  UNL d   1       0.604  -0.421   3.070  0.00  0.00     0.020 A 
ATOM      3  C2  UNL d   1       1.635  -0.646   2.156  0.00  0.00     0.034 A 
ATOM      4  C3  UNL d   1       1.385  -0.567   0.781  0.00  0.00     0.017 A 
ATOM      5  C4  UNL d   1       0.098  -0.261   0.324  0.00  0.00     0.017 A 
ATOM      6  C5  UNL d   1      -0.930  -0.036   1.245  0.00  0.00     0.034 A 
ATOM      7 Cl   UNL d   1      -0.286  -0.146  -1.357  0.00  0.00    -0.070 Cl
ATOM      8 Cl1  UNL d   1       2.707  -0.858  -0.294  0.00  0.00    -0.070 Cl
ENDROOT
TORSDOF 0
ENDMDL
