MODEL 1
REMARK minimizedAffinity 20.89118
REMARK minimizedRMSD -1
REMARK  3 active torsions:
REMARK  status: ('A' for Active; 'I' for Inactive)
REMARK    1  A    between atoms: C3'_2  and  C2'_3 
REMARK    2  A    between atoms: C2'_3  and  C1'_4 
REMARK    3  A    between atoms: C1'_4  and  C1_5 
ROOT
ATOM      1  C1  N4B d   1       2.187   2.332  -0.538  0.00  0.00    -0.075 A 
ATOM      2  C2  N4B d   1       1.761   2.944   0.662  0.00  0.00     0.002 A 
ATOM      3  C3  N4B d   1       1.154   4.175   0.626  0.00  0.00     0.002 A 
ATOM      4  C4  N4B d   1       0.980   4.819  -0.589  0.00  0.00    -0.004 A 
ATOM      5  C5  N4B d   1       1.371   4.210  -1.746  0.00  0.00     0.002 A 
ATOM      6  C6  N4B d   1       1.978   2.971  -1.726  0.00  0.00     0.002 A 
ENDROOT
BRANCH   1   7
ATOM      7  C1' N4B d   1       2.932   1.025  -0.542  0.00  0.00     0.057 C 
BRANCH   7   8
ATOM      8  C2' N4B d   1       2.239   0.056  -1.494  0.00  0.00     0.009 C 
BRANCH   8   9
ATOM      9  C3' N4B d   1       2.216  -1.361  -0.946  0.00  0.00     0.004 C 
ATOM     10  C4' N4B d   1       0.835  -1.945  -0.904  0.00  0.00     0.003 C 
ENDBRANCH   8   9
ENDBRANCH   7   8
ENDBRANCH   1   7
TORSDOF 3
ENDMDL
