MODEL 1
REMARK minimizedAffinity 17.4147358
REMARK minimizedRMSD -1
REMARK  3 active torsions:
REMARK  status: ('A' for Active; 'I' for Inactive)
REMARK    1  A    between atoms: C3'_2  and  C2'_3 
REMARK    2  A    between atoms: C2'_3  and  C1'_4 
REMARK    3  A    between atoms: C1'_4  and  C1_5 
ROOT
ATOM      1  C1  N4B d   1      -3.180   1.111   4.679  0.00  0.00    -0.075 A 
ATOM      2  C2  N4B d   1      -4.067   0.016   4.590  0.00  0.00     0.002 A 
ATOM      3  C3  N4B d   1      -4.438  -0.469   3.359  0.00  0.00     0.002 A 
ATOM      4  C4  N4B d   1      -3.952   0.135   2.209  0.00  0.00    -0.004 A 
ATOM      5  C5  N4B d   1      -3.076   1.176   2.304  0.00  0.00     0.002 A 
ATOM      6  C6  N4B d   1      -2.692   1.671   3.534  0.00  0.00     0.002 A 
ENDROOT
BRANCH   1   7
ATOM      7  C1' N4B d   1      -2.814   1.731   6.000  0.00  0.00     0.057 C 
BRANCH   7   8
ATOM      8  C2' N4B d   1      -3.235   3.198   5.999  0.00  0.00     0.009 C 
BRANCH   8   9
ATOM      9  C3' N4B d   1      -4.745   3.355   5.995  0.00  0.00     0.004 C 
ATOM     10  C4' N4B d   1      -5.270   3.894   4.698  0.00  0.00     0.003 C 
ENDBRANCH   8   9
ENDBRANCH   7   8
ENDBRANCH   1   7
TORSDOF 3
ENDMDL
