MODEL 1
REMARK minimizedAffinity 15.6479588
REMARK minimizedRMSD -1
REMARK  3 active torsions:
REMARK  status: ('A' for Active; 'I' for Inactive)
REMARK    1  A    between atoms: C3'_2  and  C2'_3 
REMARK    2  A    between atoms: C2'_3  and  C1'_4 
REMARK    3  A    between atoms: C1'_4  and  C1_5 
ROOT
ATOM      1  C1  N4B d   1       2.085  -1.006  -1.384  0.00  0.00    -0.075 A 
ATOM      2  C2  N4B d   1       2.989  -2.037  -1.046  0.00  0.00     0.002 A 
ATOM      3  C3  N4B d   1       2.520  -3.296  -0.765  0.00  0.00     0.002 A 
ATOM      4  C4  N4B d   1       1.156  -3.543  -0.796  0.00  0.00    -0.004 A 
ATOM      5  C5  N4B d   1       0.291  -2.549  -1.148  0.00  0.00     0.002 A 
ATOM      6  C6  N4B d   1       0.749  -1.279  -1.438  0.00  0.00     0.002 A 
ENDROOT
BRANCH   1   7
ATOM      7  C1' N4B d   1       2.543   0.408  -1.617  0.00  0.00     0.057 C 
BRANCH   7   8
ATOM      8  C2' N4B d   1       3.692   0.725  -0.664  0.00  0.00     0.009 C 
BRANCH   8   9
ATOM      9  C3' N4B d   1       4.271   2.107  -0.912  0.00  0.00     0.004 C 
ATOM     10  C4' N4B d   1       5.646   2.062  -1.509  0.00  0.00     0.003 C 
ENDBRANCH   8   9
ENDBRANCH   7   8
ENDBRANCH   1   7
TORSDOF 3
ENDMDL
