MODEL 1
REMARK minimizedAffinity 3.19986629
REMARK minimizedRMSD -1
REMARK  3 active torsions:
REMARK  status: ('A' for Active; 'I' for Inactive)
REMARK    1  A    between atoms: C3'_2  and  C2'_3 
REMARK    2  A    between atoms: C2'_3  and  C1'_4 
REMARK    3  A    between atoms: C1'_4  and  C1_5 
ROOT
ATOM      1  C1  N4B d   1      -4.685   0.953   4.908  0.00  0.00    -0.075 A 
ATOM      2  C2  N4B d   1      -3.807   0.998   3.802  0.00  0.00     0.002 A 
ATOM      3  C3  N4B d   1      -3.822  -0.012   2.872  0.00  0.00     0.002 A 
ATOM      4  C4  N4B d   1      -4.688  -1.083   3.036  0.00  0.00    -0.004 A 
ATOM      5  C5  N4B d   1      -5.550  -1.106   4.093  0.00  0.00     0.002 A 
ATOM      6  C6  N4B d   1      -5.549  -0.096   5.033  0.00  0.00     0.002 A 
ENDROOT
BRANCH   1   7
ATOM      7  C1' N4B d   1      -4.645   1.991   5.995  0.00  0.00     0.057 C 
BRANCH   7   8
ATOM      8  C2' N4B d   1      -5.962   2.762   6.000  0.00  0.00     0.009 C 
BRANCH   8   9
ATOM      9  C3' N4B d   1      -5.743   4.263   5.930  0.00  0.00     0.004 C 
ATOM     10  C4' N4B d   1      -5.758   4.788   4.525  0.00  0.00     0.003 C 
ENDBRANCH   8   9
ENDBRANCH   7   8
ENDBRANCH   1   7
TORSDOF 3
ENDMDL
