MODEL 1
REMARK minimizedAffinity 12.7383986
REMARK minimizedRMSD -1
REMARK  3 active torsions:
REMARK  status: ('A' for Active; 'I' for Inactive)
REMARK    1  A    between atoms: C3'_2  and  C2'_3 
REMARK    2  A    between atoms: C2'_3  and  C1'_4 
REMARK    3  A    between atoms: C1'_4  and  C1_5 
ROOT
ATOM      1  C1  N4B d   1      -3.743   0.326   3.616  0.00  0.00    -0.075 A 
ATOM      2  C2  N4B d   1      -3.379  -0.311   4.822  0.00  0.00     0.002 A 
ATOM      3  C3  N4B d   1      -3.380   0.397   6.000  0.00  0.00     0.002 A 
ATOM      4  C4  N4B d   1      -3.722   1.740   5.992  0.00  0.00    -0.004 A 
ATOM      5  C5  N4B d   1      -4.098   2.342   4.826  0.00  0.00     0.002 A 
ATOM      6  C6  N4B d   1      -4.104   1.642   3.636  0.00  0.00     0.002 A 
ENDROOT
BRANCH   1   7
ATOM      7  C1' N4B d   1      -3.674  -0.383   2.291  0.00  0.00     0.057 C 
BRANCH   7   8
ATOM      8  C2' N4B d   1      -2.331  -0.082   1.632  0.00  0.00     0.009 C 
BRANCH   8   9
ATOM      9  C3' N4B d   1      -1.230   0.134   2.656  0.00  0.00     0.004 C 
ATOM     10  C4' N4B d   1      -0.010  -0.693   2.382  0.00  0.00     0.003 C 
ENDBRANCH   8   9
ENDBRANCH   7   8
ENDBRANCH   1   7
TORSDOF 3
ENDMDL
