MODEL 1
REMARK minimizedAffinity 11.1349211
REMARK minimizedRMSD -1
REMARK  3 active torsions:
REMARK  status: ('A' for Active; 'I' for Inactive)
REMARK    1  A    between atoms: C3'_2  and  C2'_3 
REMARK    2  A    between atoms: C2'_3  and  C1'_4 
REMARK    3  A    between atoms: C1'_4  and  C1_5 
ROOT
ATOM      1  C1  N4B d   1      -1.187  -2.429  -2.646  0.00  0.00    -0.075 A 
ATOM      2  C2  N4B d   1      -1.828  -1.756  -3.710  0.00  0.00     0.002 A 
ATOM      3  C3  N4B d   1      -2.855  -2.366  -4.388  0.00  0.00     0.002 A 
ATOM      4  C4  N4B d   1      -3.244  -3.649  -4.034  0.00  0.00    -0.004 A 
ATOM      5  C5  N4B d   1      -2.638  -4.281  -2.989  0.00  0.00     0.002 A 
ATOM      6  C6  N4B d   1      -1.607  -3.680  -2.296  0.00  0.00     0.002 A 
ENDROOT
BRANCH   1   7
ATOM      7  C1' N4B d   1      -0.004  -1.838  -1.930  0.00  0.00     0.057 C 
BRANCH   7   8
ATOM      8  C2' N4B d   1       0.582  -2.881  -0.983  0.00  0.00     0.009 C 
BRANCH   8   9
ATOM      9  C3' N4B d   1       1.708  -2.312  -0.137  0.00  0.00     0.004 C 
ATOM     10  C4' N4B d   1       2.146  -0.952  -0.592  0.00  0.00     0.003 C 
ENDBRANCH   8   9
ENDBRANCH   7   8
ENDBRANCH   1   7
TORSDOF 3
ENDMDL
