MODEL 1
REMARK minimizedAffinity 10.0334921
REMARK minimizedRMSD -1
REMARK  3 active torsions:
REMARK  status: ('A' for Active; 'I' for Inactive)
REMARK    1  A    between atoms: C3'_2  and  C2'_3 
REMARK    2  A    between atoms: C2'_3  and  C1'_4 
REMARK    3  A    between atoms: C1'_4  and  C1_5 
ROOT
ATOM      1  C1  N4B d   1       1.010  -2.153  -1.323  0.00  0.00    -0.075 A 
ATOM      2  C2  N4B d   1       1.806  -3.307  -1.489  0.00  0.00     0.002 A 
ATOM      3  C3  N4B d   1       3.170  -3.226  -1.351  0.00  0.00     0.002 A 
ATOM      4  C4  N4B d   1       3.759  -2.003  -1.067  0.00  0.00    -0.004 A 
ATOM      5  C5  N4B d   1       2.981  -0.898  -0.883  0.00  0.00     0.002 A 
ATOM      6  C6  N4B d   1       1.608  -0.965  -1.015  0.00  0.00     0.002 A 
ENDROOT
BRANCH   1   7
ATOM      7  C1' N4B d   1      -0.477  -2.174  -1.549  0.00  0.00     0.057 C 
BRANCH   7   8
ATOM      8  C2' N4B d   1      -0.852  -3.455  -2.289  0.00  0.00     0.009 C 
BRANCH   8   9
ATOM      9  C3' N4B d   1      -2.346  -3.726  -2.234  0.00  0.00     0.004 C 
ATOM     10  C4' N4B d   1      -2.682  -4.980  -1.483  0.00  0.00     0.003 C 
ENDBRANCH   8   9
ENDBRANCH   7   8
ENDBRANCH   1   7
TORSDOF 3
ENDMDL
