MODEL 1
REMARK minimizedAffinity -1.75569022
REMARK minimizedRMSD -1
REMARK  3 active torsions:
REMARK  status: ('A' for Active; 'I' for Inactive)
REMARK    1  A    between atoms: C3'_2  and  C2'_3 
REMARK    2  A    between atoms: C2'_3  and  C1'_4 
REMARK    3  A    between atoms: C1'_4  and  C1_5 
ROOT
ATOM      1  C1  N4B d   1       0.973   0.530  -2.145  0.00  0.00    -0.075 A 
ATOM      2  C2  N4B d   1       0.566  -0.566  -1.353  0.00  0.00     0.002 A 
ATOM      3  C3  N4B d   1       0.441  -0.421   0.007  0.00  0.00     0.002 A 
ATOM      4  C4  N4B d   1       0.735   0.799   0.597  0.00  0.00    -0.004 A 
ATOM      5  C5  N4B d   1       1.102   1.860  -0.178  0.00  0.00     0.002 A 
ATOM      6  C6  N4B d   1       1.228   1.730  -1.546  0.00  0.00     0.002 A 
ENDROOT
BRANCH   1   7
ATOM      7  C1' N4B d   1       1.206   0.397  -3.625  0.00  0.00     0.057 C 
BRANCH   7   8
ATOM      8  C2' N4B d   1       1.986  -0.886  -3.895  0.00  0.00     0.009 C 
BRANCH   8   9
ATOM      9  C3' N4B d   1       2.005  -1.239  -5.373  0.00  0.00     0.004 C 
ATOM     10  C4' N4B d   1       3.357  -1.054  -5.996  0.00  0.00     0.003 C 
ENDBRANCH   8   9
ENDBRANCH   7   8
ENDBRANCH   1   7
TORSDOF 3
ENDMDL
