MODEL 1
REMARK minimizedAffinity 8.22844601
REMARK minimizedRMSD -1
REMARK  0 active torsions:
REMARK  status: ('A' for Active; 'I' for Inactive)
ROOT
ATOM      1  C   UNL d   1      -0.054  -0.890   0.558  0.00  0.00     0.077 C 
ATOM      2  C1  UNL d   1       0.291  -0.355   1.916  0.00  0.00    -0.074 A 
ATOM      3  C2  UNL d   1      -0.080   0.939   2.294  0.00  0.00    -0.005 A 
ATOM      4  C3  UNL d   1       0.240   1.420   3.564  0.00  0.00     0.006 A 
ATOM      5  C4  UNL d   1       0.933   0.612   4.467  0.00  0.00    -0.005 A 
ATOM      6  C5  UNL d   1       1.311  -0.685   4.107  0.00  0.00    -0.074 A 
ATOM      7  C6  UNL d   1       2.047  -1.569   5.069  0.00  0.00     0.077 C 
ATOM      8  C7  UNL d   1       0.980  -1.163   2.831  0.00  0.00    -0.001 A 
ENDROOT
TORSDOF 0
ENDMDL
