MODEL 1
REMARK minimizedAffinity 15.6592121
REMARK minimizedRMSD -1
REMARK  0 active torsions:
REMARK  status: ('A' for Active; 'I' for Inactive)
ROOT
ATOM      1  C   UNL d   1       4.763   5.864   1.419  0.00  0.00     0.077 C 
ATOM      2  C1  UNL d   1       5.158   5.227   2.718  0.00  0.00    -0.074 A 
ATOM      3  C2  UNL d   1       5.645   5.999   3.778  0.00  0.00    -0.005 A 
ATOM      4  C3  UNL d   1       6.000   5.393   4.984  0.00  0.00     0.006 A 
ATOM      5  C4  UNL d   1       5.873   4.013   5.141  0.00  0.00    -0.005 A 
ATOM      6  C5  UNL d   1       5.388   3.225   4.092  0.00  0.00    -0.074 A 
ATOM      7  C6  UNL d   1       5.235   1.741   4.248  0.00  0.00     0.077 C 
ATOM      8  C7  UNL d   1       5.026   3.841   2.886  0.00  0.00    -0.001 A 
ENDROOT
TORSDOF 0
ENDMDL
