MODEL 1
REMARK minimizedAffinity 14.4913435
REMARK minimizedRMSD -1
REMARK  0 active torsions:
REMARK  status: ('A' for Active; 'I' for Inactive)
ROOT
ATOM      1  C   UNL d   1      -1.134  -4.405  -6.000  0.00  0.00     0.077 C 
ATOM      2  C1  UNL d   1      -0.932  -3.121  -5.252  0.00  0.00    -0.074 A 
ATOM      3  C2  UNL d   1      -1.391  -2.974  -3.939  0.00  0.00    -0.005 A 
ATOM      4  C3  UNL d   1      -1.188  -1.777  -3.253  0.00  0.00     0.006 A 
ATOM      5  C4  UNL d   1      -0.524  -0.717  -3.871  0.00  0.00    -0.005 A 
ATOM      6  C5  UNL d   1      -0.057  -0.846  -5.183  0.00  0.00    -0.074 A 
ATOM      7  C6  UNL d   1       0.667   0.281  -5.859  0.00  0.00     0.077 C 
ATOM      8  C7  UNL d   1      -0.259  -2.054  -5.864  0.00  0.00    -0.001 A 
ENDROOT
TORSDOF 0
ENDMDL
