MODEL 1
REMARK minimizedAffinity 5.03182745
REMARK minimizedRMSD -1
REMARK  0 active torsions:
REMARK  status: ('A' for Active; 'I' for Inactive)
ROOT
ATOM      1  C   UNL d   1      -3.191  -1.353   2.538  0.00  0.00     0.077 C 
ATOM      2  C1  UNL d   1      -1.813  -0.809   2.772  0.00  0.00    -0.074 A 
ATOM      3  C2  UNL d   1      -1.502   0.519   2.462  0.00  0.00    -0.005 A 
ATOM      4  C3  UNL d   1      -0.219   1.014   2.694  0.00  0.00     0.006 A 
ATOM      5  C4  UNL d   1       0.765   0.187   3.239  0.00  0.00    -0.005 A 
ATOM      6  C5  UNL d   1       0.472  -1.143   3.556  0.00  0.00    -0.074 A 
ATOM      7  C6  UNL d   1       1.515  -2.042   4.151  0.00  0.00     0.077 C 
ATOM      8  C7  UNL d   1      -0.822  -1.631   3.326  0.00  0.00    -0.001 A 
ENDROOT
TORSDOF 0
ENDMDL
