MODEL 1
REMARK minimizedAffinity 10.2614136
REMARK minimizedRMSD -1
REMARK  0 active torsions:
REMARK  status: ('A' for Active; 'I' for Inactive)
ROOT
ATOM      1  C   UNL d   1       0.731  -3.398  -6.000  0.00  0.00     0.077 C 
ATOM      2  C1  UNL d   1       1.091  -2.011  -5.558  0.00  0.00    -0.074 A 
ATOM      3  C2  UNL d   1       0.207  -1.250  -4.786  0.00  0.00    -0.005 A 
ATOM      4  C3  UNL d   1       0.560   0.035  -4.374  0.00  0.00     0.006 A 
ATOM      5  C4  UNL d   1       1.798   0.571  -4.728  0.00  0.00    -0.005 A 
ATOM      6  C5  UNL d   1       2.696  -0.175  -5.499  0.00  0.00    -0.074 A 
ATOM      7  C6  UNL d   1       4.035   0.382  -5.880  0.00  0.00     0.077 C 
ATOM      8  C7  UNL d   1       2.337  -1.469  -5.903  0.00  0.00    -0.001 A 
ENDROOT
TORSDOF 0
ENDMDL
