MODEL 1
REMARK minimizedAffinity 8.5566597
REMARK minimizedRMSD -1
REMARK  0 active torsions:
REMARK  status: ('A' for Active; 'I' for Inactive)
ROOT
ATOM      1  C   UNL d   1      -0.739  -3.274  -6.000  0.00  0.00     0.077 C 
ATOM      2  C1  UNL d   1       0.360  -2.306  -5.676  0.00  0.00    -0.074 A 
ATOM      3  C2  UNL d   1       0.075  -1.056  -5.117  0.00  0.00    -0.005 A 
ATOM      4  C3  UNL d   1       1.109  -0.170  -4.813  0.00  0.00     0.006 A 
ATOM      5  C4  UNL d   1       2.435  -0.524  -5.064  0.00  0.00    -0.005 A 
ATOM      6  C5  UNL d   1       2.739  -1.770  -5.621  0.00  0.00    -0.074 A 
ATOM      7  C6  UNL d   1       4.159  -2.171  -5.888  0.00  0.00     0.077 C 
ATOM      8  C7  UNL d   1       1.696  -2.658  -5.918  0.00  0.00    -0.001 A 
ENDROOT
TORSDOF 0
ENDMDL
