MODEL 1
REMARK minimizedAffinity 11.8497562
REMARK minimizedRMSD -1
REMARK  0 active torsions:
REMARK  status: ('A' for Active; 'I' for Inactive)
ROOT
ATOM      1  C   UNL d   1      -0.362  -0.736  -2.252  0.00  0.00     0.077 C 
ATOM      2  C1  UNL d   1       0.365  -0.701  -3.563  0.00  0.00    -0.074 A 
ATOM      3  C2  UNL d   1      -0.322  -0.857  -4.771  0.00  0.00    -0.005 A 
ATOM      4  C3  UNL d   1       0.366  -0.813  -5.983  0.00  0.00     0.006 A 
ATOM      5  C4  UNL d   1       1.747  -0.613  -5.999  0.00  0.00    -0.005 A 
ATOM      6  C5  UNL d   1       2.451  -0.454  -4.801  0.00  0.00    -0.074 A 
ATOM      7  C6  UNL d   1       3.934  -0.229  -4.802  0.00  0.00     0.077 C 
ATOM      8  C7  UNL d   1       1.751  -0.493  -3.588  0.00  0.00    -0.001 A 
ENDROOT
TORSDOF 0
ENDMDL
