MODEL 1
REMARK minimizedAffinity -0.201318726
REMARK minimizedRMSD -1
REMARK  2 active torsions:
REMARK  status: ('A' for Active; 'I' for Inactive)
REMARK    1  A    between atoms: C2'_3  and  C1'_4 
REMARK    2  A    between atoms: C1'_4  and  C1_5 
ROOT
ATOM      1  C1  I4B d   1      -3.709  -4.722  -4.296  0.00  0.00    -0.075 A 
ATOM      2  C2  I4B d   1      -3.373  -4.929  -5.611  0.00  0.00     0.003 A 
ATOM      3  C3  I4B d   1      -2.113  -5.479  -5.947  0.00  0.00     0.002 A 
ATOM      4  C4  I4B d   1      -1.204  -5.758  -4.946  0.00  0.00    -0.004 A 
ATOM      5  C5  I4B d   1      -1.554  -5.568  -3.612  0.00  0.00     0.002 A 
ATOM      6  C6  I4B d   1      -2.819  -5.059  -3.284  0.00  0.00     0.003 A 
ENDROOT
BRANCH   1   7
ATOM      7  C1' I4B d   1      -5.036  -4.109  -3.978  0.00  0.00     0.060 C 
BRANCH   7   8
ATOM      8  C2' I4B d   1      -5.067  -2.722  -4.587  0.00  0.00    -0.013 C 
ATOM      9  C4' I4B d   1      -5.612  -2.754  -5.990  0.00  0.00     0.013 C 
ATOM     10  C3' I4B d   1      -5.902  -1.846  -3.701  0.00  0.00     0.013 C 
ENDBRANCH   7   8
ENDBRANCH   1   7
TORSDOF 2
ENDMDL
