MODEL 1
REMARK minimizedAffinity 4.73874378
REMARK minimizedRMSD -1
REMARK  2 active torsions:
REMARK  status: ('A' for Active; 'I' for Inactive)
REMARK    1  A    between atoms: C2'_3  and  C1'_4 
REMARK    2  A    between atoms: C1'_4  and  C1_5 
ROOT
ATOM      1  C1  I4B d   1      -0.000  -0.852   0.229  0.00  0.00    -0.075 A 
ATOM      2  C2  I4B d   1      -0.521  -0.490   1.446  0.00  0.00     0.003 A 
ATOM      3  C3  I4B d   1      -1.749  -1.040   1.888  0.00  0.00     0.002 A 
ATOM      4  C4  I4B d   1      -2.442  -1.904   1.065  0.00  0.00    -0.004 A 
ATOM      5  C5  I4B d   1      -1.901  -2.288  -0.159  0.00  0.00     0.002 A 
ATOM      6  C6  I4B d   1      -0.667  -1.768  -0.574  0.00  0.00     0.003 A 
ENDROOT
BRANCH   1   7
ATOM      7  C1' I4B d   1       1.282  -0.227  -0.220  0.00  0.00     0.060 C 
BRANCH   7   8
ATOM      8  C2' I4B d   1       2.156  -0.026   1.000  0.00  0.00    -0.013 C 
ATOM      9  C4' I4B d   1       3.174  -1.128   1.130  0.00  0.00     0.013 C 
ATOM     10  C3' I4B d   1       2.821   1.313   0.878  0.00  0.00     0.013 C 
ENDBRANCH   7   8
ENDBRANCH   1   7
TORSDOF 2
ENDMDL
