MODEL 1
REMARK minimizedAffinity 6.39796877
REMARK minimizedRMSD -1
REMARK  2 active torsions:
REMARK  status: ('A' for Active; 'I' for Inactive)
REMARK    1  A    between atoms: C2'_3  and  C1'_4 
REMARK    2  A    between atoms: C1'_4  and  C1_5 
ROOT
ATOM      1  C1  I4B d   1      -0.996  -2.026   1.656  0.00  0.00    -0.075 A 
ATOM      2  C2  I4B d   1      -1.789  -1.409   2.592  0.00  0.00     0.003 A 
ATOM      3  C3  I4B d   1      -2.462  -0.205   2.273  0.00  0.00     0.002 A 
ATOM      4  C4  I4B d   1      -2.276   0.370   1.033  0.00  0.00    -0.004 A 
ATOM      5  C5  I4B d   1      -1.490  -0.269   0.078  0.00  0.00     0.002 A 
ATOM      6  C6  I4B d   1      -0.856  -1.481   0.387  0.00  0.00     0.003 A 
ENDROOT
BRANCH   1   7
ATOM      7  C1' I4B d   1      -0.274  -3.279   2.037  0.00  0.00     0.060 C 
BRANCH   7   8
ATOM      8  C2' I4B d   1       1.040  -2.883   2.680  0.00  0.00    -0.013 C 
ATOM      9  C4' I4B d   1       1.440  -3.863   3.752  0.00  0.00     0.013 C 
ATOM     10  C3' I4B d   1       2.079  -2.806   1.602  0.00  0.00     0.013 C 
ENDBRANCH   7   8
ENDBRANCH   1   7
TORSDOF 2
ENDMDL
