MODEL 1
REMARK minimizedAffinity 6.61222219
REMARK minimizedRMSD -1
REMARK  2 active torsions:
REMARK  status: ('A' for Active; 'I' for Inactive)
REMARK    1  A    between atoms: C2'_3  and  C1'_4 
REMARK    2  A    between atoms: C1'_4  and  C1_5 
ROOT
ATOM      1  C1  I4B d   1      -1.026  -0.222   0.511  0.00  0.00    -0.075 A 
ATOM      2  C2  I4B d   1      -1.230   0.675  -0.507  0.00  0.00     0.003 A 
ATOM      3  C3  I4B d   1      -2.344   0.534  -1.369  0.00  0.00     0.002 A 
ATOM      4  C4  I4B d   1      -3.195  -0.541  -1.210  0.00  0.00    -0.004 A 
ATOM      5  C5  I4B d   1      -2.999  -1.437  -0.163  0.00  0.00     0.002 A 
ATOM      6  C6  I4B d   1      -1.915  -1.270   0.711  0.00  0.00     0.003 A 
ENDROOT
BRANCH   1   7
ATOM      7  C1' I4B d   1       0.180  -0.062   1.382  0.00  0.00     0.060 C 
BRANCH   7   8
ATOM      8  C2' I4B d   1       1.206   0.748   0.616  0.00  0.00    -0.013 C 
ATOM      9  C4' I4B d   1       2.192   1.400   1.548  0.00  0.00     0.013 C 
ATOM     10  C3' I4B d   1       1.896  -0.172  -0.347  0.00  0.00     0.013 C 
ENDBRANCH   7   8
ENDBRANCH   1   7
TORSDOF 2
ENDMDL
