MODEL 1
REMARK minimizedAffinity -2.06469321
REMARK minimizedRMSD -1
REMARK  2 active torsions:
REMARK  status: ('A' for Active; 'I' for Inactive)
REMARK    1  A    between atoms: C2'_3  and  C1'_4 
REMARK    2  A    between atoms: C1'_4  and  C1_5 
ROOT
ATOM      1  C1  I4B d   1      -4.862  -3.796  -5.083  0.00  0.00    -0.075 A 
ATOM      2  C2  I4B d   1      -5.277  -4.955  -4.475  0.00  0.00     0.003 A 
ATOM      3  C3  I4B d   1      -4.352  -5.995  -4.216  0.00  0.00     0.002 A 
ATOM      4  C4  I4B d   1      -3.041  -5.856  -4.623  0.00  0.00    -0.004 A 
ATOM      5  C5  I4B d   1      -2.616  -4.671  -5.218  0.00  0.00     0.002 A 
ATOM      6  C6  I4B d   1      -3.529  -3.630  -5.438  0.00  0.00     0.003 A 
ENDROOT
BRANCH   1   7
ATOM      7  C1' I4B d   1      -5.872  -2.732  -5.372  0.00  0.00     0.060 C 
BRANCH   7   8
ATOM      8  C2' I4B d   1      -5.473  -1.489  -4.603  0.00  0.00    -0.013 C 
ATOM      9  C4' I4B d   1      -6.000  -0.244  -5.267  0.00  0.00     0.013 C 
ATOM     10  C3' I4B d   1      -6.000  -1.620  -3.205  0.00  0.00     0.013 C 
ENDBRANCH   7   8
ENDBRANCH   1   7
TORSDOF 2
ENDMDL
