MODEL 1
REMARK minimizedAffinity 0.985722363
REMARK minimizedRMSD -1
REMARK  2 active torsions:
REMARK  status: ('A' for Active; 'I' for Inactive)
REMARK    1  A    between atoms: C2'_3  and  C1'_4 
REMARK    2  A    between atoms: C1'_4  and  C1_5 
ROOT
ATOM      1  C1  I4B d   1      -3.930  -4.923  -5.474  0.00  0.00    -0.075 A 
ATOM      2  C2  I4B d   1      -3.465  -4.100  -4.479  0.00  0.00     0.003 A 
ATOM      3  C3  I4B d   1      -4.278  -3.053  -3.983  0.00  0.00     0.002 A 
ATOM      4  C4  I4B d   1      -5.521  -2.834  -4.542  0.00  0.00    -0.004 A 
ATOM      5  C5  I4B d   1      -6.000  -3.683  -5.535  0.00  0.00     0.002 A 
ATOM      6  C6  I4B d   1      -5.205  -4.743  -5.996  0.00  0.00     0.003 A 
ENDROOT
BRANCH   1   7
ATOM      7  C1' I4B d   1      -3.033  -5.999  -5.998  0.00  0.00     0.060 C 
BRANCH   7   8
ATOM      8  C2' I4B d   1      -1.693  -5.870  -5.301  0.00  0.00    -0.013 C 
ATOM      9  C4' I4B d   1      -1.029  -4.560  -5.635  0.00  0.00     0.013 C 
ATOM     10  C3' I4B d   1      -1.925  -5.999  -3.825  0.00  0.00     0.013 C 
ENDBRANCH   7   8
ENDBRANCH   1   7
TORSDOF 2
ENDMDL
