MODEL 1
REMARK minimizedAffinity -0.266562283
REMARK minimizedRMSD -1
REMARK  2 active torsions:
REMARK  status: ('A' for Active; 'I' for Inactive)
REMARK    1  A    between atoms: C2'_3  and  C1'_4 
REMARK    2  A    between atoms: C1'_4  and  C1_5 
ROOT
ATOM      1  C1  I4B d   1      -3.823  -4.670  -5.471  0.00  0.00    -0.075 A 
ATOM      2  C2  I4B d   1      -5.069  -4.858  -4.927  0.00  0.00     0.003 A 
ATOM      3  C3  I4B d   1      -6.000  -3.792  -4.892  0.00  0.00     0.002 A 
ATOM      4  C4  I4B d   1      -5.627  -2.549  -5.362  0.00  0.00    -0.004 A 
ATOM      5  C5  I4B d   1      -4.372  -2.366  -5.933  0.00  0.00     0.002 A 
ATOM      6  C6  I4B d   1      -3.468  -3.436  -6.000  0.00  0.00     0.003 A 
ENDROOT
BRANCH   1   7
ATOM      7  C1' I4B d   1      -2.854  -5.809  -5.462  0.00  0.00     0.060 C 
BRANCH   7   8
ATOM      8  C2' I4B d   1      -1.479  -5.250  -5.155  0.00  0.00    -0.013 C 
ATOM      9  C4' I4B d   1      -1.157  -5.371  -3.689  0.00  0.00     0.013 C 
ATOM     10  C3' I4B d   1      -0.480  -5.992  -5.992  0.00  0.00     0.013 C 
ENDBRANCH   7   8
ENDBRANCH   1   7
TORSDOF 2
ENDMDL
