MODEL 1
REMARK minimizedAffinity 4.82956028
REMARK minimizedRMSD -1
REMARK  2 active torsions:
REMARK  status: ('A' for Active; 'I' for Inactive)
REMARK    1  A    between atoms: C2'_3  and  C1'_4 
REMARK    2  A    between atoms: C1'_4  and  C1_5 
ROOT
ATOM      1  C1  I4B d   1      -1.510  -1.125   2.129  0.00  0.00    -0.075 A 
ATOM      2  C2  I4B d   1      -1.982  -2.166   1.369  0.00  0.00     0.003 A 
ATOM      3  C3  I4B d   1      -1.466  -2.391   0.069  0.00  0.00     0.002 A 
ATOM      4  C4  I4B d   1      -0.523  -1.526  -0.447  0.00  0.00    -0.004 A 
ATOM      5  C5  I4B d   1      -0.029  -0.485   0.334  0.00  0.00     0.002 A 
ATOM      6  C6  I4B d   1      -0.517  -0.290   1.634  0.00  0.00     0.003 A 
ENDROOT
BRANCH   1   7
ATOM      7  C1' I4B d   1      -2.101  -0.897   3.484  0.00  0.00     0.060 C 
BRANCH   7   8
ATOM      8  C2' I4B d   1      -3.404  -0.146   3.305  0.00  0.00    -0.013 C 
ATOM      9  C4' I4B d   1      -4.536  -1.086   2.988  0.00  0.00     0.013 C 
ATOM     10  C3' I4B d   1      -3.674   0.620   4.566  0.00  0.00     0.013 C 
ENDBRANCH   7   8
ENDBRANCH   1   7
TORSDOF 2
ENDMDL
