MODEL 1
REMARK minimizedAffinity 5.44135666
REMARK minimizedRMSD -1
REMARK  2 active torsions:
REMARK  status: ('A' for Active; 'I' for Inactive)
REMARK    1  A    between atoms: C2'_3  and  C1'_4 
REMARK    2  A    between atoms: C1'_4  and  C1_5 
ROOT
ATOM      1  C1  I4B d   1      -0.888  -0.945   0.420  0.00  0.00    -0.075 A 
ATOM      2  C2  I4B d   1      -1.134   0.374   0.135  0.00  0.00     0.003 A 
ATOM      3  C3  I4B d   1      -2.348   0.755  -0.486  0.00  0.00     0.002 A 
ATOM      4  C4  I4B d   1      -3.260  -0.216  -0.848  0.00  0.00    -0.004 A 
ATOM      5  C5  I4B d   1      -3.018  -1.551  -0.538  0.00  0.00     0.002 A 
ATOM      6  C6  I4B d   1      -1.830  -1.917   0.112  0.00  0.00     0.003 A 
ENDROOT
BRANCH   1   7
ATOM      7  C1' I4B d   1       0.419  -1.316   1.047  0.00  0.00     0.060 C 
BRANCH   7   8
ATOM      8  C2' I4B d   1       1.527  -0.720   0.202  0.00  0.00    -0.013 C 
ATOM      9  C4' I4B d   1       2.881  -1.018   0.791  0.00  0.00     0.013 C 
ATOM     10  C3' I4B d   1       1.404  -1.278  -1.184  0.00  0.00     0.013 C 
ENDBRANCH   7   8
ENDBRANCH   1   7
TORSDOF 2
ENDMDL
