MODEL 1
REMARK minimizedAffinity 11.2501755
REMARK minimizedRMSD -1
REMARK  2 active torsions:
REMARK  status: ('A' for Active; 'I' for Inactive)
REMARK    1  A    between atoms: C2'_3  and  C1'_4 
REMARK    2  A    between atoms: C1'_4  and  C1_5 
ROOT
ATOM      1  C1  I4B d   1      -4.614  -3.346  -5.099  0.00  0.00    -0.075 A 
ATOM      2  C2  I4B d   1      -4.591  -2.309  -5.999  0.00  0.00     0.003 A 
ATOM      3  C3  I4B d   1      -5.269  -1.100  -5.711  0.00  0.00     0.002 A 
ATOM      4  C4  I4B d   1      -5.994  -0.989  -4.542  0.00  0.00    -0.004 A 
ATOM      5  C5  I4B d   1      -5.998  -2.033  -3.621  0.00  0.00     0.002 A 
ATOM      6  C6  I4B d   1      -5.293  -3.214  -3.895  0.00  0.00     0.003 A 
ENDROOT
BRANCH   1   7
ATOM      7  C1' I4B d   1      -3.914  -4.621  -5.450  0.00  0.00     0.060 C 
BRANCH   7   8
ATOM      8  C2' I4B d   1      -2.524  -4.571  -4.850  0.00  0.00    -0.013 C 
ATOM      9  C4' I4B d   1      -2.287  -5.735  -3.925  0.00  0.00     0.013 C 
ATOM     10  C3' I4B d   1      -1.534  -4.564  -5.976  0.00  0.00     0.013 C 
ENDBRANCH   7   8
ENDBRANCH   1   7
TORSDOF 2
ENDMDL
