MODEL 1
REMARK minimizedAffinity 0.90994662
REMARK minimizedRMSD -1
REMARK  2 active torsions:
REMARK  status: ('A' for Active; 'I' for Inactive)
REMARK    1  A    between atoms: C2'_3  and  C1'_4 
REMARK    2  A    between atoms: C1'_4  and  C1_5 
ROOT
ATOM      1  C1  I4B d   1      -5.001  -3.944  -4.775  0.00  0.00    -0.075 A 
ATOM      2  C2  I4B d   1      -5.042  -3.228  -3.605  0.00  0.00     0.003 A 
ATOM      3  C3  I4B d   1      -5.564  -1.912  -3.593  0.00  0.00     0.002 A 
ATOM      4  C4  I4B d   1      -5.985  -1.336  -4.775  0.00  0.00    -0.004 A 
ATOM      5  C5  I4B d   1      -5.964  -2.072  -5.956  0.00  0.00     0.002 A 
ATOM      6  C6  I4B d   1      -5.481  -3.389  -5.955  0.00  0.00     0.003 A 
ENDROOT
BRANCH   1   7
ATOM      7  C1' I4B d   1      -4.413  -5.319  -4.758  0.00  0.00     0.060 C 
BRANCH   7   8
ATOM      8  C2' I4B d   1      -2.942  -5.202  -5.099  0.00  0.00    -0.013 C 
ATOM      9  C4' I4B d   1      -2.683  -4.022  -5.998  0.00  0.00     0.013 C 
ATOM     10  C3' I4B d   1      -2.177  -5.082  -3.815  0.00  0.00     0.013 C 
ENDBRANCH   7   8
ENDBRANCH   1   7
TORSDOF 2
ENDMDL
