MODEL 1
REMARK minimizedAffinity -1.40954626
REMARK minimizedRMSD -1
REMARK  2 active torsions:
REMARK  status: ('A' for Active; 'I' for Inactive)
REMARK    1  A    between atoms: C2'_3  and  C1'_4 
REMARK    2  A    between atoms: C1'_4  and  C1_5 
ROOT
ATOM      1  C1  I4B d   1      -3.778  -5.232  -4.684  0.00  0.00    -0.075 A 
ATOM      2  C2  I4B d   1      -4.003  -4.018  -4.083  0.00  0.00     0.003 A 
ATOM      3  C3  I4B d   1      -5.143  -3.253  -4.428  0.00  0.00     0.002 A 
ATOM      4  C4  I4B d   1      -5.999  -3.713  -5.408  0.00  0.00    -0.004 A 
ATOM      5  C5  I4B d   1      -5.782  -4.954  -5.999  0.00  0.00     0.002 A 
ATOM      6  C6  I4B d   1      -4.671  -5.724  -5.627  0.00  0.00     0.003 A 
ENDROOT
BRANCH   1   7
ATOM      7  C1' I4B d   1      -2.546  -5.999  -4.320  0.00  0.00     0.060 C 
BRANCH   7   8
ATOM      8  C2' I4B d   1      -1.471  -5.664  -5.334  0.00  0.00    -0.013 C 
ATOM      9  C4' I4B d   1      -1.537  -4.215  -5.740  0.00  0.00     0.013 C 
ATOM     10  C3' I4B d   1      -0.141  -5.995  -4.725  0.00  0.00     0.013 C 
ENDBRANCH   7   8
ENDBRANCH   1   7
TORSDOF 2
ENDMDL
