MODEL 1
REMARK minimizedAffinity -2.7271893
REMARK minimizedRMSD -1
REMARK  2 active torsions:
REMARK  status: ('A' for Active; 'I' for Inactive)
REMARK    1  A    between atoms: C2'_3  and  C1'_4 
REMARK    2  A    between atoms: C1'_4  and  C1_5 
ROOT
ATOM      1  C1  I4B d   1      -3.156  -3.550  -4.973  0.00  0.00    -0.075 A 
ATOM      2  C2  I4B d   1      -2.166  -3.733  -5.906  0.00  0.00     0.003 A 
ATOM      3  C3  I4B d   1      -1.497  -4.977  -6.000  0.00  0.00     0.002 A 
ATOM      4  C4  I4B d   1      -1.812  -5.987  -5.114  0.00  0.00    -0.004 A 
ATOM      5  C5  I4B d   1      -2.831  -5.807  -4.183  0.00  0.00     0.002 A 
ATOM      6  C6  I4B d   1      -3.516  -4.585  -4.120  0.00  0.00     0.003 A 
ENDROOT
BRANCH   1   7
ATOM      7  C1' I4B d   1      -3.819  -2.212  -4.879  0.00  0.00     0.060 C 
BRANCH   7   8
ATOM      8  C2' I4B d   1      -5.299  -2.405  -5.144  0.00  0.00    -0.013 C 
ATOM      9  C4' I4B d   1      -5.545  -3.620  -6.000  0.00  0.00     0.013 C 
ATOM     10  C3' I4B d   1      -5.994  -2.525  -3.821  0.00  0.00     0.013 C 
ENDBRANCH   7   8
ENDBRANCH   1   7
TORSDOF 2
ENDMDL
