MODEL 1
REMARK minimizedAffinity 2.96899438
REMARK minimizedRMSD -1
REMARK  2 active torsions:
REMARK  status: ('A' for Active; 'I' for Inactive)
REMARK    1  A    between atoms: C2'_3  and  C1'_4 
REMARK    2  A    between atoms: C1'_4  and  C1_5 
ROOT
ATOM      1  C1  I4B d   1      -4.617  -4.257  -4.459  0.00  0.00    -0.075 A 
ATOM      2  C2  I4B d   1      -3.348  -4.243  -3.935  0.00  0.00     0.003 A 
ATOM      3  C3  I4B d   1      -2.354  -5.108  -4.453  0.00  0.00     0.002 A 
ATOM      4  C4  I4B d   1      -2.683  -6.000  -5.453  0.00  0.00    -0.004 A 
ATOM      5  C5  I4B d   1      -3.963  -5.996  -5.998  0.00  0.00     0.002 A 
ATOM      6  C6  I4B d   1      -4.934  -5.111  -5.507  0.00  0.00     0.003 A 
ENDROOT
BRANCH   1   7
ATOM      7  C1' I4B d   1      -5.651  -3.353  -3.866  0.00  0.00     0.060 C 
BRANCH   7   8
ATOM      8  C2' I4B d   1      -5.922  -2.240  -4.858  0.00  0.00    -0.013 C 
ATOM      9  C4' I4B d   1      -5.954  -0.898  -4.176  0.00  0.00     0.013 C 
ATOM     10  C3' I4B d   1      -4.855  -2.288  -5.910  0.00  0.00     0.013 C 
ENDBRANCH   7   8
ENDBRANCH   1   7
TORSDOF 2
ENDMDL
