MODEL 1
REMARK minimizedAffinity 3.48918819
REMARK minimizedRMSD -1
REMARK  2 active torsions:
REMARK  status: ('A' for Active; 'I' for Inactive)
REMARK    1  A    between atoms: C2'_3  and  C1'_4 
REMARK    2  A    between atoms: C1'_4  and  C1_5 
ROOT
ATOM      1  C1  I4B d   1      -4.796  -2.196  -5.280  0.00  0.00    -0.075 A 
ATOM      2  C2  I4B d   1      -3.786  -1.370  -5.705  0.00  0.00     0.003 A 
ATOM      3  C3  I4B d   1      -3.564  -0.126  -5.065  0.00  0.00     0.002 A 
ATOM      4  C4  I4B d   1      -4.402   0.271  -4.044  0.00  0.00    -0.004 A 
ATOM      5  C5  I4B d   1      -5.411  -0.578  -3.598  0.00  0.00     0.002 A 
ATOM      6  C6  I4B d   1      -5.602  -1.825  -4.211  0.00  0.00     0.003 A 
ENDROOT
BRANCH   1   7
ATOM      7  C1' I4B d   1      -5.022  -3.487  -6.000  0.00  0.00     0.060 C 
BRANCH   7   8
ATOM      8  C2' I4B d   1      -4.033  -4.501  -5.463  0.00  0.00    -0.013 C 
ATOM      9  C4' I4B d   1      -4.423  -5.903  -5.852  0.00  0.00     0.013 C 
ATOM     10  C3' I4B d   1      -2.675  -4.149  -5.994  0.00  0.00     0.013 C 
ENDBRANCH   7   8
ENDBRANCH   1   7
TORSDOF 2
ENDMDL
