MODEL 1
REMARK minimizedAffinity 8.79109859
REMARK minimizedRMSD -1
REMARK  3 active torsions:
REMARK  status: ('A' for Active; 'I' for Inactive)
REMARK    1  A    between atoms: C3'_2  and  C2'_3 
REMARK    2  A    between atoms: C2'_3  and  C1'_4 
REMARK    3  A    between atoms: C1'_4  and  C1_5 
ROOT
ATOM      1  C1  N4B d   1      -1.948   4.180   4.250  0.00  0.00    -0.075 A 
ATOM      2  C2  N4B d   1      -2.675   2.970   4.221  0.00  0.00     0.002 A 
ATOM      3  C3  N4B d   1      -3.725   2.778   5.085  0.00  0.00     0.002 A 
ATOM      4  C4  N4B d   1      -4.054   3.772   5.995  0.00  0.00    -0.004 A 
ATOM      5  C5  N4B d   1      -3.364   4.948   5.999  0.00  0.00     0.002 A 
ATOM      6  C6  N4B d   1      -2.308   5.156   5.135  0.00  0.00     0.002 A 
ENDROOT
BRANCH   1   7
ATOM      7  C1' N4B d   1      -0.738   4.401   3.384  0.00  0.00     0.057 C 
BRANCH   7   8
ATOM      8  C2' N4B d   1       0.241   5.314   4.116  0.00  0.00     0.009 C 
BRANCH   8   9
ATOM      9  C3' N4B d   1       1.665   4.790   4.050  0.00  0.00     0.004 C 
ATOM     10  C4' N4B d   1       1.753   3.426   3.433  0.00  0.00     0.003 C 
ENDBRANCH   8   9
ENDBRANCH   7   8
ENDBRANCH   1   7
TORSDOF 3
ENDMDL
