MODEL 1
REMARK minimizedAffinity 8.35524178
REMARK minimizedRMSD -1
REMARK  3 active torsions:
REMARK  status: ('A' for Active; 'I' for Inactive)
REMARK    1  A    between atoms: C3'_2  and  C2'_3 
REMARK    2  A    between atoms: C2'_3  and  C1'_4 
REMARK    3  A    between atoms: C1'_4  and  C1_5 
ROOT
ATOM      1  C1  N4B d   1       2.843  -2.596   2.586  0.00  0.00    -0.075 A 
ATOM      2  C2  N4B d   1       1.764  -1.770   2.973  0.00  0.00     0.002 A 
ATOM      3  C3  N4B d   1       0.810  -1.411   2.052  0.00  0.00     0.002 A 
ATOM      4  C4  N4B d   1       0.924  -1.848   0.741  0.00  0.00    -0.004 A 
ATOM      5  C5  N4B d   1       1.954  -2.666   0.382  0.00  0.00     0.002 A 
ATOM      6  C6  N4B d   1       2.918  -3.038   1.297  0.00  0.00     0.002 A 
ENDROOT
BRANCH   1   7
ATOM      7  C1' N4B d   1       3.956  -2.944   3.536  0.00  0.00     0.057 C 
BRANCH   7   8
ATOM      8  C2' N4B d   1       3.697  -2.270   4.880  0.00  0.00     0.009 C 
BRANCH   8   9
ATOM      9  C3' N4B d   1       4.508  -2.903   5.998  0.00  0.00     0.004 C 
ATOM     10  C4' N4B d   1       4.427  -4.400   5.999  0.00  0.00     0.003 C 
ENDBRANCH   8   9
ENDBRANCH   7   8
ENDBRANCH   1   7
TORSDOF 3
ENDMDL
