MODEL 1
REMARK minimizedAffinity 13.3272419
REMARK minimizedRMSD -1
REMARK  3 active torsions:
REMARK  status: ('A' for Active; 'I' for Inactive)
REMARK    1  A    between atoms: C3'_2  and  C2'_3 
REMARK    2  A    between atoms: C2'_3  and  C1'_4 
REMARK    3  A    between atoms: C1'_4  and  C1_5 
ROOT
ATOM      1  C1  N4B d   1       0.487  -1.323  -0.172  0.00  0.00    -0.075 A 
ATOM      2  C2  N4B d   1       0.705  -0.621   1.034  0.00  0.00     0.002 A 
ATOM      3  C3  N4B d   1       1.696  -1.025   1.894  0.00  0.00     0.002 A 
ATOM      4  C4  N4B d   1       2.466  -2.135   1.580  0.00  0.00    -0.004 A 
ATOM      5  C5  N4B d   1       2.266  -2.792   0.401  0.00  0.00     0.002 A 
ATOM      6  C6  N4B d   1       1.276  -2.394  -0.474  0.00  0.00     0.002 A 
ENDROOT
BRANCH   1   7
ATOM      7  C1' N4B d   1      -0.641  -0.970  -1.103  0.00  0.00     0.057 C 
BRANCH   7   8
ATOM      8  C2' N4B d   1      -0.571   0.518  -1.433  0.00  0.00     0.009 C 
BRANCH   8   9
ATOM      9  C3' N4B d   1      -1.824   1.001  -2.144  0.00  0.00     0.004 C 
ATOM     10  C4' N4B d   1      -1.590   2.242  -2.953  0.00  0.00     0.003 C 
ENDBRANCH   8   9
ENDBRANCH   7   8
ENDBRANCH   1   7
TORSDOF 3
ENDMDL
