MODEL 1
REMARK minimizedAffinity 7.85668898
REMARK minimizedRMSD -1
REMARK  3 active torsions:
REMARK  status: ('A' for Active; 'I' for Inactive)
REMARK    1  A    between atoms: C3'_2  and  C2'_3 
REMARK    2  A    between atoms: C2'_3  and  C1'_4 
REMARK    3  A    between atoms: C1'_4  and  C1_5 
ROOT
ATOM      1  C1  N4B d   1      -0.722   2.142  -4.084  0.00  0.00    -0.075 A 
ATOM      2  C2  N4B d   1      -1.417   1.929  -2.873  0.00  0.00     0.002 A 
ATOM      3  C3  N4B d   1      -2.787   1.834  -2.875  0.00  0.00     0.002 A 
ATOM      4  C4  N4B d   1      -3.482   1.966  -4.068  0.00  0.00    -0.004 A 
ATOM      5  C5  N4B d   1      -2.802   2.146  -5.237  0.00  0.00     0.002 A 
ATOM      6  C6  N4B d   1      -1.425   2.239  -5.251  0.00  0.00     0.002 A 
ENDROOT
BRANCH   1   7
ATOM      7  C1' N4B d   1       0.769   2.339  -4.121  0.00  0.00     0.057 C 
BRANCH   7   8
ATOM      8  C2' N4B d   1       1.077   3.833  -4.127  0.00  0.00     0.009 C 
BRANCH   8   9
ATOM      9  C3' N4B d   1       1.896   4.240  -5.339  0.00  0.00     0.004 C 
ATOM     10  C4' N4B d   1       1.383   5.488  -5.994  0.00  0.00     0.003 C 
ENDBRANCH   8   9
ENDBRANCH   7   8
ENDBRANCH   1   7
TORSDOF 3
ENDMDL
