MODEL 1
REMARK minimizedAffinity 1.93928516
REMARK minimizedRMSD -1
REMARK  0 active torsions:
REMARK  status: ('A' for Active; 'I' for Inactive)
ROOT
ATOM      1  C   UNL d   1       3.384   1.450  -5.996  0.00  0.00     0.078 C 
ATOM      2  C1  UNL d   1       4.029   1.996  -4.757  0.00  0.00    -0.077 A 
ATOM      3  C2  UNL d   1       3.298   2.763  -3.841  0.00  0.00    -0.001 A 
ATOM      4  C3  UNL d   1       3.914   3.273  -2.697  0.00  0.00     0.003 A 
ATOM      5  C4  UNL d   1       5.264   3.023  -2.459  0.00  0.00    -0.005 A 
ATOM      6  C5  UNL d   1       6.000   2.262  -3.365  0.00  0.00     0.003 A 
ATOM      7  C6  UNL d   1       5.385   1.752  -4.510  0.00  0.00    -0.001 A 
ENDROOT
TORSDOF 0
ENDMDL
