MODEL 1
REMARK minimizedAffinity -1.41178119
REMARK minimizedRMSD -1
REMARK  0 active torsions:
REMARK  status: ('A' for Active; 'I' for Inactive)
ROOT
ATOM      1  C   UNL d   1       0.740   2.524  -5.979  0.00  0.00     0.078 C 
ATOM      2  C1  UNL d   1      -0.551   3.287  -5.993  0.00  0.00    -0.077 A 
ATOM      3  C2  UNL d   1      -0.562   4.687  -5.997  0.00  0.00    -0.001 A 
ATOM      4  C3  UNL d   1      -1.771   5.383  -6.000  0.00  0.00     0.003 A 
ATOM      5  C4  UNL d   1      -2.979   4.688  -5.998  0.00  0.00    -0.005 A 
ATOM      6  C5  UNL d   1      -2.978   3.295  -5.992  0.00  0.00     0.003 A 
ATOM      7  C6  UNL d   1      -1.770   2.597  -5.989  0.00  0.00    -0.001 A 
ENDROOT
TORSDOF 0
ENDMDL
