MODEL 1
REMARK minimizedAffinity -2.25411963
REMARK minimizedRMSD -1
REMARK  0 active torsions:
REMARK  status: ('A' for Active; 'I' for Inactive)
ROOT
ATOM      1  C   UNL d   1      -3.076   2.997  -5.981  0.00  0.00     0.078 C 
ATOM      2  C1  UNL d   1      -1.605   3.285  -5.995  0.00  0.00    -0.077 A 
ATOM      3  C2  UNL d   1      -0.666   2.246  -5.993  0.00  0.00    -0.001 A 
ATOM      4  C3  UNL d   1       0.701   2.529  -5.996  0.00  0.00     0.003 A 
ATOM      5  C4  UNL d   1       1.141   3.851  -5.999  0.00  0.00    -0.005 A 
ATOM      6  C5  UNL d   1       0.215   4.892  -5.998  0.00  0.00     0.003 A 
ATOM      7  C6  UNL d   1      -1.152   4.611  -5.995  0.00  0.00    -0.001 A 
ENDROOT
TORSDOF 0
ENDMDL
