MODEL 1
REMARK minimizedAffinity -2.54137945
REMARK minimizedRMSD -1
REMARK  0 active torsions:
REMARK  status: ('A' for Active; 'I' for Inactive)
ROOT
ATOM      1  C   UNL d   1      -0.212   2.774  -5.967  0.00  0.00     0.078 C 
ATOM      2  C1  UNL d   1      -1.365   3.734  -5.981  0.00  0.00    -0.077 A 
ATOM      3  C2  UNL d   1      -1.151   5.117  -5.972  0.00  0.00    -0.001 A 
ATOM      4  C3  UNL d   1      -2.234   5.999  -5.975  0.00  0.00     0.003 A 
ATOM      5  C4  UNL d   1      -3.537   5.506  -5.986  0.00  0.00    -0.005 A 
ATOM      6  C5  UNL d   1      -3.759   4.130  -5.993  0.00  0.00     0.003 A 
ATOM      7  C6  UNL d   1      -2.678   3.248  -5.990  0.00  0.00    -0.001 A 
ENDROOT
TORSDOF 0
ENDMDL
