MODEL 1
REMARK minimizedAffinity -2.89984059
REMARK minimizedRMSD -1
REMARK  0 active torsions:
REMARK  status: ('A' for Active; 'I' for Inactive)
ROOT
ATOM      1  C   UNL d   1       1.377   3.112  -5.989  0.00  0.00     0.078 C 
ATOM      2  C1  UNL d   1      -0.053   3.564  -5.998  0.00  0.00    -0.077 A 
ATOM      3  C2  UNL d   1      -0.379   4.926  -5.999  0.00  0.00    -0.001 A 
ATOM      4  C3  UNL d   1      -1.715   5.332  -5.997  0.00  0.00     0.003 A 
ATOM      5  C4  UNL d   1      -2.735   4.382  -5.993  0.00  0.00    -0.005 A 
ATOM      6  C5  UNL d   1      -2.420   3.025  -5.990  0.00  0.00     0.003 A 
ATOM      7  C6  UNL d   1      -1.085   2.617  -5.991  0.00  0.00    -0.001 A 
ENDROOT
TORSDOF 0
ENDMDL
