MODEL 1
REMARK minimizedAffinity -2.2694068
REMARK minimizedRMSD -1
REMARK  0 active torsions:
REMARK  status: ('A' for Active; 'I' for Inactive)
ROOT
ATOM      1  C   UNL d   1      -3.751   5.285  -5.975  0.00  0.00     0.078 C 
ATOM      2  C1  UNL d   1      -2.359   4.727  -5.989  0.00  0.00    -0.077 A 
ATOM      3  C2  UNL d   1      -2.136   3.344  -5.993  0.00  0.00    -0.001 A 
ATOM      4  C3  UNL d   1      -0.835   2.839  -5.996  0.00  0.00     0.003 A 
ATOM      5  C4  UNL d   1       0.253   3.709  -5.995  0.00  0.00    -0.005 A 
ATOM      6  C5  UNL d   1       0.042   5.086  -5.989  0.00  0.00     0.003 A 
ATOM      7  C6  UNL d   1      -1.259   5.593  -5.986  0.00  0.00    -0.001 A 
ENDROOT
TORSDOF 0
ENDMDL
