MODEL 1
REMARK minimizedAffinity -2.50693893
REMARK minimizedRMSD -1
REMARK  0 active torsions:
REMARK  status: ('A' for Active; 'I' for Inactive)
ROOT
ATOM      1  C   UNL d   1       0.687   2.113  -5.989  0.00  0.00     0.078 C 
ATOM      2  C1  UNL d   1      -0.418   3.127  -5.985  0.00  0.00    -0.077 A 
ATOM      3  C2  UNL d   1      -1.761   2.731  -5.990  0.00  0.00    -0.001 A 
ATOM      4  C3  UNL d   1      -2.778   3.687  -5.995  0.00  0.00     0.003 A 
ATOM      5  C4  UNL d   1      -2.463   5.044  -5.997  0.00  0.00    -0.005 A 
ATOM      6  C5  UNL d   1      -1.130   5.448  -5.993  0.00  0.00     0.003 A 
ATOM      7  C6  UNL d   1      -0.111   4.494  -5.988  0.00  0.00    -0.001 A 
ENDROOT
TORSDOF 0
ENDMDL
