MODEL 1
REMARK minimizedAffinity -2.23210406
REMARK minimizedRMSD -1
REMARK  0 active torsions:
REMARK  status: ('A' for Active; 'I' for Inactive)
ROOT
ATOM      1  C   UNL d   1      -5.261   3.752  -5.995  0.00  0.00     0.078 C 
ATOM      2  C1  UNL d   1      -3.829   4.196  -5.999  0.00  0.00    -0.077 A 
ATOM      3  C2  UNL d   1      -2.785   3.263  -5.989  0.00  0.00    -0.001 A 
ATOM      4  C3  UNL d   1      -1.456   3.690  -5.982  0.00  0.00     0.003 A 
ATOM      5  C4  UNL d   1      -1.159   5.052  -5.985  0.00  0.00    -0.005 A 
ATOM      6  C5  UNL d   1      -2.191   5.987  -5.993  0.00  0.00     0.003 A 
ATOM      7  C6  UNL d   1      -3.520   5.562  -5.999  0.00  0.00    -0.001 A 
ENDROOT
TORSDOF 0
ENDMDL
