MODEL 1
REMARK minimizedAffinity -2.59843302
REMARK minimizedRMSD -1
REMARK  0 active torsions:
REMARK  status: ('A' for Active; 'I' for Inactive)
ROOT
ATOM      1  C   UNL d   1       0.422   2.241  -5.999  0.00  0.00     0.078 C 
ATOM      2  C1  UNL d   1      -0.367   3.517  -5.990  0.00  0.00    -0.077 A 
ATOM      3  C2  UNL d   1      -1.767   3.499  -5.999  0.00  0.00    -0.001 A 
ATOM      4  C3  UNL d   1      -2.489   4.693  -6.000  0.00  0.00     0.003 A 
ATOM      5  C4  UNL d   1      -1.819   5.915  -5.993  0.00  0.00    -0.005 A 
ATOM      6  C5  UNL d   1      -0.426   5.943  -5.986  0.00  0.00     0.003 A 
ATOM      7  C6  UNL d   1       0.297   4.749  -5.985  0.00  0.00    -0.001 A 
ENDROOT
TORSDOF 0
ENDMDL
