MODEL 1
REMARK minimizedAffinity -2.80951428
REMARK minimizedRMSD -1
REMARK  0 active torsions:
REMARK  status: ('A' for Active; 'I' for Inactive)
ROOT
ATOM      1  C   UNL d   1      -2.888   3.012  -5.995  0.00  0.00     0.078 C 
ATOM      2  C1  UNL d   1      -1.462   3.476  -5.989  0.00  0.00    -0.077 A 
ATOM      3  C2  UNL d   1      -1.148   4.841  -5.996  0.00  0.00    -0.001 A 
ATOM      4  C3  UNL d   1       0.184   5.259  -6.000  0.00  0.00     0.003 A 
ATOM      5  C4  UNL d   1       1.212   4.318  -5.998  0.00  0.00    -0.005 A 
ATOM      6  C5  UNL d   1       0.909   2.958  -5.994  0.00  0.00     0.003 A 
ATOM      7  C6  UNL d   1      -0.422   2.539  -5.990  0.00  0.00    -0.001 A 
ENDROOT
TORSDOF 0
ENDMDL
