MODEL 1
REMARK minimizedAffinity -2.94867754
REMARK minimizedRMSD -1
REMARK  0 active torsions:
REMARK  status: ('A' for Active; 'I' for Inactive)
ROOT
ATOM      1  C   UNL d   1       0.033   2.625  -5.996  0.00  0.00     0.078 C 
ATOM      2  C1  UNL d   1      -1.059   3.653  -5.999  0.00  0.00    -0.077 A 
ATOM      3  C2  UNL d   1      -0.761   5.021  -5.991  0.00  0.00    -0.001 A 
ATOM      4  C3  UNL d   1      -1.788   5.966  -5.985  0.00  0.00     0.003 A 
ATOM      5  C4  UNL d   1      -3.119   5.554  -5.984  0.00  0.00    -0.005 A 
ATOM      6  C5  UNL d   1      -3.425   4.195  -5.990  0.00  0.00     0.003 A 
ATOM      7  C6  UNL d   1      -2.399   3.248  -5.997  0.00  0.00    -0.001 A 
ENDROOT
TORSDOF 0
ENDMDL
