MODEL 1
REMARK minimizedAffinity -2.86044431
REMARK minimizedRMSD -1
REMARK  0 active torsions:
REMARK  status: ('A' for Active; 'I' for Inactive)
ROOT
ATOM      1  C   UNL d   1      -4.135   3.003  -5.999  0.00  0.00     0.078 C 
ATOM      2  C1  UNL d   1      -2.959   3.851  -5.617  0.00  0.00    -0.077 A 
ATOM      3  C2  UNL d   1      -1.901   3.322  -4.867  0.00  0.00    -0.001 A 
ATOM      4  C3  UNL d   1      -0.817   4.125  -4.511  0.00  0.00     0.003 A 
ATOM      5  C4  UNL d   1      -0.781   5.463  -4.898  0.00  0.00    -0.005 A 
ATOM      6  C5  UNL d   1      -1.830   6.000  -5.642  0.00  0.00     0.003 A 
ATOM      7  C6  UNL d   1      -2.915   5.198  -5.999  0.00  0.00    -0.001 A 
ENDROOT
TORSDOF 0
ENDMDL
