MODEL 1
REMARK minimizedAffinity -1.03459787
REMARK minimizedRMSD -1
REMARK  0 active torsions:
REMARK  status: ('A' for Active; 'I' for Inactive)
ROOT
ATOM      1  C   UNL d   1       1.301   4.681  -5.995  0.00  0.00     0.078 C 
ATOM      2  C1  UNL d   1      -0.181   4.452  -5.989  0.00  0.00    -0.077 A 
ATOM      3  C2  UNL d   1      -0.710   3.155  -5.993  0.00  0.00    -0.001 A 
ATOM      4  C3  UNL d   1      -2.092   2.956  -5.997  0.00  0.00     0.003 A 
ATOM      5  C4  UNL d   1      -2.956   4.050  -5.999  0.00  0.00    -0.005 A 
ATOM      6  C5  UNL d   1      -2.439   5.343  -5.997  0.00  0.00     0.003 A 
ATOM      7  C6  UNL d   1      -1.058   5.544  -5.993  0.00  0.00    -0.001 A 
ENDROOT
TORSDOF 0
ENDMDL
