MODEL 1
REMARK minimizedAffinity -2.02476072
REMARK minimizedRMSD -1
REMARK  0 active torsions:
REMARK  status: ('A' for Active; 'I' for Inactive)
ROOT
ATOM      1  C   UNL d   1      -5.015   4.138  -5.959  0.00  0.00     0.078 C 
ATOM      2  C1  UNL d   1      -3.544   4.427  -5.960  0.00  0.00    -0.077 A 
ATOM      3  C2  UNL d   1      -3.068   5.744  -5.987  0.00  0.00    -0.001 A 
ATOM      4  C3  UNL d   1      -1.696   5.998  -5.997  0.00  0.00     0.003 A 
ATOM      5  C4  UNL d   1      -0.788   4.941  -5.981  0.00  0.00    -0.005 A 
ATOM      6  C5  UNL d   1      -1.252   3.628  -5.956  0.00  0.00     0.003 A 
ATOM      7  C6  UNL d   1      -2.624   3.371  -5.946  0.00  0.00    -0.001 A 
ENDROOT
TORSDOF 0
ENDMDL
