MODEL 1
REMARK minimizedAffinity -3.01735973
REMARK minimizedRMSD -1
REMARK  0 active torsions:
REMARK  status: ('A' for Active; 'I' for Inactive)
ROOT
ATOM      1  C   UNL d   1       0.415   2.251  -5.966  0.00  0.00     0.078 C 
ATOM      2  C1  UNL d   1      -0.676   3.280  -5.985  0.00  0.00    -0.077 A 
ATOM      3  C2  UNL d   1      -0.377   4.648  -5.984  0.00  0.00    -0.001 A 
ATOM      4  C3  UNL d   1      -1.403   5.595  -5.992  0.00  0.00     0.003 A 
ATOM      5  C4  UNL d   1      -2.734   5.184  -5.999  0.00  0.00    -0.005 A 
ATOM      6  C5  UNL d   1      -3.041   3.825  -5.997  0.00  0.00     0.003 A 
ATOM      7  C6  UNL d   1      -2.017   2.876  -5.989  0.00  0.00    -0.001 A 
ENDROOT
TORSDOF 0
ENDMDL
