MODEL 1
REMARK minimizedAffinity -5.77666521
REMARK minimizedRMSD -1
REMARK  0 active torsions:
REMARK  status: ('A' for Active; 'I' for Inactive)
ROOT
ATOM      1  C4' PXY d   1       1.890   1.458   0.619  0.00  0.00     0.077 C 
ATOM      2  C1' PXY d   1      -2.768  -1.912   0.014  0.00  0.00     0.077 C 
ATOM      3  C1  PXY d   1      -1.546  -1.031   0.186  0.00  0.00    -0.082 A 
ATOM      4  C2  PXY d   1      -1.315  -0.057  -0.680  0.00  0.00     0.003 A 
ATOM      5  C3  PXY d   1      -0.198   0.728  -0.559  0.00  0.00     0.003 A 
ATOM      6  C4  PXY d   1       0.664   0.550   0.490  0.00  0.00    -0.082 A 
ATOM      7  C5  PXY d   1       0.429  -0.434   1.384  0.00  0.00     0.003 A 
ATOM      8  C6  PXY d   1      -0.689  -1.247   1.220  0.00  0.00     0.003 A 
ENDROOT
TORSDOF 0
ENDMDL
