MODEL 1
REMARK minimizedAffinity -1.81200337
REMARK minimizedRMSD -1
REMARK  0 active torsions:
REMARK  status: ('A' for Active; 'I' for Inactive)
ROOT
ATOM      1  C4' PXY d   1       2.890   1.454   0.556  0.00  0.00     0.077 C 
ATOM      2  C1' PXY d   1      -2.325  -1.039   0.468  0.00  0.00     0.077 C 
ATOM      3  C1  PXY d   1      -0.956  -0.387   0.504  0.00  0.00    -0.082 A 
ATOM      4  C2  PXY d   1      -0.631   0.503  -0.419  0.00  0.00     0.003 A 
ATOM      5  C3  PXY d   1       0.614   1.078  -0.421  0.00  0.00     0.003 A 
ATOM      6  C4  PXY d   1       1.516   0.778   0.565  0.00  0.00    -0.082 A 
ATOM      7  C5  PXY d   1       1.188  -0.121   1.517  0.00  0.00     0.003 A 
ATOM      8  C6  PXY d   1      -0.066  -0.724   1.477  0.00  0.00     0.003 A 
ENDROOT
TORSDOF 0
ENDMDL
