MODEL 1
REMARK minimizedAffinity -1.67869067
REMARK minimizedRMSD -1
REMARK  0 active torsions:
REMARK  status: ('A' for Active; 'I' for Inactive)
ROOT
ATOM      1  C4' PXY d   1      -0.602  -0.276  -1.695  0.00  0.00     0.077 C 
ATOM      2  C1' PXY d   1       2.258   3.152   1.978  0.00  0.00     0.077 C 
ATOM      3  C1  PXY d   1       1.519   2.247   1.012  0.00  0.00    -0.082 A 
ATOM      4  C2  PXY d   1       0.385   2.657   0.469  0.00  0.00     0.003 A 
ATOM      5  C3  PXY d   1      -0.313   1.839  -0.382  0.00  0.00     0.003 A 
ATOM      6  C4  PXY d   1       0.183   0.608  -0.722  0.00  0.00    -0.082 A 
ATOM      7  C5  PXY d   1       1.345   0.187  -0.180  0.00  0.00     0.003 A 
ATOM      8  C6  PXY d   1       2.017   1.016   0.713  0.00  0.00     0.003 A 
ENDROOT
TORSDOF 0
ENDMDL
