MODEL 1
REMARK minimizedAffinity -2.97372198
REMARK minimizedRMSD -1
REMARK  0 active torsions:
REMARK  status: ('A' for Active; 'I' for Inactive)
ROOT
ATOM      1  C4' PXY d   1       1.631   0.398   0.047  0.00  0.00     0.077 C 
ATOM      2  C1' PXY d   1      -3.716  -1.794  -0.098  0.00  0.00     0.077 C 
ATOM      3  C1  PXY d   1      -2.313  -1.219  -0.073  0.00  0.00    -0.082 A 
ATOM      4  C2  PXY d   1      -1.552  -1.399   0.994  0.00  0.00     0.003 A 
ATOM      5  C3  PXY d   1      -0.293  -0.859   1.046  0.00  0.00     0.003 A 
ATOM      6  C4  PXY d   1       0.212  -0.173  -0.026  0.00  0.00    -0.082 A 
ATOM      7  C5  PXY d   1      -0.555   0.006  -1.123  0.00  0.00     0.003 A 
ATOM      8  C6  PXY d   1      -1.846  -0.515  -1.140  0.00  0.00     0.003 A 
ENDROOT
TORSDOF 0
ENDMDL
