MODEL 1
REMARK minimizedAffinity -4.36226034
REMARK minimizedRMSD -1
REMARK  0 active torsions:
REMARK  status: ('A' for Active; 'I' for Inactive)
ROOT
ATOM      1  C4' PXY d   1      -1.492   0.470  -3.800  0.00  0.00     0.077 C 
ATOM      2  C1' PXY d   1      -0.838  -1.385   1.636  0.00  0.00     0.077 C 
ATOM      3  C1  PXY d   1      -1.021  -0.905   0.209  0.00  0.00    -0.082 A 
ATOM      4  C2  PXY d   1       0.039  -0.570  -0.509  0.00  0.00     0.003 A 
ATOM      5  C3  PXY d   1      -0.111  -0.103  -1.789  0.00  0.00     0.003 A 
ATOM      6  C4  PXY d   1      -1.354  -0.029  -2.359  0.00  0.00    -0.082 A 
ATOM      7  C5  PXY d   1      -2.439  -0.379  -1.637  0.00  0.00     0.003 A 
ATOM      8  C6  PXY d   1      -2.269  -0.812  -0.324  0.00  0.00     0.003 A 
ENDROOT
TORSDOF 0
ENDMDL
