MODEL 1
REMARK minimizedAffinity -0.594265938
REMARK minimizedRMSD -1
REMARK  0 active torsions:
REMARK  status: ('A' for Active; 'I' for Inactive)
ROOT
ATOM      1  C4' PXY d   1       2.398   1.019  -0.530  0.00  0.00     0.077 C 
ATOM      2  C1' PXY d   1      -2.203  -1.569   1.826  0.00  0.00     0.077 C 
ATOM      3  C1  PXY d   1      -0.989  -0.895   1.218  0.00  0.00    -0.082 A 
ATOM      4  C2  PXY d   1      -1.151   0.152   0.425  0.00  0.00     0.003 A 
ATOM      5  C3  PXY d   1      -0.066   0.754  -0.159  0.00  0.00     0.003 A 
ATOM      6  C4  PXY d   1       1.201   0.312   0.114  0.00  0.00    -0.082 A 
ATOM      7  C5  PXY d   1       1.375  -0.748   0.930  0.00  0.00     0.003 A 
ATOM      8  C6  PXY d   1       0.258  -1.371   1.480  0.00  0.00     0.003 A 
ENDROOT
TORSDOF 0
ENDMDL
