MODEL 1
REMARK minimizedAffinity -3.67984295
REMARK minimizedRMSD -1
REMARK  0 active torsions:
REMARK  status: ('A' for Active; 'I' for Inactive)
ROOT
ATOM      1  C4' PXY d   1      -1.839  -1.480   2.077  0.00  0.00     0.077 C 
ATOM      2  C1' PXY d   1      -0.777   0.255  -3.334  0.00  0.00     0.077 C 
ATOM      3  C1  PXY d   1      -1.068  -0.202  -1.918  0.00  0.00    -0.082 A 
ATOM      4  C2  PXY d   1      -0.290   0.203  -0.927  0.00  0.00     0.003 A 
ATOM      5  C3  PXY d   1      -0.520  -0.227   0.354  0.00  0.00     0.003 A 
ATOM      6  C4  PXY d   1      -1.589  -1.036   0.633  0.00  0.00    -0.082 A 
ATOM      7  C5  PXY d   1      -2.393  -1.445  -0.371  0.00  0.00     0.003 A 
ATOM      8  C6  PXY d   1      -2.119  -1.031  -1.671  0.00  0.00     0.003 A 
ENDROOT
TORSDOF 0
ENDMDL
