MODEL 1
REMARK minimizedAffinity -4.33621597
REMARK minimizedRMSD -1
REMARK  0 active torsions:
REMARK  status: ('A' for Active; 'I' for Inactive)
ROOT
ATOM      1  C4' PXY d   1       2.057   0.696  -0.250  0.00  0.00     0.077 C 
ATOM      2  C1' PXY d   1      -3.416  -1.164  -0.330  0.00  0.00     0.077 C 
ATOM      3  C1  PXY d   1      -1.980  -0.677  -0.322  0.00  0.00    -0.082 A 
ATOM      4  C2  PXY d   1      -1.236  -0.853   0.758  0.00  0.00     0.003 A 
ATOM      5  C3  PXY d   1       0.054  -0.390   0.793  0.00  0.00     0.003 A 
ATOM      6  C4  PXY d   1       0.605   0.212  -0.306  0.00  0.00    -0.082 A 
ATOM      7  C5  PXY d   1      -0.144   0.385  -1.415  0.00  0.00     0.003 A 
ATOM      8  C6  PXY d   1      -1.465  -0.055  -1.417  0.00  0.00     0.003 A 
ENDROOT
TORSDOF 0
ENDMDL
