MODEL 1
REMARK minimizedAffinity -4.37523079
REMARK minimizedRMSD -1
REMARK  0 active torsions:
REMARK  status: ('A' for Active; 'I' for Inactive)
ROOT
ATOM      1  C4' PXY d   1      -2.265   1.160  -2.807  0.00  0.00     0.077 C 
ATOM      2  C1' PXY d   1      -0.861  -1.899   1.893  0.00  0.00     0.077 C 
ATOM      3  C1  PXY d   1      -1.239  -1.105   0.658  0.00  0.00    -0.082 A 
ATOM      4  C2  PXY d   1      -0.324  -0.370   0.047  0.00  0.00     0.003 A 
ATOM      5  C3  PXY d   1      -0.656   0.379  -1.052  0.00  0.00     0.003 A 
ATOM      6  C4  PXY d   1      -1.926   0.335  -1.562  0.00  0.00    -0.082 A 
ATOM      7  C5  PXY d   1      -2.863  -0.421  -0.951  0.00  0.00     0.003 A 
ATOM      8  C6  PXY d   1      -2.515  -1.142   0.188  0.00  0.00     0.003 A 
ENDROOT
TORSDOF 0
ENDMDL
