MODEL 1
REMARK minimizedAffinity -5.10762882
REMARK minimizedRMSD -1
REMARK  0 active torsions:
REMARK  status: ('A' for Active; 'I' for Inactive)
ROOT
ATOM      1  C4' PXY d   1       2.464   1.479  -0.145  0.00  0.00     0.077 C 
ATOM      2  C1' PXY d   1      -3.011  -0.308   0.351  0.00  0.00     0.077 C 
ATOM      3  C1  PXY d   1      -1.571   0.152   0.230  0.00  0.00    -0.082 A 
ATOM      4  C2  PXY d   1      -1.306   1.344  -0.279  0.00  0.00     0.003 A 
ATOM      5  C3  PXY d   1      -0.009   1.763  -0.425  0.00  0.00     0.003 A 
ATOM      6  C4  PXY d   1       1.026   0.976   0.004  0.00  0.00    -0.082 A 
ATOM      7  C5  PXY d   1       0.763  -0.237   0.535  0.00  0.00     0.003 A 
ATOM      8  C6  PXY d   1      -0.559  -0.661   0.636  0.00  0.00     0.003 A 
ENDROOT
TORSDOF 0
ENDMDL
