MODEL 1
REMARK minimizedAffinity -4.6228857
REMARK minimizedRMSD -1
REMARK  0 active torsions:
REMARK  status: ('A' for Active; 'I' for Inactive)
ROOT
ATOM      1  C4' PXY d   1       2.212   0.973   0.345  0.00  0.00     0.077 C 
ATOM      2  C1' PXY d   1      -2.963  -1.231  -0.985  0.00  0.00     0.077 C 
ATOM      3  C1  PXY d   1      -1.609  -0.654  -0.624  0.00  0.00    -0.082 A 
ATOM      4  C2  PXY d   1      -0.978   0.125  -1.487  0.00  0.00     0.003 A 
ATOM      5  C3  PXY d   1       0.262   0.629  -1.189  0.00  0.00     0.003 A 
ATOM      6  C4  PXY d   1       0.839   0.376   0.026  0.00  0.00    -0.082 A 
ATOM      7  C5  PXY d   1       0.197  -0.409   0.917  0.00  0.00     0.003 A 
ATOM      8  C6  PXY d   1      -1.043  -0.945   0.579  0.00  0.00     0.003 A 
ENDROOT
TORSDOF 0
ENDMDL
