MODEL 1
REMARK minimizedAffinity 0.612501144
REMARK minimizedRMSD -1
REMARK  0 active torsions:
REMARK  status: ('A' for Active; 'I' for Inactive)
ROOT
ATOM      1  C4' PXY d   1       5.123   3.461  -2.990  0.00  0.00     0.077 C 
ATOM      2  C1' PXY d   1       2.200   2.768   1.949  0.00  0.00     0.077 C 
ATOM      3  C1  PXY d   1       2.961   2.961   0.652  0.00  0.00    -0.082 A 
ATOM      4  C2  PXY d   1       3.456   1.909   0.021  0.00  0.00     0.003 A 
ATOM      5  C3  PXY d   1       4.173   2.068  -1.137  0.00  0.00     0.003 A 
ATOM      6  C4  PXY d   1       4.340   3.313  -1.682  0.00  0.00    -0.082 A 
ATOM      7  C5  PXY d   1       3.829   4.391  -1.050  0.00  0.00     0.003 A 
ATOM      8  C6  PXY d   1       3.139   4.211   0.145  0.00  0.00     0.003 A 
ENDROOT
TORSDOF 0
ENDMDL
