MODEL 1
REMARK minimizedAffinity -4.50783443
REMARK minimizedRMSD -1
REMARK  0 active torsions:
REMARK  status: ('A' for Active; 'I' for Inactive)
ROOT
ATOM      1  C4' PXY d   1      -3.254  -1.439   0.120  0.00  0.00     0.077 C 
ATOM      2  C1' PXY d   1       1.745   1.460  -0.038  0.00  0.00     0.077 C 
ATOM      3  C1  PXY d   1       0.430   0.707  -0.006  0.00  0.00    -0.082 A 
ATOM      4  C2  PXY d   1       0.062   0.080   1.099  0.00  0.00     0.003 A 
ATOM      5  C3  PXY d   1      -1.110  -0.633   1.135  0.00  0.00     0.003 A 
ATOM      6  C4  PXY d   1      -1.938  -0.658   0.045  0.00  0.00    -0.082 A 
ATOM      7  C5  PXY d   1      -1.575  -0.012  -1.083  0.00  0.00     0.003 A 
ATOM      8  C6  PXY d   1      -0.362   0.671  -1.112  0.00  0.00     0.003 A 
ENDROOT
TORSDOF 0
ENDMDL
