MODEL 1
REMARK minimizedAffinity -4.91194248
REMARK minimizedRMSD -1
REMARK  0 active torsions:
REMARK  status: ('A' for Active; 'I' for Inactive)
ROOT
ATOM      1  C4' PXY d   1      -1.491  -2.641   1.901  0.00  0.00     0.077 C 
ATOM      2  C1' PXY d   1      -1.643   1.345  -2.282  0.00  0.00     0.077 C 
ATOM      3  C1  PXY d   1      -1.616   0.301  -1.183  0.00  0.00    -0.082 A 
ATOM      4  C2  PXY d   1      -0.488   0.064  -0.534  0.00  0.00     0.003 A 
ATOM      5  C3  PXY d   1      -0.438  -0.899   0.441  0.00  0.00     0.003 A 
ATOM      6  C4  PXY d   1      -1.567  -1.590   0.791  0.00  0.00    -0.082 A 
ATOM      7  C5  PXY d   1      -2.725  -1.346   0.140  0.00  0.00     0.003 A 
ATOM      8  C6  PXY d   1      -2.745  -0.393  -0.874  0.00  0.00     0.003 A 
ENDROOT
TORSDOF 0
ENDMDL
