MODEL 1
REMARK minimizedAffinity -2.35230017
REMARK minimizedRMSD -1
REMARK  0 active torsions:
REMARK  status: ('A' for Active; 'I' for Inactive)
ROOT
ATOM      1  C4' PXY d   1       2.321   0.466  -0.488  0.00  0.00     0.077 C 
ATOM      2  C1' PXY d   1      -3.282  -0.838   0.080  0.00  0.00     0.077 C 
ATOM      3  C1  PXY d   1      -1.813  -0.497  -0.082  0.00  0.00    -0.082 A 
ATOM      4  C2  PXY d   1      -0.974  -0.731   0.913  0.00  0.00     0.003 A 
ATOM      5  C3  PXY d   1       0.351  -0.399   0.795  0.00  0.00     0.003 A 
ATOM      6  C4  PXY d   1       0.832   0.129  -0.373  0.00  0.00    -0.082 A 
ATOM      7  C5  PXY d   1      -0.016   0.361  -1.397  0.00  0.00     0.003 A 
ATOM      8  C6  PXY d   1      -1.365   0.056  -1.242  0.00  0.00     0.003 A 
ENDROOT
TORSDOF 0
ENDMDL
