MODEL 1
REMARK minimizedAffinity -4.1888485
REMARK minimizedRMSD -1
REMARK  0 active torsions:
REMARK  status: ('A' for Active; 'I' for Inactive)
ROOT
ATOM      1  C4' PXY d   1       3.040   1.945   0.883  0.00  0.00     0.077 C 
ATOM      2  C1' PXY d   1      -1.601  -0.878  -1.094  0.00  0.00     0.077 C 
ATOM      3  C1  PXY d   1      -0.386  -0.143  -0.564  0.00  0.00    -0.082 A 
ATOM      4  C2  PXY d   1       0.039   0.948  -1.180  0.00  0.00     0.003 A 
ATOM      5  C3  PXY d   1       1.155   1.607  -0.733  0.00  0.00     0.003 A 
ATOM      6  C4  PXY d   1       1.812   1.176   0.389  0.00  0.00    -0.082 A 
ATOM      7  C5  PXY d   1       1.377   0.070   1.030  0.00  0.00     0.003 A 
ATOM      8  C6  PXY d   1       0.267  -0.608   0.535  0.00  0.00     0.003 A 
ENDROOT
TORSDOF 0
ENDMDL
