MODEL 1
REMARK minimizedAffinity -1.80138934
REMARK minimizedRMSD -1
REMARK  0 active torsions:
REMARK  status: ('A' for Active; 'I' for Inactive)
ROOT
ATOM      1  C4' PXY d   1       3.220   2.236   0.180  0.00  0.00     0.077 C 
ATOM      2  C1' PXY d   1      -1.626  -0.887   0.601  0.00  0.00     0.077 C 
ATOM      3  C1  PXY d   1      -0.351  -0.074   0.502  0.00  0.00    -0.082 A 
ATOM      4  C2  PXY d   1      -0.356   1.073  -0.159  0.00  0.00     0.003 A 
ATOM      5  C3  PXY d   1       0.797   1.805  -0.286  0.00  0.00     0.003 A 
ATOM      6  C4  PXY d   1       1.953   1.386   0.315  0.00  0.00    -0.082 A 
ATOM      7  C5  PXY d   1       1.964   0.223   1.000  0.00  0.00     0.003 A 
ATOM      8  C6  PXY d   1       0.794  -0.526   1.082  0.00  0.00     0.003 A 
ENDROOT
TORSDOF 0
ENDMDL
