MODEL 1
REMARK minimizedAffinity -3.85002232
REMARK minimizedRMSD -1
REMARK  0 active torsions:
REMARK  status: ('A' for Active; 'I' for Inactive)
ROOT
ATOM      1  C4' PXY d   1      -3.249  -0.814  -0.730  0.00  0.00     0.077 C 
ATOM      2  C1' PXY d   1       2.150   0.974   0.306  0.00  0.00     0.077 C 
ATOM      3  C1  PXY d   1       0.732   0.515   0.025  0.00  0.00    -0.082 A 
ATOM      4  C2  PXY d   1       0.071  -0.166   0.947  0.00  0.00     0.003 A 
ATOM      5  C3  PXY d   1      -1.200  -0.617   0.698  0.00  0.00     0.003 A 
ATOM      6  C4  PXY d   1      -1.820  -0.322  -0.487  0.00  0.00    -0.082 A 
ATOM      7  C5  PXY d   1      -1.156   0.382  -1.428  0.00  0.00     0.003 A 
ATOM      8  C6  PXY d   1       0.149   0.795  -1.172  0.00  0.00     0.003 A 
ENDROOT
TORSDOF 0
ENDMDL
