MODEL 1
REMARK minimizedAffinity -3.79355741
REMARK minimizedRMSD -1
REMARK  0 active torsions:
REMARK  status: ('A' for Active; 'I' for Inactive)
ROOT
ATOM      1  C4' PXY d   1       2.738   0.291   0.070  0.00  0.00     0.077 C 
ATOM      2  C1' PXY d   1      -2.924  -0.748   0.597  0.00  0.00     0.077 C 
ATOM      3  C1  PXY d   1      -1.437  -0.479   0.471  0.00  0.00    -0.082 A 
ATOM      4  C2  PXY d   1      -0.998   0.336  -0.474  0.00  0.00     0.003 A 
ATOM      5  C3  PXY d   1       0.346   0.566  -0.622  0.00  0.00     0.003 A 
ATOM      6  C4  PXY d   1       1.245  -0.003   0.240  0.00  0.00    -0.082 A 
ATOM      7  C5  PXY d   1       0.803  -0.827   1.213  0.00  0.00     0.003 A 
ATOM      8  C6  PXY d   1      -0.561  -1.079   1.321  0.00  0.00     0.003 A 
ENDROOT
TORSDOF 0
ENDMDL
