MODEL 1
REMARK minimizedAffinity -4.13470268
REMARK minimizedRMSD -1
REMARK  3 active torsions:
REMARK  status: ('A' for Active; 'I' for Inactive)
REMARK    1  A    between atoms: C3'_2  and  C2'_3 
REMARK    2  A    between atoms: C2'_3  and  C1'_4 
REMARK    3  A    between atoms: C1'_4  and  C1_5 
ROOT
ATOM      1  C1  N4B d   1      -0.020  -0.301  -0.126  0.00  0.00    -0.075 A 
ATOM      2  C2  N4B d   1       0.404   0.195   1.126  0.00  0.00     0.002 A 
ATOM      3  C3  N4B d   1      -0.481   0.863   1.935  0.00  0.00     0.002 A 
ATOM      4  C4  N4B d   1      -1.785   1.064   1.508  0.00  0.00    -0.004 A 
ATOM      5  C5  N4B d   1      -2.194   0.560   0.308  0.00  0.00     0.002 A 
ATOM      6  C6  N4B d   1      -1.316  -0.118  -0.514  0.00  0.00     0.002 A 
ENDROOT
BRANCH   1   7
ATOM      7  C1' N4B d   1       0.933  -0.963  -1.083  0.00  0.00     0.057 C 
BRANCH   7   8
ATOM      8  C2' N4B d   1       0.435  -0.756  -2.510  0.00  0.00     0.009 C 
BRANCH   8   9
ATOM      9  C3' N4B d   1       1.360   0.144  -3.310  0.00  0.00     0.004 C 
ATOM     10  C4' N4B d   1       0.676   0.790  -4.478  0.00  0.00     0.003 C 
ENDBRANCH   8   9
ENDBRANCH   7   8
ENDBRANCH   1   7
TORSDOF 3
ENDMDL
