MODEL 1
REMARK minimizedAffinity -2.8144486
REMARK minimizedRMSD -1
REMARK  3 active torsions:
REMARK  status: ('A' for Active; 'I' for Inactive)
REMARK    1  A    between atoms: C3'_2  and  C2'_3 
REMARK    2  A    between atoms: C2'_3  and  C1'_4 
REMARK    3  A    between atoms: C1'_4  and  C1_5 
ROOT
ATOM      1  C1  N4B d   1      -0.341   0.670   0.690  0.00  0.00    -0.075 A 
ATOM      2  C2  N4B d   1      -1.162   0.198  -0.358  0.00  0.00     0.002 A 
ATOM      3  C3  N4B d   1      -0.631  -0.604  -1.338  0.00  0.00     0.002 A 
ATOM      4  C4  N4B d   1       0.716  -0.930  -1.303  0.00  0.00    -0.004 A 
ATOM      5  C5  N4B d   1       1.497  -0.490  -0.274  0.00  0.00     0.002 A 
ATOM      6  C6  N4B d   1       0.976   0.313   0.721  0.00  0.00     0.002 A 
ENDROOT
BRANCH   1   7
ATOM      7  C1' N4B d   1      -0.856   1.619   1.737  0.00  0.00     0.057 C 
BRANCH   7   8
ATOM      8  C2' N4B d   1      -1.422   0.817   2.905  0.00  0.00     0.009 C 
BRANCH   8   9
ATOM      9  C3' N4B d   1      -2.547  -0.106   2.468  0.00  0.00     0.004 C 
ATOM     10  C4' N4B d   1      -2.640  -1.346   3.306  0.00  0.00     0.003 C 
ENDBRANCH   8   9
ENDBRANCH   7   8
ENDBRANCH   1   7
TORSDOF 3
ENDMDL
