MODEL 1
REMARK minimizedAffinity -3.19973755
REMARK minimizedRMSD -1
REMARK  1 active torsions:
REMARK  status: ('A' for Active; 'I' for Inactive)
REMARK    1  A    between atoms: C3_4  and  O_7 
ROOT
ATOM      1  C   UNL d   1       3.006  -1.135  -0.102  0.00  0.00    -0.033 A 
ATOM      2  C1  UNL d   1       2.837   0.238   0.086  0.00  0.00     0.039 A 
ATOM      3  C2  UNL d   1       1.555   0.790   0.102  0.00  0.00    -0.080 A 
ATOM      4  C3  UNL d   1       0.451  -0.040  -0.070  0.00  0.00     0.150 A 
ATOM      5  C4  UNL d   1       0.611  -1.410  -0.254  0.00  0.00    -0.007 A 
ATOM      6  C5  UNL d   1       1.893  -1.959  -0.270  0.00  0.00     0.039 A 
ENDROOT
BRANCH   4   7
ATOM      7  O   UNL d   1      -0.819   0.453  -0.067  0.00  0.00    -0.526 OA
ATOM      8  H5  UNL d   1      -0.775   1.418   0.041  0.00  0.00     0.418 HD
ENDBRANCH   4   7
TORSDOF 1
ENDMDL
