MODEL 1
REMARK minimizedAffinity 0.301493049
REMARK minimizedRMSD -1
REMARK  1 active torsions:
REMARK  status: ('A' for Active; 'I' for Inactive)
REMARK    1  A    between atoms: C3_4  and  O_7 
ROOT
ATOM      1  C   UNL d   1       3.132  -1.778   1.140  0.00  0.00    -0.033 A 
ATOM      2  C1  UNL d   1       2.213  -1.691   0.093  0.00  0.00     0.039 A 
ATOM      3  C2  UNL d   1       1.746  -0.444  -0.327  0.00  0.00    -0.080 A 
ATOM      4  C3  UNL d   1       2.206   0.707   0.307  0.00  0.00     0.150 A 
ATOM      5  C4  UNL d   1       3.125   0.628   1.349  0.00  0.00    -0.007 A 
ATOM      6  C5  UNL d   1       3.589  -0.618   1.767  0.00  0.00     0.039 A 
ENDROOT
BRANCH   4   7
ATOM      7  O   UNL d   1       1.776   1.946  -0.065  0.00  0.00    -0.526 OA
ATOM      8  H5  UNL d   1       1.122   1.844  -0.777  0.00  0.00     0.418 HD
ENDBRANCH   4   7
TORSDOF 1
ENDMDL
