MODEL 1
REMARK minimizedAffinity -3.34554338
REMARK minimizedRMSD -1
REMARK  1 active torsions:
REMARK  status: ('A' for Active; 'I' for Inactive)
REMARK    1  A    between atoms: C3_4  and  O_7 
ROOT
ATOM      1  C   UNL d   1      -0.727   0.371  -0.388  0.00  0.00    -0.033 A 
ATOM      2  C1  UNL d   1      -0.803  -0.977  -0.742  0.00  0.00     0.039 A 
ATOM      3  C2  UNL d   1       0.246  -1.843  -0.430  0.00  0.00    -0.080 A 
ATOM      4  C3  UNL d   1       1.364  -1.350   0.236  0.00  0.00     0.150 A 
ATOM      5  C4  UNL d   1       1.446  -0.008   0.596  0.00  0.00    -0.007 A 
ATOM      6  C5  UNL d   1       0.397   0.855   0.282  0.00  0.00     0.039 A 
ENDROOT
BRANCH   4   7
ATOM      7  O   UNL d   1       2.416  -2.156   0.558  0.00  0.00    -0.526 OA
ATOM      8  H5  UNL d   1       2.232  -3.049   0.223  0.00  0.00     0.418 HD
ENDBRANCH   4   7
TORSDOF 1
ENDMDL
