MODEL 1
REMARK minimizedAffinity -1.83754134
REMARK minimizedRMSD -1
REMARK  1 active torsions:
REMARK  status: ('A' for Active; 'I' for Inactive)
REMARK    1  A    between atoms: C3_4  and  O_7 
ROOT
ATOM      1  C   UNL d   1      -4.467   1.464   1.637  0.00  0.00    -0.033 A 
ATOM      2  C1  UNL d   1      -4.402   0.702   0.468  0.00  0.00     0.039 A 
ATOM      3  C2  UNL d   1      -3.182   0.533  -0.190  0.00  0.00    -0.080 A 
ATOM      4  C3  UNL d   1      -2.037   1.129   0.330  0.00  0.00     0.150 A 
ATOM      5  C4  UNL d   1      -2.093   1.886   1.496  0.00  0.00    -0.007 A 
ATOM      6  C5  UNL d   1      -3.312   2.055   2.151  0.00  0.00     0.039 A 
ENDROOT
BRANCH   4   7
ATOM      7  O   UNL d   1      -0.825   0.996  -0.279  0.00  0.00    -0.526 OA
ATOM      8  H5  UNL d   1      -0.943   0.472  -1.089  0.00  0.00     0.418 HD
ENDBRANCH   4   7
TORSDOF 1
ENDMDL
