MODEL 1
REMARK minimizedAffinity -4.26993752
REMARK minimizedRMSD -1
REMARK  1 active torsions:
REMARK  status: ('A' for Active; 'I' for Inactive)
REMARK    1  A    between atoms: C3_4  and  O_7 
ROOT
ATOM      1  C   UNL d   1      -0.424   0.103  -0.614  0.00  0.00    -0.033 A 
ATOM      2  C1  UNL d   1       0.583   0.907  -0.077  0.00  0.00     0.039 A 
ATOM      3  C2  UNL d   1       1.716   0.322   0.493  0.00  0.00    -0.080 A 
ATOM      4  C3  UNL d   1       1.830  -1.065   0.518  0.00  0.00     0.150 A 
ATOM      5  C4  UNL d   1       0.831  -1.872  -0.019  0.00  0.00    -0.007 A 
ATOM      6  C5  UNL d   1      -0.299  -1.286  -0.586  0.00  0.00     0.039 A 
ENDROOT
BRANCH   4   7
ATOM      7  O   UNL d   1       2.914  -1.682   1.068  0.00  0.00    -0.526 OA
ATOM      8  H5  UNL d   1       3.508  -1.000   1.424  0.00  0.00     0.418 HD
ENDBRANCH   4   7
TORSDOF 1
ENDMDL
