MODEL 1
REMARK minimizedAffinity -3.89256859
REMARK minimizedRMSD -1
REMARK  1 active torsions:
REMARK  status: ('A' for Active; 'I' for Inactive)
REMARK    1  A    between atoms: C3_4  and  O_7 
ROOT
ATOM      1  C   UNL d   1      -1.247   1.120  -0.135  0.00  0.00    -0.033 A 
ATOM      2  C1  UNL d   1       0.015   1.666  -0.380  0.00  0.00     0.039 A 
ATOM      3  C2  UNL d   1       1.158   0.878  -0.232  0.00  0.00    -0.080 A 
ATOM      4  C3  UNL d   1       1.027  -0.451   0.159  0.00  0.00     0.150 A 
ATOM      5  C4  UNL d   1      -0.227  -1.002   0.400  0.00  0.00    -0.007 A 
ATOM      6  C5  UNL d   1      -1.368  -0.214   0.254  0.00  0.00     0.039 A 
ENDROOT
BRANCH   4   7
ATOM      7  O   UNL d   1       2.114  -1.257   0.320  0.00  0.00    -0.526 OA
ATOM      8  H5  UNL d   1       2.914  -0.734   0.147  0.00  0.00     0.418 HD
ENDBRANCH   4   7
TORSDOF 1
ENDMDL
