MODEL 1
REMARK minimizedAffinity -5.18591356
REMARK minimizedRMSD -1
REMARK  1 active torsions:
REMARK  status: ('A' for Active; 'I' for Inactive)
REMARK    1  A    between atoms: C3_4  and  O_7 
ROOT
ATOM      1  C   UNL d   1       2.583  -1.235   0.604  0.00  0.00    -0.033 A 
ATOM      2  C1  UNL d   1       1.606  -1.990  -0.048  0.00  0.00     0.039 A 
ATOM      3  C2  UNL d   1       0.354  -1.432  -0.317  0.00  0.00    -0.080 A 
ATOM      4  C3  UNL d   1       0.093  -0.120   0.069  0.00  0.00     0.150 A 
ATOM      5  C4  UNL d   1       1.063   0.639   0.716  0.00  0.00    -0.007 A 
ATOM      6  C5  UNL d   1       2.312   0.079   0.985  0.00  0.00     0.039 A 
ENDROOT
BRANCH   4   7
ATOM      7  O   UNL d   1      -1.115   0.466  -0.168  0.00  0.00    -0.526 OA
ATOM      8  H5  UNL d   1      -1.694  -0.187  -0.595  0.00  0.00     0.418 HD
ENDBRANCH   4   7
TORSDOF 1
ENDMDL
