MODEL 1
REMARK minimizedAffinity -3.37706184
REMARK minimizedRMSD -1
REMARK  1 active torsions:
REMARK  status: ('A' for Active; 'I' for Inactive)
REMARK    1  A    between atoms: C3_4  and  O_7 
ROOT
ATOM      1  C   UNL d   1      -0.390   1.441  -0.302  0.00  0.00    -0.033 A 
ATOM      2  C1  UNL d   1       0.830   2.042   0.014  0.00  0.00     0.039 A 
ATOM      3  C2  UNL d   1       1.927   1.255   0.369  0.00  0.00    -0.080 A 
ATOM      4  C3  UNL d   1       1.791  -0.130   0.404  0.00  0.00     0.150 A 
ATOM      5  C4  UNL d   1       0.580  -0.736   0.087  0.00  0.00    -0.007 A 
ATOM      6  C5  UNL d   1      -0.514   0.052  -0.267  0.00  0.00     0.039 A 
ENDROOT
BRANCH   4   7
ATOM      7  O   UNL d   1       2.832  -0.940   0.750  0.00  0.00    -0.526 OA
ATOM      8  H5  UNL d   1       3.596  -0.382   0.971  0.00  0.00     0.418 HD
ENDBRANCH   4   7
TORSDOF 1
ENDMDL
