MODEL 1
REMARK minimizedAffinity -3.28439808
REMARK minimizedRMSD -1
REMARK  0 active torsions:
REMARK  status: ('A' for Active; 'I' for Inactive)
ROOT
ATOM      1  C2' OXE d   1       2.766  -0.830   0.028  0.00  0.00     0.078 C 
ATOM      2  C1' OXE d   1       1.368  -0.737   2.460  0.00  0.00     0.078 C 
ATOM      3  C1  OXE d   1       0.639  -0.306   1.213  0.00  0.00    -0.078 A 
ATOM      4  C2  OXE d   1       1.345  -0.310   0.034  0.00  0.00    -0.078 A 
ATOM      5  C3  OXE d   1       0.703   0.026  -1.155  0.00  0.00     0.003 A 
ATOM      6  C4  OXE d   1      -0.609   0.515  -1.139  0.00  0.00    -0.002 A 
ATOM      7  C5  OXE d   1      -1.333   0.565   0.057  0.00  0.00    -0.002 A 
ATOM      8  C6  OXE d   1      -0.739   0.119   1.232  0.00  0.00     0.003 A 
ENDROOT
TORSDOF 0
ENDMDL
