MODEL 1
REMARK minimizedAffinity -0.707787037
REMARK minimizedRMSD -1
REMARK  0 active torsions:
REMARK  status: ('A' for Active; 'I' for Inactive)
ROOT
ATOM      1  C2' OXE d   1       0.287  -0.825   2.546  0.00  0.00     0.078 C 
ATOM      2  C1' OXE d   1      -2.035   0.443   1.609  0.00  0.00     0.078 C 
ATOM      3  C1  OXE d   1      -0.923   0.194   0.621  0.00  0.00    -0.078 A 
ATOM      4  C2  OXE d   1       0.228  -0.385   1.099  0.00  0.00    -0.078 A 
ATOM      5  C3  OXE d   1       1.264  -0.687   0.219  0.00  0.00     0.003 A 
ATOM      6  C4  OXE d   1       1.206  -0.267  -1.115  0.00  0.00    -0.002 A 
ATOM      7  C5  OXE d   1       0.058   0.360  -1.613  0.00  0.00    -0.002 A 
ATOM      8  C6  OXE d   1      -1.029   0.559  -0.770  0.00  0.00     0.003 A 
ENDROOT
TORSDOF 0
ENDMDL
