MODEL 1
REMARK minimizedAffinity -4.33653355
REMARK minimizedRMSD -1
REMARK  0 active torsions:
REMARK  status: ('A' for Active; 'I' for Inactive)
ROOT
ATOM      1  C2' OXE d   1      -0.517   0.586  -1.028  0.00  0.00     0.078 C 
ATOM      2  C1' OXE d   1      -2.191   0.301   1.207  0.00  0.00     0.078 C 
ATOM      3  C1  OXE d   1      -0.743  -0.092   1.358  0.00  0.00    -0.078 A 
ATOM      4  C2  OXE d   1       0.059   0.007   0.246  0.00  0.00    -0.078 A 
ATOM      5  C3  OXE d   1       1.415  -0.290   0.345  0.00  0.00     0.003 A 
ATOM      6  C4  OXE d   1       1.937  -0.834   1.525  0.00  0.00    -0.002 A 
ATOM      7  C5  OXE d   1       1.130  -0.980   2.658  0.00  0.00    -0.002 A 
ATOM      8  C6  OXE d   1      -0.199  -0.575   2.604  0.00  0.00     0.003 A 
ENDROOT
TORSDOF 0
ENDMDL
