MODEL 1
REMARK minimizedAffinity -3.40347862
REMARK minimizedRMSD -1
REMARK  0 active torsions:
REMARK  status: ('A' for Active; 'I' for Inactive)
ROOT
ATOM      1  C2' OXE d   1      -0.168   0.455   0.428  0.00  0.00     0.078 C 
ATOM      2  C1' OXE d   1       0.229  -0.695  -2.102  0.00  0.00     0.078 C 
ATOM      3  C1  OXE d   1      -0.072   0.781  -2.040  0.00  0.00    -0.078 A 
ATOM      4  C2  OXE d   1      -0.311   1.326  -0.801  0.00  0.00    -0.078 A 
ATOM      5  C3  OXE d   1      -0.539   2.694  -0.683  0.00  0.00     0.003 A 
ATOM      6  C4  OXE d   1      -0.679   3.491  -1.825  0.00  0.00    -0.002 A 
ATOM      7  C5  OXE d   1      -0.479   2.948  -3.099  0.00  0.00    -0.002 A 
ATOM      8  C6  OXE d   1      -0.133   1.607  -3.221  0.00  0.00     0.003 A 
ENDROOT
TORSDOF 0
ENDMDL
