MODEL 1
REMARK minimizedAffinity -5.34964228
REMARK minimizedRMSD -1
REMARK  0 active torsions:
REMARK  status: ('A' for Active; 'I' for Inactive)
ROOT
ATOM      1  C2' OXE d   1       2.397  -0.794  -0.375  0.00  0.00     0.078 C 
ATOM      2  C1' OXE d   1      -0.240  -0.169  -1.106  0.00  0.00     0.078 C 
ATOM      3  C1  OXE d   1       0.079  -0.258   0.365  0.00  0.00    -0.078 A 
ATOM      4  C2  OXE d   1       1.361  -0.611   0.713  0.00  0.00    -0.078 A 
ATOM      5  C3  OXE d   1       1.723  -0.654   2.057  0.00  0.00     0.003 A 
ATOM      6  C4  OXE d   1       0.757  -0.493   3.057  0.00  0.00    -0.002 A 
ATOM      7  C5  OXE d   1      -0.564  -0.173   2.723  0.00  0.00    -0.002 A 
ATOM      8  C6  OXE d   1      -0.908  -0.010   1.386  0.00  0.00     0.003 A 
ENDROOT
TORSDOF 0
ENDMDL
