MODEL 1
REMARK minimizedAffinity -4.04165459
REMARK minimizedRMSD -1
REMARK  2 active torsions:
REMARK  status: ('A' for Active; 'I' for Inactive)
REMARK    1  A    between atoms: C1_2  and  C2_3 
REMARK    2  A    between atoms: C2_3  and  C3_4 
ROOT
ATOM      1  C3  UNL d   1      -1.592   1.082   0.191  0.00  0.00    -0.075 A 
ATOM      2  C4  UNL d   1      -1.305   0.499   1.434  0.00  0.00     0.002 A 
ATOM      3  C5  UNL d   1      -2.333   0.192   2.326  0.00  0.00     0.002 A 
ATOM      4  C6  UNL d   1      -3.656   0.471   1.992  0.00  0.00    -0.004 A 
ATOM      5  C7  UNL d   1      -3.951   1.065   0.767  0.00  0.00     0.002 A 
ATOM      6  C8  UNL d   1      -2.925   1.370  -0.129  0.00  0.00     0.002 A 
ENDROOT
BRANCH   1   7
ATOM      7  C2  UNL d   1      -0.487   1.390  -0.791  0.00  0.00     0.056 C 
BRANCH   7   8
ATOM      8  C1  UNL d   1       0.918   1.067  -0.271  0.00  0.00     0.007 C 
ATOM      9  C   UNL d   1       1.954   0.942  -1.379  0.00  0.00     0.009 C 
ENDBRANCH   7   8
ENDBRANCH   1   7
TORSDOF 2
ENDMDL
