MODEL 1
REMARK minimizedAffinity -2.75148773
REMARK minimizedRMSD -1
REMARK  2 active torsions:
REMARK  status: ('A' for Active; 'I' for Inactive)
REMARK    1  A    between atoms: C1_2  and  C2_3 
REMARK    2  A    between atoms: C2_3  and  C3_4 
ROOT
ATOM      1  C3  UNL d   1       0.597  -0.272  -0.373  0.00  0.00    -0.075 A 
ATOM      2  C4  UNL d   1       1.616   0.329  -1.126  0.00  0.00     0.002 A 
ATOM      3  C5  UNL d   1       2.542  -0.454  -1.815  0.00  0.00     0.002 A 
ATOM      4  C6  UNL d   1       2.469  -1.844  -1.752  0.00  0.00    -0.004 A 
ATOM      5  C7  UNL d   1       1.471  -2.451  -0.993  0.00  0.00     0.002 A 
ATOM      6  C8  UNL d   1       0.539  -1.670  -0.306  0.00  0.00     0.002 A 
ENDROOT
BRANCH   1   7
ATOM      7  C2  UNL d   1      -0.427   0.570   0.351  0.00  0.00     0.056 C 
BRANCH   7   8
ATOM      8  C1  UNL d   1      -1.404  -0.239   1.211  0.00  0.00     0.007 C 
ATOM      9  C   UNL d   1      -2.392   0.631   1.977  0.00  0.00     0.009 C 
ENDBRANCH   7   8
ENDBRANCH   1   7
TORSDOF 2
ENDMDL
