MODEL 1
REMARK minimizedAffinity -4.03496599
REMARK minimizedRMSD -1
REMARK  2 active torsions:
REMARK  status: ('A' for Active; 'I' for Inactive)
REMARK    1  A    between atoms: C1_2  and  C2_3 
REMARK    2  A    between atoms: C2_3  and  C3_4 
ROOT
ATOM      1  C3  UNL d   1      -0.151   0.135   0.515  0.00  0.00    -0.075 A 
ATOM      2  C4  UNL d   1       0.329   1.361   0.033  0.00  0.00     0.002 A 
ATOM      3  C5  UNL d   1       1.360   1.399  -0.905  0.00  0.00     0.002 A 
ATOM      4  C6  UNL d   1       1.931   0.215  -1.365  0.00  0.00    -0.004 A 
ATOM      5  C7  UNL d   1       1.474  -1.009  -0.881  0.00  0.00     0.002 A 
ATOM      6  C8  UNL d   1       0.439  -1.050   0.055  0.00  0.00     0.002 A 
ENDROOT
BRANCH   1   7
ATOM      7  C2  UNL d   1      -1.287   0.086   1.509  0.00  0.00     0.056 C 
BRANCH   7   8
ATOM      8  C1  UNL d   1      -2.659   0.400   0.904  0.00  0.00     0.007 C 
ATOM      9  C   UNL d   1      -3.734   0.654   1.952  0.00  0.00     0.009 C 
ENDBRANCH   7   8
ENDBRANCH   1   7
TORSDOF 2
ENDMDL
