MODEL 1
REMARK minimizedAffinity 4.98195601
REMARK minimizedRMSD -1
REMARK  2 active torsions:
REMARK  status: ('A' for Active; 'I' for Inactive)
REMARK    1  A    between atoms: C1_2  and  C2_3 
REMARK    2  A    between atoms: C2_3  and  C3_4 
ROOT
ATOM      1  C3  UNL d   1      -3.386   2.450   2.824  0.00  0.00    -0.075 A 
ATOM      2  C4  UNL d   1      -2.328   1.957   3.603  0.00  0.00     0.002 A 
ATOM      3  C5  UNL d   1      -1.887   2.659   4.724  0.00  0.00     0.002 A 
ATOM      4  C6  UNL d   1      -2.489   3.866   5.076  0.00  0.00    -0.004 A 
ATOM      5  C7  UNL d   1      -3.529   4.373   4.301  0.00  0.00     0.002 A 
ATOM      6  C8  UNL d   1      -3.976   3.670   3.180  0.00  0.00     0.002 A 
ENDROOT
BRANCH   1   7
ATOM      7  C2  UNL d   1      -3.888   1.680   1.626  0.00  0.00     0.056 C 
BRANCH   7   8
ATOM      8  C1  UNL d   1      -3.914   0.161   1.828  0.00  0.00     0.007 C 
ATOM      9  C   UNL d   1      -3.676  -0.619   0.542  0.00  0.00     0.009 C 
ENDBRANCH   7   8
ENDBRANCH   1   7
TORSDOF 2
ENDMDL
