MODEL 1
REMARK minimizedAffinity -3.21408749
REMARK minimizedRMSD -1
REMARK  2 active torsions:
REMARK  status: ('A' for Active; 'I' for Inactive)
REMARK    1  A    between atoms: C1_2  and  C2_3 
REMARK    2  A    between atoms: C2_3  and  C3_4 
ROOT
ATOM      1  C3  UNL d   1      -1.579   0.210   1.149  0.00  0.00    -0.075 A 
ATOM      2  C4  UNL d   1      -1.801   1.181   2.136  0.00  0.00     0.002 A 
ATOM      3  C5  UNL d   1      -3.077   1.709   2.336  0.00  0.00     0.002 A 
ATOM      4  C6  UNL d   1      -4.143   1.282   1.547  0.00  0.00    -0.004 A 
ATOM      5  C7  UNL d   1      -3.930   0.330   0.552  0.00  0.00     0.002 A 
ATOM      6  C8  UNL d   1      -2.655  -0.203   0.353  0.00  0.00     0.002 A 
ENDROOT
BRANCH   1   7
ATOM      7  C2  UNL d   1      -0.207  -0.387   0.948  0.00  0.00     0.056 C 
BRANCH   7   8
ATOM      8  C1  UNL d   1       0.855   0.626   0.507  0.00  0.00     0.007 C 
ATOM      9  C   UNL d   1       0.668   1.107  -0.926  0.00  0.00     0.009 C 
ENDBRANCH   7   8
ENDBRANCH   1   7
TORSDOF 2
ENDMDL
