MODEL 1
REMARK minimizedAffinity -4.62304592
REMARK minimizedRMSD -1
REMARK  2 active torsions:
REMARK  status: ('A' for Active; 'I' for Inactive)
REMARK    1  A    between atoms: C1_2  and  C2_3 
REMARK    2  A    between atoms: C2_3  and  C3_4 
ROOT
ATOM      1  C3  UNL d   1      -0.079  -0.012   0.440  0.00  0.00    -0.075 A 
ATOM      2  C4  UNL d   1       0.454  -1.251   0.054  0.00  0.00     0.002 A 
ATOM      3  C5  UNL d   1       1.449  -1.321  -0.922  0.00  0.00     0.002 A 
ATOM      4  C6  UNL d   1       1.915  -0.158  -1.530  0.00  0.00    -0.004 A 
ATOM      5  C7  UNL d   1       1.381   1.077  -1.166  0.00  0.00     0.002 A 
ATOM      6  C8  UNL d   1       0.389   1.150  -0.187  0.00  0.00     0.002 A 
ENDROOT
BRANCH   1   7
ATOM      7  C2  UNL d   1      -1.135   0.073   1.516  0.00  0.00     0.056 C 
BRANCH   7   8
ATOM      8  C1  UNL d   1      -2.567  -0.107   1.001  0.00  0.00     0.007 C 
ATOM      9  C   UNL d   1      -3.477   1.067   1.335  0.00  0.00     0.009 C 
ENDBRANCH   7   8
ENDBRANCH   1   7
TORSDOF 2
ENDMDL
