MODEL 1
REMARK minimizedAffinity -3.52425814
REMARK minimizedRMSD -1
REMARK  2 active torsions:
REMARK  status: ('A' for Active; 'I' for Inactive)
REMARK    1  A    between atoms: C1_2  and  C2_3 
REMARK    2  A    between atoms: C2_3  and  C3_4 
ROOT
ATOM      1  C3  UNL d   1      -0.284   0.216   0.469  0.00  0.00    -0.075 A 
ATOM      2  C4  UNL d   1       0.424   1.322  -0.024  0.00  0.00     0.002 A 
ATOM      3  C5  UNL d   1       1.355   1.166  -1.051  0.00  0.00     0.002 A 
ATOM      4  C6  UNL d   1       1.598  -0.095  -1.590  0.00  0.00    -0.004 A 
ATOM      5  C7  UNL d   1       0.912  -1.203  -1.097  0.00  0.00     0.002 A 
ATOM      6  C8  UNL d   1      -0.024  -1.050  -0.073  0.00  0.00     0.002 A 
ENDROOT
BRANCH   1   7
ATOM      7  C2  UNL d   1      -1.315   0.382   1.560  0.00  0.00     0.056 C 
BRANCH   7   8
ATOM      8  C1  UNL d   1      -2.760   0.194   1.087  0.00  0.00     0.007 C 
ATOM      9  C   UNL d   1      -3.719   1.230   1.659  0.00  0.00     0.009 C 
ENDBRANCH   7   8
ENDBRANCH   1   7
TORSDOF 2
ENDMDL
