MODEL 1
REMARK minimizedAffinity -3.73349428
REMARK minimizedRMSD -1
REMARK  2 active torsions:
REMARK  status: ('A' for Active; 'I' for Inactive)
REMARK    1  A    between atoms: C1_2  and  C2_3 
REMARK    2  A    between atoms: C2_3  and  C3_4 
ROOT
ATOM      1  C3  UNL d   1       0.222  -0.380   0.205  0.00  0.00    -0.075 A 
ATOM      2  C4  UNL d   1       0.586  -1.716  -0.020  0.00  0.00     0.002 A 
ATOM      3  C5  UNL d   1       1.546  -2.036  -0.980  0.00  0.00     0.002 A 
ATOM      4  C6  UNL d   1       2.146  -1.028  -1.733  0.00  0.00    -0.004 A 
ATOM      5  C7  UNL d   1       1.779   0.300  -1.529  0.00  0.00     0.002 A 
ATOM      6  C8  UNL d   1       0.822   0.624  -0.566  0.00  0.00     0.002 A 
ENDROOT
BRANCH   1   7
ATOM      7  C2  UNL d   1      -0.796  -0.025   1.263  0.00  0.00     0.056 C 
BRANCH   7   8
ATOM      8  C1  UNL d   1      -2.245  -0.043   0.766  0.00  0.00     0.007 C 
ATOM      9  C   UNL d   1      -3.211   0.665   1.707  0.00  0.00     0.009 C 
ENDBRANCH   7   8
ENDBRANCH   1   7
TORSDOF 2
ENDMDL
