MODEL 1
REMARK minimizedAffinity -2.1866281
REMARK minimizedRMSD -1
REMARK  2 active torsions:
REMARK  status: ('A' for Active; 'I' for Inactive)
REMARK    1  A    between atoms: C1_2  and  C2_3 
REMARK    2  A    between atoms: C2_3  and  C3_4 
ROOT
ATOM      1  C3  UNL d   1       1.761  -0.836  -1.105  0.00  0.00    -0.075 A 
ATOM      2  C4  UNL d   1       1.716   0.322  -0.314  0.00  0.00     0.002 A 
ATOM      3  C5  UNL d   1       1.821   1.584  -0.900  0.00  0.00     0.002 A 
ATOM      4  C6  UNL d   1       1.982   1.704  -2.278  0.00  0.00    -0.004 A 
ATOM      5  C7  UNL d   1       2.044   0.560  -3.071  0.00  0.00     0.002 A 
ATOM      6  C8  UNL d   1       1.934  -0.704  -2.489  0.00  0.00     0.002 A 
ENDROOT
BRANCH   1   7
ATOM      7  C2  UNL d   1       1.618  -2.203  -0.480  0.00  0.00     0.056 C 
BRANCH   7   8
ATOM      8  C1  UNL d   1       0.528  -2.288   0.594  0.00  0.00     0.007 C 
ATOM      9  C   UNL d   1      -0.090  -3.675   0.714  0.00  0.00     0.009 C 
ENDBRANCH   7   8
ENDBRANCH   1   7
TORSDOF 2
ENDMDL
