MODEL 1
REMARK minimizedAffinity -2.74024391
REMARK minimizedRMSD -1
REMARK  2 active torsions:
REMARK  status: ('A' for Active; 'I' for Inactive)
REMARK    1  A    between atoms: C1_2  and  C2_3 
REMARK    2  A    between atoms: C2_3  and  C3_4 
ROOT
ATOM      1  C3  UNL d   1      -0.565  -0.258   0.974  0.00  0.00    -0.075 A 
ATOM      2  C4  UNL d   1       0.025   0.750   0.199  0.00  0.00     0.002 A 
ATOM      3  C5  UNL d   1       0.936   0.428  -0.808  0.00  0.00     0.002 A 
ATOM      4  C6  UNL d   1       1.275  -0.902  -1.046  0.00  0.00    -0.004 A 
ATOM      5  C7  UNL d   1       0.707  -1.911  -0.270  0.00  0.00     0.002 A 
ATOM      6  C8  UNL d   1      -0.207  -1.592   0.735  0.00  0.00     0.002 A 
ENDROOT
BRANCH   1   7
ATOM      7  C2  UNL d   1      -1.573   0.082   2.046  0.00  0.00     0.056 C 
BRANCH   7   8
ATOM      8  C1  UNL d   1      -3.023   0.110   1.551  0.00  0.00     0.007 C 
ATOM      9  C   UNL d   1      -3.628   1.508   1.545  0.00  0.00     0.009 C 
ENDBRANCH   7   8
ENDBRANCH   1   7
TORSDOF 2
ENDMDL
