MODEL 1
REMARK minimizedAffinity -3.25352812
REMARK minimizedRMSD -1
REMARK  0 active torsions:
REMARK  status: ('A' for Active; 'I' for Inactive)
ROOT
ATOM      1  O1  BZF d   1       0.520  -1.137  -2.323  0.00  0.00    -0.204 OA
ATOM      2  C2  BZF d   1       0.008  -2.323  -2.814  0.00  0.00     0.174 A 
ATOM      3  C3  BZF d   1      -0.620  -3.012  -1.840  0.00  0.00    -0.012 A 
ATOM      4  C3A BZF d   1      -0.575  -2.164  -0.689  0.00  0.00    -0.107 A 
ATOM      5  C4  BZF d   1      -1.045  -2.287   0.587  0.00  0.00     0.055 A 
ATOM      6  C5  BZF d   1      -0.769  -1.309   1.490  0.00  0.00    -0.016 A 
ATOM      7  C6  BZF d   1      -0.022  -0.199   1.152  0.00  0.00     0.022 A 
ATOM      8  C7  BZF d   1       0.462  -0.031  -0.102  0.00  0.00     0.029 A 
ATOM      9  C7A BZF d   1       0.156  -1.001  -1.025  0.00  0.00     0.058 A 
ENDROOT
TORSDOF 0
ENDMDL
