MODEL 1
REMARK minimizedAffinity -4.66367435
REMARK minimizedRMSD -1
REMARK  0 active torsions:
REMARK  status: ('A' for Active; 'I' for Inactive)
ROOT
ATOM      1  O1  BZF d   1       0.655   3.294   0.093  0.00  0.00    -0.204 OA
ATOM      2  C2  BZF d   1       1.619   3.575   1.041  0.00  0.00     0.174 A 
ATOM      3  C3  BZF d   1       2.047   2.444   1.638  0.00  0.00    -0.012 A 
ATOM      4  C3A BZF d   1       1.370   1.381   0.960  0.00  0.00    -0.107 A 
ATOM      5  C4  BZF d   1       1.390   0.022   1.088  0.00  0.00     0.055 A 
ATOM      6  C5  BZF d   1       0.555  -0.727   0.321  0.00  0.00    -0.016 A 
ATOM      7  C6  BZF d   1      -0.316  -0.149  -0.580  0.00  0.00     0.022 A 
ATOM      8  C7  BZF d   1      -0.369   1.195  -0.746  0.00  0.00     0.029 A 
ATOM      9  C7A BZF d   1       0.497   1.952   0.004  0.00  0.00     0.058 A 
ENDROOT
TORSDOF 0
ENDMDL
