MODEL 1
REMARK minimizedAffinity -2.25625992
REMARK minimizedRMSD -1
REMARK  0 active torsions:
REMARK  status: ('A' for Active; 'I' for Inactive)
ROOT
ATOM      1  O1  BZF d   1       0.384  -0.515  -0.275  0.00  0.00    -0.204 OA
ATOM      2  C2  BZF d   1      -0.817  -0.608   0.402  0.00  0.00     0.174 A 
ATOM      3  C3  BZF d   1      -1.076   0.533   1.073  0.00  0.00    -0.012 A 
ATOM      4  C3A BZF d   1      -0.013   1.425   0.725  0.00  0.00    -0.107 A 
ATOM      5  C4  BZF d   1       0.278   2.716   1.063  0.00  0.00     0.055 A 
ATOM      6  C5  BZF d   1       1.432   3.273   0.609  0.00  0.00    -0.016 A 
ATOM      7  C6  BZF d   1       2.318   2.568  -0.178  0.00  0.00     0.022 A 
ATOM      8  C7  BZF d   1       2.070   1.286  -0.543  0.00  0.00     0.029 A 
ATOM      9  C7A BZF d   1       0.889   0.731  -0.114  0.00  0.00     0.058 A 
ENDROOT
TORSDOF 0
ENDMDL
