MODEL 1
REMARK minimizedAffinity -5.10879326
REMARK minimizedRMSD -1
REMARK  0 active torsions:
REMARK  status: ('A' for Active; 'I' for Inactive)
ROOT
ATOM      1  O1  BZF d   1      -0.334  -2.686   1.071  0.00  0.00    -0.204 OA
ATOM      2  C2  BZF d   1       0.815  -2.956   0.352  0.00  0.00     0.174 A 
ATOM      3  C3  BZF d   1       1.232  -1.859  -0.312  0.00  0.00    -0.012 A 
ATOM      4  C3A BZF d   1       0.338  -0.815   0.086  0.00  0.00    -0.107 A 
ATOM      5  C4  BZF d   1       0.247   0.512  -0.222  0.00  0.00     0.055 A 
ATOM      6  C5  BZF d   1      -0.788   1.237   0.279  0.00  0.00    -0.016 A 
ATOM      7  C6  BZF d   1      -1.750   0.667   1.086  0.00  0.00     0.022 A 
ATOM      8  C7  BZF d   1      -1.700  -0.644   1.424  0.00  0.00     0.029 A 
ATOM      9  C7A BZF d   1      -0.637  -1.372   0.946  0.00  0.00     0.058 A 
ENDROOT
TORSDOF 0
ENDMDL
