MODEL 1
REMARK minimizedAffinity -4.34790993
REMARK minimizedRMSD -1
REMARK  0 active torsions:
REMARK  status: ('A' for Active; 'I' for Inactive)
ROOT
ATOM      1  O1  BZF d   1       1.465  -0.735   1.491  0.00  0.00    -0.204 OA
ATOM      2  C2  BZF d   1       0.508  -1.593   0.984  0.00  0.00     0.174 A 
ATOM      3  C3  BZF d   1      -0.344  -0.934   0.173  0.00  0.00    -0.012 A 
ATOM      4  C3A BZF d   1       0.164   0.402   0.100  0.00  0.00    -0.107 A 
ATOM      5  C4  BZF d   1      -0.240   1.525  -0.564  0.00  0.00     0.055 A 
ATOM      6  C5  BZF d   1       0.433   2.688  -0.364  0.00  0.00    -0.016 A 
ATOM      7  C6  BZF d   1       1.509   2.766   0.495  0.00  0.00     0.022 A 
ATOM      8  C7  BZF d   1       1.950   1.678   1.172  0.00  0.00     0.029 A 
ATOM      9  C7A BZF d   1       1.292   0.493   0.947  0.00  0.00     0.058 A 
ENDROOT
TORSDOF 0
ENDMDL
