MODEL 1
REMARK minimizedAffinity -1.49970281
REMARK minimizedRMSD -1
REMARK  0 active torsions:
REMARK  status: ('A' for Active; 'I' for Inactive)
ROOT
ATOM      1  O1  BZF d   1       0.304  -2.606  -0.655  0.00  0.00    -0.204 OA
ATOM      2  C2  BZF d   1      -0.748  -3.357  -0.166  0.00  0.00     0.174 A 
ATOM      3  C3  BZF d   1      -1.509  -2.625   0.672  0.00  0.00    -0.012 A 
ATOM      4  C3A BZF d   1      -0.949  -1.309   0.638  0.00  0.00    -0.107 A 
ATOM      5  C4  BZF d   1      -1.277  -0.133   1.249  0.00  0.00     0.055 A 
ATOM      6  C5  BZF d   1      -0.482   0.953   1.061  0.00  0.00    -0.016 A 
ATOM      7  C6  BZF d   1       0.648   0.898   0.273  0.00  0.00     0.022 A 
ATOM      8  C7  BZF d   1       1.011  -0.245  -0.358  0.00  0.00     0.029 A 
ATOM      9  C7A BZF d   1       0.192  -1.336  -0.196  0.00  0.00     0.058 A 
ENDROOT
TORSDOF 0
ENDMDL
