MODEL 1
REMARK minimizedAffinity -2.88434029
REMARK minimizedRMSD -1
REMARK  0 active torsions:
REMARK  status: ('A' for Active; 'I' for Inactive)
ROOT
ATOM      1  O1  BZF d   1       0.007   0.427  -0.902  0.00  0.00    -0.204 OA
ATOM      2  C2  BZF d   1      -0.342   0.871   0.359  0.00  0.00     0.174 A 
ATOM      3  C3  BZF d   1      -0.918  -0.118   1.072  0.00  0.00    -0.012 A 
ATOM      4  C3A BZF d   1      -0.846  -1.277   0.235  0.00  0.00    -0.107 A 
ATOM      5  C4  BZF d   1      -1.239  -2.575   0.393  0.00  0.00     0.055 A 
ATOM      6  C5  BZF d   1      -1.091  -3.441  -0.644  0.00  0.00    -0.016 A 
ATOM      7  C6  BZF d   1      -0.560  -3.041  -1.853  0.00  0.00     0.022 A 
ATOM      8  C7  BZF d   1      -0.152  -1.765  -2.056  0.00  0.00     0.029 A 
ATOM      9  C7A BZF d   1      -0.270  -0.896  -0.999  0.00  0.00     0.058 A 
ENDROOT
TORSDOF 0
ENDMDL
