MODEL 1
REMARK minimizedAffinity -0.0753100216
REMARK minimizedRMSD -1
REMARK  0 active torsions:
REMARK  status: ('A' for Active; 'I' for Inactive)
ROOT
ATOM      1  O1  BZF d   1       0.054  -0.559  -2.291  0.00  0.00    -0.204 OA
ATOM      2  C2  BZF d   1       0.506  -1.861  -2.189  0.00  0.00     0.174 A 
ATOM      3  C3  BZF d   1       0.915  -2.128  -0.932  0.00  0.00    -0.012 A 
ATOM      4  C3A BZF d   1       0.619  -0.947  -0.181  0.00  0.00    -0.107 A 
ATOM      5  C4  BZF d   1       0.779  -0.604   1.131  0.00  0.00     0.055 A 
ATOM      6  C5  BZF d   1       0.456   0.654   1.530  0.00  0.00    -0.016 A 
ATOM      7  C6  BZF d   1      -0.024   1.595   0.643  0.00  0.00     0.022 A 
ATOM      8  C7  BZF d   1      -0.205   1.301  -0.668  0.00  0.00     0.029 A 
ATOM      9  C7A BZF d   1       0.090   0.020  -1.067  0.00  0.00     0.058 A 
ENDROOT
TORSDOF 0
ENDMDL
