MODEL 1
REMARK minimizedAffinity -1.68799722
REMARK minimizedRMSD -1
REMARK  0 active torsions:
REMARK  status: ('A' for Active; 'I' for Inactive)
ROOT
ATOM      1  O1  BZF d   1       0.408   0.289  -2.685  0.00  0.00    -0.204 OA
ATOM      2  C2  BZF d   1       0.779  -0.908  -3.268  0.00  0.00     0.174 A 
ATOM      3  C3  BZF d   1       0.867  -1.884  -2.342  0.00  0.00    -0.012 A 
ATOM      4  C3A BZF d   1       0.441  -1.280  -1.117  0.00  0.00    -0.107 A 
ATOM      5  C4  BZF d   1       0.295  -1.746   0.158  0.00  0.00     0.055 A 
ATOM      6  C5  BZF d   1      -0.072  -0.881   1.140  0.00  0.00    -0.016 A 
ATOM      7  C6  BZF d   1      -0.295   0.456   0.883  0.00  0.00     0.022 A 
ATOM      8  C7  BZF d   1      -0.168   0.963  -0.367  0.00  0.00     0.029 A 
ATOM      9  C7A BZF d   1       0.171   0.085  -1.367  0.00  0.00     0.058 A 
ENDROOT
TORSDOF 0
ENDMDL
