MODEL 1
REMARK minimizedAffinity -0.963099539
REMARK minimizedRMSD -1
REMARK  0 active torsions:
REMARK  status: ('A' for Active; 'I' for Inactive)
ROOT
ATOM      1  O1  BZF d   1       0.893   1.553   0.993  0.00  0.00    -0.204 OA
ATOM      2  C2  BZF d   1       0.436   2.230  -0.122  0.00  0.00     0.174 A 
ATOM      3  C3  BZF d   1      -0.368   1.441  -0.864  0.00  0.00    -0.012 A 
ATOM      4  C3A BZF d   1      -0.491   0.224  -0.121  0.00  0.00    -0.107 A 
ATOM      5  C4  BZF d   1      -1.172  -0.940  -0.333  0.00  0.00     0.055 A 
ATOM      6  C5  BZF d   1      -1.023  -1.963   0.550  0.00  0.00    -0.016 A 
ATOM      7  C6  BZF d   1      -0.197  -1.858   1.650  0.00  0.00     0.022 A 
ATOM      8  C7  BZF d   1       0.495  -0.721   1.904  0.00  0.00     0.029 A 
ATOM      9  C7A BZF d   1       0.321   0.326   1.032  0.00  0.00     0.058 A 
ENDROOT
TORSDOF 0
ENDMDL
