MODEL 1
REMARK minimizedAffinity -5.38987255
REMARK minimizedRMSD -1
REMARK  0 active torsions:
REMARK  status: ('A' for Active; 'I' for Inactive)
ROOT
ATOM      1  O1  BZF d   1      -0.157  -1.189  -2.612  0.00  0.00    -0.204 OA
ATOM      2  C2  BZF d   1      -0.192  -2.522  -2.972  0.00  0.00     0.174 A 
ATOM      3  C3  BZF d   1      -0.188  -3.313  -1.880  0.00  0.00    -0.012 A 
ATOM      4  C3A BZF d   1      -0.240  -2.416  -0.766  0.00  0.00    -0.107 A 
ATOM      5  C4  BZF d   1      -0.276  -2.601   0.586  0.00  0.00     0.055 A 
ATOM      6  C5  BZF d   1      -0.249  -1.514   1.402  0.00  0.00    -0.016 A 
ATOM      7  C6  BZF d   1      -0.181  -0.231   0.900  0.00  0.00     0.022 A 
ATOM      8  C7  BZF d   1      -0.149   0.002  -0.435  0.00  0.00     0.029 A 
ATOM      9  C7A BZF d   1      -0.209  -1.093  -1.262  0.00  0.00     0.058 A 
ENDROOT
TORSDOF 0
ENDMDL
