MODEL 1
REMARK minimizedAffinity -5.33321381
REMARK minimizedRMSD -1
REMARK  0 active torsions:
REMARK  status: ('A' for Active; 'I' for Inactive)
ROOT
ATOM      1  O1  BZF d   1       1.894   1.832  -0.621  0.00  0.00    -0.204 OA
ATOM      2  C2  BZF d   1       1.380   3.051  -0.221  0.00  0.00     0.174 A 
ATOM      3  C3  BZF d   1       0.237   2.884   0.473  0.00  0.00    -0.012 A 
ATOM      4  C3A BZF d   1       0.070   1.467   0.590  0.00  0.00    -0.107 A 
ATOM      5  C4  BZF d   1      -0.871   0.679   1.186  0.00  0.00     0.055 A 
ATOM      6  C5  BZF d   1      -0.782  -0.671   1.054  0.00  0.00    -0.016 A 
ATOM      7  C6  BZF d   1       0.231  -1.264   0.330  0.00  0.00     0.022 A 
ATOM      8  C7  BZF d   1       1.191  -0.523  -0.275  0.00  0.00     0.029 A 
ATOM      9  C7A BZF d   1       1.122   0.839  -0.116  0.00  0.00     0.058 A 
ENDROOT
TORSDOF 0
ENDMDL
