MODEL 1
REMARK minimizedAffinity 0.943231463
REMARK minimizedRMSD -1
REMARK  0 active torsions:
REMARK  status: ('A' for Active; 'I' for Inactive)
ROOT
ATOM      1  O1  BZF d   1      -0.105  -1.827  -2.359  0.00  0.00    -0.204 OA
ATOM      2  C2  BZF d   1      -0.345  -3.169  -2.584  0.00  0.00     0.174 A 
ATOM      3  C3  BZF d   1      -0.627  -3.805  -1.428  0.00  0.00    -0.012 A 
ATOM      4  C3A BZF d   1      -0.650  -2.779  -0.430  0.00  0.00    -0.107 A 
ATOM      5  C4  BZF d   1      -0.891  -2.783   0.914  0.00  0.00     0.055 A 
ATOM      6  C5  BZF d   1      -0.763  -1.623   1.610  0.00  0.00    -0.016 A 
ATOM      7  C6  BZF d   1      -0.392  -0.444   0.997  0.00  0.00     0.022 A 
ATOM      8  C7  BZF d   1      -0.148  -0.391  -0.335  0.00  0.00     0.029 A 
ATOM      9  C7A BZF d   1      -0.308  -1.554  -1.048  0.00  0.00     0.058 A 
ENDROOT
TORSDOF 0
ENDMDL
