MODEL 1
REMARK minimizedAffinity -3.57109904
REMARK minimizedRMSD -1
REMARK  0 active torsions:
REMARK  status: ('A' for Active; 'I' for Inactive)
ROOT
ATOM      1  O1  BZF d   1       1.070   1.865  -0.893  0.00  0.00    -0.204 OA
ATOM      2  C2  BZF d   1       1.753   2.671  -0.003  0.00  0.00     0.174 A 
ATOM      3  C3  BZF d   1       1.985   2.017   1.154  0.00  0.00    -0.012 A 
ATOM      4  C3A BZF d   1       1.493   0.691   0.941  0.00  0.00    -0.107 A 
ATOM      5  C4  BZF d   1       1.453  -0.432   1.718  0.00  0.00     0.055 A 
ATOM      6  C5  BZF d   1       0.838  -1.545   1.239  0.00  0.00    -0.016 A 
ATOM      7  C6  BZF d   1       0.249  -1.570  -0.008  0.00  0.00     0.022 A 
ATOM      8  C7  BZF d   1       0.268  -0.482  -0.817  0.00  0.00     0.029 A 
ATOM      9  C7A BZF d   1       0.917   0.634  -0.349  0.00  0.00     0.058 A 
ENDROOT
TORSDOF 0
ENDMDL
