MODEL 1
REMARK minimizedAffinity -3.05062103
REMARK minimizedRMSD -1
REMARK  0 active torsions:
REMARK  status: ('A' for Active; 'I' for Inactive)
ROOT
ATOM      1  O1  BZF d   1       2.773  -1.087   1.274  0.00  0.00    -0.204 OA
ATOM      2  C2  BZF d   1       3.570  -0.097   1.815  0.00  0.00     0.174 A 
ATOM      3  C3  BZF d   1       3.005   1.116   1.651  0.00  0.00    -0.012 A 
ATOM      4  C3A BZF d   1       1.733   0.860   1.046  0.00  0.00    -0.107 A 
ATOM      5  C4  BZF d   1       0.702   1.664   0.651  0.00  0.00     0.055 A 
ATOM      6  C5  BZF d   1      -0.368   1.106   0.027  0.00  0.00    -0.016 A 
ATOM      7  C6  BZF d   1      -0.438  -0.249  -0.223  0.00  0.00     0.022 A 
ATOM      8  C7  BZF d   1       0.558  -1.087   0.155  0.00  0.00     0.029 A 
ATOM      9  C7A BZF d   1       1.626  -0.531   0.815  0.00  0.00     0.058 A 
ENDROOT
TORSDOF 0
ENDMDL
