MODEL 1
REMARK minimizedAffinity -5.43185902
REMARK minimizedRMSD -1
REMARK  0 active torsions:
REMARK  status: ('A' for Active; 'I' for Inactive)
ROOT
ATOM      1  O1  BZF d   1       1.554  -1.426   0.247  0.00  0.00    -0.204 OA
ATOM      2  C2  BZF d   1       2.763  -0.812   0.511  0.00  0.00     0.174 A 
ATOM      3  C3  BZF d   1       2.614   0.526   0.585  0.00  0.00    -0.012 A 
ATOM      4  C3A BZF d   1       1.209   0.757   0.445  0.00  0.00    -0.107 A 
ATOM      5  C4  BZF d   1       0.437   1.883   0.451  0.00  0.00     0.055 A 
ATOM      6  C5  BZF d   1      -0.897   1.771   0.215  0.00  0.00    -0.016 A 
ATOM      7  C6  BZF d   1      -1.490   0.551  -0.035  0.00  0.00     0.022 A 
ATOM      8  C7  BZF d   1      -0.766  -0.595  -0.046  0.00  0.00     0.029 A 
ATOM      9  C7A BZF d   1       0.576  -0.489   0.224  0.00  0.00     0.058 A 
ENDROOT
TORSDOF 0
ENDMDL
