MODEL 1
REMARK minimizedAffinity -6.56280899
REMARK minimizedRMSD -1
REMARK  0 active torsions:
REMARK  status: ('A' for Active; 'I' for Inactive)
ROOT
ATOM      1  O1  BZF d   1      -0.347   0.515   0.545  0.00  0.00    -0.204 OA
ATOM      2  C2  BZF d   1      -1.177  -0.482   1.018  0.00  0.00     0.174 A 
ATOM      3  C3  BZF d   1      -0.460  -1.558   1.403  0.00  0.00    -0.012 A 
ATOM      4  C3A BZF d   1       0.909  -1.176   1.241  0.00  0.00    -0.107 A 
ATOM      5  C4  BZF d   1       2.095  -1.812   1.472  0.00  0.00     0.055 A 
ATOM      6  C5  BZF d   1       3.255  -1.188   1.139  0.00  0.00    -0.016 A 
ATOM      7  C6  BZF d   1       3.266   0.068   0.569  0.00  0.00     0.022 A 
ATOM      8  C7  BZF d   1       2.116   0.741   0.326  0.00  0.00     0.029 A 
ATOM      9  C7A BZF d   1       0.943   0.126   0.691  0.00  0.00     0.058 A 
ENDROOT
TORSDOF 0
ENDMDL
