MODEL 1
REMARK minimizedAffinity 2.97613335
REMARK minimizedRMSD -1
REMARK  0 active torsions:
REMARK  status: ('A' for Active; 'I' for Inactive)
ROOT
ATOM      1  O1  BZF d   1      -1.980  -1.048  -2.581  0.00  0.00    -0.204 OA
ATOM      2  C2  BZF d   1      -2.393  -0.001  -3.382  0.00  0.00     0.174 A 
ATOM      3  C3  BZF d   1      -2.049   1.183  -2.837  0.00  0.00    -0.012 A 
ATOM      4  C3A BZF d   1      -1.296   0.854  -1.666  0.00  0.00    -0.107 A 
ATOM      5  C4  BZF d   1      -0.670   1.602  -0.711  0.00  0.00     0.055 A 
ATOM      6  C5  BZF d   1      -0.086   0.974   0.343  0.00  0.00    -0.016 A 
ATOM      7  C6  BZF d   1      -0.115  -0.399   0.477  0.00  0.00     0.022 A 
ATOM      8  C7  BZF d   1      -0.720  -1.184  -0.447  0.00  0.00     0.029 A 
ATOM      9  C7A BZF d   1      -1.282  -0.554  -1.531  0.00  0.00     0.058 A 
ENDROOT
TORSDOF 0
ENDMDL
