MODEL 1
REMARK minimizedAffinity -3.77729726
REMARK minimizedRMSD -1
REMARK  0 active torsions:
REMARK  status: ('A' for Active; 'I' for Inactive)
ROOT
ATOM      1  O1  BZF d   1       2.466   1.170   0.724  0.00  0.00    -0.204 OA
ATOM      2  C2  BZF d   1       2.911  -0.135   0.645  0.00  0.00     0.174 A 
ATOM      3  C3  BZF d   1       1.883  -0.978   0.421  0.00  0.00    -0.012 A 
ATOM      4  C3A BZF d   1       0.735  -0.139   0.263  0.00  0.00    -0.107 A 
ATOM      5  C4  BZF d   1      -0.582  -0.388   0.003  0.00  0.00     0.055 A 
ATOM      6  C5  BZF d   1      -1.459   0.650  -0.016  0.00  0.00    -0.016 A 
ATOM      7  C6  BZF d   1      -1.055   1.947   0.224  0.00  0.00     0.022 A 
ATOM      8  C7  BZF d   1       0.242   2.244   0.481  0.00  0.00     0.029 A 
ATOM      9  C7A BZF d   1       1.136   1.202   0.469  0.00  0.00     0.058 A 
ENDROOT
TORSDOF 0
ENDMDL
