MODEL 1
REMARK minimizedAffinity -4.55128193
REMARK minimizedRMSD -1
REMARK  0 active torsions:
REMARK  status: ('A' for Active; 'I' for Inactive)
ROOT
ATOM      1  O1  BZF d   1      -0.969  -0.702   0.642  0.00  0.00    -0.204 OA
ATOM      2  C2  BZF d   1      -1.765   0.387   0.345  0.00  0.00     0.174 A 
ATOM      3  C3  BZF d   1      -1.018   1.501   0.199  0.00  0.00    -0.012 A 
ATOM      4  C3A BZF d   1       0.338   1.063   0.327  0.00  0.00    -0.107 A 
ATOM      5  C4  BZF d   1       1.542   1.704   0.262  0.00  0.00     0.055 A 
ATOM      6  C5  BZF d   1       2.679   1.001   0.504  0.00  0.00    -0.016 A 
ATOM      7  C6  BZF d   1       2.649  -0.342   0.819  0.00  0.00     0.022 A 
ATOM      8  C7  BZF d   1       1.479  -1.022   0.891  0.00  0.00     0.029 A 
ATOM      9  C7A BZF d   1       0.331  -0.322   0.614  0.00  0.00     0.058 A 
ENDROOT
TORSDOF 0
ENDMDL
