MODEL 1
REMARK minimizedAffinity -4.99438381
REMARK minimizedRMSD -1
REMARK  0 active torsions:
REMARK  status: ('A' for Active; 'I' for Inactive)
ROOT
ATOM      1  O1  BZF d   1       2.818   0.546   0.703  0.00  0.00    -0.204 OA
ATOM      2  C2  BZF d   1       3.145  -0.794   0.616  0.00  0.00     0.174 A 
ATOM      3  C3  BZF d   1       2.040  -1.545   0.430  0.00  0.00    -0.012 A 
ATOM      4  C3A BZF d   1       0.966  -0.608   0.305  0.00  0.00    -0.107 A 
ATOM      5  C4  BZF d   1      -0.376  -0.742   0.090  0.00  0.00     0.055 A 
ATOM      6  C5  BZF d   1      -1.160   0.368   0.094  0.00  0.00    -0.016 A 
ATOM      7  C6  BZF d   1      -0.637   1.625   0.315  0.00  0.00     0.022 A 
ATOM      8  C7  BZF d   1       0.689   1.809   0.528  0.00  0.00     0.029 A 
ATOM      9  C7A BZF d   1       1.488   0.692   0.492  0.00  0.00     0.058 A 
ENDROOT
TORSDOF 0
ENDMDL
