MODEL 1
REMARK minimizedAffinity -3.96277332
REMARK minimizedRMSD -1
REMARK  0 active torsions:
REMARK  status: ('A' for Active; 'I' for Inactive)
ROOT
ATOM      1  O1  BZF d   1       2.757  -1.221   0.512  0.00  0.00    -0.204 OA
ATOM      2  C2  BZF d   1       3.491  -0.086   0.800  0.00  0.00     0.174 A 
ATOM      3  C3  BZF d   1       2.708   1.011   0.769  0.00  0.00    -0.012 A 
ATOM      4  C3A BZF d   1       1.385   0.522   0.532  0.00  0.00    -0.107 A 
ATOM      5  C4  BZF d   1       0.167   1.129   0.412  0.00  0.00     0.055 A 
ATOM      6  C5  BZF d   1      -0.921   0.373   0.109  0.00  0.00    -0.016 A 
ATOM      7  C6  BZF d   1      -0.826  -0.989  -0.087  0.00  0.00     0.022 A 
ATOM      8  C7  BZF d   1       0.359  -1.636   0.027  0.00  0.00     0.029 A 
ATOM      9  C7A BZF d   1       1.454  -0.880   0.366  0.00  0.00     0.058 A 
ENDROOT
TORSDOF 0
ENDMDL
