MODEL 1
REMARK minimizedAffinity -1.4902693
REMARK minimizedRMSD -1
REMARK  0 active torsions:
REMARK  status: ('A' for Active; 'I' for Inactive)
ROOT
ATOM      1  O1  BZF d   1      -3.295   0.257  -1.626  0.00  0.00    -0.204 OA
ATOM      2  C2  BZF d   1      -3.073   0.072  -2.977  0.00  0.00     0.174 A 
ATOM      3  C3  BZF d   1      -1.755  -0.053  -3.232  0.00  0.00    -0.012 A 
ATOM      4  C3A BZF d   1      -1.120  -0.031  -1.950  0.00  0.00    -0.107 A 
ATOM      5  C4  BZF d   1       0.181  -0.131  -1.545  0.00  0.00     0.055 A 
ATOM      6  C5  BZF d   1       0.473   0.002  -0.224  0.00  0.00    -0.016 A 
ATOM      7  C6  BZF d   1      -0.508   0.240   0.716  0.00  0.00     0.022 A 
ATOM      8  C7  BZF d   1      -1.813   0.342   0.362  0.00  0.00     0.029 A 
ATOM      9  C7A BZF d   1      -2.115   0.175  -0.967  0.00  0.00     0.058 A 
ENDROOT
TORSDOF 0
ENDMDL
