MODEL 1
REMARK minimizedAffinity -2.58116245
REMARK minimizedRMSD -1
REMARK  0 active torsions:
REMARK  status: ('A' for Active; 'I' for Inactive)
ROOT
ATOM      1  O1  BZF d   1      -1.239  -0.482   1.311  0.00  0.00    -0.204 OA
ATOM      2  C2  BZF d   1      -0.792  -1.702   1.779  0.00  0.00     0.174 A 
ATOM      3  C3  BZF d   1       0.535  -1.834   1.582  0.00  0.00    -0.012 A 
ATOM      4  C3A BZF d   1       0.960  -0.582   1.035  0.00  0.00    -0.107 A 
ATOM      5  C4  BZF d   1       2.173  -0.092   0.643  0.00  0.00     0.055 A 
ATOM      6  C5  BZF d   1       2.236   1.145   0.082  0.00  0.00    -0.016 A 
ATOM      7  C6  BZF d   1       1.107   1.915  -0.106  0.00  0.00     0.022 A 
ATOM      8  C7  BZF d   1      -0.118   1.474   0.272  0.00  0.00     0.029 A 
ATOM      9  C7A BZF d   1      -0.180   0.238   0.869  0.00  0.00     0.058 A 
ENDROOT
TORSDOF 0
ENDMDL
