MODEL 1
REMARK minimizedAffinity -3.05598474
REMARK minimizedRMSD -1
REMARK  0 active torsions:
REMARK  status: ('A' for Active; 'I' for Inactive)
ROOT
ATOM      1  O1  BZF d   1      -2.141   1.105  -2.341  0.00  0.00    -0.204 OA
ATOM      2  C2  BZF d   1      -2.968   0.073  -2.743  0.00  0.00     0.174 A 
ATOM      3  C3  BZF d   1      -2.735  -1.037  -2.014  0.00  0.00    -0.012 A 
ATOM      4  C3A BZF d   1      -1.762  -0.650  -1.038  0.00  0.00    -0.107 A 
ATOM      5  C4  BZF d   1      -1.141  -1.312  -0.018  0.00  0.00     0.055 A 
ATOM      6  C5  BZF d   1      -0.187  -0.667   0.704  0.00  0.00    -0.016 A 
ATOM      7  C6  BZF d   1       0.174   0.636   0.429  0.00  0.00     0.022 A 
ATOM      8  C7  BZF d   1      -0.418   1.335  -0.570  0.00  0.00     0.029 A 
ATOM      9  C7A BZF d   1      -1.406   0.697  -1.280  0.00  0.00     0.058 A 
ENDROOT
TORSDOF 0
ENDMDL
