MODEL 1
REMARK minimizedAffinity -4.8146801
REMARK minimizedRMSD -1
REMARK  0 active torsions:
REMARK  status: ('A' for Active; 'I' for Inactive)
ROOT
ATOM      1  O1  BZF d   1       0.040  -1.733  -0.377  0.00  0.00    -0.204 OA
ATOM      2  C2  BZF d   1      -1.034  -0.933  -0.041  0.00  0.00     0.174 A 
ATOM      3  C3  BZF d   1      -0.636   0.111   0.714  0.00  0.00    -0.012 A 
ATOM      4  C3A BZF d   1       0.790   0.003   0.782  0.00  0.00    -0.107 A 
ATOM      5  C4  BZF d   1       1.761   0.757   1.378  0.00  0.00     0.055 A 
ATOM      6  C5  BZF d   1       3.052   0.338   1.317  0.00  0.00    -0.016 A 
ATOM      7  C6  BZF d   1       3.407  -0.830   0.674  0.00  0.00     0.022 A 
ATOM      8  C7  BZF d   1       2.480  -1.608   0.064  0.00  0.00     0.029 A 
ATOM      9  C7A BZF d   1       1.178  -1.170   0.096  0.00  0.00     0.058 A 
ENDROOT
TORSDOF 0
ENDMDL
