MODEL 1
REMARK minimizedAffinity 8.24833012
REMARK minimizedRMSD -1
REMARK  1 active torsions:
REMARK  status: ('A' for Active; 'I' for Inactive)
REMARK    1  A    between atoms: C1_2  and  C2_3 
ROOT
ATOM      1  C2  UNL d   1      -1.609  -2.702   4.363  0.00  0.00    -0.073 A 
ATOM      2  C3  UNL d   1      -0.403  -3.158   4.907  0.00  0.00    -0.002 A 
ATOM      3  C4  UNL d   1       0.802  -2.925   4.243  0.00  0.00     0.004 A 
ATOM      4  C5  UNL d   1       0.815  -2.228   3.034  0.00  0.00    -0.004 A 
ATOM      5  C6  UNL d   1      -0.379  -1.754   2.481  0.00  0.00    -0.075 A 
ATOM      6  C7  UNL d   1      -0.383  -1.006   1.181  0.00  0.00     0.076 C 
ATOM      7  C8  UNL d   1      -1.585  -1.995   3.153  0.00  0.00     0.001 A 
ENDROOT
BRANCH   1   8
ATOM      8  C1  UNL d   1      -2.912  -2.946   5.080  0.00  0.00     0.053 C 
ATOM      9  C   UNL d   1      -3.762  -1.688   5.160  0.00  0.00     0.018 C 
ENDBRANCH   1   8
TORSDOF 1
ENDMDL
