MODEL 1
REMARK minimizedAffinity 9.3430481
REMARK minimizedRMSD -1
REMARK  1 active torsions:
REMARK  status: ('A' for Active; 'I' for Inactive)
REMARK    1  A    between atoms: C1_2  and  C2_3 
ROOT
ATOM      1  C2  UNL d   1      -3.129  -0.109  -1.340  0.00  0.00    -0.073 A 
ATOM      2  C3  UNL d   1      -2.838   1.257  -1.418  0.00  0.00    -0.002 A 
ATOM      3  C4  UNL d   1      -1.737   1.783  -0.740  0.00  0.00     0.004 A 
ATOM      4  C5  UNL d   1      -0.913   0.949   0.015  0.00  0.00    -0.004 A 
ATOM      5  C6  UNL d   1      -1.181  -0.421   0.096  0.00  0.00    -0.075 A 
ATOM      6  C7  UNL d   1      -0.306  -1.331   0.907  0.00  0.00     0.076 C 
ATOM      7  C8  UNL d   1      -2.290  -0.942  -0.585  0.00  0.00     0.001 A 
ENDROOT
BRANCH   1   8
ATOM      8  C1  UNL d   1      -4.312  -0.683  -2.075  0.00  0.00     0.053 C 
ATOM      9  C   UNL d   1      -5.632  -0.203  -1.493  0.00  0.00     0.018 C 
ENDBRANCH   1   8
TORSDOF 1
ENDMDL
