MODEL 1
REMARK minimizedAffinity 10.872983
REMARK minimizedRMSD -1
REMARK  1 active torsions:
REMARK  status: ('A' for Active; 'I' for Inactive)
REMARK    1  A    between atoms: C1_2  and  C2_3 
ROOT
ATOM      1  C2  UNL d   1       3.610  -1.041   1.254  0.00  0.00    -0.073 A 
ATOM      2  C3  UNL d   1       3.848   0.329   1.417  0.00  0.00    -0.002 A 
ATOM      3  C4  UNL d   1       2.855   1.258   1.105  0.00  0.00     0.004 A 
ATOM      4  C5  UNL d   1       1.614   0.829   0.634  0.00  0.00    -0.004 A 
ATOM      5  C6  UNL d   1       1.353  -0.536   0.476  0.00  0.00    -0.075 A 
ATOM      6  C7  UNL d   1       0.025  -1.014  -0.032  0.00  0.00     0.076 C 
ATOM      7  C8  UNL d   1       2.356  -1.463   0.789  0.00  0.00     0.001 A 
ENDROOT
BRANCH   1   8
ATOM      8  C1  UNL d   1       4.676  -2.049   1.596  0.00  0.00     0.053 C 
ATOM      9  C   UNL d   1       5.999  -1.384   1.943  0.00  0.00     0.018 C 
ENDBRANCH   1   8
TORSDOF 1
ENDMDL
