MODEL 1
REMARK minimizedAffinity 5.9721446
REMARK minimizedRMSD -1
REMARK  1 active torsions:
REMARK  status: ('A' for Active; 'I' for Inactive)
REMARK    1  A    between atoms: C1_2  and  C2_3 
ROOT
ATOM      1  C2  UNL d   1      -1.302  -4.932  -3.252  0.00  0.00    -0.073 A 
ATOM      2  C3  UNL d   1      -0.460  -5.789  -3.970  0.00  0.00    -0.002 A 
ATOM      3  C4  UNL d   1      -0.660  -5.992  -5.336  0.00  0.00     0.004 A 
ATOM      4  C5  UNL d   1      -1.697  -5.337  -5.999  0.00  0.00    -0.004 A 
ATOM      5  C6  UNL d   1      -2.542  -4.467  -5.302  0.00  0.00    -0.075 A 
ATOM      6  C7  UNL d   1      -3.664  -3.756  -6.000  0.00  0.00     0.076 C 
ATOM      7  C8  UNL d   1      -2.337  -4.270  -3.930  0.00  0.00     0.001 A 
ENDROOT
BRANCH   1   8
ATOM      8  C1  UNL d   1      -1.086  -4.704  -1.778  0.00  0.00     0.053 C 
ATOM      9  C   UNL d   1      -1.781  -3.443  -1.289  0.00  0.00     0.018 C 
ENDBRANCH   1   8
TORSDOF 1
ENDMDL
