MODEL 1
REMARK minimizedAffinity 0.100425772
REMARK minimizedRMSD -1
REMARK  1 active torsions:
REMARK  status: ('A' for Active; 'I' for Inactive)
REMARK    1  A    between atoms: C1_2  and  C2_3 
ROOT
ATOM      1  C2  UNL d   1       0.542  -2.413   2.764  0.00  0.00    -0.073 A 
ATOM      2  C3  UNL d   1      -0.761  -2.029   3.100  0.00  0.00    -0.002 A 
ATOM      3  C4  UNL d   1      -1.481  -1.171   2.267  0.00  0.00     0.004 A 
ATOM      4  C5  UNL d   1      -0.909  -0.694   1.088  0.00  0.00    -0.004 A 
ATOM      5  C6  UNL d   1       0.388  -1.076   0.728  0.00  0.00    -0.075 A 
ATOM      6  C7  UNL d   1       1.018  -0.570  -0.536  0.00  0.00     0.076 C 
ATOM      7  C8  UNL d   1       1.105  -1.935   1.571  0.00  0.00     0.001 A 
ENDROOT
BRANCH   1   8
ATOM      8  C1  UNL d   1       1.321  -3.344   3.657  0.00  0.00     0.053 C 
ATOM      9  C   UNL d   1       0.479  -3.862   4.812  0.00  0.00     0.018 C 
ENDBRANCH   1   8
TORSDOF 1
ENDMDL
