MODEL 1
REMARK minimizedAffinity -0.644111037
REMARK minimizedRMSD -1
REMARK  1 active torsions:
REMARK  status: ('A' for Active; 'I' for Inactive)
REMARK    1  A    between atoms: C1_2  and  C2_3 
ROOT
ATOM      1  C2  UNL d   1      -1.998  -5.177  -5.363  0.00  0.00    -0.073 A 
ATOM      2  C3  UNL d   1      -2.004  -3.786  -5.517  0.00  0.00    -0.002 A 
ATOM      3  C4  UNL d   1      -3.187  -3.117  -5.834  0.00  0.00     0.004 A 
ATOM      4  C5  UNL d   1      -4.375  -3.829  -5.992  0.00  0.00    -0.004 A 
ATOM      5  C6  UNL d   1      -4.392  -5.218  -5.829  0.00  0.00    -0.075 A 
ATOM      6  C7  UNL d   1      -5.663  -5.999  -5.998  0.00  0.00     0.076 C 
ATOM      7  C8  UNL d   1      -3.200  -5.883  -5.514  0.00  0.00     0.001 A 
ENDROOT
BRANCH   1   8
ATOM      8  C1  UNL d   1      -0.725  -5.904  -5.015  0.00  0.00     0.053 C 
ATOM      9  C   UNL d   1      -0.478  -5.936  -3.515  0.00  0.00     0.018 C 
ENDBRANCH   1   8
TORSDOF 1
ENDMDL
