MODEL 1
REMARK minimizedAffinity 2.38626146
REMARK minimizedRMSD -1
REMARK  1 active torsions:
REMARK  status: ('A' for Active; 'I' for Inactive)
REMARK    1  A    between atoms: C1_2  and  C2_3 
ROOT
ATOM      1  C2  UNL d   1      -1.106  -5.634  -3.257  0.00  0.00    -0.073 A 
ATOM      2  C3  UNL d   1      -0.090  -5.319  -4.166  0.00  0.00    -0.002 A 
ATOM      3  C4  UNL d   1      -0.367  -5.233  -5.531  0.00  0.00     0.004 A 
ATOM      4  C5  UNL d   1      -1.662  -5.453  -6.000  0.00  0.00    -0.004 A 
ATOM      5  C6  UNL d   1      -2.694  -5.757  -5.106  0.00  0.00    -0.075 A 
ATOM      6  C7  UNL d   1      -4.092  -5.999  -5.594  0.00  0.00     0.076 C 
ATOM      7  C8  UNL d   1      -2.407  -5.844  -3.737  0.00  0.00     0.001 A 
ENDROOT
BRANCH   1   8
ATOM      8  C1  UNL d   1      -0.813  -5.722  -1.782  0.00  0.00     0.053 C 
ATOM      9  C   UNL d   1      -1.497  -4.613  -0.998  0.00  0.00     0.018 C 
ENDBRANCH   1   8
TORSDOF 1
ENDMDL
