MODEL 1
REMARK minimizedAffinity 8.47222233
REMARK minimizedRMSD -1
REMARK  1 active torsions:
REMARK  status: ('A' for Active; 'I' for Inactive)
REMARK    1  A    between atoms: C1_2  and  C2_3 
ROOT
ATOM      1  C2  UNL d   1      -3.019  -0.047  -1.146  0.00  0.00    -0.073 A 
ATOM      2  C3  UNL d   1      -2.796   1.330  -1.040  0.00  0.00    -0.002 A 
ATOM      3  C4  UNL d   1      -1.692   1.813  -0.336  0.00  0.00     0.004 A 
ATOM      4  C5  UNL d   1      -0.798   0.925   0.262  0.00  0.00    -0.004 A 
ATOM      5  C6  UNL d   1      -0.997  -0.455   0.157  0.00  0.00    -0.075 A 
ATOM      6  C7  UNL d   1      -0.046  -1.423   0.796  0.00  0.00     0.076 C 
ATOM      7  C8  UNL d   1      -2.110  -0.932  -0.550  0.00  0.00     0.001 A 
ENDROOT
BRANCH   1   8
ATOM      8  C1  UNL d   1      -4.206  -0.573  -1.911  0.00  0.00     0.053 C 
ATOM      9  C   UNL d   1      -5.498  -0.444  -1.119  0.00  0.00     0.018 C 
ENDBRANCH   1   8
TORSDOF 1
ENDMDL
