MODEL 1
REMARK minimizedAffinity -0.754630923
REMARK minimizedRMSD -1
REMARK  1 active torsions:
REMARK  status: ('A' for Active; 'I' for Inactive)
REMARK    1  A    between atoms: C1_2  and  C2_3 
ROOT
ATOM      1  C2  UNL d   1      -3.097  -3.564  -4.829  0.00  0.00    -0.073 A 
ATOM      2  C3  UNL d   1      -2.574  -3.763  -3.547  0.00  0.00    -0.002 A 
ATOM      3  C4  UNL d   1      -3.064  -3.030  -2.465  0.00  0.00     0.004 A 
ATOM      4  C5  UNL d   1      -4.084  -2.098  -2.652  0.00  0.00    -0.004 A 
ATOM      5  C6  UNL d   1      -4.628  -1.893  -3.924  0.00  0.00    -0.075 A 
ATOM      6  C7  UNL d   1      -5.724  -0.893  -4.143  0.00  0.00     0.076 C 
ATOM      7  C8  UNL d   1      -4.129  -2.631  -5.006  0.00  0.00     0.001 A 
ENDROOT
BRANCH   1   8
ATOM      8  C1  UNL d   1      -2.576  -4.357  -6.000  0.00  0.00     0.053 C 
ATOM      9  C   UNL d   1      -2.602  -5.853  -5.731  0.00  0.00     0.018 C 
ENDBRANCH   1   8
TORSDOF 1
ENDMDL
