MODEL 1
REMARK minimizedAffinity -2.62294292
REMARK minimizedRMSD -1
REMARK  2 active torsions:
REMARK  status: ('A' for Active; 'I' for Inactive)
REMARK    1  A    between atoms: C2'_3  and  C1'_4 
REMARK    2  A    between atoms: C1'_4  and  C1_5 
ROOT
ATOM      1  C1  I4B d   1       0.414   1.064  -0.465  0.00  0.00    -0.075 A 
ATOM      2  C2  I4B d   1       0.788  -0.255  -0.402  0.00  0.00     0.003 A 
ATOM      3  C3  I4B d   1       0.195  -1.119   0.551  0.00  0.00     0.002 A 
ATOM      4  C4  I4B d   1      -0.723  -0.613   1.448  0.00  0.00    -0.004 A 
ATOM      5  C5  I4B d   1      -1.117   0.719   1.368  0.00  0.00     0.002 A 
ATOM      6  C6  I4B d   1      -0.555   1.561   0.397  0.00  0.00     0.003 A 
ENDROOT
BRANCH   1   7
ATOM      7  C1' I4B d   1       1.084   1.956  -1.462  0.00  0.00     0.060 C 
BRANCH   7   8
ATOM      8  C2' I4B d   1       0.941   1.318  -2.829  0.00  0.00    -0.013 C 
ATOM      9  C4' I4B d   1      -0.021   2.091  -3.693  0.00  0.00     0.013 C 
ATOM     10  C3' I4B d   1       2.302   1.257  -3.456  0.00  0.00     0.013 C 
ENDBRANCH   7   8
ENDBRANCH   1   7
TORSDOF 2
ENDMDL
