MODEL 1
REMARK minimizedAffinity -4.95299292
REMARK minimizedRMSD -1
REMARK  2 active torsions:
REMARK  status: ('A' for Active; 'I' for Inactive)
REMARK    1  A    between atoms: C2'_3  and  C1'_4 
REMARK    2  A    between atoms: C1'_4  and  C1_5 
ROOT
ATOM      1  C1  I4B d   1      -0.405   0.643  -0.579  0.00  0.00    -0.075 A 
ATOM      2  C2  I4B d   1       0.719   1.315  -0.165  0.00  0.00     0.003 A 
ATOM      3  C3  I4B d   1       1.370   2.220  -1.038  0.00  0.00     0.002 A 
ATOM      4  C4  I4B d   1       0.896   2.384  -2.323  0.00  0.00    -0.004 A 
ATOM      5  C5  I4B d   1      -0.256   1.720  -2.733  0.00  0.00     0.002 A 
ATOM      6  C6  I4B d   1      -0.918   0.853  -1.852  0.00  0.00     0.003 A 
ENDROOT
BRANCH   1   7
ATOM      7  C1' I4B d   1      -1.048  -0.330   0.358  0.00  0.00     0.060 C 
BRANCH   7   8
ATOM      8  C2' I4B d   1      -0.322  -1.654   0.226  0.00  0.00    -0.013 C 
ATOM      9  C4' I4B d   1       0.462  -1.972   1.473  0.00  0.00     0.013 C 
ATOM     10  C3' I4B d   1      -1.342  -2.716  -0.058  0.00  0.00     0.013 C 
ENDBRANCH   7   8
ENDBRANCH   1   7
TORSDOF 2
ENDMDL
