MODEL 1
REMARK minimizedAffinity -2.1978333
REMARK minimizedRMSD -1
REMARK  2 active torsions:
REMARK  status: ('A' for Active; 'I' for Inactive)
REMARK    1  A    between atoms: C2'_3  and  C1'_4 
REMARK    2  A    between atoms: C1'_4  and  C1_5 
ROOT
ATOM      1  C1  I4B d   1      -1.037  -0.712   0.496  0.00  0.00    -0.075 A 
ATOM      2  C2  I4B d   1      -1.951   0.207   0.947  0.00  0.00     0.003 A 
ATOM      3  C3  I4B d   1      -1.641   1.588   0.931  0.00  0.00     0.002 A 
ATOM      4  C4  I4B d   1      -0.394   2.000   0.505  0.00  0.00    -0.004 A 
ATOM      5  C5  I4B d   1       0.523   1.068   0.026  0.00  0.00     0.002 A 
ATOM      6  C6  I4B d   1       0.195  -0.295   0.010  0.00  0.00     0.003 A 
ENDROOT
BRANCH   1   7
ATOM      7  C1' I4B d   1      -1.385  -2.166   0.559  0.00  0.00     0.060 C 
BRANCH   7   8
ATOM      8  C2' I4B d   1      -0.329  -2.864   1.391  0.00  0.00    -0.013 C 
ATOM      9  C4' I4B d   1       1.052  -2.605   0.848  0.00  0.00     0.013 C 
ATOM     10  C3' I4B d   1      -0.456  -2.376   2.803  0.00  0.00     0.013 C 
ENDBRANCH   7   8
ENDBRANCH   1   7
TORSDOF 2
ENDMDL
