MODEL 1
REMARK minimizedAffinity -3.16830611
REMARK minimizedRMSD -1
REMARK  2 active torsions:
REMARK  status: ('A' for Active; 'I' for Inactive)
REMARK    1  A    between atoms: C2'_3  and  C1'_4 
REMARK    2  A    between atoms: C1'_4  and  C1_5 
ROOT
ATOM      1  C1  I4B d   1      -0.019   0.241  -0.092  0.00  0.00    -0.075 A 
ATOM      2  C2  I4B d   1       0.873  -0.731   0.287  0.00  0.00     0.003 A 
ATOM      3  C3  I4B d   1       0.407  -1.953   0.830  0.00  0.00     0.002 A 
ATOM      4  C4  I4B d   1      -0.947  -2.140   1.023  0.00  0.00    -0.004 A 
ATOM      5  C5  I4B d   1      -1.851  -1.162   0.617  0.00  0.00     0.002 A 
ATOM      6  C6  I4B d   1      -1.385   0.030   0.044  0.00  0.00     0.003 A 
ENDROOT
BRANCH   1   7
ATOM      7  C1' I4B d   1       0.508   1.532  -0.632  0.00  0.00     0.060 C 
BRANCH   7   8
ATOM      8  C2' I4B d   1       0.560   1.421  -2.142  0.00  0.00    -0.013 C 
ATOM      9  C4' I4B d   1      -0.553   2.206  -2.785  0.00  0.00     0.013 C 
ATOM     10  C3' I4B d   1       1.902   1.911  -2.597  0.00  0.00     0.013 C 
ENDBRANCH   7   8
ENDBRANCH   1   7
TORSDOF 2
ENDMDL
