MODEL 1
REMARK minimizedAffinity -3.96633077
REMARK minimizedRMSD -1
REMARK  2 active torsions:
REMARK  status: ('A' for Active; 'I' for Inactive)
REMARK    1  A    between atoms: C2'_3  and  C1'_4 
REMARK    2  A    between atoms: C1'_4  and  C1_5 
ROOT
ATOM      1  C1  I4B d   1      -0.017  -1.134   0.528  0.00  0.00    -0.075 A 
ATOM      2  C2  I4B d   1       0.571  -1.884   1.516  0.00  0.00     0.003 A 
ATOM      3  C3  I4B d   1      -0.215  -2.740   2.325  0.00  0.00     0.002 A 
ATOM      4  C4  I4B d   1      -1.583  -2.776   2.146  0.00  0.00    -0.004 A 
ATOM      5  C5  I4B d   1      -2.175  -2.032   1.130  0.00  0.00     0.002 A 
ATOM      6  C6  I4B d   1      -1.386  -1.215   0.307  0.00  0.00     0.003 A 
ENDROOT
BRANCH   1   7
ATOM      7  C1' I4B d   1       0.839  -0.216  -0.286  0.00  0.00     0.060 C 
BRANCH   7   8
ATOM      8  C2' I4B d   1      -0.009   0.970  -0.697  0.00  0.00    -0.013 C 
ATOM      9  C4' I4B d   1      -0.322   1.852   0.483  0.00  0.00     0.013 C 
ATOM     10  C3' I4B d   1       0.736   1.727  -1.756  0.00  0.00     0.013 C 
ENDBRANCH   7   8
ENDBRANCH   1   7
TORSDOF 2
ENDMDL
