MODEL 1
REMARK minimizedAffinity -6.4270916
REMARK minimizedRMSD -1
REMARK  2 active torsions:
REMARK  status: ('A' for Active; 'I' for Inactive)
REMARK    1  A    between atoms: C2'_3  and  C1'_4 
REMARK    2  A    between atoms: C1'_4  and  C1_5 
ROOT
ATOM      1  C1  I4B d   1      -1.044  -0.611   0.360  0.00  0.00    -0.075 A 
ATOM      2  C2  I4B d   1      -1.155  -1.918   0.766  0.00  0.00     0.003 A 
ATOM      3  C3  I4B d   1      -2.073  -2.272   1.784  0.00  0.00     0.002 A 
ATOM      4  C4  I4B d   1      -2.818  -1.288   2.400  0.00  0.00    -0.004 A 
ATOM      5  C5  I4B d   1      -2.721   0.033   1.972  0.00  0.00     0.002 A 
ATOM      6  C6  I4B d   1      -1.838   0.372   0.937  0.00  0.00     0.003 A 
ENDROOT
BRANCH   1   7
ATOM      7  C1' I4B d   1      -0.041  -0.266  -0.694  0.00  0.00     0.060 C 
BRANCH   7   8
ATOM      8  C2' I4B d   1       0.196   1.229  -0.642  0.00  0.00    -0.013 C 
ATOM      9  C4' I4B d   1       1.095   1.600   0.508  0.00  0.00     0.013 C 
ATOM     10  C3' I4B d   1       0.792   1.649  -1.953  0.00  0.00     0.013 C 
ENDBRANCH   7   8
ENDBRANCH   1   7
TORSDOF 2
ENDMDL
