MODEL 1
REMARK minimizedAffinity -3.36261439
REMARK minimizedRMSD -1
REMARK  2 active torsions:
REMARK  status: ('A' for Active; 'I' for Inactive)
REMARK    1  A    between atoms: C2'_3  and  C1'_4 
REMARK    2  A    between atoms: C1'_4  and  C1_5 
ROOT
ATOM      1  C1  I4B d   1      -0.108   0.163  -0.250  0.00  0.00    -0.075 A 
ATOM      2  C2  I4B d   1       0.740  -0.690   0.411  0.00  0.00     0.003 A 
ATOM      3  C3  I4B d   1       0.251  -1.907   0.946  0.00  0.00     0.002 A 
ATOM      4  C4  I4B d   1      -1.092  -2.204   0.842  0.00  0.00    -0.004 A 
ATOM      5  C5  I4B d   1      -1.946  -1.348   0.152  0.00  0.00     0.002 A 
ATOM      6  C6  I4B d   1      -1.449  -0.163  -0.409  0.00  0.00     0.003 A 
ENDROOT
BRANCH   1   7
ATOM      7  C1' I4B d   1       0.435   1.455  -0.775  0.00  0.00     0.060 C 
BRANCH   7   8
ATOM      8  C2' I4B d   1       0.488   1.360  -2.286  0.00  0.00    -0.013 C 
ATOM      9  C4' I4B d   1      -0.511   2.287  -2.926  0.00  0.00     0.013 C 
ATOM     10  C3' I4B d   1       1.885   1.685  -2.721  0.00  0.00     0.013 C 
ENDBRANCH   7   8
ENDBRANCH   1   7
TORSDOF 2
ENDMDL
