MODEL 1
REMARK minimizedAffinity -4.17771101
REMARK minimizedRMSD -1
REMARK  2 active torsions:
REMARK  status: ('A' for Active; 'I' for Inactive)
REMARK    1  A    between atoms: C2'_3  and  C1'_4 
REMARK    2  A    between atoms: C1'_4  and  C1_5 
ROOT
ATOM      1  C1  I4B d   1       0.053   0.300  -0.365  0.00  0.00    -0.075 A 
ATOM      2  C2  I4B d   1      -1.266   0.024  -0.104  0.00  0.00     0.003 A 
ATOM      3  C3  I4B d   1      -1.641  -1.239   0.415  0.00  0.00     0.002 A 
ATOM      4  C4  I4B d   1      -0.677  -2.208   0.609  0.00  0.00    -0.004 A 
ATOM      5  C5  I4B d   1       0.662  -1.919   0.365  0.00  0.00     0.002 A 
ATOM      6  C6  I4B d   1       1.032  -0.653  -0.113  0.00  0.00     0.003 A 
ENDROOT
BRANCH   1   7
ATOM      7  C1' I4B d   1       0.411   1.632  -0.943  0.00  0.00     0.060 C 
BRANCH   7   8
ATOM      8  C2' I4B d   1       0.632   1.451  -2.431  0.00  0.00    -0.013 C 
ATOM      9  C4' I4B d   1      -0.552   1.942  -3.222  0.00  0.00     0.013 C 
ATOM     10  C3' I4B d   1       1.880   2.193  -2.807  0.00  0.00     0.013 C 
ENDBRANCH   7   8
ENDBRANCH   1   7
TORSDOF 2
ENDMDL
