MODEL 1
REMARK minimizedAffinity 2.16166735
REMARK minimizedRMSD -1
REMARK  2 active torsions:
REMARK  status: ('A' for Active; 'I' for Inactive)
REMARK    1  A    between atoms: C2'_3  and  C1'_4 
REMARK    2  A    between atoms: C1'_4  and  C1_5 
ROOT
ATOM      1  C1  I4B d   1      -0.795  -1.786   1.908  0.00  0.00    -0.075 A 
ATOM      2  C2  I4B d   1      -1.713  -0.766   1.887  0.00  0.00     0.003 A 
ATOM      3  C3  I4B d   1      -1.598   0.278   0.937  0.00  0.00     0.002 A 
ATOM      4  C4  I4B d   1      -0.528   0.288   0.065  0.00  0.00    -0.004 A 
ATOM      5  C5  I4B d   1       0.389  -0.759   0.073  0.00  0.00     0.002 A 
ATOM      6  C6  I4B d   1       0.248  -1.809   0.992  0.00  0.00     0.003 A 
ENDROOT
BRANCH   1   7
ATOM      7  C1' I4B d   1      -0.928  -2.854   2.947  0.00  0.00     0.060 C 
BRANCH   7   8
ATOM      8  C2' I4B d   1      -0.017  -2.497   4.104  0.00  0.00    -0.013 C 
ATOM      9  C4' I4B d   1      -0.803  -1.957   5.270  0.00  0.00     0.013 C 
ATOM     10  C3' I4B d   1       0.746  -3.728   4.489  0.00  0.00     0.013 C 
ENDBRANCH   7   8
ENDBRANCH   1   7
TORSDOF 2
ENDMDL
