MODEL 1
REMARK minimizedAffinity -3.49224687
REMARK minimizedRMSD -1
REMARK  2 active torsions:
REMARK  status: ('A' for Active; 'I' for Inactive)
REMARK    1  A    between atoms: C2'_3  and  C1'_4 
REMARK    2  A    between atoms: C1'_4  and  C1_5 
ROOT
ATOM      1  C1  I4B d   1       0.486   0.693  -0.440  0.00  0.00    -0.075 A 
ATOM      2  C2  I4B d   1      -0.856   0.624  -0.156  0.00  0.00     0.003 A 
ATOM      3  C3  I4B d   1      -1.390  -0.518   0.488  0.00  0.00     0.002 A 
ATOM      4  C4  I4B d   1      -0.562  -1.582   0.783  0.00  0.00    -0.004 A 
ATOM      5  C5  I4B d   1       0.801  -1.501   0.515  0.00  0.00     0.002 A 
ATOM      6  C6  I4B d   1       1.331  -0.352  -0.089  0.00  0.00     0.003 A 
ENDROOT
BRANCH   1   7
ATOM      7  C1' I4B d   1       1.011   1.900  -1.150  0.00  0.00     0.060 C 
BRANCH   7   8
ATOM      8  C2' I4B d   1       0.547   1.832  -2.591  0.00  0.00    -0.013 C 
ATOM      9  C4' I4B d   1      -0.166   3.095  -2.995  0.00  0.00     0.013 C 
ATOM     10  C3' I4B d   1       1.750   1.590  -3.453  0.00  0.00     0.013 C 
ENDBRANCH   7   8
ENDBRANCH   1   7
TORSDOF 2
ENDMDL
