MODEL 1
REMARK minimizedAffinity -3.70488858
REMARK minimizedRMSD -1
REMARK  2 active torsions:
REMARK  status: ('A' for Active; 'I' for Inactive)
REMARK    1  A    between atoms: C2'_3  and  C1'_4 
REMARK    2  A    between atoms: C1'_4  and  C1_5 
ROOT
ATOM      1  C1  I4B d   1      -0.051   0.563  -0.266  0.00  0.00    -0.075 A 
ATOM      2  C2  I4B d   1      -1.366   0.173  -0.218  0.00  0.00     0.003 A 
ATOM      3  C3  I4B d   1      -1.716  -1.090   0.317  0.00  0.00     0.002 A 
ATOM      4  C4  I4B d   1      -0.721  -1.946   0.744  0.00  0.00    -0.004 A 
ATOM      5  C5  I4B d   1       0.610  -1.540   0.716  0.00  0.00     0.002 A 
ATOM      6  C6  I4B d   1       0.946  -0.273   0.219  0.00  0.00     0.003 A 
ENDROOT
BRANCH   1   7
ATOM      7  C1' I4B d   1       0.285   1.890  -0.869  0.00  0.00     0.060 C 
BRANCH   7   8
ATOM      8  C2' I4B d   1       0.647   1.665  -2.323  0.00  0.00    -0.013 C 
ATOM      9  C4' I4B d   1      -0.353   2.317  -3.241  0.00  0.00     0.013 C 
ATOM     10  C3' I4B d   1       2.025   2.212  -2.547  0.00  0.00     0.013 C 
ENDBRANCH   7   8
ENDBRANCH   1   7
TORSDOF 2
ENDMDL
