MODEL 1
REMARK minimizedAffinity -3.82914615
REMARK minimizedRMSD -1
REMARK  2 active torsions:
REMARK  status: ('A' for Active; 'I' for Inactive)
REMARK    1  A    between atoms: C2'_3  and  C1'_4 
REMARK    2  A    between atoms: C1'_4  and  C1_5 
ROOT
ATOM      1  C1  I4B d   1       0.737   1.179  -0.567  0.00  0.00    -0.075 A 
ATOM      2  C2  I4B d   1       1.106  -0.129  -0.755  0.00  0.00     0.003 A 
ATOM      3  C3  I4B d   1       0.461  -1.163  -0.033  0.00  0.00     0.002 A 
ATOM      4  C4  I4B d   1      -0.506  -0.840   0.897  0.00  0.00    -0.004 A 
ATOM      5  C5  I4B d   1      -0.895   0.485   1.069  0.00  0.00     0.002 A 
ATOM      6  C6  I4B d   1      -0.278   1.501   0.324  0.00  0.00     0.003 A 
ENDROOT
BRANCH   1   7
ATOM      7  C1' I4B d   1       1.463   2.248  -1.322  0.00  0.00     0.060 C 
BRANCH   7   8
ATOM      8  C2' I4B d   1       1.317   1.955  -2.802  0.00  0.00    -0.013 C 
ATOM      9  C4' I4B d   1       0.561   3.053  -3.503  0.00  0.00     0.013 C 
ATOM     10  C3' I4B d   1       2.692   1.790  -3.378  0.00  0.00     0.013 C 
ENDBRANCH   7   8
ENDBRANCH   1   7
TORSDOF 2
ENDMDL
