MODEL 1
REMARK minimizedAffinity -5.08860588
REMARK minimizedRMSD -1
REMARK  2 active torsions:
REMARK  status: ('A' for Active; 'I' for Inactive)
REMARK    1  A    between atoms: C2'_3  and  C1'_4 
REMARK    2  A    between atoms: C1'_4  and  C1_5 
ROOT
ATOM      1  C1  I4B d   1       0.382   0.675  -0.565  0.00  0.00    -0.075 A 
ATOM      2  C2  I4B d   1      -0.400   1.213   0.426  0.00  0.00     0.003 A 
ATOM      3  C3  I4B d   1      -1.252   0.381   1.193  0.00  0.00     0.002 A 
ATOM      4  C4  I4B d   1      -1.326  -0.966   0.903  0.00  0.00    -0.004 A 
ATOM      5  C5  I4B d   1      -0.515  -1.514  -0.087  0.00  0.00     0.002 A 
ATOM      6  C6  I4B d   1       0.354  -0.690  -0.818  0.00  0.00     0.003 A 
ENDROOT
BRANCH   1   7
ATOM      7  C1' I4B d   1       1.245   1.588  -1.377  0.00  0.00     0.060 C 
BRANCH   7   8
ATOM      8  C2' I4B d   1       0.829   1.456  -2.828  0.00  0.00    -0.013 C 
ATOM      9  C4' I4B d   1      -0.474   2.166  -3.088  0.00  0.00     0.013 C 
ATOM     10  C3' I4B d   1       1.930   2.016  -3.678  0.00  0.00     0.013 C 
ENDBRANCH   7   8
ENDBRANCH   1   7
TORSDOF 2
ENDMDL
