MODEL 1
REMARK minimizedAffinity -3.91397214
REMARK minimizedRMSD -1
REMARK  2 active torsions:
REMARK  status: ('A' for Active; 'I' for Inactive)
REMARK    1  A    between atoms: C2'_3  and  C1'_4 
REMARK    2  A    between atoms: C1'_4  and  C1_5 
ROOT
ATOM      1  C1  I4B d   1      -0.080   0.313   0.081  0.00  0.00    -0.075 A 
ATOM      2  C2  I4B d   1       0.589  -0.755  -0.461  0.00  0.00     0.003 A 
ATOM      3  C3  I4B d   1       0.331  -2.068   0.001  0.00  0.00     0.002 A 
ATOM      4  C4  I4B d   1      -0.562  -2.261   1.036  0.00  0.00    -0.004 A 
ATOM      5  C5  I4B d   1      -1.256  -1.179   1.569  0.00  0.00     0.002 A 
ATOM      6  C6  I4B d   1      -1.023   0.115   1.081  0.00  0.00     0.003 A 
ENDROOT
BRANCH   1   7
ATOM      7  C1' I4B d   1       0.242   1.689  -0.408  0.00  0.00     0.060 C 
BRANCH   7   8
ATOM      8  C2' I4B d   1       0.986   1.555  -1.722  0.00  0.00    -0.013 C 
ATOM      9  C4' I4B d   1       0.256   2.260  -2.835  0.00  0.00     0.013 C 
ATOM     10  C3' I4B d   1       2.362   2.119  -1.534  0.00  0.00     0.013 C 
ENDBRANCH   7   8
ENDBRANCH   1   7
TORSDOF 2
ENDMDL
