MODEL 1
REMARK minimizedAffinity -1.42885184
REMARK minimizedRMSD -1
REMARK  1 active torsions:
REMARK  status: ('A' for Active; 'I' for Inactive)
REMARK    1  A    between atoms: C1_2  and  C2_3 
ROOT
ATOM      1  C2  UNL d   1       1.303   0.640   0.956  0.00  0.00    -0.077 A 
ATOM      2  C3  UNL d   1       0.515   0.603  -0.203  0.00  0.00     0.002 A 
ATOM      3  C4  UNL d   1      -0.463  -0.381  -0.360  0.00  0.00     0.002 A 
ATOM      4  C5  UNL d   1      -0.665  -1.331   0.639  0.00  0.00    -0.004 A 
ATOM      5  C6  UNL d   1       0.115  -1.304   1.794  0.00  0.00     0.002 A 
ATOM      6  C7  UNL d   1       1.094  -0.322   1.953  0.00  0.00     0.002 A 
ENDROOT
BRANCH   1   7
ATOM      7  C1  UNL d   1       2.325   1.730   1.150  0.00  0.00     0.055 C 
ATOM      8  C   UNL d   1       1.814   3.066   0.630  0.00  0.00     0.019 C 
ENDBRANCH   1   7
TORSDOF 1
ENDMDL
