MODEL 1
REMARK minimizedAffinity -4.96043015
REMARK minimizedRMSD -1
REMARK  1 active torsions:
REMARK  status: ('A' for Active; 'I' for Inactive)
REMARK    1  A    between atoms: C1_2  and  C2_3 
ROOT
ATOM      1  C2  UNL d   1      -1.443  -0.752   1.441  0.00  0.00    -0.077 A 
ATOM      2  C3  UNL d   1      -0.703   0.084   0.593  0.00  0.00     0.002 A 
ATOM      3  C4  UNL d   1       0.223  -0.458  -0.300  0.00  0.00     0.002 A 
ATOM      4  C5  UNL d   1       0.414  -1.837  -0.357  0.00  0.00    -0.004 A 
ATOM      5  C6  UNL d   1      -0.316  -2.677   0.483  0.00  0.00     0.002 A 
ATOM      6  C7  UNL d   1      -1.241  -2.137   1.378  0.00  0.00     0.002 A 
ENDROOT
BRANCH   1   7
ATOM      7  C1  UNL d   1      -2.478  -0.173   2.371  0.00  0.00     0.055 C 
ATOM      8  C   UNL d   1      -3.330   0.873   1.668  0.00  0.00     0.019 C 
ENDBRANCH   1   7
TORSDOF 1
ENDMDL
