MODEL 1
REMARK minimizedAffinity -3.57483411
REMARK minimizedRMSD -1
REMARK  1 active torsions:
REMARK  status: ('A' for Active; 'I' for Inactive)
REMARK    1  A    between atoms: C1_2  and  C2_3 
ROOT
ATOM      1  C2  UNL d   1       0.644   2.535   0.556  0.00  0.00    -0.077 A 
ATOM      2  C3  UNL d   1       0.465   1.258   1.108  0.00  0.00     0.002 A 
ATOM      3  C4  UNL d   1      -0.123   0.240   0.356  0.00  0.00     0.002 A 
ATOM      4  C5  UNL d   1      -0.533   0.486  -0.953  0.00  0.00    -0.004 A 
ATOM      5  C6  UNL d   1      -0.361   1.752  -1.510  0.00  0.00     0.002 A 
ATOM      6  C7  UNL d   1       0.226   2.772  -0.759  0.00  0.00     0.002 A 
ENDROOT
BRANCH   1   7
ATOM      7  C1  UNL d   1       1.323   3.621   1.349  0.00  0.00     0.055 C 
ATOM      8  C   UNL d   1       0.925   3.566   2.817  0.00  0.00     0.019 C 
ENDBRANCH   1   7
TORSDOF 1
ENDMDL
