MODEL 1
REMARK minimizedAffinity -2.38654304
REMARK minimizedRMSD -1
REMARK  1 active torsions:
REMARK  status: ('A' for Active; 'I' for Inactive)
REMARK    1  A    between atoms: C1_2  and  C2_3 
ROOT
ATOM      1  C2  UNL d   1      -0.187  -0.921   0.180  0.00  0.00    -0.077 A 
ATOM      2  C3  UNL d   1      -0.241  -2.273  -0.186  0.00  0.00     0.002 A 
ATOM      3  C4  UNL d   1      -1.125  -3.144   0.455  0.00  0.00     0.002 A 
ATOM      4  C5  UNL d   1      -1.964  -2.670   1.461  0.00  0.00    -0.004 A 
ATOM      5  C6  UNL d   1      -1.917  -1.328   1.834  0.00  0.00     0.002 A 
ATOM      6  C7  UNL d   1      -1.033  -0.457   1.195  0.00  0.00     0.002 A 
ENDROOT
BRANCH   1   7
ATOM      7  C1  UNL d   1       0.731   0.029  -0.544  0.00  0.00     0.055 C 
ATOM      8  C   UNL d   1       0.722  -0.227  -2.044  0.00  0.00     0.019 C 
ENDBRANCH   1   7
TORSDOF 1
ENDMDL
