MODEL 1
REMARK minimizedAffinity -4.33774042
REMARK minimizedRMSD -1
REMARK  1 active torsions:
REMARK  status: ('A' for Active; 'I' for Inactive)
REMARK    1  A    between atoms: C1_2  and  C2_3 
ROOT
ATOM      1  C2  UNL d   1      -0.351  -0.668   0.831  0.00  0.00    -0.077 A 
ATOM      2  C3  UNL d   1      -1.118  -1.694   0.261  0.00  0.00     0.002 A 
ATOM      3  C4  UNL d   1      -1.156  -2.959   0.851  0.00  0.00     0.002 A 
ATOM      4  C5  UNL d   1      -0.434  -3.208   2.016  0.00  0.00    -0.004 A 
ATOM      5  C6  UNL d   1       0.333  -2.195   2.590  0.00  0.00     0.002 A 
ATOM      6  C7  UNL d   1       0.374  -0.930   2.001  0.00  0.00     0.002 A 
ENDROOT
BRANCH   1   7
ATOM      7  C1  UNL d   1      -0.347   0.710   0.223  0.00  0.00     0.055 C 
ATOM      8  C   UNL d   1       0.451   1.688   1.074  0.00  0.00     0.019 C 
ENDBRANCH   1   7
TORSDOF 1
ENDMDL
