MODEL 1
REMARK minimizedAffinity -5.51897907
REMARK minimizedRMSD -1
REMARK  1 active torsions:
REMARK  status: ('A' for Active; 'I' for Inactive)
REMARK    1  A    between atoms: C1_2  and  C2_3 
ROOT
ATOM      1  C2  UNL d   1      -0.020  -0.377  -0.161  0.00  0.00    -0.077 A 
ATOM      2  C3  UNL d   1       0.804  -1.451  -0.529  0.00  0.00     0.002 A 
ATOM      3  C4  UNL d   1       0.652  -2.698   0.081  0.00  0.00     0.002 A 
ATOM      4  C5  UNL d   1      -0.325  -2.884   1.057  0.00  0.00    -0.004 A 
ATOM      5  C6  UNL d   1      -1.147  -1.822   1.430  0.00  0.00     0.002 A 
ATOM      6  C7  UNL d   1      -0.996  -0.574   0.824  0.00  0.00     0.002 A 
ENDROOT
BRANCH   1   7
ATOM      7  C1  UNL d   1       0.110   0.955  -0.852  0.00  0.00     0.055 C 
ATOM      8  C   UNL d   1       0.884   1.949   0.002  0.00  0.00     0.019 C 
ENDBRANCH   1   7
TORSDOF 1
ENDMDL
