MODEL 1
REMARK minimizedAffinity -4.73574877
REMARK minimizedRMSD -1
REMARK  1 active torsions:
REMARK  status: ('A' for Active; 'I' for Inactive)
REMARK    1  A    between atoms: C1_2  and  C2_3 
ROOT
ATOM      1  C2  UNL d   1      -0.186  -0.458  -0.048  0.00  0.00    -0.077 A 
ATOM      2  C3  UNL d   1      -0.785  -0.753   1.185  0.00  0.00     0.002 A 
ATOM      3  C4  UNL d   1      -0.712  -2.043   1.714  0.00  0.00     0.002 A 
ATOM      4  C5  UNL d   1      -0.039  -3.046   1.019  0.00  0.00    -0.004 A 
ATOM      5  C6  UNL d   1       0.557  -2.763  -0.208  0.00  0.00     0.002 A 
ATOM      6  C7  UNL d   1       0.485  -1.474  -0.739  0.00  0.00     0.002 A 
ENDROOT
BRANCH   1   7
ATOM      7  C1  UNL d   1      -0.220   0.945  -0.597  0.00  0.00     0.055 C 
ATOM      8  C   UNL d   1       0.687   1.873   0.198  0.00  0.00     0.019 C 
ENDBRANCH   1   7
TORSDOF 1
ENDMDL
