MODEL 1
REMARK minimizedAffinity -4.59065914
REMARK minimizedRMSD -1
REMARK  1 active torsions:
REMARK  status: ('A' for Active; 'I' for Inactive)
REMARK    1  A    between atoms: C1_2  and  C2_3 
ROOT
ATOM      1  C2  UNL d   1      -0.016  -1.516  -0.466  0.00  0.00    -0.077 A 
ATOM      2  C3  UNL d   1      -0.793  -2.597  -0.024  0.00  0.00     0.002 A 
ATOM      3  C4  UNL d   1      -1.525  -2.502   1.161  0.00  0.00     0.002 A 
ATOM      4  C5  UNL d   1      -1.491  -1.329   1.911  0.00  0.00    -0.004 A 
ATOM      5  C6  UNL d   1      -0.720  -0.250   1.482  0.00  0.00     0.002 A 
ATOM      6  C7  UNL d   1       0.014  -0.343   0.298  0.00  0.00     0.002 A 
ENDROOT
BRANCH   1   7
ATOM      7  C1  UNL d   1       0.735  -1.599  -1.769  0.00  0.00     0.055 C 
ATOM      8  C   UNL d   1       0.352  -0.458  -2.701  0.00  0.00     0.019 C 
ENDBRANCH   1   7
TORSDOF 1
ENDMDL
