MODEL 1
REMARK minimizedAffinity -1.53119957
REMARK minimizedRMSD -1
REMARK  1 active torsions:
REMARK  status: ('A' for Active; 'I' for Inactive)
REMARK    1  A    between atoms: C1_2  and  C2_3 
ROOT
ATOM      1  C2  UNL d   1      -0.251   0.077  -0.211  0.00  0.00    -0.077 A 
ATOM      2  C3  UNL d   1       0.030  -1.115  -0.894  0.00  0.00     0.002 A 
ATOM      3  C4  UNL d   1      -0.278  -2.349  -0.317  0.00  0.00     0.002 A 
ATOM      4  C5  UNL d   1      -0.871  -2.403   0.942  0.00  0.00    -0.004 A 
ATOM      5  C6  UNL d   1      -1.153  -1.223   1.630  0.00  0.00     0.002 A 
ATOM      6  C7  UNL d   1      -0.845   0.011   1.056  0.00  0.00     0.002 A 
ENDROOT
BRANCH   1   7
ATOM      7  C1  UNL d   1       0.035   1.410  -0.852  0.00  0.00     0.055 C 
ATOM      8  C   UNL d   1       1.015   2.225  -0.021  0.00  0.00     0.019 C 
ENDBRANCH   1   7
TORSDOF 1
ENDMDL
