MODEL 1
REMARK minimizedAffinity 9.06012917
REMARK minimizedRMSD -1
REMARK  1 active torsions:
REMARK  status: ('A' for Active; 'I' for Inactive)
REMARK    1  A    between atoms: C1_2  and  C2_3 
ROOT
ATOM      1  C2  UNL d   1       0.856   2.705   0.215  0.00  0.00    -0.077 A 
ATOM      2  C3  UNL d   1       0.234   3.287   1.328  0.00  0.00     0.002 A 
ATOM      3  C4  UNL d   1       0.856   4.328   2.020  0.00  0.00     0.002 A 
ATOM      4  C5  UNL d   1       2.100   4.798   1.604  0.00  0.00    -0.004 A 
ATOM      5  C6  UNL d   1       2.727   4.224   0.500  0.00  0.00     0.002 A 
ATOM      6  C7  UNL d   1       2.108   3.183  -0.193  0.00  0.00     0.002 A 
ENDROOT
BRANCH   1   7
ATOM      7  C1  UNL d   1       0.164   1.615  -0.562  0.00  0.00     0.055 C 
ATOM      8  C   UNL d   1      -0.987   1.015   0.231  0.00  0.00     0.019 C 
ENDBRANCH   1   7
TORSDOF 1
ENDMDL
