MODEL 1
REMARK minimizedAffinity 0.626097441
REMARK minimizedRMSD -1
REMARK  0 active torsions:
REMARK  status: ('A' for Active; 'I' for Inactive)
ROOT
ATOM      1  N1  IND d   1       1.072  -1.897   1.871  0.00  0.00    -0.196 N 
ATOM      2  C2  IND d   1       1.958  -0.874   1.677  0.00  0.00     0.054 A 
ATOM      3  C3  IND d   1       2.930  -0.909   2.615  0.00  0.00    -0.031 A 
ATOM      4  C4  IND d   1       3.322  -2.617   4.502  0.00  0.00     0.051 A 
ATOM      5  C5  IND d   1       2.758  -3.709   5.100  0.00  0.00    -0.031 A 
ATOM      6  C6  IND d   1       1.582  -4.265   4.642  0.00  0.00     0.015 A 
ATOM      7  C7  IND d   1       0.928  -3.755   3.556  0.00  0.00    -0.016 A 
ATOM      8  C8  IND d   1       1.493  -2.642   2.950  0.00  0.00    -0.047 A 
ATOM      9  C9  IND d   1       2.665  -2.047   3.437  0.00  0.00    -0.096 A 
ATOM     10  HN1 IND d   1       0.370  -2.049   1.399  0.00  0.00     0.298 HD
ENDROOT
TORSDOF 0
ENDMDL
