MODEL 1
REMARK minimizedAffinity 14.5262327
REMARK minimizedRMSD -1
REMARK  0 active torsions:
REMARK  status: ('A' for Active; 'I' for Inactive)
ROOT
ATOM      1  N1  IND d   1       1.308  -1.527   3.730  0.00  0.00    -0.196 N 
ATOM      2  C2  IND d   1       1.396  -1.876   2.411  0.00  0.00     0.054 A 
ATOM      3  C3  IND d   1       1.986  -0.888   1.701  0.00  0.00    -0.031 A 
ATOM      4  C4  IND d   1       2.977   1.344   2.516  0.00  0.00     0.051 A 
ATOM      5  C5  IND d   1       3.102   2.124   3.631  0.00  0.00    -0.031 A 
ATOM      6  C6  IND d   1       2.628   1.718   4.862  0.00  0.00     0.015 A 
ATOM      7  C7  IND d   1       2.019   0.506   5.026  0.00  0.00    -0.016 A 
ATOM      8  C8  IND d   1       1.884  -0.286   3.894  0.00  0.00    -0.047 A 
ATOM      9  C9  IND d   1       2.325   0.139   2.634  0.00  0.00    -0.096 A 
ATOM     10  HN1 IND d   1       0.953  -2.002   4.352  0.00  0.00     0.298 HD
ENDROOT
TORSDOF 0
ENDMDL
