MODEL 1
REMARK minimizedAffinity 15.6115484
REMARK minimizedRMSD -1
REMARK  0 active torsions:
REMARK  status: ('A' for Active; 'I' for Inactive)
ROOT
ATOM      1  N1  IND d   1       1.062  -0.879   2.886  0.00  0.00    -0.196 N 
ATOM      2  C2  IND d   1       2.195  -1.562   3.230  0.00  0.00     0.054 A 
ATOM      3  C3  IND d   1       2.548  -2.416   2.243  0.00  0.00    -0.031 A 
ATOM      4  C4  IND d   1       1.470  -2.782  -0.066  0.00  0.00     0.051 A 
ATOM      5  C5  IND d   1       0.393  -2.414  -0.822  0.00  0.00    -0.031 A 
ATOM      6  C6  IND d   1      -0.533  -1.495  -0.374  0.00  0.00     0.015 A 
ATOM      7  C7  IND d   1      -0.410  -0.898   0.849  0.00  0.00    -0.016 A 
ATOM      8  C8  IND d   1       0.678  -1.275   1.623  0.00  0.00    -0.047 A 
ATOM      9  C9  IND d   1       1.598  -2.239   1.191  0.00  0.00    -0.096 A 
ATOM     10  HN1 IND d   1       0.658  -0.299   3.375  0.00  0.00     0.298 HD
ENDROOT
TORSDOF 0
ENDMDL
