MODEL 1
REMARK minimizedAffinity 0.413495243
REMARK minimizedRMSD -1
REMARK  0 active torsions:
REMARK  status: ('A' for Active; 'I' for Inactive)
ROOT
ATOM      1  N1  IND d   1       4.735  -2.997   5.548  0.00  0.00    -0.196 N 
ATOM      2  C2  IND d   1       6.000  -2.880   5.043  0.00  0.00     0.054 A 
ATOM      3  C3  IND d   1       5.972  -2.249   3.847  0.00  0.00    -0.031 A 
ATOM      4  C4  IND d   1       3.975  -1.235   2.579  0.00  0.00     0.051 A 
ATOM      5  C5  IND d   1       2.613  -1.125   2.625  0.00  0.00    -0.031 A 
ATOM      6  C6  IND d   1       1.875  -1.642   3.670  0.00  0.00     0.015 A 
ATOM      7  C7  IND d   1       2.474  -2.281   4.718  0.00  0.00    -0.016 A 
ATOM      8  C8  IND d   1       3.856  -2.400   4.672  0.00  0.00    -0.047 A 
ATOM      9  C9  IND d   1       4.607  -1.915   3.593  0.00  0.00    -0.096 A 
ATOM     10  HN1 IND d   1       4.524  -3.380   6.288  0.00  0.00     0.298 HD
ENDROOT
TORSDOF 0
ENDMDL
