MODEL 1
REMARK minimizedAffinity 4.10275269
REMARK minimizedRMSD -1
REMARK  0 active torsions:
REMARK  status: ('A' for Active; 'I' for Inactive)
ROOT
ATOM      1  N1  IND d   1       2.194   4.148  -0.674  0.00  0.00    -0.196 N 
ATOM      2  C2  IND d   1       0.880   4.521  -0.612  0.00  0.00     0.054 A 
ATOM      3  C3  IND d   1       0.172   3.627   0.114  0.00  0.00    -0.031 A 
ATOM      4  C4  IND d   1       0.983   1.535   1.375  0.00  0.00     0.051 A 
ATOM      5  C5  IND d   1       2.093   0.765   1.583  0.00  0.00    -0.031 A 
ATOM      6  C6  IND d   1       3.319   1.092   1.041  0.00  0.00     0.015 A 
ATOM      7  C7  IND d   1       3.483   2.212   0.276  0.00  0.00    -0.016 A 
ATOM      8  C8  IND d   1       2.357   2.992   0.057  0.00  0.00    -0.047 A 
ATOM      9  C9  IND d   1       1.101   2.642   0.569  0.00  0.00    -0.096 A 
ATOM     10  HN1 IND d   1       2.814   4.566  -1.098  0.00  0.00     0.298 HD
ENDROOT
TORSDOF 0
ENDMDL
