MODEL 1
REMARK minimizedAffinity 0.279574871
REMARK minimizedRMSD -1
REMARK  0 active torsions:
REMARK  status: ('A' for Active; 'I' for Inactive)
ROOT
ATOM      1  N1  IND d   1       3.116  -1.141   3.029  0.00  0.00    -0.196 N 
ATOM      2  C2  IND d   1       1.849  -1.493   3.402  0.00  0.00     0.054 A 
ATOM      3  C3  IND d   1       1.883  -2.279   4.502  0.00  0.00    -0.031 A 
ATOM      4  C4  IND d   1       3.901  -3.028   5.914  0.00  0.00     0.051 A 
ATOM      5  C5  IND d   1       5.267  -2.987   5.948  0.00  0.00    -0.031 A 
ATOM      6  C6  IND d   1       6.000  -2.313   4.993  0.00  0.00     0.015 A 
ATOM      7  C7  IND d   1       5.391  -1.642   3.970  0.00  0.00    -0.016 A 
ATOM      8  C8  IND d   1       4.005  -1.687   3.929  0.00  0.00    -0.047 A 
ATOM      9  C9  IND d   1       3.257  -2.405   4.871  0.00  0.00    -0.096 A 
ATOM     10  HN1 IND d   1       3.323  -0.659   2.348  0.00  0.00     0.298 HD
ENDROOT
TORSDOF 0
ENDMDL
