MODEL 1
REMARK minimizedAffinity 16.5651054
REMARK minimizedRMSD -1
REMARK  0 active torsions:
REMARK  status: ('A' for Active; 'I' for Inactive)
ROOT
ATOM      1  N1  IND d   1       2.421  -0.454   1.647  0.00  0.00    -0.196 N 
ATOM      2  C2  IND d   1       1.558  -0.857   2.627  0.00  0.00     0.054 A 
ATOM      3  C3  IND d   1       2.219  -1.555   3.578  0.00  0.00    -0.031 A 
ATOM      4  C4  IND d   1       4.733  -2.067   3.780  0.00  0.00     0.051 A 
ATOM      5  C5  IND d   1       5.916  -1.938   3.108  0.00  0.00    -0.031 A 
ATOM      6  C6  IND d   1       5.997  -1.292   1.891  0.00  0.00     0.015 A 
ATOM      7  C7  IND d   1       4.894  -0.739   1.304  0.00  0.00    -0.016 A 
ATOM      8  C8  IND d   1       3.690  -0.875   1.980  0.00  0.00    -0.047 A 
ATOM      9  C9  IND d   1       3.595  -1.566   3.195  0.00  0.00    -0.096 A 
ATOM     10  HN1 IND d   1       2.208  -0.013   0.941  0.00  0.00     0.298 HD
ENDROOT
TORSDOF 0
ENDMDL
