MODEL 1
REMARK minimizedAffinity 1.75968254
REMARK minimizedRMSD -1
REMARK  0 active torsions:
REMARK  status: ('A' for Active; 'I' for Inactive)
ROOT
ATOM      1  N1  IND d   1       4.919  -1.636  -4.079  0.00  0.00    -0.196 N 
ATOM      2  C2  IND d   1       5.647  -2.211  -5.084  0.00  0.00     0.054 A 
ATOM      3  C3  IND d   1       6.000  -1.282  -6.000  0.00  0.00    -0.031 A 
ATOM      4  C4  IND d   1       5.578   1.258  -6.000  0.00  0.00     0.051 A 
ATOM      5  C5  IND d   1       4.926   2.242  -5.310  0.00  0.00    -0.031 A 
ATOM      6  C6  IND d   1       4.227   1.978  -4.150  0.00  0.00     0.015 A 
ATOM      7  C7  IND d   1       4.163   0.717  -3.628  0.00  0.00    -0.016 A 
ATOM      8  C8  IND d   1       4.817  -0.285  -4.329  0.00  0.00    -0.047 A 
ATOM      9  C9  IND d   1       5.493  -0.031  -5.530  0.00  0.00    -0.096 A 
ATOM     10  HN1 IND d   1       4.582  -2.049  -3.405  0.00  0.00     0.298 HD
ENDROOT
TORSDOF 0
ENDMDL
