MODEL 1
REMARK minimizedAffinity -0.366956025
REMARK minimizedRMSD -1
REMARK  0 active torsions:
REMARK  status: ('A' for Active; 'I' for Inactive)
ROOT
ATOM      1  C   UNL d   1       4.957   2.101   6.000  0.00  0.00     0.020 A 
ATOM      2  C1  UNL d   1       3.745   1.503   5.656  0.00  0.00     0.020 A 
ATOM      3  C2  UNL d   1       2.662   2.294   5.268  0.00  0.00     0.034 A 
ATOM      4  C3  UNL d   1       2.788   3.687   5.224  0.00  0.00     0.017 A 
ATOM      5  C4  UNL d   1       4.005   4.286   5.569  0.00  0.00     0.017 A 
ATOM      6  C5  UNL d   1       5.087   3.489   5.957  0.00  0.00     0.034 A 
ATOM      7 Cl   UNL d   1       4.237   5.999   5.538  0.00  0.00    -0.070 Cl
ATOM      8 Cl1  UNL d   1       1.407   4.604   4.735  0.00  0.00    -0.070 Cl
ENDROOT
TORSDOF 0
ENDMDL
