MODEL 1
REMARK minimizedAffinity 3.24002314
REMARK minimizedRMSD -1
REMARK  0 active torsions:
REMARK  status: ('A' for Active; 'I' for Inactive)
ROOT
ATOM      1  C   UNL d   1       4.990   5.964   5.996  0.00  0.00     0.020 A 
ATOM      2  C1  UNL d   1       6.000   5.058   5.673  0.00  0.00     0.020 A 
ATOM      3  C2  UNL d   1       5.676   3.744   5.332  0.00  0.00     0.034 A 
ATOM      4  C3  UNL d   1       4.339   3.330   5.312  0.00  0.00     0.017 A 
ATOM      5  C4  UNL d   1       3.326   4.240   5.636  0.00  0.00     0.017 A 
ATOM      6  C5  UNL d   1       3.656   5.555   5.978  0.00  0.00     0.034 A 
ATOM      7 Cl   UNL d   1       1.653   3.804   5.634  0.00  0.00    -0.070 Cl
ATOM      8 Cl1  UNL d   1       4.011   1.690   4.880  0.00  0.00    -0.070 Cl
ENDROOT
TORSDOF 0
ENDMDL
