MODEL 1
REMARK minimizedAffinity -0.394845396
REMARK minimizedRMSD -1
REMARK  0 active torsions:
REMARK  status: ('A' for Active; 'I' for Inactive)
ROOT
ATOM      1  C   UNL d   1       4.177   0.637  -1.624  0.00  0.00     0.020 A 
ATOM      2  C1  UNL d   1       4.181   1.593  -0.609  0.00  0.00     0.020 A 
ATOM      3  C2  UNL d   1       3.583   1.309   0.621  0.00  0.00     0.034 A 
ATOM      4  C3  UNL d   1       2.980   0.065   0.839  0.00  0.00     0.017 A 
ATOM      5  C4  UNL d   1       2.977  -0.895  -0.180  0.00  0.00     0.017 A 
ATOM      6  C5  UNL d   1       3.577  -0.605  -1.409  0.00  0.00     0.034 A 
ATOM      7 Cl   UNL d   1       2.253  -2.452   0.015  0.00  0.00    -0.070 Cl
ATOM      8 Cl1  UNL d   1       2.261  -0.219   2.384  0.00  0.00    -0.070 Cl
ENDROOT
TORSDOF 0
ENDMDL
