MODEL 1
REMARK minimizedAffinity -2.35580325
REMARK minimizedRMSD -1
REMARK  0 active torsions:
REMARK  status: ('A' for Active; 'I' for Inactive)
ROOT
ATOM      1  C   UNL d   1       2.907   1.897   4.673  0.00  0.00     0.020 A 
ATOM      2  C1  UNL d   1       3.894   1.555   5.597  0.00  0.00     0.020 A 
ATOM      3  C2  UNL d   1       4.839   2.504   5.993  0.00  0.00     0.034 A 
ATOM      4  C3  UNL d   1       4.800   3.799   5.465  0.00  0.00     0.017 A 
ATOM      5  C4  UNL d   1       3.809   4.142   4.538  0.00  0.00     0.017 A 
ATOM      6  C5  UNL d   1       2.865   3.188   4.145  0.00  0.00     0.034 A 
ATOM      7 Cl   UNL d   1       3.695   5.720   3.843  0.00  0.00    -0.070 Cl
ATOM      8 Cl1  UNL d   1       5.999   4.922   6.000  0.00  0.00    -0.070 Cl
ENDROOT
TORSDOF 0
ENDMDL
