MODEL 1
REMARK minimizedAffinity 4.24677372
REMARK minimizedRMSD -1
REMARK  0 active torsions:
REMARK  status: ('A' for Active; 'I' for Inactive)
ROOT
ATOM      1  C   UNL d   1       3.054   2.211   3.656  0.00  0.00     0.020 A 
ATOM      2  C1  UNL d   1       3.703   1.879   4.844  0.00  0.00     0.020 A 
ATOM      3  C2  UNL d   1       4.502   2.824   5.491  0.00  0.00     0.034 A 
ATOM      4  C3  UNL d   1       4.653   4.106   4.950  0.00  0.00     0.017 A 
ATOM      5  C4  UNL d   1       4.000   4.439   3.758  0.00  0.00     0.017 A 
ATOM      6  C5  UNL d   1       3.202   3.488   3.114  0.00  0.00     0.034 A 
ATOM      7 Cl   UNL d   1       4.139   6.000   3.029  0.00  0.00    -0.070 Cl
ATOM      8 Cl1  UNL d   1       5.655   5.226   5.804  0.00  0.00    -0.070 Cl
ENDROOT
TORSDOF 0
ENDMDL
