MODEL 1
REMARK minimizedAffinity -2.41080928
REMARK minimizedRMSD -1
REMARK  0 active torsions:
REMARK  status: ('A' for Active; 'I' for Inactive)
ROOT
ATOM      1  C   UNL d   1       2.617   5.625   4.352  0.00  0.00     0.020 A 
ATOM      2  C1  UNL d   1       2.332   5.141   5.628  0.00  0.00     0.020 A 
ATOM      3  C2  UNL d   1       2.755   3.863   6.000  0.00  0.00     0.034 A 
ATOM      4  C3  UNL d   1       3.465   3.065   5.095  0.00  0.00     0.017 A 
ATOM      5  C4  UNL d   1       3.750   3.553   3.815  0.00  0.00     0.017 A 
ATOM      6  C5  UNL d   1       3.324   4.833   3.447  0.00  0.00     0.034 A 
ATOM      7 Cl   UNL d   1       4.622   2.627   2.643  0.00  0.00    -0.070 Cl
ATOM      8 Cl1  UNL d   1       3.958   1.495   5.623  0.00  0.00    -0.070 Cl
ENDROOT
TORSDOF 0
ENDMDL
