MODEL 1
REMARK minimizedAffinity -4.57270098
REMARK minimizedRMSD -1
REMARK  0 active torsions:
REMARK  status: ('A' for Active; 'I' for Inactive)
ROOT
ATOM      1  C   UNL d   1       4.092   2.722   4.529  0.00  0.00     0.020 A 
ATOM      2  C1  UNL d   1       3.327   2.237   5.590  0.00  0.00     0.020 A 
ATOM      3  C2  UNL d   1       2.172   2.914   5.985  0.00  0.00     0.034 A 
ATOM      4  C3  UNL d   1       1.778   4.081   5.319  0.00  0.00     0.017 A 
ATOM      5  C4  UNL d   1       2.546   4.567   4.255  0.00  0.00     0.017 A 
ATOM      6  C5  UNL d   1       3.702   3.884   3.863  0.00  0.00     0.034 A 
ATOM      7 Cl   UNL d   1       2.123   6.000   3.386  0.00  0.00    -0.070 Cl
ATOM      8 Cl1  UNL d   1       0.338   4.868   5.861  0.00  0.00    -0.070 Cl
ENDROOT
TORSDOF 0
ENDMDL
