MODEL 1
REMARK minimizedAffinity -1.11302853
REMARK minimizedRMSD -1
REMARK  1 active torsions:
REMARK  status: ('A' for Active; 'I' for Inactive)
REMARK    1  A    between atoms: C1_2  and  C2_3 
ROOT
ATOM      1  C2  UNL d   1      -0.558  -0.524  -1.014  0.00  0.00    -0.073 A 
ATOM      2  C3  UNL d   1       0.823  -0.308  -0.941  0.00  0.00    -0.002 A 
ATOM      3  C4  UNL d   1       1.379   0.337   0.164  0.00  0.00     0.004 A 
ATOM      4  C5  UNL d   1       0.562   0.767   1.210  0.00  0.00    -0.004 A 
ATOM      5  C6  UNL d   1      -0.819   0.550   1.161  0.00  0.00    -0.075 A 
ATOM      6  C7  UNL d   1      -1.711   1.009   2.277  0.00  0.00     0.076 C 
ATOM      7  C8  UNL d   1      -1.369  -0.096   0.047  0.00  0.00     0.001 A 
ENDROOT
BRANCH   1   8
ATOM      8  C1  UNL d   1      -1.161  -1.227  -2.202  0.00  0.00     0.053 C 
ATOM      9  C   UNL d   1      -0.590  -0.717  -3.516  0.00  0.00     0.018 C 
ENDBRANCH   1   8
TORSDOF 1
ENDMDL
