MODEL 1
REMARK minimizedAffinity -5.20467138
REMARK minimizedRMSD -1
REMARK  1 active torsions:
REMARK  status: ('A' for Active; 'I' for Inactive)
REMARK    1  A    between atoms: C1_2  and  C2_3 
ROOT
ATOM      1  C2  UNL d   1       0.431  -0.443  -0.429  0.00  0.00    -0.073 A 
ATOM      2  C3  UNL d   1       1.650  -0.867   0.111  0.00  0.00    -0.002 A 
ATOM      3  C4  UNL d   1       2.009  -0.508   1.411  0.00  0.00     0.004 A 
ATOM      4  C5  UNL d   1       1.150   0.272   2.185  0.00  0.00    -0.004 A 
ATOM      5  C6  UNL d   1      -0.078   0.696   1.668  0.00  0.00    -0.075 A 
ATOM      6  C7  UNL d   1      -1.012   1.537   2.487  0.00  0.00     0.076 C 
ATOM      7  C8  UNL d   1      -0.430   0.333   0.360  0.00  0.00     0.001 A 
ENDROOT
BRANCH   1   8
ATOM      8  C1  UNL d   1       0.037  -0.834  -1.830  0.00  0.00     0.053 C 
ATOM      9  C   UNL d   1       0.775  -0.017  -2.879  0.00  0.00     0.018 C 
ENDBRANCH   1   8
TORSDOF 1
ENDMDL
