MODEL 1
REMARK minimizedAffinity -5.18524647
REMARK minimizedRMSD -1
REMARK  1 active torsions:
REMARK  status: ('A' for Active; 'I' for Inactive)
REMARK    1  A    between atoms: C1_2  and  C2_3 
ROOT
ATOM      1  C2  UNL d   1      -0.322   0.155  -0.012  0.00  0.00    -0.073 A 
ATOM      2  C3  UNL d   1       0.673  -0.804   0.213  0.00  0.00    -0.002 A 
ATOM      3  C4  UNL d   1       1.324  -1.410  -0.863  0.00  0.00     0.004 A 
ATOM      4  C5  UNL d   1       0.992  -1.060  -2.171  0.00  0.00    -0.004 A 
ATOM      5  C6  UNL d   1       0.009  -0.096  -2.416  0.00  0.00    -0.075 A 
ATOM      6  C7  UNL d   1      -0.361   0.290  -3.818  0.00  0.00     0.076 C 
ATOM      7  C8  UNL d   1      -0.642   0.506  -1.331  0.00  0.00     0.001 A 
ENDROOT
BRANCH   1   8
ATOM      8  C1  UNL d   1      -1.022   0.816   1.147  0.00  0.00     0.053 C 
ATOM      9  C   UNL d   1      -0.381   0.461   2.479  0.00  0.00     0.018 C 
ENDBRANCH   1   8
TORSDOF 1
ENDMDL
