MODEL 1
REMARK minimizedAffinity -4.79070616
REMARK minimizedRMSD -1
REMARK  0 active torsions:
REMARK  status: ('A' for Active; 'I' for Inactive)
ROOT
ATOM      1  O1  BZF d   1       1.420   1.251  -0.641  0.00  0.00    -0.204 OA
ATOM      2  C2  BZF d   1       0.091   1.536  -0.889  0.00  0.00     0.174 A 
ATOM      3  C3  BZF d   1      -0.704   0.547  -0.429  0.00  0.00    -0.012 A 
ATOM      4  C3A BZF d   1       0.178  -0.371   0.224  0.00  0.00    -0.107 A 
ATOM      5  C4  BZF d   1      -0.017  -1.546   0.892  0.00  0.00     0.055 A 
ATOM      6  C5  BZF d   1       1.062  -2.235   1.347  0.00  0.00    -0.016 A 
ATOM      7  C6  BZF d   1       2.350  -1.781   1.148  0.00  0.00     0.022 A 
ATOM      8  C7  BZF d   1       2.593  -0.618   0.495  0.00  0.00     0.029 A 
ATOM      9  C7A BZF d   1       1.503   0.097   0.063  0.00  0.00     0.058 A 
ENDROOT
TORSDOF 0
ENDMDL
