MODEL 1
REMARK minimizedAffinity -3.39111757
REMARK minimizedRMSD -1
REMARK  0 active torsions:
REMARK  status: ('A' for Active; 'I' for Inactive)
ROOT
ATOM      1  O1  BZF d   1      -0.058   0.032  -0.926  0.00  0.00    -0.204 OA
ATOM      2  C2  BZF d   1       0.471   0.465   0.275  0.00  0.00     0.174 A 
ATOM      3  C3  BZF d   1       0.746   1.784   0.229  0.00  0.00    -0.012 A 
ATOM      4  C3A BZF d   1       0.279   2.222  -1.051  0.00  0.00    -0.107 A 
ATOM      5  C4  BZF d   1       0.257   3.435  -1.678  0.00  0.00     0.055 A 
ATOM      6  C5  BZF d   1      -0.201   3.510  -2.955  0.00  0.00    -0.016 A 
ATOM      7  C6  BZF d   1      -0.639   2.393  -3.636  0.00  0.00     0.022 A 
ATOM      8  C7  BZF d   1      -0.641   1.169  -3.054  0.00  0.00     0.029 A 
ATOM      9  C7A BZF d   1      -0.209   1.095  -1.752  0.00  0.00     0.058 A 
ENDROOT
TORSDOF 0
ENDMDL
