MODEL 1
REMARK minimizedAffinity -4.95123243
REMARK minimizedRMSD -1
REMARK  0 active torsions:
REMARK  status: ('A' for Active; 'I' for Inactive)
ROOT
ATOM      1  O1  BZF d   1       2.740  -1.721   0.771  0.00  0.00    -0.204 OA
ATOM      2  C2  BZF d   1       1.986  -2.828   1.110  0.00  0.00     0.174 A 
ATOM      3  C3  BZF d   1       0.669  -2.572   0.968  0.00  0.00    -0.012 A 
ATOM      4  C3A BZF d   1       0.600  -1.251   0.423  0.00  0.00    -0.107 A 
ATOM      5  C4  BZF d   1      -0.436  -0.444   0.045  0.00  0.00     0.055 A 
ATOM      6  C5  BZF d   1      -0.168   0.819  -0.380  0.00  0.00    -0.016 A 
ATOM      7  C6  BZF d   1       1.121   1.308  -0.436  0.00  0.00     0.022 A 
ATOM      8  C7  BZF d   1       2.181   0.543  -0.077  0.00  0.00     0.029 A 
ATOM      9  C7A BZF d   1       1.916  -0.744   0.322  0.00  0.00     0.058 A 
ENDROOT
TORSDOF 0
ENDMDL
