MODEL 1
REMARK minimizedAffinity -3.39456511
REMARK minimizedRMSD -1
REMARK  0 active torsions:
REMARK  status: ('A' for Active; 'I' for Inactive)
ROOT
ATOM      1  O1  BZF d   1      -1.212  -0.936  -0.162  0.00  0.00    -0.204 OA
ATOM      2  C2  BZF d   1      -1.032   0.373  -0.566  0.00  0.00     0.174 A 
ATOM      3  C3  BZF d   1       0.247   0.758  -0.379  0.00  0.00    -0.012 A 
ATOM      4  C3A BZF d   1       0.928  -0.409   0.090  0.00  0.00    -0.107 A 
ATOM      5  C4  BZF d   1       2.224  -0.665   0.437  0.00  0.00     0.055 A 
ATOM      6  C5  BZF d   1       2.547  -1.891   0.925  0.00  0.00    -0.016 A 
ATOM      7  C6  BZF d   1       1.601  -2.882   1.084  0.00  0.00     0.022 A 
ATOM      8  C7  BZF d   1       0.304  -2.677   0.748  0.00  0.00     0.029 A 
ATOM      9  C7A BZF d   1      -0.020  -1.450   0.224  0.00  0.00     0.058 A 
ENDROOT
TORSDOF 0
ENDMDL
