MODEL 1
REMARK minimizedAffinity -4.23891783
REMARK minimizedRMSD -1
REMARK  0 active torsions:
REMARK  status: ('A' for Active; 'I' for Inactive)
ROOT
ATOM      1  O1  BZF d   1       2.369  -1.683   0.493  0.00  0.00    -0.204 OA
ATOM      2  C2  BZF d   1       1.797  -2.737   1.179  0.00  0.00     0.174 A 
ATOM      3  C3  BZF d   1       0.485  -2.511   1.395  0.00  0.00    -0.012 A 
ATOM      4  C3A BZF d   1       0.200  -1.279   0.727  0.00  0.00    -0.107 A 
ATOM      5  C4  BZF d   1      -0.936  -0.538   0.566  0.00  0.00     0.055 A 
ATOM      6  C5  BZF d   1      -0.861   0.655  -0.080  0.00  0.00    -0.016 A 
ATOM      7  C6  BZF d   1       0.332   1.140  -0.573  0.00  0.00     0.022 A 
ATOM      8  C7  BZF d   1       1.485   0.439  -0.443  0.00  0.00     0.029 A 
ATOM      9  C7A BZF d   1       1.407  -0.782   0.180  0.00  0.00     0.058 A 
ENDROOT
TORSDOF 0
ENDMDL
