MODEL 1
REMARK minimizedAffinity -2.42391086
REMARK minimizedRMSD -1
REMARK  0 active torsions:
REMARK  status: ('A' for Active; 'I' for Inactive)
ROOT
ATOM      1  O1  BZF d   1      -1.101  -0.855  -0.557  0.00  0.00    -0.204 OA
ATOM      2  C2  BZF d   1       0.080  -0.453   0.036  0.00  0.00     0.174 A 
ATOM      3  C3  BZF d   1       0.473   0.744  -0.444  0.00  0.00    -0.012 A 
ATOM      4  C3A BZF d   1      -0.573   1.157  -1.329  0.00  0.00    -0.107 A 
ATOM      5  C4  BZF d   1      -0.769   2.269  -2.097  0.00  0.00     0.055 A 
ATOM      6  C5  BZF d   1      -1.861   2.330  -2.903  0.00  0.00    -0.016 A 
ATOM      7  C6  BZF d   1      -2.773   1.297  -2.970  0.00  0.00     0.022 A 
ATOM      8  C7  BZF d   1      -2.624   0.176  -2.224  0.00  0.00     0.029 A 
ATOM      9  C7A BZF d   1      -1.539   0.125  -1.383  0.00  0.00     0.058 A 
ENDROOT
TORSDOF 0
ENDMDL
