MODEL 1
REMARK minimizedAffinity -3.90333748
REMARK minimizedRMSD -1
REMARK  0 active torsions:
REMARK  status: ('A' for Active; 'I' for Inactive)
ROOT
ATOM      1  O1  BZF d   1      -1.050  -0.939  -0.865  0.00  0.00    -0.204 OA
ATOM      2  C2  BZF d   1      -1.026   0.382  -1.266  0.00  0.00     0.174 A 
ATOM      3  C3  BZF d   1       0.067   1.008  -0.785  0.00  0.00    -0.012 A 
ATOM      4  C3A BZF d   1       0.817  -0.008  -0.113  0.00  0.00    -0.107 A 
ATOM      5  C4  BZF d   1       2.008  -0.009   0.556  0.00  0.00     0.055 A 
ATOM      6  C5  BZF d   1       2.426  -1.152   1.160  0.00  0.00    -0.016 A 
ATOM      7  C6  BZF d   1       1.677  -2.309   1.120  0.00  0.00     0.022 A 
ATOM      8  C7  BZF d   1       0.491  -2.359   0.465  0.00  0.00     0.029 A 
ATOM      9  C7A BZF d   1       0.082  -1.214  -0.174  0.00  0.00     0.058 A 
ENDROOT
TORSDOF 0
ENDMDL
