MODEL 1
REMARK minimizedAffinity -2.69839668
REMARK minimizedRMSD -1
REMARK  0 active torsions:
REMARK  status: ('A' for Active; 'I' for Inactive)
ROOT
ATOM      1  O1  BZF d   1       2.862  -1.502   1.862  0.00  0.00    -0.204 OA
ATOM      2  C2  BZF d   1       3.813  -0.501   1.920  0.00  0.00     0.174 A 
ATOM      3  C3  BZF d   1       3.403   0.589   1.240  0.00  0.00    -0.012 A 
ATOM      4  C3A BZF d   1       2.076   0.282   0.803  0.00  0.00    -0.107 A 
ATOM      5  C4  BZF d   1       1.138   0.976   0.093  0.00  0.00     0.055 A 
ATOM      6  C5  BZF d   1      -0.032   0.363  -0.230  0.00  0.00    -0.016 A 
ATOM      7  C6  BZF d   1      -0.294  -0.940   0.137  0.00  0.00     0.022 A 
ATOM      8  C7  BZF d   1       0.604  -1.667   0.846  0.00  0.00     0.029 A 
ATOM      9  C7A BZF d   1       1.773  -1.040   1.202  0.00  0.00     0.058 A 
ENDROOT
TORSDOF 0
ENDMDL
