MODEL 1
REMARK minimizedAffinity -3.85621166
REMARK minimizedRMSD -1
REMARK  0 active torsions:
REMARK  status: ('A' for Active; 'I' for Inactive)
ROOT
ATOM      1  O1  BZF d   1      -0.027  -2.237   1.696  0.00  0.00    -0.204 OA
ATOM      2  C2  BZF d   1       1.017  -2.910   1.093  0.00  0.00     0.174 A 
ATOM      3  C3  BZF d   1       1.529  -2.187   0.076  0.00  0.00    -0.012 A 
ATOM      4  C3A BZF d   1       0.816  -0.947   0.100  0.00  0.00    -0.107 A 
ATOM      5  C4  BZF d   1       0.882   0.189  -0.655  0.00  0.00     0.055 A 
ATOM      6  C5  BZF d   1      -0.004   1.192  -0.419  0.00  0.00    -0.016 A 
ATOM      7  C6  BZF d   1      -0.972   1.090   0.559  0.00  0.00     0.022 A 
ATOM      8  C7  BZF d   1      -1.074  -0.016   1.336  0.00  0.00     0.029 A 
ATOM      9  C7A BZF d   1      -0.159  -1.017   1.122  0.00  0.00     0.058 A 
ENDROOT
TORSDOF 0
ENDMDL
