MODEL 1
REMARK minimizedAffinity -4.34042597
REMARK minimizedRMSD -1
REMARK  0 active torsions:
REMARK  status: ('A' for Active; 'I' for Inactive)
ROOT
ATOM      1  O1  BZF d   1       2.095  -0.252  -0.239  0.00  0.00    -0.204 OA
ATOM      2  C2  BZF d   1       2.443  -1.480   0.291  0.00  0.00     0.174 A 
ATOM      3  C3  BZF d   1       1.484  -1.930   1.125  0.00  0.00    -0.012 A 
ATOM      4  C3A BZF d   1       0.431  -0.965   1.044  0.00  0.00    -0.107 A 
ATOM      5  C4  BZF d   1      -0.798  -0.865   1.631  0.00  0.00     0.055 A 
ATOM      6  C5  BZF d   1      -1.553   0.240   1.398  0.00  0.00    -0.016 A 
ATOM      7  C6  BZF d   1      -1.109   1.266   0.589  0.00  0.00     0.022 A 
ATOM      8  C7  BZF d   1       0.101   1.209  -0.019  0.00  0.00     0.029 A 
ATOM      9  C7A BZF d   1       0.853   0.079   0.188  0.00  0.00     0.058 A 
ENDROOT
TORSDOF 0
ENDMDL
