MODEL 1
REMARK minimizedAffinity -1.94045198
REMARK minimizedRMSD -1
REMARK  0 active torsions:
REMARK  status: ('A' for Active; 'I' for Inactive)
ROOT
ATOM      1  O1  BZF d   1       1.307   0.880  -0.080  0.00  0.00    -0.204 OA
ATOM      2  C2  BZF d   1       0.017   1.249  -0.406  0.00  0.00     0.174 A 
ATOM      3  C3  BZF d   1      -0.843   0.236  -0.174  0.00  0.00    -0.012 A 
ATOM      4  C3A BZF d   1      -0.053  -0.801   0.415  0.00  0.00    -0.107 A 
ATOM      5  C4  BZF d   1      -0.342  -2.052   0.881  0.00  0.00     0.055 A 
ATOM      6  C5  BZF d   1       0.670  -2.841   1.327  0.00  0.00    -0.016 A 
ATOM      7  C6  BZF d   1       1.982  -2.414   1.318  0.00  0.00     0.022 A 
ATOM      8  C7  BZF d   1       2.317  -1.179   0.871  0.00  0.00     0.029 A 
ATOM      9  C7A BZF d   1       1.292  -0.367   0.449  0.00  0.00     0.058 A 
ENDROOT
TORSDOF 0
ENDMDL
