MODEL 1
REMARK minimizedAffinity -5.28093958
REMARK minimizedRMSD -1
REMARK  0 active torsions:
REMARK  status: ('A' for Active; 'I' for Inactive)
ROOT
ATOM      1  O1  BZF d   1      -0.995   0.114   0.630  0.00  0.00    -0.204 OA
ATOM      2  C2  BZF d   1      -0.216   0.443  -0.462  0.00  0.00     0.174 A 
ATOM      3  C3  BZF d   1       0.896  -0.318  -0.503  0.00  0.00    -0.012 A 
ATOM      4  C3A BZF d   1       0.761  -1.240   0.583  0.00  0.00    -0.107 A 
ATOM      5  C4  BZF d   1       1.539  -2.261   1.050  0.00  0.00     0.055 A 
ATOM      6  C5  BZF d   1       1.158  -2.919   2.176  0.00  0.00    -0.016 A 
ATOM      7  C6  BZF d   1       0.010  -2.581   2.861  0.00  0.00     0.022 A 
ATOM      8  C7  BZF d   1      -0.796  -1.579   2.434  0.00  0.00     0.029 A 
ATOM      9  C7A BZF d   1      -0.431  -0.933   1.278  0.00  0.00     0.058 A 
ENDROOT
TORSDOF 0
ENDMDL
