MODEL 1
REMARK minimizedAffinity -5.33979559
REMARK minimizedRMSD -1
REMARK  0 active torsions:
REMARK  status: ('A' for Active; 'I' for Inactive)
ROOT
ATOM      1  O1  BZF d   1       2.466  -2.001   0.437  0.00  0.00    -0.204 OA
ATOM      2  C2  BZF d   1       1.434  -2.778   0.925  0.00  0.00     0.174 A 
ATOM      3  C3  BZF d   1       0.270  -2.098   0.900  0.00  0.00    -0.012 A 
ATOM      4  C3A BZF d   1       0.578  -0.847   0.278  0.00  0.00    -0.107 A 
ATOM      5  C4  BZF d   1      -0.169   0.250  -0.044  0.00  0.00     0.055 A 
ATOM      6  C5  BZF d   1       0.450   1.336  -0.578  0.00  0.00    -0.016 A 
ATOM      7  C6  BZF d   1       1.811   1.361  -0.798  0.00  0.00     0.022 A 
ATOM      8  C7  BZF d   1       2.593   0.295  -0.499  0.00  0.00     0.029 A 
ATOM      9  C7A BZF d   1       1.966  -0.816   0.010  0.00  0.00     0.058 A 
ENDROOT
TORSDOF 0
ENDMDL
