MODEL 1
REMARK minimizedAffinity -6.58141422
REMARK minimizedRMSD -1
REMARK  0 active torsions:
REMARK  status: ('A' for Active; 'I' for Inactive)
ROOT
ATOM      1  O1  BZF d   1      -0.758   0.210   0.496  0.00  0.00    -0.204 OA
ATOM      2  C2  BZF d   1       0.097   0.616  -0.510  0.00  0.00     0.174 A 
ATOM      3  C3  BZF d   1       1.170  -0.199  -0.584  0.00  0.00    -0.012 A 
ATOM      4  C3A BZF d   1       0.927  -1.229   0.379  0.00  0.00    -0.107 A 
ATOM      5  C4  BZF d   1       1.624  -2.339   0.762  0.00  0.00     0.055 A 
ATOM      6  C5  BZF d   1       1.147  -3.099   1.783  0.00  0.00    -0.016 A 
ATOM      7  C6  BZF d   1      -0.020  -2.775   2.445  0.00  0.00     0.022 A 
ATOM      8  C7  BZF d   1      -0.748  -1.686   2.098  0.00  0.00     0.029 A 
ATOM      9  C7A BZF d   1      -0.286  -0.935   1.045  0.00  0.00     0.058 A 
ENDROOT
TORSDOF 0
ENDMDL
