MODEL 1
REMARK minimizedAffinity -3.22593355
REMARK minimizedRMSD -1
REMARK  0 active torsions:
REMARK  status: ('A' for Active; 'I' for Inactive)
ROOT
ATOM      1  O1  BZF d   1       2.073  -0.774  -0.444  0.00  0.00    -0.204 OA
ATOM      2  C2  BZF d   1       2.317  -1.839   0.401  0.00  0.00     0.174 A 
ATOM      3  C3  BZF d   1       1.337  -1.953   1.321  0.00  0.00    -0.012 A 
ATOM      4  C3A BZF d   1       0.378  -0.950   0.976  0.00  0.00    -0.107 A 
ATOM      5  C4  BZF d   1      -0.824  -0.577   1.507  0.00  0.00     0.055 A 
ATOM      6  C5  BZF d   1      -1.478   0.490   0.978  0.00  0.00    -0.016 A 
ATOM      7  C6  BZF d   1      -0.957   1.210  -0.077  0.00  0.00     0.022 A 
ATOM      8  C7  BZF d   1       0.229   0.876  -0.641  0.00  0.00     0.029 A 
ATOM      9  C7A BZF d   1       0.876  -0.223  -0.130  0.00  0.00     0.058 A 
ENDROOT
TORSDOF 0
ENDMDL
