MODEL 1
REMARK minimizedAffinity -5.03431082
REMARK minimizedRMSD -1
REMARK  0 active torsions:
REMARK  status: ('A' for Active; 'I' for Inactive)
ROOT
ATOM      1  O1  BZF d   1      -0.545   0.143   0.863  0.00  0.00    -0.204 OA
ATOM      2  C2  BZF d   1      -0.174   1.171   0.018  0.00  0.00     0.174 A 
ATOM      3  C3  BZF d   1       0.996   0.891  -0.591  0.00  0.00    -0.012 A 
ATOM      4  C3A BZF d   1       1.334  -0.433  -0.167  0.00  0.00    -0.107 A 
ATOM      5  C4  BZF d   1       2.376  -1.270  -0.445  0.00  0.00     0.055 A 
ATOM      6  C5  BZF d   1       2.447  -2.469   0.191  0.00  0.00    -0.016 A 
ATOM      7  C6  BZF d   1       1.498  -2.860   1.113  0.00  0.00     0.022 A 
ATOM      8  C7  BZF d   1       0.444  -2.065   1.418  0.00  0.00     0.029 A 
ATOM      9  C7A BZF d   1       0.351  -0.867   0.752  0.00  0.00     0.058 A 
ENDROOT
TORSDOF 0
ENDMDL
