MODEL 1
REMARK minimizedAffinity -4.77920628
REMARK minimizedRMSD -1
REMARK  0 active torsions:
REMARK  status: ('A' for Active; 'I' for Inactive)
ROOT
ATOM      1  C   UNL d   1       1.019  -1.399  -2.971  0.00  0.00     0.023 A 
ATOM      2  C1  UNL d   1       2.114  -2.222  -2.710  0.00  0.00     0.003 A 
ATOM      3  C2  UNL d   1       3.372  -1.895  -3.219  0.00  0.00     0.048 A 
ATOM      4  C3  UNL d   1       3.529  -0.742  -3.988  0.00  0.00     0.023 A 
ATOM      5  C4  UNL d   1       2.436   0.086  -4.250  0.00  0.00     0.048 A 
ATOM      6  C5  UNL d   1       1.180  -0.246  -3.740  0.00  0.00     0.003 A 
ATOM      7  I   UNL d   1       5.401  -0.252  -4.746  0.00  0.00    -0.146 I 
ENDROOT
TORSDOF 0
ENDMDL
