MODEL 1
REMARK minimizedAffinity 2.5292213
REMARK minimizedRMSD -1
REMARK  0 active torsions:
REMARK  status: ('A' for Active; 'I' for Inactive)
ROOT
ATOM      1  C   UNL d   1      -4.407  -0.661   2.672  0.00  0.00     0.023 A 
ATOM      2  C1  UNL d   1      -3.028  -0.545   2.847  0.00  0.00     0.003 A 
ATOM      3  C2  UNL d   1      -2.155  -1.030   1.871  0.00  0.00     0.048 A 
ATOM      4  C3  UNL d   1      -2.668  -1.630   0.722  0.00  0.00     0.023 A 
ATOM      5  C4  UNL d   1      -4.047  -1.748   0.541  0.00  0.00     0.048 A 
ATOM      6  C5  UNL d   1      -4.916  -1.262   1.520  0.00  0.00     0.003 A 
ATOM      7  I   UNL d   1      -1.371  -2.353  -0.733  0.00  0.00    -0.146 I 
ENDROOT
TORSDOF 0
ENDMDL
