MODEL 1
REMARK minimizedAffinity 5.45036983
REMARK minimizedRMSD -1
REMARK  0 active torsions:
REMARK  status: ('A' for Active; 'I' for Inactive)
ROOT
ATOM      1  C   UNL d   1      -2.972  -1.174   3.815  0.00  0.00     0.023 A 
ATOM      2  C1  UNL d   1      -2.964  -1.815   2.576  0.00  0.00     0.003 A 
ATOM      3  C2  UNL d   1      -2.829  -1.069   1.404  0.00  0.00     0.048 A 
ATOM      4  C3  UNL d   1      -2.700   0.317   1.477  0.00  0.00     0.023 A 
ATOM      5  C4  UNL d   1      -2.706   0.963   2.714  0.00  0.00     0.048 A 
ATOM      6  C5  UNL d   1      -2.843   0.214   3.884  0.00  0.00     0.003 A 
ATOM      7  I   UNL d   1      -2.498   1.429  -0.268  0.00  0.00    -0.146 I 
ENDROOT
TORSDOF 0
ENDMDL
