MODEL 1
REMARK minimizedAffinity 2.17266464
REMARK minimizedRMSD -1
REMARK  0 active torsions:
REMARK  status: ('A' for Active; 'I' for Inactive)
ROOT
ATOM      1  C   UNL d   1       5.435  -1.087   4.880  0.00  0.00     0.023 A 
ATOM      2  C1  UNL d   1       4.494  -1.223   3.859  0.00  0.00     0.003 A 
ATOM      3  C2  UNL d   1       4.116  -0.112   3.103  0.00  0.00     0.048 A 
ATOM      4  C3  UNL d   1       4.683   1.133   3.373  0.00  0.00     0.023 A 
ATOM      5  C4  UNL d   1       5.625   1.274   4.393  0.00  0.00     0.048 A 
ATOM      6  C5  UNL d   1       6.000   0.160   5.146  0.00  0.00     0.003 A 
ATOM      7  I   UNL d   1       4.122   2.789   2.249  0.00  0.00    -0.146 I 
ENDROOT
TORSDOF 0
ENDMDL
