MODEL 1
REMARK minimizedAffinity -1.38435602
REMARK minimizedRMSD -1
REMARK  0 active torsions:
REMARK  status: ('A' for Active; 'I' for Inactive)
ROOT
ATOM      1  C   UNL d   1       6.000   1.376  -5.640  0.00  0.00     0.023 A 
ATOM      2  C1  UNL d   1       5.799   0.442  -4.623  0.00  0.00     0.003 A 
ATOM      3  C2  UNL d   1       4.570   0.379  -3.964  0.00  0.00     0.048 A 
ATOM      4  C3  UNL d   1       3.545   1.252  -4.327  0.00  0.00     0.023 A 
ATOM      5  C4  UNL d   1       3.741   2.187  -5.344  0.00  0.00     0.048 A 
ATOM      6  C5  UNL d   1       4.972   2.247  -6.000  0.00  0.00     0.003 A 
ATOM      7  I   UNL d   1       1.715   1.159  -3.346  0.00  0.00    -0.146 I 
ENDROOT
TORSDOF 0
ENDMDL
