MODEL 1
REMARK minimizedAffinity 0.953935981
REMARK minimizedRMSD -1
REMARK  0 active torsions:
REMARK  status: ('A' for Active; 'I' for Inactive)
ROOT
ATOM      1  C   UNL d   1      -2.957   1.261  -0.482  0.00  0.00     0.023 A 
ATOM      2  C1  UNL d   1      -2.409   2.188   0.405  0.00  0.00     0.003 A 
ATOM      3  C2  UNL d   1      -2.359   1.903   1.771  0.00  0.00     0.048 A 
ATOM      4  C3  UNL d   1      -2.857   0.689   2.243  0.00  0.00     0.023 A 
ATOM      5  C4  UNL d   1      -3.404  -0.242   1.359  0.00  0.00     0.048 A 
ATOM      6  C5  UNL d   1      -3.454   0.048  -0.006  0.00  0.00     0.003 A 
ATOM      7  I   UNL d   1      -2.782   0.263   4.276  0.00  0.00    -0.146 I 
ENDROOT
TORSDOF 0
ENDMDL
