MODEL 1
REMARK minimizedAffinity -1.42378092
REMARK minimizedRMSD -1
REMARK  0 active torsions:
REMARK  status: ('A' for Active; 'I' for Inactive)
ROOT
ATOM      1  C   UNL d   1      -2.692  -1.346   2.938  0.00  0.00     0.023 A 
ATOM      2  C1  UNL d   1      -3.236  -0.153   3.416  0.00  0.00     0.003 A 
ATOM      3  C2  UNL d   1      -3.351   0.952   2.570  0.00  0.00     0.048 A 
ATOM      4  C3  UNL d   1      -2.921   0.857   1.247  0.00  0.00     0.023 A 
ATOM      5  C4  UNL d   1      -2.378  -0.335   0.764  0.00  0.00     0.048 A 
ATOM      6  C5  UNL d   1      -2.264  -1.437   1.614  0.00  0.00     0.003 A 
ATOM      7  I   UNL d   1      -3.092   2.500  -0.015  0.00  0.00    -0.146 I 
ENDROOT
TORSDOF 0
ENDMDL
