MODEL 1
REMARK minimizedAffinity 2.89716768
REMARK minimizedRMSD -1
REMARK  0 active torsions:
REMARK  status: ('A' for Active; 'I' for Inactive)
ROOT
ATOM      1  C   UNL d   1      -4.429  -1.486   0.376  0.00  0.00     0.023 A 
ATOM      2  C1  UNL d   1      -5.007  -1.342   1.637  0.00  0.00     0.003 A 
ATOM      3  C2  UNL d   1      -4.230  -0.928   2.721  0.00  0.00     0.048 A 
ATOM      4  C3  UNL d   1      -2.874  -0.659   2.536  0.00  0.00     0.023 A 
ATOM      5  C4  UNL d   1      -2.291  -0.801   1.276  0.00  0.00     0.048 A 
ATOM      6  C5  UNL d   1      -3.072  -1.216   0.196  0.00  0.00     0.003 A 
ATOM      7  I   UNL d   1      -1.714  -0.044   4.147  0.00  0.00    -0.146 I 
ENDROOT
TORSDOF 0
ENDMDL
