MODEL 1
REMARK minimizedAffinity 6.3754344
REMARK minimizedRMSD -1
REMARK  0 active torsions:
REMARK  status: ('A' for Active; 'I' for Inactive)
ROOT
ATOM      1  C   UNL d   1      -3.740  -1.083   4.135  0.00  0.00     0.023 A 
ATOM      2  C1  UNL d   1      -2.909   0.034   4.219  0.00  0.00     0.003 A 
ATOM      3  C2  UNL d   1      -2.620   0.780   3.074  0.00  0.00     0.048 A 
ATOM      4  C3  UNL d   1      -3.166   0.403   1.848  0.00  0.00     0.023 A 
ATOM      5  C4  UNL d   1      -3.999  -0.714   1.759  0.00  0.00     0.048 A 
ATOM      6  C5  UNL d   1      -4.284  -1.456   2.906  0.00  0.00     0.003 A 
ATOM      7  I   UNL d   1      -2.738   1.510   0.142  0.00  0.00    -0.146 I 
ENDROOT
TORSDOF 0
ENDMDL
