MODEL 1
REMARK minimizedAffinity -1.82930899
REMARK minimizedRMSD -1
REMARK  0 active torsions:
REMARK  status: ('A' for Active; 'I' for Inactive)
ROOT
ATOM      1  C   UNL d   1      -3.051   1.191   3.336  0.00  0.00     0.023 A 
ATOM      2  C1  UNL d   1      -2.348   1.602   2.203  0.00  0.00     0.003 A 
ATOM      3  C2  UNL d   1      -1.988   0.670   1.227  0.00  0.00     0.048 A 
ATOM      4  C3  UNL d   1      -2.335  -0.671   1.389  0.00  0.00     0.023 A 
ATOM      5  C4  UNL d   1      -3.040  -1.086   2.520  0.00  0.00     0.048 A 
ATOM      6  C5  UNL d   1      -3.397  -0.151   3.494  0.00  0.00     0.003 A 
ATOM      7  I   UNL d   1      -1.801  -2.059  -0.062  0.00  0.00    -0.146 I 
ENDROOT
TORSDOF 0
ENDMDL
