MODEL 1
REMARK minimizedAffinity 2.92972183
REMARK minimizedRMSD -1
REMARK  0 active torsions:
REMARK  status: ('A' for Active; 'I' for Inactive)
ROOT
ATOM      1  C   UNL d   1      -3.992   0.899   3.000  0.00  0.00     0.023 A 
ATOM      2  C1  UNL d   1      -4.677   0.243   1.976  0.00  0.00     0.003 A 
ATOM      3  C2  UNL d   1      -4.020  -0.708   1.194  0.00  0.00     0.048 A 
ATOM      4  C3  UNL d   1      -2.679  -1.000   1.441  0.00  0.00     0.023 A 
ATOM      5  C4  UNL d   1      -1.990  -0.347   2.465  0.00  0.00     0.048 A 
ATOM      6  C5  UNL d   1      -2.651   0.604   3.244  0.00  0.00     0.003 A 
ATOM      7  I   UNL d   1      -1.699  -2.417   0.278  0.00  0.00    -0.146 I 
ENDROOT
TORSDOF 0
ENDMDL
