MODEL 1
REMARK minimizedAffinity 9.34940243
REMARK minimizedRMSD -1
REMARK  0 active torsions:
REMARK  status: ('A' for Active; 'I' for Inactive)
ROOT
ATOM      1  C   UNL d   1       4.419   0.560   2.846  0.00  0.00     0.023 A 
ATOM      2  C1  UNL d   1       3.751   1.728   2.477  0.00  0.00     0.003 A 
ATOM      3  C2  UNL d   1       4.203   2.967   2.936  0.00  0.00     0.048 A 
ATOM      4  C3  UNL d   1       5.324   3.032   3.763  0.00  0.00     0.023 A 
ATOM      5  C4  UNL d   1       5.996   1.866   4.134  0.00  0.00     0.048 A 
ATOM      6  C5  UNL d   1       5.540   0.629   3.674  0.00  0.00     0.003 A 
ATOM      7  I   UNL d   1       5.999   4.875   4.446  0.00  0.00    -0.146 I 
ENDROOT
TORSDOF 0
ENDMDL
