MODEL 1
REMARK minimizedAffinity 5.49454689
REMARK minimizedRMSD -1
REMARK  0 active torsions:
REMARK  status: ('A' for Active; 'I' for Inactive)
ROOT
ATOM      1  C   UNL d   1       5.947  -0.215   4.915  0.00  0.00     0.023 A 
ATOM      2  C1  UNL d   1       5.279  -0.593   3.750  0.00  0.00     0.003 A 
ATOM      3  C2  UNL d   1       4.661   0.373   2.954  0.00  0.00     0.048 A 
ATOM      4  C3  UNL d   1       4.715   1.715   3.327  0.00  0.00     0.023 A 
ATOM      5  C4  UNL d   1       5.384   2.098   4.491  0.00  0.00     0.048 A 
ATOM      6  C5  UNL d   1       6.000   1.128   5.285  0.00  0.00     0.003 A 
ATOM      7  I   UNL d   1       3.796   3.155   2.143  0.00  0.00    -0.146 I 
ENDROOT
TORSDOF 0
ENDMDL
