MODEL 1
REMARK minimizedAffinity -3.99395943
REMARK minimizedRMSD -1
REMARK  0 active torsions:
REMARK  status: ('A' for Active; 'I' for Inactive)
ROOT
ATOM      1  C   UNL d   1      -2.467   1.520  -0.219  0.00  0.00     0.023 A 
ATOM      2  C1  UNL d   1      -2.396   2.427   0.838  0.00  0.00     0.003 A 
ATOM      3  C2  UNL d   1      -2.654   2.003   2.143  0.00  0.00     0.048 A 
ATOM      4  C3  UNL d   1      -2.981   0.669   2.384  0.00  0.00     0.023 A 
ATOM      5  C4  UNL d   1      -3.053  -0.243   1.330  0.00  0.00     0.048 A 
ATOM      6  C5  UNL d   1      -2.795   0.187   0.027  0.00  0.00     0.003 A 
ATOM      7  I   UNL d   1      -3.365   0.034   4.326  0.00  0.00    -0.146 I 
ENDROOT
TORSDOF 0
ENDMDL
