MODEL 1
REMARK minimizedAffinity 0.198239446
REMARK minimizedRMSD -1
REMARK  0 active torsions:
REMARK  status: ('A' for Active; 'I' for Inactive)
ROOT
ATOM      1  C   UNL d   1      -4.068   4.058   0.886  0.00  0.00     0.023 A 
ATOM      2  C1  UNL d   1      -3.408   4.673  -0.178  0.00  0.00     0.003 A 
ATOM      3  C2  UNL d   1      -2.326   4.038  -0.791  0.00  0.00     0.048 A 
ATOM      4  C3  UNL d   1      -1.910   2.787  -0.337  0.00  0.00     0.023 A 
ATOM      5  C4  UNL d   1      -2.568   2.167   0.727  0.00  0.00     0.048 A 
ATOM      6  C5  UNL d   1      -3.648   2.806   1.338  0.00  0.00     0.003 A 
ATOM      7  I   UNL d   1      -0.301   1.840  -1.249  0.00  0.00    -0.146 I 
ENDROOT
TORSDOF 0
ENDMDL
