MODEL 1
REMARK minimizedAffinity 3.22014999
REMARK minimizedRMSD -1
REMARK  0 active torsions:
REMARK  status: ('A' for Active; 'I' for Inactive)
ROOT
ATOM      1  C   UNL d   1      -5.163  -0.153  -1.267  0.00  0.00     0.023 A 
ATOM      2  C1  UNL d   1      -3.811  -0.457  -1.109  0.00  0.00     0.003 A 
ATOM      3  C2  UNL d   1      -3.292  -0.697   0.165  0.00  0.00     0.048 A 
ATOM      4  C3  UNL d   1      -4.131  -0.633   1.276  0.00  0.00     0.023 A 
ATOM      5  C4  UNL d   1      -5.485  -0.331   1.123  0.00  0.00     0.048 A 
ATOM      6  C5  UNL d   1      -5.999  -0.090  -0.152  0.00  0.00     0.003 A 
ATOM      7  I   UNL d   1      -3.361  -0.990   3.174  0.00  0.00    -0.146 I 
ENDROOT
TORSDOF 0
ENDMDL
