MODEL 1
REMARK minimizedAffinity 2.93928838
REMARK minimizedRMSD -1
REMARK  0 active torsions:
REMARK  status: ('A' for Active; 'I' for Inactive)
ROOT
ATOM      1  C   UNL d   1       4.019   3.445  -5.744  0.00  0.00     0.023 A 
ATOM      2  C1  UNL d   1       5.401   3.286  -5.645  0.00  0.00     0.003 A 
ATOM      3  C2  UNL d   1       5.965   2.011  -5.710  0.00  0.00     0.048 A 
ATOM      4  C3  UNL d   1       5.141   0.898  -5.874  0.00  0.00     0.023 A 
ATOM      5  C4  UNL d   1       3.757   1.052  -5.974  0.00  0.00     0.048 A 
ATOM      6  C5  UNL d   1       3.198   2.330  -5.908  0.00  0.00     0.003 A 
ATOM      7  I   UNL d   1       5.978  -1.002  -5.971  0.00  0.00    -0.146 I 
ENDROOT
TORSDOF 0
ENDMDL
