MODEL 1
REMARK minimizedAffinity 1.4792428
REMARK minimizedRMSD -1
REMARK  0 active torsions:
REMARK  status: ('A' for Active; 'I' for Inactive)
ROOT
ATOM      1  C   UNL d   1      -3.806   3.443   0.455  0.00  0.00     0.023 A 
ATOM      2  C1  UNL d   1      -3.216   3.968  -0.695  0.00  0.00     0.003 A 
ATOM      3  C2  UNL d   1      -2.121   3.323  -1.275  0.00  0.00     0.048 A 
ATOM      4  C3  UNL d   1      -1.623   2.154  -0.702  0.00  0.00     0.023 A 
ATOM      5  C4  UNL d   1      -2.211   1.625   0.448  0.00  0.00     0.048 A 
ATOM      6  C5  UNL d   1      -3.304   2.273   1.026  0.00  0.00     0.003 A 
ATOM      7  I   UNL d   1       0.005   1.193  -1.564  0.00  0.00    -0.146 I 
ENDROOT
TORSDOF 0
ENDMDL
