MODEL 1
REMARK minimizedAffinity 6.88868666
REMARK minimizedRMSD -1
REMARK  0 active torsions:
REMARK  status: ('A' for Active; 'I' for Inactive)
ROOT
ATOM      1  C   UNL d   1      -0.117   3.044   2.158  0.00  0.00    -0.002 A 
ATOM      2  C1  UNL d   1      -1.447   2.716   2.383  0.00  0.00     0.010 A 
ATOM      3  C2  UNL d   1      -1.789   1.491   2.959  0.00  0.00     0.041 A 
ATOM      4  C3  UNL d   1      -0.763   0.593   3.310  0.00  0.00    -0.075 A 
ATOM      5  S   UNL d   1      -0.944  -0.964   4.029  0.00  0.00     0.015 SA
ATOM      6  C4  UNL d   1       0.739  -1.230   4.056  0.00  0.00     0.022 A 
ATOM      7  C5  UNL d   1       1.437  -0.168   3.532  0.00  0.00     0.026 A 
ATOM      8  C6  UNL d   1       0.584   0.900   3.095  0.00  0.00    -0.082 A 
ATOM      9  C7  UNL d   1       0.899   2.150   2.508  0.00  0.00     0.045 A 
ENDROOT
TORSDOF 0
ENDMDL
