MODEL 1
REMARK minimizedAffinity 9.64726067
REMARK minimizedRMSD -1
REMARK  0 active torsions:
REMARK  status: ('A' for Active; 'I' for Inactive)
ROOT
ATOM      1  C   UNL d   1      -1.025   4.583  -0.916  0.00  0.00    -0.002 A 
ATOM      2  C1  UNL d   1      -0.746   3.553  -1.803  0.00  0.00     0.010 A 
ATOM      3  C2  UNL d   1      -0.312   2.311  -1.336  0.00  0.00     0.041 A 
ATOM      4  C3  UNL d   1      -0.164   2.119   0.052  0.00  0.00    -0.075 A 
ATOM      5  S   UNL d   1       0.353   0.683   0.854  0.00  0.00     0.015 SA
ATOM      6  C4  UNL d   1       0.214   1.403   2.392  0.00  0.00     0.022 A 
ATOM      7  C5  UNL d   1      -0.214   2.707   2.315  0.00  0.00     0.026 A 
ATOM      8  C6  UNL d   1      -0.440   3.141   0.965  0.00  0.00    -0.082 A 
ATOM      9  C7  UNL d   1      -0.877   4.389   0.460  0.00  0.00     0.045 A 
ENDROOT
TORSDOF 0
ENDMDL
