MODEL 1
REMARK minimizedAffinity 8.63101768
REMARK minimizedRMSD -1
REMARK  0 active torsions:
REMARK  status: ('A' for Active; 'I' for Inactive)
ROOT
ATOM      1  C   UNL d   1      -0.068   2.875   0.032  0.00  0.00    -0.002 A 
ATOM      2  C1  UNL d   1       1.049   3.640  -0.271  0.00  0.00     0.010 A 
ATOM      3  C2  UNL d   1       0.986   4.631  -1.253  0.00  0.00     0.041 A 
ATOM      4  C3  UNL d   1      -0.230   4.842  -1.931  0.00  0.00    -0.075 A 
ATOM      5  S   UNL d   1      -0.542   6.000  -3.170  0.00  0.00     0.015 SA
ATOM      6  C4  UNL d   1      -2.166   5.505  -3.326  0.00  0.00     0.022 A 
ATOM      7  C5  UNL d   1      -2.479   4.483  -2.462  0.00  0.00     0.026 A 
ATOM      8  C6  UNL d   1      -1.369   4.084  -1.643  0.00  0.00    -0.082 A 
ATOM      9  C7  UNL d   1      -1.273   3.087  -0.643  0.00  0.00     0.045 A 
ENDROOT
TORSDOF 0
ENDMDL
