MODEL 1
REMARK minimizedAffinity 3.95615077
REMARK minimizedRMSD -1
REMARK  0 active torsions:
REMARK  status: ('A' for Active; 'I' for Inactive)
ROOT
ATOM      1  C   UNL d   1      -4.278  -1.221  -5.994  0.00  0.00    -0.002 A 
ATOM      2  C1  UNL d   1      -5.606  -1.623  -5.995  0.00  0.00     0.010 A 
ATOM      3  C2  UNL d   1      -5.938  -2.979  -5.997  0.00  0.00     0.041 A 
ATOM      4  C3  UNL d   1      -4.902  -3.934  -5.997  0.00  0.00    -0.075 A 
ATOM      5  S   UNL d   1      -5.070  -5.650  -5.999  0.00  0.00     0.015 SA
ATOM      6  C4  UNL d   1      -3.383  -5.890  -5.998  0.00  0.00     0.022 A 
ATOM      7  C5  UNL d   1      -2.693  -4.701  -5.997  0.00  0.00     0.026 A 
ATOM      8  C6  UNL d   1      -3.557  -3.554  -5.996  0.00  0.00    -0.082 A 
ATOM      9  C7  UNL d   1      -3.253  -2.171  -5.994  0.00  0.00     0.045 A 
ENDROOT
TORSDOF 0
ENDMDL
