MODEL 1
REMARK minimizedAffinity 22.987011
REMARK minimizedRMSD -1
REMARK  0 active torsions:
REMARK  status: ('A' for Active; 'I' for Inactive)
ROOT
ATOM      1  C   UNL d   1       1.651   1.352   2.286  0.00  0.00    -0.002 A 
ATOM      2  C1  UNL d   1       0.457   1.835   2.805  0.00  0.00     0.010 A 
ATOM      3  C2  UNL d   1      -0.235   1.117   3.782  0.00  0.00     0.041 A 
ATOM      4  C3  UNL d   1       0.299  -0.105   4.236  0.00  0.00    -0.075 A 
ATOM      5  S   UNL d   1      -0.373  -1.155   5.427  0.00  0.00     0.015 SA
ATOM      6  C4  UNL d   1       0.908  -2.269   5.276  0.00  0.00     0.022 A 
ATOM      7  C5  UNL d   1       1.835  -1.865   4.345  0.00  0.00     0.026 A 
ATOM      8  C6  UNL d   1       1.500  -0.612   3.730  0.00  0.00    -0.082 A 
ATOM      9  C7  UNL d   1       2.177   0.139   2.739  0.00  0.00     0.045 A 
ENDROOT
TORSDOF 0
ENDMDL
