MODEL 1
REMARK minimizedAffinity 13.258853
REMARK minimizedRMSD -1
REMARK  0 active torsions:
REMARK  status: ('A' for Active; 'I' for Inactive)
ROOT
ATOM      1  C   UNL d   1      -4.923  -5.252  -6.000  0.00  0.00    -0.002 A 
ATOM      2  C1  UNL d   1      -4.879  -3.865  -5.999  0.00  0.00     0.010 A 
ATOM      3  C2  UNL d   1      -3.735  -3.191  -5.568  0.00  0.00     0.041 A 
ATOM      4  C3  UNL d   1      -2.624  -3.942  -5.135  0.00  0.00    -0.075 A 
ATOM      5  S   UNL d   1      -1.116  -3.332  -4.564  0.00  0.00     0.015 SA
ATOM      6  C4  UNL d   1      -0.494  -4.898  -4.309  0.00  0.00     0.022 A 
ATOM      7  C5  UNL d   1      -1.402  -5.875  -4.645  0.00  0.00     0.026 A 
ATOM      8  C6  UNL d   1      -2.644  -5.340  -5.127  0.00  0.00    -0.082 A 
ATOM      9  C7  UNL d   1      -3.819  -5.993  -5.570  0.00  0.00     0.045 A 
ENDROOT
TORSDOF 0
ENDMDL
