MODEL 1
REMARK minimizedAffinity -3.24358654
REMARK minimizedRMSD -1
REMARK  2 active torsions:
REMARK  status: ('A' for Active; 'I' for Inactive)
REMARK    1  A    between atoms: C1_2  and  C2_3 
REMARK    2  A    between atoms: C2_3  and  C3_4 
ROOT
ATOM      1  C3  UNL d   1       0.761   0.435  -0.481  0.00  0.00    -0.075 A 
ATOM      2  C4  UNL d   1      -0.527   0.897  -0.788  0.00  0.00     0.002 A 
ATOM      3  C5  UNL d   1      -0.716   1.859  -1.781  0.00  0.00     0.002 A 
ATOM      4  C6  UNL d   1       0.378   2.378  -2.470  0.00  0.00    -0.004 A 
ATOM      5  C7  UNL d   1       1.664   1.938  -2.161  0.00  0.00     0.002 A 
ATOM      6  C8  UNL d   1       1.855   0.972  -1.171  0.00  0.00     0.002 A 
ENDROOT
BRANCH   1   7
ATOM      7  C2  UNL d   1       0.969  -0.628   0.572  0.00  0.00     0.056 C 
BRANCH   7   8
ATOM      8  C1  UNL d   1       0.075  -1.860   0.400  0.00  0.00     0.007 C 
ATOM      9  C   UNL d   1      -0.637  -2.269   1.682  0.00  0.00     0.009 C 
ENDBRANCH   7   8
ENDBRANCH   1   7
TORSDOF 2
ENDMDL
