MODEL 1
REMARK minimizedAffinity -5.84157991
REMARK minimizedRMSD -1
REMARK  2 active torsions:
REMARK  status: ('A' for Active; 'I' for Inactive)
REMARK    1  A    between atoms: C1_2  and  C2_3 
REMARK    2  A    between atoms: C2_3  and  C3_4 
ROOT
ATOM      1  C3  UNL d   1      -0.523  -0.663   0.711  0.00  0.00    -0.075 A 
ATOM      2  C4  UNL d   1      -1.552   0.199   1.117  0.00  0.00     0.002 A 
ATOM      3  C5  UNL d   1      -2.666  -0.299   1.794  0.00  0.00     0.002 A 
ATOM      4  C6  UNL d   1      -2.770  -1.662   2.064  0.00  0.00    -0.004 A 
ATOM      5  C7  UNL d   1      -1.760  -2.529   1.651  0.00  0.00     0.002 A 
ATOM      6  C8  UNL d   1      -0.643  -2.033   0.977  0.00  0.00     0.002 A 
ENDROOT
BRANCH   1   7
ATOM      7  C2  UNL d   1       0.699  -0.126   0.004  0.00  0.00     0.056 C 
BRANCH   7   8
ATOM      8  C1  UNL d   1       0.635   1.374  -0.302  0.00  0.00     0.007 C 
ATOM      9  C   UNL d   1       1.565   1.797  -1.431  0.00  0.00     0.009 C 
ENDBRANCH   7   8
ENDBRANCH   1   7
TORSDOF 2
ENDMDL
