MODEL 1
REMARK minimizedAffinity -6.29420185
REMARK minimizedRMSD -1
REMARK  2 active torsions:
REMARK  status: ('A' for Active; 'I' for Inactive)
REMARK    1  A    between atoms: C1_2  and  C2_3 
REMARK    2  A    between atoms: C2_3  and  C3_4 
ROOT
ATOM      1  C3  UNL d   1      -0.298  -0.868   0.581  0.00  0.00    -0.075 A 
ATOM      2  C4  UNL d   1      -1.592  -0.360   0.772  0.00  0.00     0.002 A 
ATOM      3  C5  UNL d   1      -2.635  -1.206   1.150  0.00  0.00     0.002 A 
ATOM      4  C6  UNL d   1      -2.402  -2.567   1.332  0.00  0.00    -0.004 A 
ATOM      5  C7  UNL d   1      -1.125  -3.085   1.129  0.00  0.00     0.002 A 
ATOM      6  C8  UNL d   1      -0.078  -2.241   0.754  0.00  0.00     0.002 A 
ENDROOT
BRANCH   1   7
ATOM      7  C2  UNL d   1       0.842   0.046   0.201  0.00  0.00     0.056 C 
BRANCH   7   8
ATOM      8  C1  UNL d   1       0.410   1.481  -0.121  0.00  0.00     0.007 C 
ATOM      9  C   UNL d   1       0.674   1.877  -1.568  0.00  0.00     0.009 C 
ENDBRANCH   7   8
ENDBRANCH   1   7
TORSDOF 2
ENDMDL
