MODEL 1
REMARK minimizedAffinity -3.93991518
REMARK minimizedRMSD -1
REMARK  2 active torsions:
REMARK  status: ('A' for Active; 'I' for Inactive)
REMARK    1  A    between atoms: C1_2  and  C2_3 
REMARK    2  A    between atoms: C2_3  and  C3_4 
ROOT
ATOM      1  C3  UNL d   1       0.013   0.996  -0.330  0.00  0.00    -0.075 A 
ATOM      2  C4  UNL d   1      -0.184  -0.391  -0.392  0.00  0.00     0.002 A 
ATOM      3  C5  UNL d   1      -1.232  -0.989   0.307  0.00  0.00     0.002 A 
ATOM      4  C6  UNL d   1      -2.089  -0.213   1.084  0.00  0.00    -0.004 A 
ATOM      5  C7  UNL d   1      -1.892   1.164   1.166  0.00  0.00     0.002 A 
ATOM      6  C8  UNL d   1      -0.847   1.767   0.464  0.00  0.00     0.002 A 
ENDROOT
BRANCH   1   7
ATOM      7  C2  UNL d   1       1.127   1.654  -1.108  0.00  0.00     0.056 C 
BRANCH   7   8
ATOM      8  C1  UNL d   1       0.706   2.165  -2.490  0.00  0.00     0.007 C 
ATOM      9  C   UNL d   1       1.527   1.570  -3.626  0.00  0.00     0.009 C 
ENDBRANCH   7   8
ENDBRANCH   1   7
TORSDOF 2
ENDMDL
