MODEL 1
REMARK minimizedAffinity -2.22998786
REMARK minimizedRMSD -1
REMARK  2 active torsions:
REMARK  status: ('A' for Active; 'I' for Inactive)
REMARK    1  A    between atoms: C1_2  and  C2_3 
REMARK    2  A    between atoms: C2_3  and  C3_4 
ROOT
ATOM      1  C3  UNL d   1       1.232   1.475  -1.074  0.00  0.00    -0.075 A 
ATOM      2  C4  UNL d   1       0.079   2.065  -1.612  0.00  0.00     0.002 A 
ATOM      3  C5  UNL d   1       0.116   2.682  -2.863  0.00  0.00     0.002 A 
ATOM      4  C6  UNL d   1       1.306   2.725  -3.586  0.00  0.00    -0.004 A 
ATOM      5  C7  UNL d   1       2.461   2.157  -3.055  0.00  0.00     0.002 A 
ATOM      6  C8  UNL d   1       2.426   1.535  -1.805  0.00  0.00     0.002 A 
ENDROOT
BRANCH   1   7
ATOM      7  C2  UNL d   1       1.191   0.781   0.266  0.00  0.00     0.056 C 
BRANCH   7   8
ATOM      8  C1  UNL d   1       1.788  -0.631   0.256  0.00  0.00     0.007 C 
ATOM      9  C   UNL d   1       0.769  -1.715   0.581  0.00  0.00     0.009 C 
ENDBRANCH   7   8
ENDBRANCH   1   7
TORSDOF 2
ENDMDL
