MODEL 1
REMARK minimizedAffinity -5.55863571
REMARK minimizedRMSD -1
REMARK  2 active torsions:
REMARK  status: ('A' for Active; 'I' for Inactive)
REMARK    1  A    between atoms: C1_2  and  C2_3 
REMARK    2  A    between atoms: C2_3  and  C3_4 
ROOT
ATOM      1  C3  UNL d   1       0.323  -0.018   0.382  0.00  0.00    -0.075 A 
ATOM      2  C4  UNL d   1      -1.030  -0.295   0.625  0.00  0.00     0.002 A 
ATOM      3  C5  UNL d   1      -1.448  -1.598   0.897  0.00  0.00     0.002 A 
ATOM      4  C6  UNL d   1      -0.524  -2.640   0.919  0.00  0.00    -0.004 A 
ATOM      5  C7  UNL d   1       0.821  -2.379   0.662  0.00  0.00     0.002 A 
ATOM      6  C8  UNL d   1       1.243  -1.075   0.394  0.00  0.00     0.002 A 
ENDROOT
BRANCH   1   7
ATOM      7  C2  UNL d   1       0.787   1.394   0.116  0.00  0.00     0.056 C 
BRANCH   7   8
ATOM      8  C1  UNL d   1       1.450   1.586  -1.252  0.00  0.00     0.007 C 
ATOM      9  C   UNL d   1       0.476   2.036  -2.333  0.00  0.00     0.009 C 
ENDBRANCH   7   8
ENDBRANCH   1   7
TORSDOF 2
ENDMDL
