MODEL 1
REMARK minimizedAffinity -5.37091637
REMARK minimizedRMSD -1
REMARK  2 active torsions:
REMARK  status: ('A' for Active; 'I' for Inactive)
REMARK    1  A    between atoms: C1_2  and  C2_3 
REMARK    2  A    between atoms: C2_3  and  C3_4 
ROOT
ATOM      1  C3  UNL d   1      -1.330  -0.699   0.582  0.00  0.00    -0.075 A 
ATOM      2  C4  UNL d   1      -2.249   0.139   1.231  0.00  0.00     0.002 A 
ATOM      3  C5  UNL d   1      -3.178  -0.389   2.127  0.00  0.00     0.002 A 
ATOM      4  C6  UNL d   1      -3.208  -1.759   2.379  0.00  0.00    -0.004 A 
ATOM      5  C7  UNL d   1      -2.311  -2.603   1.727  0.00  0.00     0.002 A 
ATOM      6  C8  UNL d   1      -1.377  -2.077   0.833  0.00  0.00     0.002 A 
ENDROOT
BRANCH   1   7
ATOM      7  C2  UNL d   1      -0.303  -0.130  -0.367  0.00  0.00     0.056 C 
BRANCH   7   8
ATOM      8  C1  UNL d   1       1.104  -0.017   0.231  0.00  0.00     0.007 C 
ATOM      9  C   UNL d   1       1.808  -1.360   0.366  0.00  0.00     0.009 C 
ENDBRANCH   7   8
ENDBRANCH   1   7
TORSDOF 2
ENDMDL
