MODEL 1
REMARK minimizedAffinity -2.86007977
REMARK minimizedRMSD -1
REMARK  2 active torsions:
REMARK  status: ('A' for Active; 'I' for Inactive)
REMARK    1  A    between atoms: C1_2  and  C2_3 
REMARK    2  A    between atoms: C2_3  and  C3_4 
ROOT
ATOM      1  C3  UNL d   1      -0.216   0.374   0.098  0.00  0.00    -0.075 A 
ATOM      2  C4  UNL d   1      -1.414  -0.302   0.371  0.00  0.00     0.002 A 
ATOM      3  C5  UNL d   1      -1.401  -1.650   0.731  0.00  0.00     0.002 A 
ATOM      4  C6  UNL d   1      -0.194  -2.340   0.812  0.00  0.00    -0.004 A 
ATOM      5  C7  UNL d   1       1.001  -1.683   0.526  0.00  0.00     0.002 A 
ATOM      6  C8  UNL d   1       0.991  -0.333   0.170  0.00  0.00     0.002 A 
ENDROOT
BRANCH   1   7
ATOM      7  C2  UNL d   1      -0.221   1.841  -0.263  0.00  0.00     0.056 C 
BRANCH   7   8
ATOM      8  C1  UNL d   1      -0.335   2.112  -1.767  0.00  0.00     0.007 C 
ATOM      9  C   UNL d   1       1.010   2.361  -2.436  0.00  0.00     0.009 C 
ENDBRANCH   7   8
ENDBRANCH   1   7
TORSDOF 2
ENDMDL
