MODEL 1
REMARK minimizedAffinity -0.938983023
REMARK minimizedRMSD -1
REMARK  2 active torsions:
REMARK  status: ('A' for Active; 'I' for Inactive)
REMARK    1  A    between atoms: C1_2  and  C2_3 
REMARK    2  A    between atoms: C2_3  and  C3_4 
ROOT
ATOM      1  C3  UNL d   1      -0.111  -0.006   0.111  0.00  0.00    -0.075 A 
ATOM      2  C4  UNL d   1       1.085  -0.738   0.067  0.00  0.00     0.002 A 
ATOM      3  C5  UNL d   1       1.119  -2.065   0.495  0.00  0.00     0.002 A 
ATOM      4  C6  UNL d   1      -0.036  -2.674   0.981  0.00  0.00    -0.004 A 
ATOM      5  C7  UNL d   1      -1.225  -1.952   1.045  0.00  0.00     0.002 A 
ATOM      6  C8  UNL d   1      -1.264  -0.625   0.613  0.00  0.00     0.002 A 
ENDROOT
BRANCH   1   7
ATOM      7  C2  UNL d   1      -0.162   1.421  -0.378  0.00  0.00     0.056 C 
BRANCH   7   8
ATOM      8  C1  UNL d   1      -0.177   1.557  -1.905  0.00  0.00     0.007 C 
ATOM      9  C   UNL d   1       1.183   1.916  -2.489  0.00  0.00     0.009 C 
ENDBRANCH   7   8
ENDBRANCH   1   7
TORSDOF 2
ENDMDL
