MODEL 1
REMARK minimizedAffinity -6.63102579
REMARK minimizedRMSD -1
REMARK  2 active torsions:
REMARK  status: ('A' for Active; 'I' for Inactive)
REMARK    1  A    between atoms: C1_2  and  C2_3 
REMARK    2  A    between atoms: C2_3  and  C3_4 
ROOT
ATOM      1  C3  UNL d   1      -0.201  -0.148   0.177  0.00  0.00    -0.075 A 
ATOM      2  C4  UNL d   1      -1.568  -0.459   0.196  0.00  0.00     0.002 A 
ATOM      3  C5  UNL d   1      -1.996  -1.754   0.492  0.00  0.00     0.002 A 
ATOM      4  C6  UNL d   1      -1.065  -2.754   0.761  0.00  0.00    -0.004 A 
ATOM      5  C7  UNL d   1       0.297  -2.460   0.729  0.00  0.00     0.002 A 
ATOM      6  C8  UNL d   1       0.728  -1.165   0.438  0.00  0.00     0.002 A 
ENDROOT
BRANCH   1   7
ATOM      7  C2  UNL d   1       0.268   1.257  -0.113  0.00  0.00     0.056 C 
BRANCH   7   8
ATOM      8  C1  UNL d   1       1.008   1.405  -1.447  0.00  0.00     0.007 C 
ATOM      9  C   UNL d   1       0.170   2.076  -2.528  0.00  0.00     0.009 C 
ENDBRANCH   7   8
ENDBRANCH   1   7
TORSDOF 2
ENDMDL
