MODEL 1
REMARK minimizedAffinity -3.55765319
REMARK minimizedRMSD -1
REMARK  2 active torsions:
REMARK  status: ('A' for Active; 'I' for Inactive)
REMARK    1  A    between atoms: C1_2  and  C2_3 
REMARK    2  A    between atoms: C2_3  and  C3_4 
ROOT
ATOM      1  C3  UNL d   1       0.009   0.111   0.047  0.00  0.00    -0.075 A 
ATOM      2  C4  UNL d   1       0.951  -0.918   0.189  0.00  0.00     0.002 A 
ATOM      3  C5  UNL d   1       0.556  -2.185   0.621  0.00  0.00     0.002 A 
ATOM      4  C6  UNL d   1      -0.781  -2.435   0.924  0.00  0.00    -0.004 A 
ATOM      5  C7  UNL d   1      -1.722  -1.416   0.802  0.00  0.00     0.002 A 
ATOM      6  C8  UNL d   1      -1.330  -0.149   0.366  0.00  0.00     0.002 A 
ENDROOT
BRANCH   1   7
ATOM      7  C2  UNL d   1       0.425   1.476  -0.448  0.00  0.00     0.056 C 
BRANCH   7   8
ATOM      8  C1  UNL d   1       1.712   1.472  -1.280  0.00  0.00     0.007 C 
ATOM      9  C   UNL d   1       1.570   2.203  -2.608  0.00  0.00     0.009 C 
ENDBRANCH   7   8
ENDBRANCH   1   7
TORSDOF 2
ENDMDL
