MODEL 1
REMARK minimizedAffinity -6.19160271
REMARK minimizedRMSD -1
REMARK  2 active torsions:
REMARK  status: ('A' for Active; 'I' for Inactive)
REMARK    1  A    between atoms: C1_2  and  C2_3 
REMARK    2  A    between atoms: C2_3  and  C3_4 
ROOT
ATOM      1  C3  UNL d   1      -0.105  -0.200   0.083  0.00  0.00    -0.075 A 
ATOM      2  C4  UNL d   1      -1.506  -0.228   0.134  0.00  0.00     0.002 A 
ATOM      3  C5  UNL d   1      -2.178  -1.385   0.528  0.00  0.00     0.002 A 
ATOM      4  C6  UNL d   1      -1.460  -2.531   0.865  0.00  0.00    -0.004 A 
ATOM      5  C7  UNL d   1      -0.069  -2.520   0.802  0.00  0.00     0.002 A 
ATOM      6  C8  UNL d   1       0.607  -1.362   0.412  0.00  0.00     0.002 A 
ENDROOT
BRANCH   1   7
ATOM      7  C2  UNL d   1       0.629   1.058  -0.313  0.00  0.00     0.056 C 
BRANCH   7   8
ATOM      8  C1  UNL d   1       0.158   1.663  -1.640  0.00  0.00     0.007 C 
ATOM      9  C   UNL d   1       1.306   2.082  -2.550  0.00  0.00     0.009 C 
ENDBRANCH   7   8
ENDBRANCH   1   7
TORSDOF 2
ENDMDL
