MODEL 1
REMARK minimizedAffinity 13.0719852
REMARK minimizedRMSD -1
REMARK  0 active torsions:
REMARK  status: ('A' for Active; 'I' for Inactive)
ROOT
ATOM      1  N1  IND d   1      -5.015  -3.794  -5.997  0.00  0.00    -0.196 N 
ATOM      2  C2  IND d   1      -5.732  -4.955  -5.910  0.00  0.00     0.054 A 
ATOM      3  C3  IND d   1      -4.916  -5.989  -5.601  0.00  0.00    -0.031 A 
ATOM      4  C4  IND d   1      -2.392  -5.986  -5.094  0.00  0.00     0.051 A 
ATOM      5  C5  IND d   1      -1.297  -5.169  -5.083  0.00  0.00    -0.031 A 
ATOM      6  C6  IND d   1      -1.387  -3.824  -5.380  0.00  0.00     0.015 A 
ATOM      7  C7  IND d   1      -2.583  -3.242  -5.689  0.00  0.00    -0.016 A 
ATOM      8  C8  IND d   1      -3.697  -4.069  -5.707  0.00  0.00    -0.047 A 
ATOM      9  C9  IND d   1      -3.605  -5.443  -5.448  0.00  0.00    -0.096 A 
ATOM     10  HN1 IND d   1      -5.335  -3.022  -6.198  0.00  0.00     0.298 HD
ENDROOT
TORSDOF 0
ENDMDL
