MODEL 1
REMARK minimizedAffinity 6.73917866
REMARK minimizedRMSD -1
REMARK  0 active torsions:
REMARK  status: ('A' for Active; 'I' for Inactive)
ROOT
ATOM      1  N1  IND d   1       0.851  -1.013   2.864  0.00  0.00    -0.196 N 
ATOM      2  C2  IND d   1       0.182  -1.130   4.051  0.00  0.00     0.054 A 
ATOM      3  C3  IND d   1      -0.640  -0.072   4.233  0.00  0.00    -0.031 A 
ATOM      4  C4  IND d   1      -1.122   1.914   2.668  0.00  0.00     0.051 A 
ATOM      5  C5  IND d   1      -0.725   2.476   1.487  0.00  0.00    -0.031 A 
ATOM      6  C6  IND d   1       0.235   1.891   0.688  0.00  0.00     0.015 A 
ATOM      7  C7  IND d   1       0.829   0.710   1.035  0.00  0.00    -0.016 A 
ATOM      8  C8  IND d   1       0.433   0.140   2.237  0.00  0.00    -0.047 A 
ATOM      9  C9  IND d   1      -0.511   0.751   3.073  0.00  0.00    -0.096 A 
ATOM     10  HN1 IND d   1       1.434  -1.567   2.561  0.00  0.00     0.298 HD
ENDROOT
TORSDOF 0
ENDMDL
