MODEL 1
REMARK minimizedAffinity 10.0421743
REMARK minimizedRMSD -1
REMARK  0 active torsions:
REMARK  status: ('A' for Active; 'I' for Inactive)
ROOT
ATOM      1  N1  IND d   1       0.296   1.881  -1.589  0.00  0.00    -0.196 N 
ATOM      2  C2  IND d   1      -0.258   2.688  -0.634  0.00  0.00     0.054 A 
ATOM      3  C3  IND d   1      -1.480   2.229  -0.282  0.00  0.00    -0.031 A 
ATOM      4  C4  IND d   1      -2.723   0.116  -1.071  0.00  0.00     0.051 A 
ATOM      5  C5  IND d   1      -2.635  -0.916  -1.962  0.00  0.00    -0.031 A 
ATOM      6  C6  IND d   1      -1.541  -1.073  -2.789  0.00  0.00     0.015 A 
ATOM      7  C7  IND d   1      -0.486  -0.207  -2.748  0.00  0.00    -0.016 A 
ATOM      8  C8  IND d   1      -0.575   0.847  -1.849  0.00  0.00    -0.047 A 
ATOM      9  C9  IND d   1      -1.701   1.036  -1.037  0.00  0.00    -0.096 A 
ATOM     10  HN1 IND d   1       1.061   2.000  -1.964  0.00  0.00     0.298 HD
ENDROOT
TORSDOF 0
ENDMDL
