MODEL 1
REMARK minimizedAffinity 15.3262463
REMARK minimizedRMSD -1
REMARK  0 active torsions:
REMARK  status: ('A' for Active; 'I' for Inactive)
ROOT
ATOM      1  N1  IND d   1      -5.979   2.268  -1.240  0.00  0.00    -0.196 N 
ATOM      2  C2  IND d   1      -5.492   0.998  -1.376  0.00  0.00     0.054 A 
ATOM      3  C3  IND d   1      -4.921   0.840  -2.592  0.00  0.00    -0.031 A 
ATOM      4  C4  IND d   1      -4.584   2.562  -4.476  0.00  0.00     0.051 A 
ATOM      5  C5  IND d   1      -4.892   3.846  -4.830  0.00  0.00    -0.031 A 
ATOM      6  C6  IND d   1      -5.590   4.687  -3.987  0.00  0.00     0.015 A 
ATOM      7  C7  IND d   1      -5.998   4.277  -2.749  0.00  0.00    -0.016 A 
ATOM      8  C8  IND d   1      -5.693   2.972  -2.389  0.00  0.00    -0.047 A 
ATOM      9  C9  IND d   1      -5.022   2.101  -3.257  0.00  0.00    -0.096 A 
ATOM     10  HN1 IND d   1      -6.394   2.575  -0.553  0.00  0.00     0.298 HD
ENDROOT
TORSDOF 0
ENDMDL
