MODEL 1
REMARK minimizedAffinity 8.85317516
REMARK minimizedRMSD -1
REMARK  0 active torsions:
REMARK  status: ('A' for Active; 'I' for Inactive)
ROOT
ATOM      1  N1  IND d   1       0.037   1.121  -1.368  0.00  0.00    -0.196 N 
ATOM      2  C2  IND d   1      -0.943   1.200  -2.317  0.00  0.00     0.054 A 
ATOM      3  C3  IND d   1      -2.020   1.855  -1.828  0.00  0.00    -0.031 A 
ATOM      4  C4  IND d   1      -2.350   2.972   0.468  0.00  0.00     0.051 A 
ATOM      5  C5  IND d   1      -1.747   3.133   1.684  0.00  0.00    -0.031 A 
ATOM      6  C6  IND d   1      -0.492   2.624   1.949  0.00  0.00     0.015 A 
ATOM      7  C7  IND d   1       0.214   1.941   1.000  0.00  0.00    -0.016 A 
ATOM      8  C8  IND d   1      -0.397   1.769  -0.233  0.00  0.00    -0.047 A 
ATOM      9  C9  IND d   1      -1.688   2.247  -0.495  0.00  0.00    -0.096 A 
ATOM     10  HN1 IND d   1       0.798   0.731  -1.464  0.00  0.00     0.298 HD
ENDROOT
TORSDOF 0
ENDMDL
