MODEL 1
REMARK minimizedAffinity 4.70280838
REMARK minimizedRMSD -1
REMARK  0 active torsions:
REMARK  status: ('A' for Active; 'I' for Inactive)
ROOT
ATOM      1  N1  IND d   1      -0.630   2.705  -1.581  0.00  0.00    -0.196 N 
ATOM      2  C2  IND d   1      -0.575   1.573  -2.345  0.00  0.00     0.054 A 
ATOM      3  C3  IND d   1      -0.233   0.509  -1.585  0.00  0.00    -0.031 A 
ATOM      4  C4  IND d   1       0.184   0.378   0.952  0.00  0.00     0.051 A 
ATOM      5  C5  IND d   1       0.285   1.159   2.069  0.00  0.00    -0.031 A 
ATOM      6  C6  IND d   1       0.080   2.523   2.026  0.00  0.00     0.015 A 
ATOM      7  C7  IND d   1      -0.247   3.157   0.861  0.00  0.00    -0.016 A 
ATOM      8  C8  IND d   1      -0.344   2.368  -0.277  0.00  0.00    -0.047 A 
ATOM      9  C9  IND d   1      -0.095   0.990  -0.247  0.00  0.00    -0.096 A 
ATOM     10  HN1 IND d   1      -0.812   3.495  -1.868  0.00  0.00     0.298 HD
ENDROOT
TORSDOF 0
ENDMDL
