MODEL 1
REMARK minimizedAffinity 10.5684137
REMARK minimizedRMSD -1
REMARK  0 active torsions:
REMARK  status: ('A' for Active; 'I' for Inactive)
ROOT
ATOM      1  N1  IND d   1      -0.691   0.460   4.363  0.00  0.00    -0.196 N 
ATOM      2  C2  IND d   1       0.206  -0.571   4.399  0.00  0.00     0.054 A 
ATOM      3  C3  IND d   1       1.052  -0.495   3.348  0.00  0.00    -0.031 A 
ATOM      4  C4  IND d   1       1.212   1.294   1.503  0.00  0.00     0.051 A 
ATOM      5  C5  IND d   1       0.584   2.411   1.029  0.00  0.00    -0.031 A 
ATOM      6  C6  IND d   1      -0.522   2.947   1.656  0.00  0.00     0.015 A 
ATOM      7  C7  IND d   1      -1.037   2.390   2.792  0.00  0.00    -0.016 A 
ATOM      8  C8  IND d   1      -0.406   1.252   3.273  0.00  0.00    -0.047 A 
ATOM      9  C9  IND d   1       0.691   0.678   2.617  0.00  0.00    -0.096 A 
ATOM     10  HN1 IND d   1      -1.327   0.591   4.927  0.00  0.00     0.298 HD
ENDROOT
TORSDOF 0
ENDMDL
