MODEL 1
REMARK minimizedAffinity -0.577799261
REMARK minimizedRMSD -1
REMARK  1 active torsions:
REMARK  status: ('A' for Active; 'I' for Inactive)
REMARK    1  A    between atoms: C1_2  and  C2_3 
ROOT
ATOM      1  C2  UNL d   1      -0.976   0.179   2.752  0.00  0.00    -0.081 A 
ATOM      2  C3  UNL d   1      -0.144  -0.573   1.915  0.00  0.00     0.006 A 
ATOM      3  C4  UNL d   1       0.970   0.014   1.310  0.00  0.00     0.002 A 
ATOM      4  C5  UNL d   1       1.274   1.360   1.539  0.00  0.00    -0.080 A 
ATOM      5  C6  UNL d   1       2.484   1.995   0.920  0.00  0.00     0.076 C 
ATOM      6  C7  UNL d   1       0.433   2.117   2.361  0.00  0.00     0.002 A 
ATOM      7  C8  UNL d   1      -0.681   1.531   2.966  0.00  0.00     0.006 A 
ENDROOT
BRANCH   1   8
ATOM      8  C1  UNL d   1      -2.141  -0.467   3.457  0.00  0.00     0.054 C 
ATOM      9  C   UNL d   1      -1.687  -1.639   4.316  0.00  0.00     0.018 C 
ENDBRANCH   1   8
TORSDOF 1
ENDMDL
