MODEL 1
REMARK minimizedAffinity -3.2877264
REMARK minimizedRMSD -1
REMARK  1 active torsions:
REMARK  status: ('A' for Active; 'I' for Inactive)
REMARK    1  A    between atoms: C1_2  and  C2_3 
ROOT
ATOM      1  C2  UNL d   1      -0.147   0.672   2.567  0.00  0.00    -0.081 A 
ATOM      2  C3  UNL d   1      -0.241   0.565   1.174  0.00  0.00     0.006 A 
ATOM      3  C4  UNL d   1       0.845   0.109   0.423  0.00  0.00     0.002 A 
ATOM      4  C5  UNL d   1       2.039  -0.257   1.053  0.00  0.00    -0.080 A 
ATOM      5  C6  UNL d   1       3.202  -0.777   0.262  0.00  0.00     0.076 C 
ATOM      6  C7  UNL d   1       2.140  -0.134   2.443  0.00  0.00     0.002 A 
ATOM      7  C8  UNL d   1       1.055   0.323   3.194  0.00  0.00     0.006 A 
ENDROOT
BRANCH   1   8
ATOM      8  C1  UNL d   1      -1.337   1.102   3.385  0.00  0.00     0.054 C 
ATOM      9  C   UNL d   1      -0.948   1.364   4.833  0.00  0.00     0.018 C 
ENDBRANCH   1   8
TORSDOF 1
ENDMDL
