MODEL 1
REMARK minimizedAffinity -3.68825316
REMARK minimizedRMSD -1
REMARK  1 active torsions:
REMARK  status: ('A' for Active; 'I' for Inactive)
REMARK    1  A    between atoms: C1_2  and  C2_3 
ROOT
ATOM      1  C2  UNL d   1      -0.158  -0.115   0.418  0.00  0.00    -0.081 A 
ATOM      2  C3  UNL d   1       1.051  -0.745   0.097  0.00  0.00     0.006 A 
ATOM      3  C4  UNL d   1       2.259  -0.262   0.607  0.00  0.00     0.002 A 
ATOM      4  C5  UNL d   1       2.277   0.853   1.452  0.00  0.00    -0.080 A 
ATOM      5  C6  UNL d   1       3.563   1.364   2.030  0.00  0.00     0.076 C 
ATOM      6  C7  UNL d   1       1.071   1.493   1.759  0.00  0.00     0.002 A 
ATOM      7  C8  UNL d   1      -0.136   1.010   1.249  0.00  0.00     0.006 A 
ENDROOT
BRANCH   1   8
ATOM      8  C1  UNL d   1      -1.467  -0.673  -0.078  0.00  0.00     0.054 C 
ATOM      9  C   UNL d   1      -2.647  -0.050   0.656  0.00  0.00     0.018 C 
ENDBRANCH   1   8
TORSDOF 1
ENDMDL
