MODEL 1
REMARK minimizedAffinity 0.252402812
REMARK minimizedRMSD -1
REMARK  1 active torsions:
REMARK  status: ('A' for Active; 'I' for Inactive)
REMARK    1  A    between atoms: C1_2  and  C2_3 
ROOT
ATOM      1  C2  UNL d   1      -0.034   0.787   1.704  0.00  0.00    -0.081 A 
ATOM      2  C3  UNL d   1      -1.096   0.281   2.465  0.00  0.00     0.006 A 
ATOM      3  C4  UNL d   1      -2.170  -0.360   1.843  0.00  0.00     0.002 A 
ATOM      4  C5  UNL d   1      -2.197  -0.514   0.453  0.00  0.00    -0.080 A 
ATOM      5  C6  UNL d   1      -3.329  -1.227  -0.224  0.00  0.00     0.076 C 
ATOM      6  C7  UNL d   1      -1.145   0.007  -0.308  0.00  0.00     0.002 A 
ATOM      7  C8  UNL d   1      -0.071   0.649   0.312  0.00  0.00     0.006 A 
ENDROOT
BRANCH   1   8
ATOM      8  C1  UNL d   1       1.156   1.422   2.376  0.00  0.00     0.054 C 
ATOM      9  C   UNL d   1       2.462   0.846   1.847  0.00  0.00     0.018 C 
ENDBRANCH   1   8
TORSDOF 1
ENDMDL
