MODEL 1
REMARK minimizedAffinity 1.76178992
REMARK minimizedRMSD -1
REMARK  1 active torsions:
REMARK  status: ('A' for Active; 'I' for Inactive)
REMARK    1  A    between atoms: C1_2  and  C2_3 
ROOT
ATOM      1  C2  UNL d   1       0.748   1.407   1.395  0.00  0.00    -0.081 A 
ATOM      2  C3  UNL d   1       0.284   1.587   2.704  0.00  0.00     0.006 A 
ATOM      3  C4  UNL d   1      -0.862   0.923   3.146  0.00  0.00     0.002 A 
ATOM      4  C5  UNL d   1      -1.560   0.063   2.290  0.00  0.00    -0.080 A 
ATOM      5  C6  UNL d   1      -2.775  -0.679   2.761  0.00  0.00     0.076 C 
ATOM      6  C7  UNL d   1      -1.106  -0.102   0.977  0.00  0.00     0.002 A 
ATOM      7  C8  UNL d   1       0.040   0.562   0.534  0.00  0.00     0.006 A 
ENDROOT
BRANCH   1   8
ATOM      8  C1  UNL d   1       2.021   2.071   0.935  0.00  0.00     0.054 C 
ATOM      9  C   UNL d   1       3.246   1.390   1.528  0.00  0.00     0.018 C 
ENDBRANCH   1   8
TORSDOF 1
ENDMDL
