MODEL 1
REMARK minimizedAffinity -0.612866223
REMARK minimizedRMSD -1
REMARK  1 active torsions:
REMARK  status: ('A' for Active; 'I' for Inactive)
REMARK    1  A    between atoms: C1_2  and  C2_3 
ROOT
ATOM      1  C2  UNL d   1      -1.129   0.407   2.283  0.00  0.00    -0.081 A 
ATOM      2  C3  UNL d   1      -0.778  -0.243   1.093  0.00  0.00     0.006 A 
ATOM      3  C4  UNL d   1       0.408   0.085   0.431  0.00  0.00     0.002 A 
ATOM      4  C5  UNL d   1       1.265   1.061   0.950  0.00  0.00    -0.080 A 
ATOM      5  C6  UNL d   1       2.555   1.400   0.265  0.00  0.00     0.076 C 
ATOM      6  C7  UNL d   1       0.906   1.722   2.129  0.00  0.00     0.002 A 
ATOM      7  C8  UNL d   1      -0.280   1.396   2.792  0.00  0.00     0.006 A 
ENDROOT
BRANCH   1   8
ATOM      8  C1  UNL d   1      -2.374   0.011   3.034  0.00  0.00     0.054 C 
ATOM      9  C   UNL d   1      -2.095  -1.126   4.007  0.00  0.00     0.018 C 
ENDBRANCH   1   8
TORSDOF 1
ENDMDL
