MODEL 1
REMARK minimizedAffinity 2.07108545
REMARK minimizedRMSD -1
REMARK  1 active torsions:
REMARK  status: ('A' for Active; 'I' for Inactive)
REMARK    1  A    between atoms: C1_2  and  C2_3 
ROOT
ATOM      1  C2  UNL d   1      -0.200   0.240   0.711  0.00  0.00    -0.081 A 
ATOM      2  C3  UNL d   1       0.008   1.618   0.575  0.00  0.00     0.006 A 
ATOM      3  C4  UNL d   1       1.167   2.212   1.082  0.00  0.00     0.002 A 
ATOM      4  C5  UNL d   1       2.139   1.438   1.724  0.00  0.00    -0.080 A 
ATOM      5  C6  UNL d   1       3.401   2.058   2.245  0.00  0.00     0.076 C 
ATOM      6  C7  UNL d   1       1.923   0.064   1.875  0.00  0.00     0.002 A 
ATOM      7  C8  UNL d   1       0.764  -0.531   1.370  0.00  0.00     0.006 A 
ENDROOT
BRANCH   1   8
ATOM      8  C1  UNL d   1      -1.418  -0.414   0.109  0.00  0.00     0.054 C 
ATOM      9  C   UNL d   1      -2.666  -0.120   0.930  0.00  0.00     0.018 C 
ENDBRANCH   1   8
TORSDOF 1
ENDMDL
