MODEL 1
REMARK minimizedAffinity 1.62393868
REMARK minimizedRMSD -1
REMARK  1 active torsions:
REMARK  status: ('A' for Active; 'I' for Inactive)
REMARK    1  A    between atoms: C1_2  and  C2_3 
ROOT
ATOM      1  C2  UNL d   1       0.555   0.839   1.530  0.00  0.00    -0.081 A 
ATOM      2  C3  UNL d   1      -0.451   0.703   2.495  0.00  0.00     0.006 A 
ATOM      3  C4  UNL d   1      -1.715   0.226   2.137  0.00  0.00     0.002 A 
ATOM      4  C5  UNL d   1      -1.991  -0.130   0.813  0.00  0.00    -0.080 A 
ATOM      5  C6  UNL d   1      -3.333  -0.672   0.422  0.00  0.00     0.076 C 
ATOM      6  C7  UNL d   1      -0.991   0.022  -0.154  0.00  0.00     0.002 A 
ATOM      7  C8  UNL d   1       0.273   0.500   0.203  0.00  0.00     0.006 A 
ENDROOT
BRANCH   1   8
ATOM      8  C1  UNL d   1       1.938   1.291   1.924  0.00  0.00     0.054 C 
ATOM      9  C   UNL d   1       2.895   1.239   0.742  0.00  0.00     0.018 C 
ENDBRANCH   1   8
TORSDOF 1
ENDMDL
