MODEL 1
REMARK minimizedAffinity -2.48153234
REMARK minimizedRMSD -1
REMARK  0 active torsions:
REMARK  status: ('A' for Active; 'I' for Inactive)
ROOT
ATOM      1  C2' OXE d   1      -0.769   2.104   2.635  0.00  0.00     0.078 C 
ATOM      2  C1' OXE d   1      -2.308   1.229   0.457  0.00  0.00     0.078 C 
ATOM      3  C1  OXE d   1      -2.441   0.479   1.758  0.00  0.00    -0.078 A 
ATOM      4  C2  OXE d   1      -1.649   0.885   2.805  0.00  0.00    -0.078 A 
ATOM      5  C3  OXE d   1      -1.772   0.262   4.044  0.00  0.00     0.003 A 
ATOM      6  C4  OXE d   1      -2.581  -0.871   4.191  0.00  0.00    -0.002 A 
ATOM      7  C5  OXE d   1      -3.366  -1.326   3.126  0.00  0.00    -0.002 A 
ATOM      8  C6  OXE d   1      -3.340  -0.638   1.918  0.00  0.00     0.003 A 
ENDROOT
TORSDOF 0
ENDMDL
