MODEL 1
REMARK minimizedAffinity -4.99307442
REMARK minimizedRMSD -1
REMARK  0 active torsions:
REMARK  status: ('A' for Active; 'I' for Inactive)
ROOT
ATOM      1  C2' OXE d   1      -4.018  -0.693   4.952  0.00  0.00     0.078 C 
ATOM      2  C1' OXE d   1      -4.264  -1.785   2.378  0.00  0.00     0.078 C 
ATOM      3  C1  OXE d   1      -3.342  -0.604   2.556  0.00  0.00    -0.078 A 
ATOM      4  C2  OXE d   1      -3.264  -0.047   3.810  0.00  0.00    -0.078 A 
ATOM      5  C3  OXE d   1      -2.387   1.009   4.041  0.00  0.00     0.003 A 
ATOM      6  C4  OXE d   1      -1.701   1.607   2.978  0.00  0.00    -0.002 A 
ATOM      7  C5  OXE d   1      -1.797   1.080   1.685  0.00  0.00    -0.002 A 
ATOM      8  C6  OXE d   1      -2.579  -0.049   1.466  0.00  0.00     0.003 A 
ENDROOT
TORSDOF 0
ENDMDL
