MODEL 1
REMARK minimizedAffinity -2.47786832
REMARK minimizedRMSD -1
REMARK  0 active torsions:
REMARK  status: ('A' for Active; 'I' for Inactive)
ROOT
ATOM      1  C2' OXE d   1      -2.491   0.013   1.939  0.00  0.00     0.078 C 
ATOM      2  C1' OXE d   1      -2.642   0.725   4.651  0.00  0.00     0.078 C 
ATOM      3  C1  OXE d   1      -3.412  -0.490   4.199  0.00  0.00    -0.078 A 
ATOM      4  C2  OXE d   1      -3.370  -0.804   2.862  0.00  0.00    -0.078 A 
ATOM      5  C3  OXE d   1      -4.018  -1.947   2.401  0.00  0.00     0.003 A 
ATOM      6  C4  OXE d   1      -4.837  -2.692   3.259  0.00  0.00    -0.002 A 
ATOM      7  C5  OXE d   1      -4.925  -2.366   4.616  0.00  0.00    -0.002 A 
ATOM      8  C6  OXE d   1      -4.187  -1.296   5.110  0.00  0.00     0.003 A 
ENDROOT
TORSDOF 0
ENDMDL
