MODEL 1
REMARK minimizedAffinity -3.29146242
REMARK minimizedRMSD -1
REMARK  0 active torsions:
REMARK  status: ('A' for Active; 'I' for Inactive)
ROOT
ATOM      1  C2' OXE d   1      -0.078  -1.819  -0.144  0.00  0.00     0.078 C 
ATOM      2  C1' OXE d   1      -1.021   0.824  -0.211  0.00  0.00     0.078 C 
ATOM      3  C1  OXE d   1       0.331   0.543  -0.819  0.00  0.00    -0.078 A 
ATOM      4  C2  OXE d   1       0.805  -0.744  -0.740  0.00  0.00    -0.078 A 
ATOM      5  C3  OXE d   1       2.021  -1.068  -1.333  0.00  0.00     0.003 A 
ATOM      6  C4  OXE d   1       2.836  -0.066  -1.874  0.00  0.00    -0.002 A 
ATOM      7  C5  OXE d   1       2.390   1.259  -1.928  0.00  0.00    -0.002 A 
ATOM      8  C6  OXE d   1       1.124   1.572  -1.444  0.00  0.00     0.003 A 
ENDROOT
TORSDOF 0
ENDMDL
