MODEL 1
REMARK minimizedAffinity 8.69195461
REMARK minimizedRMSD -1
REMARK  0 active torsions:
REMARK  status: ('A' for Active; 'I' for Inactive)
ROOT
ATOM      1  C2' OXE d   1       1.737  -0.530  -1.372  0.00  0.00     0.078 C 
ATOM      2  C1' OXE d   1       1.187  -2.984  -2.619  0.00  0.00     0.078 C 
ATOM      3  C1  OXE d   1       0.066  -2.310  -1.870  0.00  0.00    -0.078 A 
ATOM      4  C2  OXE d   1       0.356  -1.132  -1.223  0.00  0.00    -0.078 A 
ATOM      5  C3  OXE d   1      -0.656  -0.441  -0.563  0.00  0.00     0.003 A 
ATOM      6  C4  OXE d   1      -1.928  -1.009  -0.422  0.00  0.00    -0.002 A 
ATOM      7  C5  OXE d   1      -2.234  -2.227  -1.039  0.00  0.00    -0.002 A 
ATOM      8  C6  OXE d   1      -1.262  -2.868  -1.801  0.00  0.00     0.003 A 
ENDROOT
TORSDOF 0
ENDMDL
