MODEL 1
REMARK minimizedAffinity -3.69111061
REMARK minimizedRMSD -1
REMARK  0 active torsions:
REMARK  status: ('A' for Active; 'I' for Inactive)
ROOT
ATOM      1  C2' OXE d   1       2.702  -0.029  -1.516  0.00  0.00     0.078 C 
ATOM      2  C1' OXE d   1       1.189  -2.259  -0.731  0.00  0.00     0.078 C 
ATOM      3  C1  OXE d   1       0.532  -0.903  -0.660  0.00  0.00    -0.078 A 
ATOM      4  C2  OXE d   1       1.296   0.188  -1.001  0.00  0.00    -0.078 A 
ATOM      5  C3  OXE d   1       0.722   1.456  -1.005  0.00  0.00     0.003 A 
ATOM      6  C4  OXE d   1      -0.576   1.649  -0.518  0.00  0.00    -0.002 A 
ATOM      7  C5  OXE d   1      -1.357   0.556  -0.127  0.00  0.00    -0.002 A 
ATOM      8  C6  OXE d   1      -0.834  -0.728  -0.232  0.00  0.00     0.003 A 
ENDROOT
TORSDOF 0
ENDMDL
