MODEL 1
REMARK minimizedAffinity -0.473668635
REMARK minimizedRMSD -1
REMARK  0 active torsions:
REMARK  status: ('A' for Active; 'I' for Inactive)
ROOT
ATOM      1  C2' OXE d   1       0.326  -3.304  -1.584  0.00  0.00     0.078 C 
ATOM      2  C1' OXE d   1       1.388  -4.619   0.657  0.00  0.00     0.078 C 
ATOM      3  C1  OXE d   1       2.022  -3.316   0.241  0.00  0.00    -0.078 A 
ATOM      4  C2  OXE d   1       1.526  -2.702  -0.884  0.00  0.00    -0.078 A 
ATOM      5  C3  OXE d   1       2.039  -1.470  -1.280  0.00  0.00     0.003 A 
ATOM      6  C4  OXE d   1       3.155  -0.926  -0.634  0.00  0.00    -0.002 A 
ATOM      7  C5  OXE d   1       3.701  -1.555   0.490  0.00  0.00    -0.002 A 
ATOM      8  C6  OXE d   1       3.121  -2.726   0.965  0.00  0.00     0.003 A 
ENDROOT
TORSDOF 0
ENDMDL
