MODEL 1
REMARK minimizedAffinity -4.1931529
REMARK minimizedRMSD -1
REMARK  0 active torsions:
REMARK  status: ('A' for Active; 'I' for Inactive)
ROOT
ATOM      1  C2' OXE d   1       1.131  -1.917  -0.763  0.00  0.00     0.078 C 
ATOM      2  C1' OXE d   1       3.301  -0.191  -0.327  0.00  0.00     0.078 C 
ATOM      3  C1  OXE d   1       1.924   0.419  -0.419  0.00  0.00    -0.078 A 
ATOM      4  C2  OXE d   1       0.874  -0.428  -0.679  0.00  0.00    -0.078 A 
ATOM      5  C3  OXE d   1      -0.424   0.075  -0.719  0.00  0.00     0.003 A 
ATOM      6  C4  OXE d   1      -0.651   1.454  -0.650  0.00  0.00    -0.002 A 
ATOM      7  C5  OXE d   1       0.409   2.339  -0.425  0.00  0.00    -0.002 A 
ATOM      8  C6  OXE d   1       1.695   1.834  -0.265  0.00  0.00     0.003 A 
ENDROOT
TORSDOF 0
ENDMDL
