MODEL 1
REMARK minimizedAffinity -2.63677526
REMARK minimizedRMSD -1
REMARK  0 active torsions:
REMARK  status: ('A' for Active; 'I' for Inactive)
ROOT
ATOM      1  C2' OXE d   1      -0.453   1.871  -1.251  0.00  0.00     0.078 C 
ATOM      2  C1' OXE d   1       0.832   0.801  -3.507  0.00  0.00     0.078 C 
ATOM      3  C1  OXE d   1       0.779  -0.046  -2.259  0.00  0.00    -0.078 A 
ATOM      4  C2  OXE d   1       0.189   0.505  -1.147  0.00  0.00    -0.078 A 
ATOM      5  C3  OXE d   1       0.065  -0.254   0.014  0.00  0.00     0.003 A 
ATOM      6  C4  OXE d   1       0.670  -1.513   0.106  0.00  0.00    -0.002 A 
ATOM      7  C5  OXE d   1       1.310  -2.076  -1.004  0.00  0.00    -0.002 A 
ATOM      8  C6  OXE d   1       1.336  -1.375  -2.204  0.00  0.00     0.003 A 
ENDROOT
TORSDOF 0
ENDMDL
