MODEL 1
REMARK minimizedAffinity 3.96626854
REMARK minimizedRMSD -1
REMARK  0 active torsions:
REMARK  status: ('A' for Active; 'I' for Inactive)
ROOT
ATOM      1  C2' OXE d   1      -1.743  -0.161   1.350  0.00  0.00     0.078 C 
ATOM      2  C1' OXE d   1      -2.319   1.560   3.492  0.00  0.00     0.078 C 
ATOM      3  C1  OXE d   1      -2.831   0.143   3.570  0.00  0.00    -0.078 A 
ATOM      4  C2  OXE d   1      -2.584  -0.678   2.497  0.00  0.00    -0.078 A 
ATOM      5  C3  OXE d   1      -2.987  -2.010   2.541  0.00  0.00     0.003 A 
ATOM      6  C4  OXE d   1      -3.773  -2.478   3.601  0.00  0.00    -0.002 A 
ATOM      7  C5  OXE d   1      -4.069  -1.646   4.687  0.00  0.00    -0.002 A 
ATOM      8  C6  OXE d   1      -3.570  -0.348   4.706  0.00  0.00     0.003 A 
ENDROOT
TORSDOF 0
ENDMDL
