MODEL 1
REMARK minimizedAffinity 3.42679524
REMARK minimizedRMSD -1
REMARK  0 active torsions:
REMARK  status: ('A' for Active; 'I' for Inactive)
ROOT
ATOM      1  C2' OXE d   1       2.164  -1.405  -1.013  0.00  0.00     0.078 C 
ATOM      2  C1' OXE d   1       1.123  -2.513  -3.374  0.00  0.00     0.078 C 
ATOM      3  C1  OXE d   1       1.309  -1.017  -3.321  0.00  0.00    -0.078 A 
ATOM      4  C2  OXE d   1       1.775  -0.479  -2.146  0.00  0.00    -0.078 A 
ATOM      5  C3  OXE d   1       2.017   0.890  -2.062  0.00  0.00     0.003 A 
ATOM      6  C4  OXE d   1       1.645   1.740  -3.110  0.00  0.00    -0.002 A 
ATOM      7  C5  OXE d   1       1.132   1.217  -4.302  0.00  0.00    -0.002 A 
ATOM      8  C6  OXE d   1       0.998  -0.161  -4.439  0.00  0.00     0.003 A 
ENDROOT
TORSDOF 0
ENDMDL
