MODEL 1
REMARK minimizedAffinity -5.02292061
REMARK minimizedRMSD -1
REMARK  0 active torsions:
REMARK  status: ('A' for Active; 'I' for Inactive)
ROOT
ATOM      1  C2' OXE d   1       1.937   2.089  -2.350  0.00  0.00     0.078 C 
ATOM      2  C1' OXE d   1       2.933  -0.391  -1.492  0.00  0.00     0.078 C 
ATOM      3  C1  OXE d   1       1.508  -0.046  -1.141  0.00  0.00    -0.078 A 
ATOM      4  C2  OXE d   1       1.043   1.189  -1.524  0.00  0.00    -0.078 A 
ATOM      5  C3  OXE d   1      -0.281   1.536  -1.273  0.00  0.00     0.003 A 
ATOM      6  C4  OXE d   1      -1.098   0.701  -0.500  0.00  0.00    -0.002 A 
ATOM      7  C5  OXE d   1      -0.632  -0.544  -0.066  0.00  0.00    -0.002 A 
ATOM      8  C6  OXE d   1       0.652  -0.950  -0.413  0.00  0.00     0.003 A 
ENDROOT
TORSDOF 0
ENDMDL
