MODEL 1
REMARK minimizedAffinity 0.442717612
REMARK minimizedRMSD -1
REMARK  0 active torsions:
REMARK  status: ('A' for Active; 'I' for Inactive)
ROOT
ATOM      1  C2' OXE d   1      -0.823   2.082  -1.011  0.00  0.00     0.078 C 
ATOM      2  C1' OXE d   1      -2.849   0.149  -0.815  0.00  0.00     0.078 C 
ATOM      3  C1  OXE d   1      -2.692   1.121   0.327  0.00  0.00    -0.078 A 
ATOM      4  C2  OXE d   1      -1.668   2.034   0.244  0.00  0.00    -0.078 A 
ATOM      5  C3  OXE d   1      -1.513   2.989   1.245  0.00  0.00     0.003 A 
ATOM      6  C4  OXE d   1      -2.292   2.932   2.407  0.00  0.00    -0.002 A 
ATOM      7  C5  OXE d   1      -3.314   1.985   2.530  0.00  0.00    -0.002 A 
ATOM      8  C6  OXE d   1      -3.554   1.101   1.483  0.00  0.00     0.003 A 
ENDROOT
TORSDOF 0
ENDMDL
