MODEL 1
REMARK minimizedAffinity -1.87902904
REMARK minimizedRMSD -1
REMARK  0 active torsions:
REMARK  status: ('A' for Active; 'I' for Inactive)
ROOT
ATOM      1  C2' OXE d   1      -0.056  -0.014  -0.203  0.00  0.00     0.078 C 
ATOM      2  C1' OXE d   1      -0.246   2.315  -1.759  0.00  0.00     0.078 C 
ATOM      3  C1  OXE d   1       0.778   1.283  -2.160  0.00  0.00    -0.078 A 
ATOM      4  C2  OXE d   1       0.895   0.167  -1.366  0.00  0.00    -0.078 A 
ATOM      5  C3  OXE d   1       1.786  -0.842  -1.723  0.00  0.00     0.003 A 
ATOM      6  C4  OXE d   1       2.669  -0.662  -2.794  0.00  0.00    -0.002 A 
ATOM      7  C5  OXE d   1       2.593   0.484  -3.592  0.00  0.00    -0.002 A 
ATOM      8  C6  OXE d   1       1.626   1.445  -3.315  0.00  0.00     0.003 A 
ENDROOT
TORSDOF 0
ENDMDL
