MODEL 1
REMARK minimizedAffinity -1.2265259
REMARK minimizedRMSD -1
REMARK  0 active torsions:
REMARK  status: ('A' for Active; 'I' for Inactive)
ROOT
ATOM      1  C2' OXE d   1      -0.492   2.065  -1.095  0.00  0.00     0.078 C 
ATOM      2  C1' OXE d   1      -1.617   0.460   0.914  0.00  0.00     0.078 C 
ATOM      3  C1  OXE d   1      -0.509  -0.132   0.079  0.00  0.00    -0.078 A 
ATOM      4  C2  OXE d   1       0.003   0.644  -0.933  0.00  0.00    -0.078 A 
ATOM      5  C3  OXE d   1       1.063   0.167  -1.699  0.00  0.00     0.003 A 
ATOM      6  C4  OXE d   1       1.508  -1.153  -1.549  0.00  0.00    -0.002 A 
ATOM      7  C5  OXE d   1       0.972  -1.973  -0.551  0.00  0.00    -0.002 A 
ATOM      8  C6  OXE d   1      -0.005  -1.465   0.297  0.00  0.00     0.003 A 
ENDROOT
TORSDOF 0
ENDMDL
