MODEL 1
REMARK minimizedAffinity -1.53304982
REMARK minimizedRMSD -1
REMARK  0 active torsions:
REMARK  status: ('A' for Active; 'I' for Inactive)
ROOT
ATOM      1  C2' OXE d   1       2.817  -0.444  -1.388  0.00  0.00     0.078 C 
ATOM      2  C1' OXE d   1       1.329  -2.778  -0.919  0.00  0.00     0.078 C 
ATOM      3  C1  OXE d   1       0.660  -1.452  -0.654  0.00  0.00    -0.078 A 
ATOM      4  C2  OXE d   1       1.411  -0.317  -0.842  0.00  0.00    -0.078 A 
ATOM      5  C3  OXE d   1       0.826   0.934  -0.665  0.00  0.00     0.003 A 
ATOM      6  C4  OXE d   1      -0.471   1.043  -0.150  0.00  0.00    -0.002 A 
ATOM      7  C5  OXE d   1      -1.240  -0.102   0.086  0.00  0.00    -0.002 A 
ATOM      8  C6  OXE d   1      -0.705  -1.353  -0.201  0.00  0.00     0.003 A 
ENDROOT
TORSDOF 0
ENDMDL
