MODEL 1
REMARK minimizedAffinity 1.63415992
REMARK minimizedRMSD -1
REMARK  0 active torsions:
REMARK  status: ('A' for Active; 'I' for Inactive)
ROOT
ATOM      1  C2' OXE d   1       2.287  -2.178  -0.260  0.00  0.00     0.078 C 
ATOM      2  C1' OXE d   1       0.937  -2.744  -2.656  0.00  0.00     0.078 C 
ATOM      3  C1  OXE d   1       1.313  -1.309  -2.382  0.00  0.00    -0.078 A 
ATOM      4  C2  OXE d   1       1.932  -1.035  -1.186  0.00  0.00    -0.078 A 
ATOM      5  C3  OXE d   1       2.350   0.264  -0.908  0.00  0.00     0.003 A 
ATOM      6  C4  OXE d   1       2.009   1.317  -1.765  0.00  0.00    -0.002 A 
ATOM      7  C5  OXE d   1       1.343   1.065  -2.970  0.00  0.00    -0.002 A 
ATOM      8  C6  OXE d   1       1.027  -0.245  -3.313  0.00  0.00     0.003 A 
ENDROOT
TORSDOF 0
ENDMDL
