MODEL 1
REMARK minimizedAffinity -4.8345356
REMARK minimizedRMSD -1
REMARK  1 active torsions:
REMARK  status: ('A' for Active; 'I' for Inactive)
REMARK    1  A    between atoms: C1_2  and  C2_3 
ROOT
ATOM      1  C2  UNL d   1      -0.486   0.395  -0.353  0.00  0.00    -0.081 A 
ATOM      2  C3  UNL d   1       0.909   0.279  -0.368  0.00  0.00     0.006 A 
ATOM      3  C4  UNL d   1       1.534  -0.835   0.199  0.00  0.00     0.002 A 
ATOM      4  C5  UNL d   1       0.774  -1.854   0.783  0.00  0.00    -0.080 A 
ATOM      5  C6  UNL d   1       1.430  -3.069   1.369  0.00  0.00     0.076 C 
ATOM      6  C7  UNL d   1      -0.620  -1.730   0.814  0.00  0.00     0.002 A 
ATOM      7  C8  UNL d   1      -1.244  -0.616   0.247  0.00  0.00     0.006 A 
ENDROOT
BRANCH   1   8
ATOM      8  C1  UNL d   1      -1.165   1.563  -1.021  0.00  0.00     0.054 C 
ATOM      9  C   UNL d   1      -2.073   1.102  -2.153  0.00  0.00     0.018 C 
ENDBRANCH   1   8
TORSDOF 1
ENDMDL
