MODEL 1
REMARK minimizedAffinity -4.895051
REMARK minimizedRMSD -1
REMARK  1 active torsions:
REMARK  status: ('A' for Active; 'I' for Inactive)
REMARK    1  A    between atoms: C1_2  and  C2_3 
ROOT
ATOM      1  C2  UNL d   1       0.306  -0.278  -0.100  0.00  0.00    -0.081 A 
ATOM      2  C3  UNL d   1       0.141   1.058   0.283  0.00  0.00     0.006 A 
ATOM      3  C4  UNL d   1      -0.795   1.870  -0.362  0.00  0.00     0.002 A 
ATOM      4  C5  UNL d   1      -1.587   1.356  -1.395  0.00  0.00    -0.080 A 
ATOM      5  C6  UNL d   1      -2.617   2.208  -2.076  0.00  0.00     0.076 C 
ATOM      6  C7  UNL d   1      -1.410   0.026  -1.790  0.00  0.00     0.002 A 
ATOM      7  C8  UNL d   1      -0.473  -0.785  -1.146  0.00  0.00     0.006 A 
ENDROOT
BRANCH   1   8
ATOM      8  C1  UNL d   1       1.269  -1.174   0.637  0.00  0.00     0.054 C 
ATOM      9  C   UNL d   1       0.909  -2.641   0.456  0.00  0.00     0.018 C 
ENDBRANCH   1   8
TORSDOF 1
ENDMDL
