MODEL 1
REMARK minimizedAffinity -6.23614454
REMARK minimizedRMSD -1
REMARK  1 active torsions:
REMARK  status: ('A' for Active; 'I' for Inactive)
REMARK    1  A    between atoms: C1_2  and  C2_3 
ROOT
ATOM      1  C2  UNL d   1       0.021   0.172   0.307  0.00  0.00    -0.081 A 
ATOM      2  C3  UNL d   1       1.161  -0.498  -0.153  0.00  0.00     0.006 A 
ATOM      3  C4  UNL d   1       1.574  -1.689   0.450  0.00  0.00     0.002 A 
ATOM      4  C5  UNL d   1       0.850  -2.232   1.517  0.00  0.00    -0.080 A 
ATOM      5  C6  UNL d   1       1.264  -3.525   2.154  0.00  0.00     0.076 C 
ATOM      6  C7  UNL d   1      -0.279  -1.553   1.988  0.00  0.00     0.002 A 
ATOM      7  C8  UNL d   1      -0.692  -0.362   1.386  0.00  0.00     0.006 A 
ENDROOT
BRANCH   1   8
ATOM      8  C1  UNL d   1      -0.463   1.422  -0.383  0.00  0.00     0.054 C 
ATOM      9  C   UNL d   1      -1.568   1.110  -1.382  0.00  0.00     0.018 C 
ENDBRANCH   1   8
TORSDOF 1
ENDMDL
