MODEL 1
REMARK minimizedAffinity -5.86231422
REMARK minimizedRMSD -1
REMARK  1 active torsions:
REMARK  status: ('A' for Active; 'I' for Inactive)
REMARK    1  A    between atoms: C1_2  and  C2_3 
ROOT
ATOM      1  C2  UNL d   1      -0.428   0.901  -0.039  0.00  0.00    -0.081 A 
ATOM      2  C3  UNL d   1       0.836   0.688  -0.604  0.00  0.00     0.006 A 
ATOM      3  C4  UNL d   1       1.576  -0.450  -0.276  0.00  0.00     0.002 A 
ATOM      4  C5  UNL d   1       1.062  -1.398   0.616  0.00  0.00    -0.080 A 
ATOM      5  C6  UNL d   1       1.834  -2.639   0.953  0.00  0.00     0.076 C 
ATOM      6  C7  UNL d   1      -0.192  -1.177   1.194  0.00  0.00     0.002 A 
ATOM      7  C8  UNL d   1      -0.933  -0.039   0.866  0.00  0.00     0.006 A 
ENDROOT
BRANCH   1   8
ATOM      8  C1  UNL d   1      -1.256   2.094  -0.440  0.00  0.00     0.054 C 
ATOM      9  C   UNL d   1      -2.244   1.738  -1.542  0.00  0.00     0.018 C 
ENDBRANCH   1   8
TORSDOF 1
ENDMDL
