MODEL 1
REMARK minimizedAffinity -4.68503332
REMARK minimizedRMSD -1
REMARK  1 active torsions:
REMARK  status: ('A' for Active; 'I' for Inactive)
REMARK    1  A    between atoms: C1_2  and  C2_3 
ROOT
ATOM      1  C2  UNL d   1      -0.293   1.255  -0.976  0.00  0.00    -0.081 A 
ATOM      2  C3  UNL d   1       1.084   1.122  -1.196  0.00  0.00     0.006 A 
ATOM      3  C4  UNL d   1       1.810   0.117  -0.551  0.00  0.00     0.002 A 
ATOM      4  C5  UNL d   1       1.171  -0.775   0.316  0.00  0.00    -0.080 A 
ATOM      5  C6  UNL d   1       1.932  -1.877   0.990  0.00  0.00     0.076 C 
ATOM      6  C7  UNL d   1      -0.201  -0.632   0.549  0.00  0.00     0.002 A 
ATOM      7  C8  UNL d   1      -0.928   0.373  -0.095  0.00  0.00     0.006 A 
ENDROOT
BRANCH   1   8
ATOM      8  C1  UNL d   1      -1.090   2.296  -1.719  0.00  0.00     0.054 C 
ATOM      9  C   UNL d   1      -2.045   1.655  -2.715  0.00  0.00     0.018 C 
ENDBRANCH   1   8
TORSDOF 1
ENDMDL
