MODEL 1
REMARK minimizedAffinity -4.19484997
REMARK minimizedRMSD -1
REMARK  1 active torsions:
REMARK  status: ('A' for Active; 'I' for Inactive)
REMARK    1  A    between atoms: C1_2  and  C2_3 
ROOT
ATOM      1  C2  UNL d   1       0.447   0.123  -0.090  0.00  0.00    -0.081 A 
ATOM      2  C3  UNL d   1       1.705  -0.479  -0.217  0.00  0.00     0.006 A 
ATOM      3  C4  UNL d   1       1.983  -1.683   0.436  0.00  0.00     0.002 A 
ATOM      4  C5  UNL d   1       1.007  -2.308   1.219  0.00  0.00    -0.080 A 
ATOM      5  C6  UNL d   1       1.282  -3.615   1.900  0.00  0.00     0.076 C 
ATOM      6  C7  UNL d   1      -0.244  -1.697   1.360  0.00  0.00     0.002 A 
ATOM      7  C8  UNL d   1      -0.523  -0.494   0.708  0.00  0.00     0.006 A 
ENDROOT
BRANCH   1   8
ATOM      8  C1  UNL d   1       0.123   1.387  -0.844  0.00  0.00     0.054 C 
ATOM      9  C   UNL d   1      -1.288   1.346  -1.413  0.00  0.00     0.018 C 
ENDBRANCH   1   8
TORSDOF 1
ENDMDL
