MODEL 1
REMARK minimizedAffinity -3.28423357
REMARK minimizedRMSD -1
REMARK  1 active torsions:
REMARK  status: ('A' for Active; 'I' for Inactive)
REMARK    1  A    between atoms: C1_2  and  C2_3 
ROOT
ATOM      1  C2  UNL d   1      -0.404   1.016  -0.772  0.00  0.00    -0.081 A 
ATOM      2  C3  UNL d   1       0.935   0.838  -1.140  0.00  0.00     0.006 A 
ATOM      3  C4  UNL d   1       1.689  -0.201  -0.587  0.00  0.00     0.002 A 
ATOM      4  C5  UNL d   1       1.115  -1.082   0.334  0.00  0.00    -0.080 A 
ATOM      5  C6  UNL d   1       1.904  -2.219   0.912  0.00  0.00     0.076 C 
ATOM      6  C7  UNL d   1      -0.218  -0.894   0.715  0.00  0.00     0.002 A 
ATOM      7  C8  UNL d   1      -0.972   0.144   0.164  0.00  0.00     0.006 A 
ENDROOT
BRANCH   1   8
ATOM      8  C1  UNL d   1      -1.238   2.095  -1.414  0.00  0.00     0.054 C 
ATOM      9  C   UNL d   1      -2.056   1.545  -2.574  0.00  0.00     0.018 C 
ENDBRANCH   1   8
TORSDOF 1
ENDMDL
