MODEL 1
REMARK minimizedAffinity -4.58872986
REMARK minimizedRMSD -1
REMARK  1 active torsions:
REMARK  status: ('A' for Active; 'I' for Inactive)
REMARK    1  A    between atoms: C1_2  and  C2_3 
ROOT
ATOM      1  C2  UNL d   1      -0.219   0.200  -0.481  0.00  0.00    -0.081 A 
ATOM      2  C3  UNL d   1       1.171   0.028  -0.460  0.00  0.00     0.006 A 
ATOM      3  C4  UNL d   1       1.734  -1.125   0.091  0.00  0.00     0.002 A 
ATOM      4  C5  UNL d   1       0.918  -2.129   0.622  0.00  0.00    -0.080 A 
ATOM      5  C6  UNL d   1       1.509  -3.386   1.189  0.00  0.00     0.076 C 
ATOM      6  C7  UNL d   1      -0.469  -1.951   0.618  0.00  0.00     0.002 A 
ATOM      7  C8  UNL d   1      -1.033  -0.797   0.068  0.00  0.00     0.006 A 
ENDROOT
BRANCH   1   8
ATOM      8  C1  UNL d   1      -0.832   1.413  -1.132  0.00  0.00     0.054 C 
ATOM      9  C   UNL d   1      -1.969   1.024  -2.067  0.00  0.00     0.018 C 
ENDBRANCH   1   8
TORSDOF 1
ENDMDL
