MODEL 1
REMARK minimizedAffinity -2.9375248
REMARK minimizedRMSD -1
REMARK  1 active torsions:
REMARK  status: ('A' for Active; 'I' for Inactive)
REMARK    1  A    between atoms: C1_2  and  C2_3 
ROOT
ATOM      1  C2  UNL d   1      -0.617   0.566  -0.240  0.00  0.00    -0.081 A 
ATOM      2  C3  UNL d   1      -0.980  -0.270   0.823  0.00  0.00     0.006 A 
ATOM      3  C4  UNL d   1      -0.179  -1.360   1.172  0.00  0.00     0.002 A 
ATOM      4  C5  UNL d   1       1.001  -1.627   0.470  0.00  0.00    -0.080 A 
ATOM      5  C6  UNL d   1       1.886  -2.776   0.854  0.00  0.00     0.076 C 
ATOM      6  C7  UNL d   1       1.354  -0.802  -0.604  0.00  0.00     0.002 A 
ATOM      7  C8  UNL d   1       0.553   0.287  -0.954  0.00  0.00     0.006 A 
ENDROOT
BRANCH   1   8
ATOM      8  C1  UNL d   1      -1.445   1.779  -0.578  0.00  0.00     0.054 C 
ATOM      9  C   UNL d   1      -1.349   2.120  -2.058  0.00  0.00     0.018 C 
ENDBRANCH   1   8
TORSDOF 1
ENDMDL
