MODEL 1
REMARK minimizedAffinity -2.58724976
REMARK minimizedRMSD -1
REMARK  1 active torsions:
REMARK  status: ('A' for Active; 'I' for Inactive)
REMARK    1  A    between atoms: C1_2  and  C2_3 
ROOT
ATOM      1  C2  UNL d   1       0.092   0.093   0.041  0.00  0.00    -0.081 A 
ATOM      2  C3  UNL d   1       1.370  -0.456  -0.116  0.00  0.00     0.006 A 
ATOM      3  C4  UNL d   1       1.703  -1.665   0.500  0.00  0.00     0.002 A 
ATOM      4  C5  UNL d   1       0.762  -2.348   1.277  0.00  0.00    -0.080 A 
ATOM      5  C6  UNL d   1       1.096  -3.661   1.920  0.00  0.00     0.076 C 
ATOM      6  C7  UNL d   1      -0.510  -1.790   1.449  0.00  0.00     0.002 A 
ATOM      7  C8  UNL d   1      -0.843  -0.582   0.834  0.00  0.00     0.006 A 
ENDROOT
BRANCH   1   8
ATOM      8  C1  UNL d   1      -0.290   1.363  -0.675  0.00  0.00     0.054 C 
ATOM      9  C   UNL d   1      -1.374   1.108  -1.713  0.00  0.00     0.018 C 
ENDBRANCH   1   8
TORSDOF 1
ENDMDL
