MODEL 1
REMARK minimizedAffinity -4.17316866
REMARK minimizedRMSD -1
REMARK  1 active torsions:
REMARK  status: ('A' for Active; 'I' for Inactive)
REMARK    1  A    between atoms: C1_2  and  C2_3 
ROOT
ATOM      1  C2  UNL d   1      -1.247   0.429  -0.797  0.00  0.00    -0.081 A 
ATOM      2  C3  UNL d   1       0.027   1.010  -0.801  0.00  0.00     0.006 A 
ATOM      3  C4  UNL d   1       1.094   0.380  -0.157  0.00  0.00     0.002 A 
ATOM      4  C5  UNL d   1       0.908  -0.844   0.494  0.00  0.00    -0.080 A 
ATOM      5  C6  UNL d   1       2.052  -1.545   1.164  0.00  0.00     0.076 C 
ATOM      6  C7  UNL d   1      -0.368  -1.416   0.513  0.00  0.00     0.002 A 
ATOM      7  C8  UNL d   1      -1.436  -0.787  -0.130  0.00  0.00     0.006 A 
ENDROOT
BRANCH   1   8
ATOM      8  C1  UNL d   1      -2.386   1.073  -1.546  0.00  0.00     0.054 C 
ATOM      9  C   UNL d   1      -1.956   1.508  -2.940  0.00  0.00     0.018 C 
ENDBRANCH   1   8
TORSDOF 1
ENDMDL
