MODEL 1
REMARK minimizedAffinity -4.25387192
REMARK minimizedRMSD -1
REMARK  0 active torsions:
REMARK  status: ('A' for Active; 'I' for Inactive)
ROOT
ATOM      1  C1  BNZ d   1       1.302  -1.415   2.596  0.00  0.00     0.000 A 
ATOM      2  C2  BNZ d   1       2.297  -2.183   2.052  0.00  0.00     0.000 A 
ATOM      3  C3  BNZ d   1       2.575  -2.125   0.715  0.00  0.00     0.000 A 
ATOM      4  C4  BNZ d   1       1.833  -1.330  -0.082  0.00  0.00     0.000 A 
ATOM      5  C5  BNZ d   1       0.820  -0.557   0.449  0.00  0.00     0.000 A 
ATOM      6  C6  BNZ d   1       0.568  -0.589   1.802  0.00  0.00     0.000 A 
ENDROOT
TORSDOF 0
ENDMDL
