MODEL 1
REMARK minimizedAffinity -4.4155159
REMARK minimizedRMSD -1
REMARK  0 active torsions:
REMARK  status: ('A' for Active; 'I' for Inactive)
ROOT
ATOM      1  C1  BNZ d   1       1.028  -0.004   0.531  0.00  0.00     0.000 A 
ATOM      2  C2  BNZ d   1       2.191  -0.716   0.651  0.00  0.00     0.000 A 
ATOM      3  C3  BNZ d   1       2.371  -1.595   1.682  0.00  0.00     0.000 A 
ATOM      4  C4  BNZ d   1       1.405  -1.731   2.613  0.00  0.00     0.000 A 
ATOM      5  C5  BNZ d   1       0.230  -1.014   2.511  0.00  0.00     0.000 A 
ATOM      6  C6  BNZ d   1       0.037  -0.159   1.451  0.00  0.00     0.000 A 
ENDROOT
TORSDOF 0
ENDMDL
