MODEL 1
REMARK minimizedAffinity -3.63881373
REMARK minimizedRMSD -1
REMARK  0 active torsions:
REMARK  status: ('A' for Active; 'I' for Inactive)
ROOT
ATOM      1  C1  BNZ d   1       0.201  -0.745   0.767  0.00  0.00     0.000 A 
ATOM      2  C2  BNZ d   1       0.317  -0.579  -0.587  0.00  0.00     0.000 A 
ATOM      3  C3  BNZ d   1      -0.794  -0.480  -1.378  0.00  0.00     0.000 A 
ATOM      4  C4  BNZ d   1      -2.017  -0.588  -0.819  0.00  0.00     0.000 A 
ATOM      5  C5  BNZ d   1      -2.150  -0.765   0.544  0.00  0.00     0.000 A 
ATOM      6  C6  BNZ d   1      -1.030  -0.825   1.341  0.00  0.00     0.000 A 
ENDROOT
TORSDOF 0
ENDMDL
