MODEL 1
REMARK minimizedAffinity -4.46682501
REMARK minimizedRMSD -1
REMARK  0 active torsions:
REMARK  status: ('A' for Active; 'I' for Inactive)
ROOT
ATOM      1  C1  BNZ d   1       0.758  -0.798   2.682  0.00  0.00     0.000 A 
ATOM      2  C2  BNZ d   1       1.115  -0.848   1.361  0.00  0.00     0.000 A 
ATOM      3  C3  BNZ d   1       0.249  -0.441   0.386  0.00  0.00     0.000 A 
ATOM      4  C4  BNZ d   1      -0.987  -0.023   0.728  0.00  0.00     0.000 A 
ATOM      5  C5  BNZ d   1      -1.366   0.024   2.055  0.00  0.00     0.000 A 
ATOM      6  C6  BNZ d   1      -0.477  -0.350   3.037  0.00  0.00     0.000 A 
ENDROOT
TORSDOF 0
ENDMDL
