MODEL 1
REMARK minimizedAffinity -2.3058157
REMARK minimizedRMSD -1
REMARK  0 active torsions:
REMARK  status: ('A' for Active; 'I' for Inactive)
ROOT
ATOM      1  C   UNL d   1      -1.721  -1.495  -5.441  0.00  0.00     0.078 C 
ATOM      2  C1  UNL d   1      -0.695  -0.631  -4.771  0.00  0.00    -0.077 A 
ATOM      3  C2  UNL d   1      -0.568   0.725  -5.099  0.00  0.00    -0.001 A 
ATOM      4  C3  UNL d   1       0.398   1.515  -4.474  0.00  0.00     0.003 A 
ATOM      5  C4  UNL d   1       1.246   0.958  -3.518  0.00  0.00    -0.005 A 
ATOM      6  C5  UNL d   1       1.129  -0.390  -3.187  0.00  0.00     0.003 A 
ATOM      7  C6  UNL d   1       0.163  -1.182  -3.811  0.00  0.00    -0.001 A 
ENDROOT
TORSDOF 0
ENDMDL
