MODEL 1
REMARK minimizedAffinity -1.73857093
REMARK minimizedRMSD -1
REMARK  0 active torsions:
REMARK  status: ('A' for Active; 'I' for Inactive)
ROOT
ATOM      1  C   UNL d   1       1.761  -1.428  -0.991  0.00  0.00     0.078 C 
ATOM      2  C1  UNL d   1       1.278  -0.709  -2.215  0.00  0.00    -0.077 A 
ATOM      3  C2  UNL d   1       2.157   0.039  -3.007  0.00  0.00    -0.001 A 
ATOM      4  C3  UNL d   1       1.692   0.711  -4.138  0.00  0.00     0.003 A 
ATOM      5  C4  UNL d   1       0.344   0.642  -4.487  0.00  0.00    -0.005 A 
ATOM      6  C5  UNL d   1      -0.539  -0.098  -3.705  0.00  0.00     0.003 A 
ATOM      7  C6  UNL d   1      -0.075  -0.771  -2.573  0.00  0.00    -0.001 A 
ENDROOT
TORSDOF 0
ENDMDL
