MODEL 1
REMARK minimizedAffinity -3.60877419
REMARK minimizedRMSD -1
REMARK  0 active torsions:
REMARK  status: ('A' for Active; 'I' for Inactive)
ROOT
ATOM      1  C   UNL d   1      -1.188   0.417   2.714  0.00  0.00     0.078 C 
ATOM      2  C1  UNL d   1      -0.840   0.044   1.304  0.00  0.00    -0.077 A 
ATOM      3  C2  UNL d   1       0.035   0.831   0.545  0.00  0.00    -0.001 A 
ATOM      4  C3  UNL d   1       0.343   0.477  -0.770  0.00  0.00     0.003 A 
ATOM      5  C4  UNL d   1      -0.221  -0.664  -1.337  0.00  0.00    -0.005 A 
ATOM      6  C5  UNL d   1      -1.095  -1.452  -0.591  0.00  0.00     0.003 A 
ATOM      7  C6  UNL d   1      -1.404  -1.099   0.724  0.00  0.00    -0.001 A 
ENDROOT
TORSDOF 0
ENDMDL
