MODEL 1
REMARK minimizedAffinity -5.38903856
REMARK minimizedRMSD -1
REMARK  0 active torsions:
REMARK  status: ('A' for Active; 'I' for Inactive)
ROOT
ATOM      1  C   UNL d   1       0.723  -0.391  -1.125  0.00  0.00     0.078 C 
ATOM      2  C1  UNL d   1       0.225  -0.036   0.244  0.00  0.00    -0.077 A 
ATOM      3  C2  UNL d   1      -1.092   0.394   0.443  0.00  0.00    -0.001 A 
ATOM      4  C3  UNL d   1      -1.540   0.730   1.722  0.00  0.00     0.003 A 
ATOM      5  C4  UNL d   1      -0.675   0.641   2.811  0.00  0.00    -0.005 A 
ATOM      6  C5  UNL d   1       0.638   0.216   2.623  0.00  0.00     0.003 A 
ATOM      7  C6  UNL d   1       1.087  -0.121   1.345  0.00  0.00    -0.001 A 
ENDROOT
TORSDOF 0
ENDMDL
