MODEL 1
REMARK minimizedAffinity -3.63251519
REMARK minimizedRMSD -1
REMARK  0 active torsions:
REMARK  status: ('A' for Active; 'I' for Inactive)
ROOT
ATOM      1  C   UNL d   1      -1.032   0.815   2.945  0.00  0.00     0.078 C 
ATOM      2  C1  UNL d   1      -0.337   0.322   1.711  0.00  0.00    -0.077 A 
ATOM      3  C2  UNL d   1      -0.991   0.307   0.473  0.00  0.00    -0.001 A 
ATOM      4  C3  UNL d   1      -0.335  -0.164  -0.666  0.00  0.00     0.003 A 
ATOM      5  C4  UNL d   1       0.977  -0.625  -0.578  0.00  0.00    -0.005 A 
ATOM      6  C5  UNL d   1       1.634  -0.617   0.651  0.00  0.00     0.003 A 
ATOM      7  C6  UNL d   1       0.981  -0.146   1.790  0.00  0.00    -0.001 A 
ENDROOT
TORSDOF 0
ENDMDL
