MODEL 1
REMARK minimizedAffinity -3.51634049
REMARK minimizedRMSD -1
REMARK  0 active torsions:
REMARK  status: ('A' for Active; 'I' for Inactive)
ROOT
ATOM      1  C   UNL d   1       0.408  -0.790  -0.349  0.00  0.00     0.078 C 
ATOM      2  C1  UNL d   1       0.490  -0.323  -1.772  0.00  0.00    -0.077 A 
ATOM      3  C2  UNL d   1       1.605   0.386  -2.235  0.00  0.00    -0.001 A 
ATOM      4  C3  UNL d   1       1.664   0.823  -3.560  0.00  0.00     0.003 A 
ATOM      5  C4  UNL d   1       0.610   0.557  -4.431  0.00  0.00    -0.005 A 
ATOM      6  C5  UNL d   1      -0.505  -0.146  -3.979  0.00  0.00     0.003 A 
ATOM      7  C6  UNL d   1      -0.565  -0.584  -2.655  0.00  0.00    -0.001 A 
ENDROOT
TORSDOF 0
ENDMDL
