MODEL 1
REMARK minimizedAffinity -5.44970703
REMARK minimizedRMSD -1
REMARK  0 active torsions:
REMARK  status: ('A' for Active; 'I' for Inactive)
ROOT
ATOM      1  C   UNL d   1       0.756  -0.005  -1.147  0.00  0.00     0.078 C 
ATOM      2  C1  UNL d   1       0.133   0.127   0.210  0.00  0.00    -0.077 A 
ATOM      3  C2  UNL d   1       0.924   0.232   1.360  0.00  0.00    -0.001 A 
ATOM      4  C3  UNL d   1       0.331   0.345   2.618  0.00  0.00     0.003 A 
ATOM      5  C4  UNL d   1      -1.058   0.353   2.738  0.00  0.00    -0.005 A 
ATOM      6  C5  UNL d   1      -1.854   0.247   1.600  0.00  0.00     0.003 A 
ATOM      7  C6  UNL d   1      -1.262   0.134   0.341  0.00  0.00    -0.001 A 
ENDROOT
TORSDOF 0
ENDMDL
