MODEL 1
REMARK minimizedAffinity -3.92317343
REMARK minimizedRMSD -1
REMARK  0 active torsions:
REMARK  status: ('A' for Active; 'I' for Inactive)
ROOT
ATOM      1  C   UNL d   1       0.829   0.396  -4.626  0.00  0.00     0.078 C 
ATOM      2  C1  UNL d   1       1.000   0.159  -3.156  0.00  0.00    -0.077 A 
ATOM      3  C2  UNL d   1       2.140   0.613  -2.480  0.00  0.00    -0.001 A 
ATOM      4  C3  UNL d   1       2.290   0.377  -1.112  0.00  0.00     0.003 A 
ATOM      5  C4  UNL d   1       1.305  -0.314  -0.409  0.00  0.00    -0.005 A 
ATOM      6  C5  UNL d   1       0.169  -0.771  -1.073  0.00  0.00     0.003 A 
ATOM      7  C6  UNL d   1       0.017  -0.536  -2.441  0.00  0.00    -0.001 A 
ENDROOT
TORSDOF 0
ENDMDL
