MODEL 1
REMARK minimizedAffinity -2.47034931
REMARK minimizedRMSD -1
REMARK  0 active torsions:
REMARK  status: ('A' for Active; 'I' for Inactive)
ROOT
ATOM      1  C   UNL d   1       0.294  -0.189   0.056  0.00  0.00     0.078 C 
ATOM      2  C1  UNL d   1       0.618  -0.086  -1.404  0.00  0.00    -0.077 A 
ATOM      3  C2  UNL d   1      -0.313  -0.469  -2.378  0.00  0.00    -0.001 A 
ATOM      4  C3  UNL d   1       0.005  -0.376  -3.734  0.00  0.00     0.003 A 
ATOM      5  C4  UNL d   1       1.255   0.098  -4.128  0.00  0.00    -0.005 A 
ATOM      6  C5  UNL d   1       2.188   0.479  -3.166  0.00  0.00     0.003 A 
ATOM      7  C6  UNL d   1       1.872   0.387  -1.810  0.00  0.00    -0.001 A 
ENDROOT
TORSDOF 0
ENDMDL
