MODEL 1
REMARK minimizedAffinity -2.78722191
REMARK minimizedRMSD -1
REMARK  0 active torsions:
REMARK  status: ('A' for Active; 'I' for Inactive)
ROOT
ATOM      1  C   UNL d   1       2.352  -0.440   1.913  0.00  0.00     0.078 C 
ATOM      2  C1  UNL d   1       1.010  -0.153   1.307  0.00  0.00    -0.077 A 
ATOM      3  C2  UNL d   1      -0.057   0.292   2.097  0.00  0.00    -0.001 A 
ATOM      4  C3  UNL d   1      -1.303   0.546   1.521  0.00  0.00     0.003 A 
ATOM      5  C4  UNL d   1      -1.494   0.355   0.154  0.00  0.00    -0.005 A 
ATOM      6  C5  UNL d   1      -0.439  -0.090  -0.639  0.00  0.00     0.003 A 
ATOM      7  C6  UNL d   1       0.808  -0.344  -0.065  0.00  0.00    -0.001 A 
ENDROOT
TORSDOF 0
ENDMDL
