MODEL 1
REMARK minimizedAffinity 0.0569033884
REMARK minimizedRMSD -1
REMARK  0 active torsions:
REMARK  status: ('A' for Active; 'I' for Inactive)
ROOT
ATOM      1  C   UNL d   1       4.400  -0.764   2.529  0.00  0.00     0.078 C 
ATOM      2  C1  UNL d   1       4.730   0.415   3.395  0.00  0.00    -0.077 A 
ATOM      3  C2  UNL d   1       5.289   0.241   4.667  0.00  0.00    -0.001 A 
ATOM      4  C3  UNL d   1       5.582   1.347   5.467  0.00  0.00     0.003 A 
ATOM      5  C4  UNL d   1       5.319   2.635   5.003  0.00  0.00    -0.005 A 
ATOM      6  C5  UNL d   1       4.761   2.817   3.740  0.00  0.00     0.003 A 
ATOM      7  C6  UNL d   1       4.467   1.713   2.939  0.00  0.00    -0.001 A 
ENDROOT
TORSDOF 0
ENDMDL
