MODEL 1
REMARK minimizedAffinity 4.56391478
REMARK minimizedRMSD -1
REMARK  2 active torsions:
REMARK  status: ('A' for Active; 'I' for Inactive)
REMARK    1  A    between atoms: C1_2  and  C2_3 
REMARK    2  A    between atoms: C2_3  and  C3_4 
ROOT
ATOM      1  C3  UNL d   1       0.276   3.512  -0.363  0.00  0.00    -0.075 A 
ATOM      2  C4  UNL d   1       0.420   2.225   0.173  0.00  0.00     0.002 A 
ATOM      3  C5  UNL d   1      -0.702   1.477   0.531  0.00  0.00     0.002 A 
ATOM      4  C6  UNL d   1      -1.979   2.010   0.368  0.00  0.00    -0.004 A 
ATOM      5  C7  UNL d   1      -2.133   3.294  -0.148  0.00  0.00     0.002 A 
ATOM      6  C8  UNL d   1      -1.012   4.043  -0.511  0.00  0.00     0.002 A 
ENDROOT
BRANCH   1   7
ATOM      7  C2  UNL d   1       1.486   4.315  -0.780  0.00  0.00     0.056 C 
BRANCH   7   8
ATOM      8  C1  UNL d   1       1.147   5.608  -1.529  0.00  0.00     0.007 C 
ATOM      9  C   UNL d   1       2.195   5.993  -2.565  0.00  0.00     0.009 C 
ENDBRANCH   7   8
ENDBRANCH   1   7
TORSDOF 2
ENDMDL
