MODEL 1
REMARK minimizedAffinity 8.34105206
REMARK minimizedRMSD -1
REMARK  2 active torsions:
REMARK  status: ('A' for Active; 'I' for Inactive)
REMARK    1  A    between atoms: C1_2  and  C2_3 
REMARK    2  A    between atoms: C2_3  and  C3_4 
ROOT
ATOM      1  C3  UNL d   1       0.642   1.343  -0.225  0.00  0.00    -0.075 A 
ATOM      2  C4  UNL d   1       1.060   0.368   0.693  0.00  0.00     0.002 A 
ATOM      3  C5  UNL d   1       1.487  -0.884   0.251  0.00  0.00     0.002 A 
ATOM      4  C6  UNL d   1       1.491  -1.182  -1.110  0.00  0.00    -0.004 A 
ATOM      5  C7  UNL d   1       1.062  -0.227  -2.030  0.00  0.00     0.002 A 
ATOM      6  C8  UNL d   1       0.639   1.029  -1.591  0.00  0.00     0.002 A 
ENDROOT
BRANCH   1   7
ATOM      7  C2  UNL d   1       0.207   2.710   0.245  0.00  0.00     0.056 C 
BRANCH   7   8
ATOM      8  C1  UNL d   1      -1.052   3.238  -0.453  0.00  0.00     0.007 C 
ATOM      9  C   UNL d   1      -2.331   2.960   0.326  0.00  0.00     0.009 C 
ENDBRANCH   7   8
ENDBRANCH   1   7
TORSDOF 2
ENDMDL
