MODEL 1
REMARK minimizedAffinity 9.77567005
REMARK minimizedRMSD -1
REMARK  2 active torsions:
REMARK  status: ('A' for Active; 'I' for Inactive)
REMARK    1  A    between atoms: C1_2  and  C2_3 
REMARK    2  A    between atoms: C2_3  and  C3_4 
ROOT
ATOM      1  C3  UNL d   1      -3.513   3.335   1.081  0.00  0.00    -0.075 A 
ATOM      2  C4  UNL d   1      -4.722   2.930   0.497  0.00  0.00     0.002 A 
ATOM      3  C5  UNL d   1      -5.898   3.642   0.735  0.00  0.00     0.002 A 
ATOM      4  C6  UNL d   1      -5.883   4.760   1.566  0.00  0.00    -0.004 A 
ATOM      5  C7  UNL d   1      -4.691   5.162   2.166  0.00  0.00     0.002 A 
ATOM      6  C8  UNL d   1      -3.512   4.454   1.926  0.00  0.00     0.002 A 
ENDROOT
BRANCH   1   7
ATOM      7  C2  UNL d   1      -2.232   2.587   0.804  0.00  0.00     0.056 C 
BRANCH   7   8
ATOM      8  C1  UNL d   1      -1.158   3.425   0.102  0.00  0.00     0.007 C 
ATOM      9  C   UNL d   1       0.220   2.779   0.128  0.00  0.00     0.009 C 
ENDBRANCH   7   8
ENDBRANCH   1   7
TORSDOF 2
ENDMDL
