MODEL 1
REMARK minimizedAffinity 8.95565319
REMARK minimizedRMSD -1
REMARK  2 active torsions:
REMARK  status: ('A' for Active; 'I' for Inactive)
REMARK    1  A    between atoms: C1_2  and  C2_3 
REMARK    2  A    between atoms: C2_3  and  C3_4 
ROOT
ATOM      1  C3  UNL d   1       0.752   4.045  -0.767  0.00  0.00    -0.075 A 
ATOM      2  C4  UNL d   1      -0.503   4.460  -1.233  0.00  0.00     0.002 A 
ATOM      3  C5  UNL d   1      -1.654   3.742  -0.907  0.00  0.00     0.002 A 
ATOM      4  C6  UNL d   1      -1.563   2.596  -0.120  0.00  0.00    -0.004 A 
ATOM      5  C7  UNL d   1      -0.319   2.164   0.336  0.00  0.00     0.002 A 
ATOM      6  C8  UNL d   1       0.833   2.884   0.014  0.00  0.00     0.002 A 
ENDROOT
BRANCH   1   7
ATOM      7  C2  UNL d   1       1.998   4.834  -1.092  0.00  0.00     0.056 C 
BRANCH   7   8
ATOM      8  C1  UNL d   1       1.767   5.984  -2.078  0.00  0.00     0.007 C 
ATOM      9  C   UNL d   1       2.756   5.989  -3.237  0.00  0.00     0.009 C 
ENDBRANCH   7   8
ENDBRANCH   1   7
TORSDOF 2
ENDMDL
