MODEL 1
REMARK minimizedAffinity 3.85478282
REMARK minimizedRMSD -1
REMARK  2 active torsions:
REMARK  status: ('A' for Active; 'I' for Inactive)
REMARK    1  A    between atoms: C1_2  and  C2_3 
REMARK    2  A    between atoms: C2_3  and  C3_4 
ROOT
ATOM      1  C3  UNL d   1       2.191   3.782   0.247  0.00  0.00    -0.075 A 
ATOM      2  C4  UNL d   1       2.056   4.868  -0.630  0.00  0.00     0.002 A 
ATOM      3  C5  UNL d   1       2.910   5.967  -0.533  0.00  0.00     0.002 A 
ATOM      4  C6  UNL d   1       3.900   6.000   0.447  0.00  0.00    -0.004 A 
ATOM      5  C7  UNL d   1       4.032   4.934   1.334  0.00  0.00     0.002 A 
ATOM      6  C8  UNL d   1       3.183   3.831   1.236  0.00  0.00     0.002 A 
ENDROOT
BRANCH   1   7
ATOM      7  C2  UNL d   1       1.290   2.576   0.128  0.00  0.00     0.056 C 
BRANCH   7   8
ATOM      8  C1  UNL d   1      -0.099   2.773   0.743  0.00  0.00     0.007 C 
ATOM      9  C   UNL d   1      -0.982   3.721  -0.058  0.00  0.00     0.009 C 
ENDBRANCH   7   8
ENDBRANCH   1   7
TORSDOF 2
ENDMDL
