MODEL 1
REMARK minimizedAffinity 11.9328308
REMARK minimizedRMSD -1
REMARK  2 active torsions:
REMARK  status: ('A' for Active; 'I' for Inactive)
REMARK    1  A    between atoms: C1_2  and  C2_3 
REMARK    2  A    between atoms: C2_3  and  C3_4 
ROOT
ATOM      1  C3  UNL d   1      -1.768   3.742   0.899  0.00  0.00    -0.075 A 
ATOM      2  C4  UNL d   1      -1.592   4.753  -0.057  0.00  0.00     0.002 A 
ATOM      3  C5  UNL d   1      -0.463   4.765  -0.876  0.00  0.00     0.002 A 
ATOM      4  C6  UNL d   1       0.508   3.775  -0.743  0.00  0.00    -0.004 A 
ATOM      5  C7  UNL d   1       0.352   2.776   0.215  0.00  0.00     0.002 A 
ATOM      6  C8  UNL d   1      -0.779   2.759   1.033  0.00  0.00     0.002 A 
ENDROOT
BRANCH   1   7
ATOM      7  C2  UNL d   1      -3.003   3.707   1.768  0.00  0.00     0.056 C 
BRANCH   7   8
ATOM      8  C1  UNL d   1      -3.794   5.019   1.781  0.00  0.00     0.007 C 
ATOM      9  C   UNL d   1      -5.300   4.813   1.684  0.00  0.00     0.009 C 
ENDBRANCH   7   8
ENDBRANCH   1   7
TORSDOF 2
ENDMDL
