MODEL 1
REMARK minimizedAffinity 8.64638424
REMARK minimizedRMSD -1
REMARK  2 active torsions:
REMARK  status: ('A' for Active; 'I' for Inactive)
REMARK    1  A    between atoms: C1_2  and  C2_3 
REMARK    2  A    between atoms: C2_3  and  C3_4 
ROOT
ATOM      1  C3  UNL d   1      -1.799   2.761   0.103  0.00  0.00    -0.075 A 
ATOM      2  C4  UNL d   1      -1.747   2.473  -1.269  0.00  0.00     0.002 A 
ATOM      3  C5  UNL d   1      -0.527   2.466  -1.945  0.00  0.00     0.002 A 
ATOM      4  C6  UNL d   1       0.652   2.755  -1.263  0.00  0.00    -0.004 A 
ATOM      5  C7  UNL d   1       0.611   3.058   0.096  0.00  0.00     0.002 A 
ATOM      6  C8  UNL d   1      -0.608   3.063   0.776  0.00  0.00     0.002 A 
ENDROOT
BRANCH   1   7
ATOM      7  C2  UNL d   1      -3.113   2.742   0.847  0.00  0.00     0.056 C 
BRANCH   7   8
ATOM      8  C1  UNL d   1      -3.370   3.995   1.692  0.00  0.00     0.007 C 
ATOM      9  C   UNL d   1      -4.807   4.491   1.609  0.00  0.00     0.009 C 
ENDBRANCH   7   8
ENDBRANCH   1   7
TORSDOF 2
ENDMDL
