MODEL 1
REMARK minimizedAffinity 3.58582258
REMARK minimizedRMSD -1
REMARK  3 active torsions:
REMARK  status: ('A' for Active; 'I' for Inactive)
REMARK    1  A    between atoms: C3'_2  and  C2'_3 
REMARK    2  A    between atoms: C2'_3  and  C1'_4 
REMARK    3  A    between atoms: C1'_4  and  C1_5 
ROOT
ATOM      1  C1  N4B d   1      -1.134   1.404   0.859  0.00  0.00    -0.075 A 
ATOM      2  C2  N4B d   1      -1.881   0.319   1.369  0.00  0.00     0.002 A 
ATOM      3  C3  N4B d   1      -3.220   0.213   1.082  0.00  0.00     0.002 A 
ATOM      4  C4  N4B d   1      -3.835   1.184   0.307  0.00  0.00    -0.004 A 
ATOM      5  C5  N4B d   1      -3.101   2.215  -0.203  0.00  0.00     0.002 A 
ATOM      6  C6  N4B d   1      -1.754   2.333   0.074  0.00  0.00     0.002 A 
ENDROOT
BRANCH   1   7
ATOM      7  C1' N4B d   1       0.312   1.610   1.215  0.00  0.00     0.057 C 
BRANCH   7   8
ATOM      8  C2' N4B d   1       1.093   1.966  -0.046  0.00  0.00     0.009 C 
BRANCH   8   9
ATOM      9  C3' N4B d   1       2.232   0.994  -0.303  0.00  0.00     0.004 C 
ATOM     10  C4' N4B d   1       2.814   1.133  -1.678  0.00  0.00     0.003 C 
ENDBRANCH   8   9
ENDBRANCH   7   8
ENDBRANCH   1   7
TORSDOF 3
ENDMDL
