MODEL 1
REMARK minimizedAffinity 2.54812694
REMARK minimizedRMSD -1
REMARK  3 active torsions:
REMARK  status: ('A' for Active; 'I' for Inactive)
REMARK    1  A    between atoms: C3'_2  and  C2'_3 
REMARK    2  A    between atoms: C2'_3  and  C1'_4 
REMARK    3  A    between atoms: C1'_4  and  C1_5 
ROOT
ATOM      1  C1  N4B d   1       2.862   4.205   1.949  0.00  0.00    -0.075 A 
ATOM      2  C2  N4B d   1       4.114   4.254   2.600  0.00  0.00     0.002 A 
ATOM      3  C3  N4B d   1       5.067   5.154   2.189  0.00  0.00     0.002 A 
ATOM      4  C4  N4B d   1       4.797   5.999   1.123  0.00  0.00    -0.004 A 
ATOM      5  C5  N4B d   1       3.576   5.963   0.516  0.00  0.00     0.002 A 
ATOM      6  C6  N4B d   1       2.608   5.066   0.921  0.00  0.00     0.002 A 
ENDROOT
BRANCH   1   7
ATOM      7  C1' N4B d   1       1.821   3.179   2.306  0.00  0.00     0.057 C 
BRANCH   7   8
ATOM      8  C2' N4B d   1       0.714   3.203   1.256  0.00  0.00     0.009 C 
BRANCH   8   9
ATOM      9  C3' N4B d   1      -0.440   2.287   1.626  0.00  0.00     0.004 C 
ATOM     10  C4' N4B d   1      -0.784   1.318   0.535  0.00  0.00     0.003 C 
ENDBRANCH   8   9
ENDBRANCH   7   8
ENDBRANCH   1   7
TORSDOF 3
ENDMDL
