MODEL 1
REMARK minimizedAffinity 3.20042849
REMARK minimizedRMSD -1
REMARK  3 active torsions:
REMARK  status: ('A' for Active; 'I' for Inactive)
REMARK    1  A    between atoms: C3'_2  and  C2'_3 
REMARK    2  A    between atoms: C2'_3  and  C1'_4 
REMARK    3  A    between atoms: C1'_4  and  C1_5 
ROOT
ATOM      1  C1  N4B d   1      -1.235  -3.701   2.263  0.00  0.00    -0.075 A 
ATOM      2  C2  N4B d   1      -0.711  -3.632   3.573  0.00  0.00     0.002 A 
ATOM      3  C3  N4B d   1      -0.163  -4.750   4.152  0.00  0.00     0.002 A 
ATOM      4  C4  N4B d   1      -0.145  -5.947   3.452  0.00  0.00    -0.004 A 
ATOM      5  C5  N4B d   1      -0.630  -5.999   2.178  0.00  0.00     0.002 A 
ATOM      6  C6  N4B d   1      -1.180  -4.882   1.581  0.00  0.00     0.002 A 
ENDROOT
BRANCH   1   7
ATOM      7  C1' N4B d   1      -1.922  -2.527   1.620  0.00  0.00     0.057 C 
BRANCH   7   8
ATOM      8  C2' N4B d   1      -2.952  -3.038   0.616  0.00  0.00     0.009 C 
BRANCH   8   9
ATOM      9  C3' N4B d   1      -2.604  -2.639  -0.807  0.00  0.00     0.004 C 
ATOM     10  C4' N4B d   1      -2.899  -3.721  -1.803  0.00  0.00     0.003 C 
ENDBRANCH   8   9
ENDBRANCH   7   8
ENDBRANCH   1   7
TORSDOF 3
ENDMDL
