MODEL 1
REMARK minimizedAffinity 6.1794095
REMARK minimizedRMSD -1
REMARK  3 active torsions:
REMARK  status: ('A' for Active; 'I' for Inactive)
REMARK    1  A    between atoms: C3'_2  and  C2'_3 
REMARK    2  A    between atoms: C2'_3  and  C1'_4 
REMARK    3  A    between atoms: C1'_4  and  C1_5 
ROOT
ATOM      1  C1  N4B d   1       0.750   1.533   1.230  0.00  0.00    -0.075 A 
ATOM      2  C2  N4B d   1      -0.372   1.409   2.078  0.00  0.00     0.002 A 
ATOM      3  C3  N4B d   1      -0.724   2.445   2.908  0.00  0.00     0.002 A 
ATOM      4  C4  N4B d   1       0.040   3.602   2.921  0.00  0.00    -0.004 A 
ATOM      5  C5  N4B d   1       1.107   3.724   2.081  0.00  0.00     0.002 A 
ATOM      6  C6  N4B d   1       1.470   2.693   1.238  0.00  0.00     0.002 A 
ENDROOT
BRANCH   1   7
ATOM      7  C1' N4B d   1       1.224   0.395   0.368  0.00  0.00     0.057 C 
BRANCH   7   8
ATOM      8  C2' N4B d   1       2.172   0.936  -0.698  0.00  0.00     0.009 C 
BRANCH   8   9
ATOM      9  C3' N4B d   1       1.782   0.474  -2.092  0.00  0.00     0.004 C 
ATOM     10  C4' N4B d   1       1.312   1.598  -2.966  0.00  0.00     0.003 C 
ENDBRANCH   8   9
ENDBRANCH   7   8
ENDBRANCH   1   7
TORSDOF 3
ENDMDL
