MODEL 1
REMARK minimizedAffinity 2.7825737
REMARK minimizedRMSD -1
REMARK  3 active torsions:
REMARK  status: ('A' for Active; 'I' for Inactive)
REMARK    1  A    between atoms: C3'_2  and  C2'_3 
REMARK    2  A    between atoms: C2'_3  and  C1'_4 
REMARK    3  A    between atoms: C1'_4  and  C1_5 
ROOT
ATOM      1  C1  N4B d   1       2.569   5.906   1.748  0.00  0.00    -0.075 A 
ATOM      2  C2  N4B d   1       2.681   5.942   3.155  0.00  0.00     0.002 A 
ATOM      3  C3  N4B d   1       3.921   5.998   3.743  0.00  0.00     0.002 A 
ATOM      4  C4  N4B d   1       5.058   5.998   2.949  0.00  0.00    -0.004 A 
ATOM      5  C5  N4B d   1       4.939   5.989   1.590  0.00  0.00     0.002 A 
ATOM      6  C6  N4B d   1       3.700   5.937   0.985  0.00  0.00     0.002 A 
ENDROOT
BRANCH   1   7
ATOM      7  C1' N4B d   1       1.238   5.758   1.061  0.00  0.00     0.057 C 
BRANCH   7   8
ATOM      8  C2' N4B d   1       0.837   4.286   1.059  0.00  0.00     0.009 C 
BRANCH   8   9
ATOM      9  C3' N4B d   1       1.047   3.637   2.416  0.00  0.00     0.004 C 
ATOM     10  C4' N4B d   1      -0.229   3.142   3.028  0.00  0.00     0.003 C 
ENDBRANCH   8   9
ENDBRANCH   7   8
ENDBRANCH   1   7
TORSDOF 3
ENDMDL
