MODEL 1
REMARK minimizedAffinity 5.11506748
REMARK minimizedRMSD -1
REMARK  3 active torsions:
REMARK  status: ('A' for Active; 'I' for Inactive)
REMARK    1  A    between atoms: C3'_2  and  C2'_3 
REMARK    2  A    between atoms: C2'_3  and  C1'_4 
REMARK    3  A    between atoms: C1'_4  and  C1_5 
ROOT
ATOM      1  C1  N4B d   1       1.118   1.411  -0.702  0.00  0.00    -0.075 A 
ATOM      2  C2  N4B d   1       2.377   0.983  -1.180  0.00  0.00     0.002 A 
ATOM      3  C3  N4B d   1       2.710   1.169  -2.499  0.00  0.00     0.002 A 
ATOM      4  C4  N4B d   1       1.797   1.759  -3.360  0.00  0.00    -0.004 A 
ATOM      5  C5  N4B d   1       0.593   2.192  -2.885  0.00  0.00     0.002 A 
ATOM      6  C6  N4B d   1       0.247   2.016  -1.561  0.00  0.00     0.002 A 
ENDROOT
BRANCH   1   7
ATOM      7  C1' N4B d   1       0.676   1.152   0.712  0.00  0.00     0.057 C 
BRANCH   7   8
ATOM      8  C2' N4B d   1      -0.816   1.448   0.832  0.00  0.00     0.009 C 
BRANCH   8   9
ATOM      9  C3' N4B d   1      -1.580   0.282   1.434  0.00  0.00     0.004 C 
ATOM     10  C4' N4B d   1      -2.828  -0.051   0.671  0.00  0.00     0.003 C 
ENDBRANCH   8   9
ENDBRANCH   7   8
ENDBRANCH   1   7
TORSDOF 3
ENDMDL
