MODEL 1
REMARK minimizedAffinity 3.57700634
REMARK minimizedRMSD -1
REMARK  3 active torsions:
REMARK  status: ('A' for Active; 'I' for Inactive)
REMARK    1  A    between atoms: C3'_2  and  C2'_3 
REMARK    2  A    between atoms: C2'_3  and  C1'_4 
REMARK    3  A    between atoms: C1'_4  and  C1_5 
ROOT
ATOM      1  C1  N4B d   1      -0.871  -5.928   2.846  0.00  0.00    -0.075 A 
ATOM      2  C2  N4B d   1      -0.764  -5.985   4.253  0.00  0.00     0.002 A 
ATOM      3  C3  N4B d   1       0.474  -5.997   4.848  0.00  0.00     0.002 A 
ATOM      4  C4  N4B d   1       1.614  -5.973   4.058  0.00  0.00    -0.004 A 
ATOM      5  C5  N4B d   1       1.502  -5.892   2.701  0.00  0.00     0.002 A 
ATOM      6  C6  N4B d   1       0.264  -5.875   2.090  0.00  0.00     0.002 A 
ENDROOT
BRANCH   1   7
ATOM      7  C1' N4B d   1      -2.201  -6.000   2.148  0.00  0.00     0.057 C 
BRANCH   7   8
ATOM      8  C2' N4B d   1      -2.090  -5.316   0.788  0.00  0.00     0.009 C 
BRANCH   8   9
ATOM      9  C3' N4B d   1      -3.425  -5.268   0.065  0.00  0.00     0.004 C 
ATOM     10  C4' N4B d   1      -3.351  -4.541  -1.244  0.00  0.00     0.003 C 
ENDBRANCH   8   9
ENDBRANCH   7   8
ENDBRANCH   1   7
TORSDOF 3
ENDMDL
