MODEL 1
REMARK minimizedAffinity 11.8583794
REMARK minimizedRMSD -1
REMARK  3 active torsions:
REMARK  status: ('A' for Active; 'I' for Inactive)
REMARK    1  A    between atoms: C3'_2  and  C2'_3 
REMARK    2  A    between atoms: C2'_3  and  C1'_4 
REMARK    3  A    between atoms: C1'_4  and  C1_5 
ROOT
ATOM      1  C1  N4B d   1       1.929   2.249   2.183  0.00  0.00    -0.075 A 
ATOM      2  C2  N4B d   1       0.567   2.621   2.212  0.00  0.00     0.002 A 
ATOM      3  C3  N4B d   1      -0.367   1.864   1.548  0.00  0.00     0.002 A 
ATOM      4  C4  N4B d   1       0.039   0.745   0.836  0.00  0.00    -0.004 A 
ATOM      5  C5  N4B d   1       1.353   0.378   0.834  0.00  0.00     0.002 A 
ATOM      6  C6  N4B d   1       2.301   1.127   1.500  0.00  0.00     0.002 A 
ENDROOT
BRANCH   1   7
ATOM      7  C1' N4B d   1       2.997   3.093   2.822  0.00  0.00     0.057 C 
BRANCH   7   8
ATOM      8  C2' N4B d   1       3.837   3.749   1.730  0.00  0.00     0.009 C 
BRANCH   8   9
ATOM      9  C3' N4B d   1       4.063   5.228   1.998  0.00  0.00     0.004 C 
ATOM     10  C4' N4B d   1       4.387   6.000   0.754  0.00  0.00     0.003 C 
ENDBRANCH   8   9
ENDBRANCH   7   8
ENDBRANCH   1   7
TORSDOF 3
ENDMDL
