MODEL 1
REMARK minimizedAffinity -1.06182897
REMARK minimizedRMSD -1
REMARK  0 active torsions:
REMARK  status: ('A' for Active; 'I' for Inactive)
ROOT
ATOM      1  C1  DEN d   1      -0.281  -2.037   1.410  0.00  0.00     0.130 A 
ATOM      2  C2  DEN d   1       1.148  -1.753   1.308  0.00  0.00    -0.031 A 
ATOM      3  C3  DEN d   1       1.355  -0.869   0.144  0.00  0.00     0.027 A 
ATOM      4  C4  DEN d   1      -0.388   0.086  -1.500  0.00  0.00     0.027 A 
ATOM      5  C5  DEN d   1      -1.726   0.115  -1.826  0.00  0.00    -0.003 A 
ATOM      6  C6  DEN d   1      -2.664  -0.593  -1.122  0.00  0.00     0.001 A 
ATOM      7  C7  DEN d   1      -2.283  -1.324  -0.028  0.00  0.00     0.017 A 
ATOM      8  C8  DEN d   1      -0.935  -1.364   0.302  0.00  0.00    -0.094 A 
ATOM      9  C9  DEN d   1      -0.003  -0.632  -0.415  0.00  0.00    -0.072 A 
ENDROOT
TORSDOF 0
ENDMDL
