MODEL 1
REMARK minimizedAffinity 0.152954295
REMARK minimizedRMSD -1
REMARK  0 active torsions:
REMARK  status: ('A' for Active; 'I' for Inactive)
ROOT
ATOM      1  C1  DEN d   1       2.583   2.487  -0.376  0.00  0.00     0.130 A 
ATOM      2  C2  DEN d   1       3.025   2.459   1.015  0.00  0.00    -0.031 A 
ATOM      3  C3  DEN d   1       2.095   1.598   1.773  0.00  0.00     0.027 A 
ATOM      4  C4  DEN d   1       0.026   0.308   0.929  0.00  0.00     0.027 A 
ATOM      5  C5  DEN d   1      -0.753   0.035  -0.173  0.00  0.00    -0.003 A 
ATOM      6  C6  DEN d   1      -0.498   0.581  -1.402  0.00  0.00     0.001 A 
ATOM      7  C7  DEN d   1       0.591   1.396  -1.570  0.00  0.00     0.017 A 
ATOM      8  C8  DEN d   1       1.378   1.682  -0.462  0.00  0.00    -0.094 A 
ATOM      9  C9  DEN d   1       1.110   1.110   0.770  0.00  0.00    -0.072 A 
ENDROOT
TORSDOF 0
ENDMDL
