MODEL 1
REMARK minimizedAffinity -3.18667579
REMARK minimizedRMSD -1
REMARK  0 active torsions:
REMARK  status: ('A' for Active; 'I' for Inactive)
ROOT
ATOM      1  C1  DEN d   1      -1.274   1.755  -0.610  0.00  0.00     0.130 A 
ATOM      2  C2  DEN d   1      -1.692   0.465  -1.152  0.00  0.00    -0.031 A 
ATOM      3  C3  DEN d   1      -0.581  -0.490  -0.967  0.00  0.00     0.027 A 
ATOM      4  C4  DEN d   1       1.733  -0.099   0.105  0.00  0.00     0.027 A 
ATOM      5  C5  DEN d   1       2.551   0.836   0.698  0.00  0.00    -0.003 A 
ATOM      6  C6  DEN d   1       2.169   2.140   0.865  0.00  0.00     0.001 A 
ATOM      7  C7  DEN d   1       0.917   2.536   0.474  0.00  0.00     0.017 A 
ATOM      8  C8  DEN d   1       0.088   1.600  -0.131  0.00  0.00    -0.094 A 
ATOM      9  C9  DEN d   1       0.489   0.283  -0.280  0.00  0.00    -0.072 A 
ENDROOT
TORSDOF 0
ENDMDL
