MODEL 1
REMARK minimizedAffinity -2.66941142
REMARK minimizedRMSD -1
REMARK  0 active torsions:
REMARK  status: ('A' for Active; 'I' for Inactive)
ROOT
ATOM      1  C1  DEN d   1      -1.099   1.243  -0.147  0.00  0.00     0.130 A 
ATOM      2  C2  DEN d   1      -1.126   0.214  -1.183  0.00  0.00    -0.031 A 
ATOM      3  C3  DEN d   1       0.233  -0.352  -1.300  0.00  0.00     0.027 A 
ATOM      4  C4  DEN d   1       2.363   0.256   0.020  0.00  0.00     0.027 A 
ATOM      5  C5  DEN d   1       2.883   1.077   0.997  0.00  0.00    -0.003 A 
ATOM      6  C6  DEN d   1       2.126   2.026   1.631  0.00  0.00     0.001 A 
ATOM      7  C7  DEN d   1       0.796   2.147   1.329  0.00  0.00     0.017 A 
ATOM      8  C8  DEN d   1       0.267   1.328   0.340  0.00  0.00    -0.094 A 
ATOM      9  C9  DEN d   1       1.045   0.366  -0.282  0.00  0.00    -0.072 A 
ENDROOT
TORSDOF 0
ENDMDL
