MODEL 1
REMARK minimizedAffinity -2.84316611
REMARK minimizedRMSD -1
REMARK  0 active torsions:
REMARK  status: ('A' for Active; 'I' for Inactive)
ROOT
ATOM      1  C1  DEN d   1       1.705  -0.174   0.010  0.00  0.00     0.130 A 
ATOM      2  C2  DEN d   1       2.246   1.109   0.451  0.00  0.00    -0.031 A 
ATOM      3  C3  DEN d   1       1.292   2.166   0.058  0.00  0.00     0.027 A 
ATOM      4  C4  DEN d   1      -0.959   1.941  -1.180  0.00  0.00     0.027 A 
ATOM      5  C5  DEN d   1      -1.834   1.053  -1.767  0.00  0.00    -0.003 A 
ATOM      6  C6  DEN d   1      -1.576  -0.290  -1.833  0.00  0.00     0.001 A 
ATOM      7  C7  DEN d   1      -0.436  -0.791  -1.262  0.00  0.00     0.017 A 
ATOM      8  C8  DEN d   1       0.454   0.098  -0.675  0.00  0.00    -0.094 A 
ATOM      9  C9  DEN d   1       0.169   1.451  -0.607  0.00  0.00    -0.072 A 
ENDROOT
TORSDOF 0
ENDMDL
