MODEL 1
REMARK minimizedAffinity -2.59509039
REMARK minimizedRMSD -1
REMARK  0 active torsions:
REMARK  status: ('A' for Active; 'I' for Inactive)
ROOT
ATOM      1  C1  DEN d   1       1.086   0.496   0.241  0.00  0.00     0.130 A 
ATOM      2  C2  DEN d   1       0.987   1.493  -0.821  0.00  0.00    -0.031 A 
ATOM      3  C3  DEN d   1      -0.185   1.157  -1.655  0.00  0.00     0.027 A 
ATOM      4  C4  DEN d   1      -1.849  -0.798  -1.403  0.00  0.00     0.027 A 
ATOM      5  C5  DEN d   1      -2.167  -1.912  -0.659  0.00  0.00    -0.003 A 
ATOM      6  C6  DEN d   1      -1.410  -2.319   0.408  0.00  0.00     0.001 A 
ATOM      7  C7  DEN d   1      -0.321  -1.579   0.788  0.00  0.00     0.017 A 
ATOM      8  C8  DEN d   1       0.010  -0.458   0.039  0.00  0.00    -0.094 A 
ATOM      9  C9  DEN d   1      -0.775  -0.057  -1.029  0.00  0.00    -0.072 A 
ENDROOT
TORSDOF 0
ENDMDL
