MODEL 1
REMARK minimizedAffinity -2.93045163
REMARK minimizedRMSD -1
REMARK  0 active torsions:
REMARK  status: ('A' for Active; 'I' for Inactive)
ROOT
ATOM      1  C1  DEN d   1      -0.024  -2.498   1.292  0.00  0.00     0.130 A 
ATOM      2  C2  DEN d   1      -1.156  -3.418   1.365  0.00  0.00    -0.031 A 
ATOM      3  C3  DEN d   1      -2.183  -2.955   0.410  0.00  0.00     0.027 A 
ATOM      4  C4  DEN d   1      -2.128  -0.917  -1.170  0.00  0.00     0.027 A 
ATOM      5  C5  DEN d   1      -1.383   0.166  -1.579  0.00  0.00    -0.003 A 
ATOM      6  C6  DEN d   1      -0.157   0.454  -1.040  0.00  0.00     0.001 A 
ATOM      7  C7  DEN d   1       0.381  -0.377  -0.093  0.00  0.00     0.017 A 
ATOM      8  C8  DEN d   1      -0.369  -1.467   0.330  0.00  0.00    -0.094 A 
ATOM      9  C9  DEN d   1      -1.601  -1.748  -0.235  0.00  0.00    -0.072 A 
ENDROOT
TORSDOF 0
ENDMDL
