MODEL 1
REMARK minimizedAffinity -1.0080539
REMARK minimizedRMSD -1
REMARK  0 active torsions:
REMARK  status: ('A' for Active; 'I' for Inactive)
ROOT
ATOM      1  C1  DEN d   1      -0.523  -2.119   1.579  0.00  0.00     0.130 A 
ATOM      2  C2  DEN d   1      -1.472  -3.221   1.442  0.00  0.00    -0.031 A 
ATOM      3  C3  DEN d   1      -2.326  -2.946   0.269  0.00  0.00     0.027 A 
ATOM      4  C4  DEN d   1      -2.268  -0.933  -1.343  0.00  0.00     0.027 A 
ATOM      5  C5  DEN d   1      -1.645   0.262  -1.625  0.00  0.00    -0.003 A 
ATOM      6  C6  DEN d   1      -0.635   0.760  -0.845  0.00  0.00     0.001 A 
ATOM      7  C7  DEN d   1      -0.187   0.038   0.229  0.00  0.00     0.017 A 
ATOM      8  C8  DEN d   1      -0.816  -1.165   0.524  0.00  0.00    -0.094 A 
ATOM      9  C9  DEN d   1      -1.827  -1.657  -0.284  0.00  0.00    -0.072 A 
ENDROOT
TORSDOF 0
ENDMDL
