MODEL 1
REMARK minimizedAffinity -1.76682723
REMARK minimizedRMSD -1
REMARK  0 active torsions:
REMARK  status: ('A' for Active; 'I' for Inactive)
ROOT
ATOM      1  C1  DEN d   1      -0.479  -2.112   1.716  0.00  0.00     0.130 A 
ATOM      2  C2  DEN d   1      -1.513  -3.144   1.708  0.00  0.00    -0.031 A 
ATOM      3  C3  DEN d   1      -2.361  -2.931   0.518  0.00  0.00     0.027 A 
ATOM      4  C4  DEN d   1      -2.173  -1.116  -1.305  0.00  0.00     0.027 A 
ATOM      5  C5  DEN d   1      -1.463  -0.011  -1.720  0.00  0.00    -0.003 A 
ATOM      6  C6  DEN d   1      -0.405   0.487  -1.006  0.00  0.00     0.001 A 
ATOM      7  C7  DEN d   1       0.002  -0.148   0.137  0.00  0.00     0.017 A 
ATOM      8  C8  DEN d   1      -0.714  -1.258   0.566  0.00  0.00    -0.094 A 
ATOM      9  C9  DEN d   1      -1.773  -1.754  -0.176  0.00  0.00    -0.072 A 
ENDROOT
TORSDOF 0
ENDMDL
