MODEL 1
REMARK minimizedAffinity -5.29743814
REMARK minimizedRMSD -1
REMARK  0 active torsions:
REMARK  status: ('A' for Active; 'I' for Inactive)
ROOT
ATOM      1  C1  DEN d   1       2.409   1.466   1.154  0.00  0.00     0.130 A 
ATOM      2  C2  DEN d   1       2.436   2.916   1.325  0.00  0.00    -0.031 A 
ATOM      3  C3  DEN d   1       1.211   3.471   0.716  0.00  0.00     0.027 A 
ATOM      4  C4  DEN d   1      -0.718   2.231  -0.465  0.00  0.00     0.027 A 
ATOM      5  C5  DEN d   1      -1.182   0.997  -0.864  0.00  0.00    -0.003 A 
ATOM      6  C6  DEN d   1      -0.471  -0.154  -0.650  0.00  0.00     0.001 A 
ATOM      7  C7  DEN d   1       0.723  -0.100   0.020  0.00  0.00     0.017 A 
ATOM      8  C8  DEN d   1       1.200   1.141   0.419  0.00  0.00    -0.094 A 
ATOM      9  C9  DEN d   1       0.461   2.292   0.204  0.00  0.00    -0.072 A 
ENDROOT
TORSDOF 0
ENDMDL
