MODEL 1
REMARK minimizedAffinity -3.80396867
REMARK minimizedRMSD -1
REMARK  0 active torsions:
REMARK  status: ('A' for Active; 'I' for Inactive)
ROOT
ATOM      1  C1  DEN d   1       1.434   3.559   0.661  0.00  0.00     0.130 A 
ATOM      2  C2  DEN d   1       2.661   3.213   1.374  0.00  0.00    -0.031 A 
ATOM      3  C3  DEN d   1       2.779   1.741   1.391  0.00  0.00     0.027 A 
ATOM      4  C4  DEN d   1       1.194  -0.026   0.382  0.00  0.00     0.027 A 
ATOM      5  C5  DEN d   1       0.018  -0.215  -0.309  0.00  0.00    -0.003 A 
ATOM      6  C6  DEN d   1      -0.780   0.831  -0.693  0.00  0.00     0.001 A 
ATOM      7  C7  DEN d   1      -0.388   2.116  -0.427  0.00  0.00     0.017 A 
ATOM      8  C8  DEN d   1       0.794   2.314   0.276  0.00  0.00    -0.094 A 
ATOM      9  C9  DEN d   1       1.592   1.245   0.644  0.00  0.00    -0.072 A 
ENDROOT
TORSDOF 0
ENDMDL
