MODEL 1
REMARK minimizedAffinity -0.766159892
REMARK minimizedRMSD -1
REMARK  0 active torsions:
REMARK  status: ('A' for Active; 'I' for Inactive)
ROOT
ATOM      1  C1  DEN d   1      -1.063  -2.736   1.542  0.00  0.00     0.130 A 
ATOM      2  C2  DEN d   1      -2.135  -3.675   1.226  0.00  0.00    -0.031 A 
ATOM      3  C3  DEN d   1      -2.766  -3.239  -0.036  0.00  0.00     0.027 A 
ATOM      4  C4  DEN d   1      -2.187  -1.214  -1.525  0.00  0.00     0.027 A 
ATOM      5  C5  DEN d   1      -1.360  -0.120  -1.661  0.00  0.00    -0.003 A 
ATOM      6  C6  DEN d   1      -0.407   0.194  -0.729  0.00  0.00     0.001 A 
ATOM      7  C7  DEN d   1      -0.226  -0.618   0.358  0.00  0.00     0.017 A 
ATOM      8  C8  DEN d   1      -1.061  -1.718   0.506  0.00  0.00    -0.094 A 
ATOM      9  C9  DEN d   1      -2.011  -2.027  -0.453  0.00  0.00    -0.072 A 
ENDROOT
TORSDOF 0
ENDMDL
