MODEL 1
REMARK minimizedAffinity 9.71795368
REMARK minimizedRMSD -1
REMARK  1 active torsions:
REMARK  status: ('A' for Active; 'I' for Inactive)
REMARK    1  A    between atoms: C1_2  and  C2_3 
ROOT
ATOM      1  C2  UNL d   1       1.968  -0.640   2.322  0.00  0.00    -0.076 A 
ATOM      2  C3  UNL d   1       2.987  -0.441   1.374  0.00  0.00     0.004 A 
ATOM      3  C4  UNL d   1       2.853  -0.908   0.068  0.00  0.00    -0.003 A 
ATOM      4  C5  UNL d   1       1.697  -1.580  -0.313  0.00  0.00     0.000 A 
ATOM      5  C6  UNL d   1       0.668  -1.771   0.609  0.00  0.00     0.000 A 
ATOM      6  C7  UNL d   1       0.781  -1.292   1.926  0.00  0.00    -0.073 A 
ATOM      7  C8  UNL d   1      -0.357  -1.531   2.881  0.00  0.00     0.078 C 
ENDROOT
BRANCH   1   8
ATOM      8  C1  UNL d   1       2.181  -0.135   3.731  0.00  0.00     0.053 C 
ATOM      9  C   UNL d   1       1.900   1.354   3.866  0.00  0.00     0.018 C 
ENDBRANCH   1   8
TORSDOF 1
ENDMDL
