MODEL 1
REMARK minimizedAffinity 6.39636803
REMARK minimizedRMSD -1
REMARK  1 active torsions:
REMARK  status: ('A' for Active; 'I' for Inactive)
REMARK    1  A    between atoms: C1_2  and  C2_3 
ROOT
ATOM      1  C2  UNL d   1      -0.822  -1.367   2.085  0.00  0.00    -0.076 A 
ATOM      2  C3  UNL d   1      -0.270  -0.493   3.038  0.00  0.00     0.004 A 
ATOM      3  C4  UNL d   1      -0.851   0.747   3.296  0.00  0.00    -0.003 A 
ATOM      4  C5  UNL d   1      -1.993   1.135   2.604  0.00  0.00     0.000 A 
ATOM      5  C6  UNL d   1      -2.564   0.274   1.667  0.00  0.00     0.000 A 
ATOM      6  C7  UNL d   1      -2.000  -0.987   1.407  0.00  0.00    -0.073 A 
ATOM      7  C8  UNL d   1      -2.654  -1.873   0.382  0.00  0.00     0.078 C 
ENDROOT
BRANCH   1   8
ATOM      8  C1  UNL d   1      -0.132  -2.688   1.828  0.00  0.00     0.053 C 
ATOM      9  C   UNL d   1       1.321  -2.516   1.415  0.00  0.00     0.018 C 
ENDBRANCH   1   8
TORSDOF 1
ENDMDL
