MODEL 1
REMARK minimizedAffinity 3.2209909
REMARK minimizedRMSD -1
REMARK  1 active torsions:
REMARK  status: ('A' for Active; 'I' for Inactive)
REMARK    1  A    between atoms: C1_2  and  C2_3 
ROOT
ATOM      1  C2  UNL d   1      -0.330  -1.684   2.155  0.00  0.00    -0.076 A 
ATOM      2  C3  UNL d   1       0.688  -2.593   1.817  0.00  0.00     0.004 A 
ATOM      3  C4  UNL d   1       1.580  -2.318   0.782  0.00  0.00    -0.003 A 
ATOM      4  C5  UNL d   1       1.469  -1.130   0.068  0.00  0.00     0.000 A 
ATOM      5  C6  UNL d   1       0.476  -0.209   0.402  0.00  0.00     0.000 A 
ATOM      6  C7  UNL d   1      -0.421  -0.463   1.453  0.00  0.00    -0.073 A 
ATOM      7  C8  UNL d   1      -1.476   0.562   1.766  0.00  0.00     0.078 C 
ENDROOT
BRANCH   1   8
ATOM      8  C1  UNL d   1      -1.285  -2.048   3.270  0.00  0.00     0.053 C 
ATOM      9  C   UNL d   1      -1.804  -3.473   3.150  0.00  0.00     0.018 C 
ENDBRANCH   1   8
TORSDOF 1
ENDMDL
