MODEL 1
REMARK minimizedAffinity -2.95336795
REMARK minimizedRMSD -1
REMARK  1 active torsions:
REMARK  status: ('A' for Active; 'I' for Inactive)
REMARK    1  A    between atoms: C1_2  and  C2_3 
ROOT
ATOM      1  C2  UNL d   1      -1.355  -0.632   1.501  0.00  0.00    -0.076 A 
ATOM      2  C3  UNL d   1      -0.782  -1.431   2.506  0.00  0.00     0.004 A 
ATOM      3  C4  UNL d   1       0.379  -2.163   2.266  0.00  0.00    -0.003 A 
ATOM      4  C5  UNL d   1       0.988  -2.106   1.017  0.00  0.00     0.000 A 
ATOM      5  C6  UNL d   1       0.444  -1.305   0.014  0.00  0.00     0.000 A 
ATOM      6  C7  UNL d   1      -0.718  -0.548   0.245  0.00  0.00    -0.073 A 
ATOM      7  C8  UNL d   1      -1.265   0.294  -0.875  0.00  0.00     0.078 C 
ENDROOT
BRANCH   1   8
ATOM      8  C1  UNL d   1      -2.631   0.118   1.811  0.00  0.00     0.053 C 
ATOM      9  C   UNL d   1      -3.853  -0.524   1.174  0.00  0.00     0.018 C 
ENDBRANCH   1   8
TORSDOF 1
ENDMDL
