MODEL 1
REMARK minimizedAffinity -0.175023392
REMARK minimizedRMSD -1
REMARK  0 active torsions:
REMARK  status: ('A' for Active; 'I' for Inactive)
ROOT
ATOM      1  C   UNL d   1       1.703  -3.839   0.908  0.00  0.00     0.172 C 
ATOM      2  N   UNL d   1       1.146  -2.666   0.276  0.00  0.00    -0.070 N 
ATOM      3  C1  UNL d   1       1.846  -1.743  -0.454  0.00  0.00    -0.004 A 
ATOM      4  C2  UNL d   1       0.957  -0.783  -0.885  0.00  0.00    -0.047 A 
ATOM      5  C3  UNL d   1      -0.322  -1.140  -0.396  0.00  0.00    -0.047 A 
ATOM      6  C4  UNL d   1      -0.176  -2.310   0.319  0.00  0.00    -0.004 A 
ENDROOT
TORSDOF 0
ENDMDL
