MODEL 1
REMARK minimizedAffinity 3.48479891
REMARK minimizedRMSD -1
REMARK  0 active torsions:
REMARK  status: ('A' for Active; 'I' for Inactive)
ROOT
ATOM      1  C   UNL d   1       1.913  -0.316  -1.245  0.00  0.00     0.172 C 
ATOM      2  N   UNL d   1       1.705  -1.392  -0.304  0.00  0.00    -0.070 N 
ATOM      3  C1  UNL d   1       0.548  -2.109  -0.155  0.00  0.00    -0.004 A 
ATOM      4  C2  UNL d   1       0.754  -3.040   0.840  0.00  0.00    -0.047 A 
ATOM      5  C3  UNL d   1       2.080  -2.877   1.305  0.00  0.00    -0.047 A 
ATOM      6  C4  UNL d   1       2.646  -1.849   0.580  0.00  0.00    -0.004 A 
ENDROOT
TORSDOF 0
ENDMDL
