MODEL 1
REMARK minimizedAffinity 3.66867828
REMARK minimizedRMSD -1
REMARK  0 active torsions:
REMARK  status: ('A' for Active; 'I' for Inactive)
ROOT
ATOM      1  C   UNL d   1      -5.296  -0.398   2.451  0.00  0.00     0.172 C 
ATOM      2  N   UNL d   1      -4.052  -0.132   3.133  0.00  0.00    -0.070 N 
ATOM      3  C1  UNL d   1      -3.012  -1.013   3.271  0.00  0.00    -0.004 A 
ATOM      4  C2  UNL d   1      -2.015  -0.380   3.981  0.00  0.00    -0.047 A 
ATOM      5  C3  UNL d   1      -2.471   0.925   4.281  0.00  0.00    -0.047 A 
ATOM      6  C4  UNL d   1      -3.734   1.052   3.745  0.00  0.00    -0.004 A 
ENDROOT
TORSDOF 0
ENDMDL
