MODEL 1
REMARK minimizedAffinity -2.37802601
REMARK minimizedRMSD -1
REMARK  0 active torsions:
REMARK  status: ('A' for Active; 'I' for Inactive)
ROOT
ATOM      1  C   UNL d   1      -0.368  -3.541   0.847  0.00  0.00     0.172 C 
ATOM      2  N   UNL d   1       0.200  -2.508   0.013  0.00  0.00    -0.070 N 
ATOM      3  C1  UNL d   1      -0.502  -1.680  -0.822  0.00  0.00    -0.004 A 
ATOM      4  C2  UNL d   1       0.400  -0.839  -1.438  0.00  0.00    -0.047 A 
ATOM      5  C3  UNL d   1       1.688  -1.175  -0.958  0.00  0.00    -0.047 A 
ATOM      6  C4  UNL d   1       1.536  -2.211  -0.062  0.00  0.00    -0.004 A 
ENDROOT
TORSDOF 0
ENDMDL
