MODEL 1
REMARK minimizedAffinity -1.71425819
REMARK minimizedRMSD -1
REMARK  0 active torsions:
REMARK  status: ('A' for Active; 'I' for Inactive)
ROOT
ATOM      1  C   UNL d   1       1.308  -3.725   0.910  0.00  0.00     0.172 C 
ATOM      2  N   UNL d   1       1.243  -2.421   0.293  0.00  0.00    -0.070 N 
ATOM      3  C1  UNL d   1       0.274  -1.999  -0.578  0.00  0.00    -0.004 A 
ATOM      4  C2  UNL d   1       0.568  -0.701  -0.938  0.00  0.00    -0.047 A 
ATOM      5  C3  UNL d   1       1.754  -0.331  -0.261  0.00  0.00    -0.047 A 
ATOM      6  C4  UNL d   1       2.150  -1.415   0.494  0.00  0.00    -0.004 A 
ENDROOT
TORSDOF 0
ENDMDL
