MODEL 1
REMARK minimizedAffinity -3.86649871
REMARK minimizedRMSD -1
REMARK  0 active torsions:
REMARK  status: ('A' for Active; 'I' for Inactive)
ROOT
ATOM      1  C   UNL d   1       0.767  -4.175   1.057  0.00  0.00     0.172 C 
ATOM      2  N   UNL d   1       0.741  -2.912   0.357  0.00  0.00    -0.070 N 
ATOM      3  C1  UNL d   1      -0.378  -2.168   0.093  0.00  0.00    -0.004 A 
ATOM      4  C2  UNL d   1       0.018  -1.038  -0.589  0.00  0.00    -0.047 A 
ATOM      5  C3  UNL d   1       1.423  -1.106  -0.741  0.00  0.00    -0.047 A 
ATOM      6  C4  UNL d   1       1.845  -2.276  -0.147  0.00  0.00    -0.004 A 
ENDROOT
TORSDOF 0
ENDMDL
