MODEL 1
REMARK minimizedAffinity -2.37111163
REMARK minimizedRMSD -1
REMARK  0 active torsions:
REMARK  status: ('A' for Active; 'I' for Inactive)
ROOT
ATOM      1  C   UNL d   1       1.031  -0.611  -1.206  0.00  0.00     0.172 C 
ATOM      2  N   UNL d   1       0.602  -1.714  -0.378  0.00  0.00    -0.070 N 
ATOM      3  C1  UNL d   1      -0.690  -2.144  -0.229  0.00  0.00    -0.004 A 
ATOM      4  C2  UNL d   1      -0.680  -3.215   0.640  0.00  0.00    -0.047 A 
ATOM      5  C3  UNL d   1       0.663  -3.434   1.026  0.00  0.00    -0.047 A 
ATOM      6  C4  UNL d   1       1.436  -2.491   0.382  0.00  0.00    -0.004 A 
ENDROOT
TORSDOF 0
ENDMDL
