MODEL 1
REMARK minimizedAffinity 2.29104352
REMARK minimizedRMSD -1
REMARK  0 active torsions:
REMARK  status: ('A' for Active; 'I' for Inactive)
ROOT
ATOM      1  C   UNL d   1      -5.489  -1.119   2.644  0.00  0.00     0.172 C 
ATOM      2  N   UNL d   1      -4.263  -0.550   3.150  0.00  0.00    -0.070 N 
ATOM      3  C1  UNL d   1      -4.169   0.394   4.138  0.00  0.00    -0.004 A 
ATOM      4  C2  UNL d   1      -2.833   0.673   4.329  0.00  0.00    -0.047 A 
ATOM      5  C3  UNL d   1      -2.098  -0.131   3.425  0.00  0.00    -0.047 A 
ATOM      6  C4  UNL d   1      -3.009  -0.877   2.707  0.00  0.00    -0.004 A 
ENDROOT
TORSDOF 0
ENDMDL
