MODEL 1
REMARK minimizedAffinity 2.09052849
REMARK minimizedRMSD -1
REMARK  0 active torsions:
REMARK  status: ('A' for Active; 'I' for Inactive)
ROOT
ATOM      1  C   UNL d   1      -0.321  -2.355   0.428  0.00  0.00     0.172 C 
ATOM      2  N   UNL d   1       0.919  -1.694   0.097  0.00  0.00    -0.070 N 
ATOM      3  C1  UNL d   1       1.634  -1.869  -1.058  0.00  0.00    -0.004 A 
ATOM      4  C2  UNL d   1       2.749  -1.063  -0.990  0.00  0.00    -0.047 A 
ATOM      5  C3  UNL d   1       2.705  -0.381   0.249  0.00  0.00    -0.047 A 
ATOM      6  C4  UNL d   1       1.562  -0.791   0.902  0.00  0.00    -0.004 A 
ENDROOT
TORSDOF 0
ENDMDL
