MODEL 1
REMARK minimizedAffinity -1.39047742
REMARK minimizedRMSD -1
REMARK  0 active torsions:
REMARK  status: ('A' for Active; 'I' for Inactive)
ROOT
ATOM      1  C   UNL d   1       0.793  -5.221   1.127  0.00  0.00     0.172 C 
ATOM      2  N   UNL d   1       0.709  -3.830   0.749  0.00  0.00    -0.070 N 
ATOM      3  C1  UNL d   1      -0.354  -3.235   0.124  0.00  0.00    -0.004 A 
ATOM      4  C2  UNL d   1      -0.044  -1.905  -0.061  0.00  0.00    -0.047 A 
ATOM      5  C3  UNL d   1       1.250  -1.693   0.471  0.00  0.00    -0.047 A 
ATOM      6  C4  UNL d   1       1.693  -2.902   0.966  0.00  0.00    -0.004 A 
ENDROOT
TORSDOF 0
ENDMDL
