MODEL 1
REMARK minimizedAffinity 0.0776506588
REMARK minimizedRMSD -1
REMARK  0 active torsions:
REMARK  status: ('A' for Active; 'I' for Inactive)
ROOT
ATOM      1  C   UNL d   1       1.505  -1.021  -1.926  0.00  0.00     0.172 C 
ATOM      2  N   UNL d   1       1.166   0.310  -2.372  0.00  0.00    -0.070 N 
ATOM      3  C1  UNL d   1       1.447   0.835  -3.605  0.00  0.00    -0.004 A 
ATOM      4  C2  UNL d   1       0.961   2.124  -3.636  0.00  0.00    -0.047 A 
ATOM      5  C3  UNL d   1       0.368   2.384  -2.377  0.00  0.00    -0.047 A 
ATOM      6  C4  UNL d   1       0.510   1.244  -1.614  0.00  0.00    -0.004 A 
ENDROOT
TORSDOF 0
ENDMDL
