MODEL 1
REMARK minimizedAffinity -0.612248063
REMARK minimizedRMSD -1
REMARK  0 active torsions:
REMARK  status: ('A' for Active; 'I' for Inactive)
ROOT
ATOM      1  C   UNL d   1       1.210   0.856  -3.888  0.00  0.00     0.172 C 
ATOM      2  N   UNL d   1       1.070   0.054  -2.694  0.00  0.00    -0.070 N 
ATOM      3  C1  UNL d   1       1.041  -1.314  -2.651  0.00  0.00    -0.004 A 
ATOM      4  C2  UNL d   1       0.896  -1.691  -1.333  0.00  0.00    -0.047 A 
ATOM      5  C3  UNL d   1       0.836  -0.508  -0.558  0.00  0.00    -0.047 A 
ATOM      6  C4  UNL d   1       0.946   0.557  -1.426  0.00  0.00    -0.004 A 
ENDROOT
TORSDOF 0
ENDMDL
