MODEL 1
REMARK minimizedAffinity -0.820670485
REMARK minimizedRMSD -1
REMARK  0 active torsions:
REMARK  status: ('A' for Active; 'I' for Inactive)
ROOT
ATOM      1  C   UNL d   1       0.393   1.053  -1.506  0.00  0.00     0.172 C 
ATOM      2  N   UNL d   1       0.814  -0.168  -2.151  0.00  0.00    -0.070 N 
ATOM      3  C1  UNL d   1       0.947  -0.352  -3.502  0.00  0.00    -0.004 A 
ATOM      4  C2  UNL d   1       1.368  -1.648  -3.711  0.00  0.00    -0.047 A 
ATOM      5  C3  UNL d   1       1.491  -2.264  -2.443  0.00  0.00    -0.047 A 
ATOM      6  C4  UNL d   1       1.142  -1.325  -1.495  0.00  0.00    -0.004 A 
ENDROOT
TORSDOF 0
ENDMDL
