MODEL 1
REMARK minimizedAffinity -2.22221923
REMARK minimizedRMSD -1
REMARK  0 active torsions:
REMARK  status: ('A' for Active; 'I' for Inactive)
ROOT
ATOM      1  C   UNL d   1      -4.004   1.593   5.223  0.00  0.00     0.172 C 
ATOM      2  N   UNL d   1      -4.208   2.998   4.963  0.00  0.00    -0.070 N 
ATOM      3  C1  UNL d   1      -3.921   3.643   3.789  0.00  0.00    -0.004 A 
ATOM      4  C2  UNL d   1      -4.258   4.970   3.943  0.00  0.00    -0.047 A 
ATOM      5  C3  UNL d   1      -4.765   5.129   5.254  0.00  0.00    -0.047 A 
ATOM      6  C4  UNL d   1      -4.723   3.893   5.864  0.00  0.00    -0.004 A 
ENDROOT
TORSDOF 0
ENDMDL
