MODEL 1
REMARK minimizedAffinity -0.267288893
REMARK minimizedRMSD -1
REMARK  0 active torsions:
REMARK  status: ('A' for Active; 'I' for Inactive)
ROOT
ATOM      1  C   UNL d   1       3.128   4.109  -5.248  0.00  0.00     0.172 C 
ATOM      2  N   UNL d   1       4.115   3.055  -5.250  0.00  0.00    -0.070 N 
ATOM      3  C1  UNL d   1       3.972   1.829  -5.842  0.00  0.00    -0.004 A 
ATOM      4  C2  UNL d   1       5.130   1.115  -5.621  0.00  0.00    -0.047 A 
ATOM      5  C3  UNL d   1       5.999   1.941  -4.869  0.00  0.00    -0.047 A 
ATOM      6  C4  UNL d   1       5.346   3.136  -4.653  0.00  0.00    -0.004 A 
ENDROOT
TORSDOF 0
ENDMDL
