MODEL 1
REMARK minimizedAffinity -2.66488099
REMARK minimizedRMSD -1
REMARK  0 active torsions:
REMARK  status: ('A' for Active; 'I' for Inactive)
ROOT
ATOM      1  C   UNL d   1      -4.029   2.407   5.452  0.00  0.00     0.172 C 
ATOM      2  N   UNL d   1      -4.008   3.802   5.080  0.00  0.00    -0.070 N 
ATOM      3  C1  UNL d   1      -3.438   4.318   3.947  0.00  0.00    -0.004 A 
ATOM      4  C2  UNL d   1      -3.631   5.682   3.961  0.00  0.00    -0.047 A 
ATOM      5  C3  UNL d   1      -4.341   5.998   5.143  0.00  0.00    -0.047 A 
ATOM      6  C4  UNL d   1      -4.562   4.815   5.818  0.00  0.00    -0.004 A 
ENDROOT
TORSDOF 0
ENDMDL
