MODEL 1
REMARK minimizedAffinity -0.509308994
REMARK minimizedRMSD -1
REMARK  0 active torsions:
REMARK  status: ('A' for Active; 'I' for Inactive)
ROOT
ATOM      1  C   UNL d   1       2.875   3.946  -5.626  0.00  0.00     0.172 C 
ATOM      2  N   UNL d   1       3.977   3.014  -5.600  0.00  0.00    -0.070 N 
ATOM      3  C1  UNL d   1       5.250   3.294  -5.182  0.00  0.00    -0.004 A 
ATOM      4  C2  UNL d   1       5.999   2.144  -5.311  0.00  0.00    -0.047 A 
ATOM      5  C3  UNL d   1       5.147   1.139  -5.826  0.00  0.00    -0.047 A 
ATOM      6  C4  UNL d   1       3.901   1.704  -5.996  0.00  0.00    -0.004 A 
ENDROOT
TORSDOF 0
ENDMDL
