MODEL 1
REMARK minimizedAffinity 1.23895049
REMARK minimizedRMSD -1
REMARK  0 active torsions:
REMARK  status: ('A' for Active; 'I' for Inactive)
ROOT
ATOM      1  C   UNL d   1       0.310   0.823  -1.204  0.00  0.00     0.172 C 
ATOM      2  N   UNL d   1       0.864   0.097  -2.322  0.00  0.00    -0.070 N 
ATOM      3  C1  UNL d   1       1.648   0.629  -3.311  0.00  0.00    -0.004 A 
ATOM      4  C2  UNL d   1       1.970  -0.385  -4.186  0.00  0.00    -0.047 A 
ATOM      5  C3  UNL d   1       1.359  -1.568  -3.707  0.00  0.00    -0.047 A 
ATOM      6  C4  UNL d   1       0.681  -1.241  -2.552  0.00  0.00    -0.004 A 
ENDROOT
TORSDOF 0
ENDMDL
