MODEL 1
REMARK minimizedAffinity -1.8347609
REMARK minimizedRMSD -1
REMARK  0 active torsions:
REMARK  status: ('A' for Active; 'I' for Inactive)
ROOT
ATOM      1  C   UNL d   1      -1.507   3.533   4.424  0.00  0.00     0.023 A 
ATOM      2  C1  UNL d   1      -2.563   3.382   3.525  0.00  0.00     0.003 A 
ATOM      3  C2  UNL d   1      -2.480   2.438   2.499  0.00  0.00     0.048 A 
ATOM      4  C3  UNL d   1      -1.337   1.647   2.379  0.00  0.00     0.023 A 
ATOM      5  C4  UNL d   1      -0.278   1.794   3.276  0.00  0.00     0.048 A 
ATOM      6  C5  UNL d   1      -0.366   2.740   4.299  0.00  0.00     0.003 A 
ATOM      7  I   UNL d   1      -1.211   0.241   0.853  0.00  0.00    -0.146 I 
ENDROOT
TORSDOF 0
ENDMDL
