MODEL 1
REMARK minimizedAffinity -1.18458664
REMARK minimizedRMSD -1
REMARK  0 active torsions:
REMARK  status: ('A' for Active; 'I' for Inactive)
ROOT
ATOM      1  C   UNL d   1       0.511   1.392   3.127  0.00  0.00     0.023 A 
ATOM      2  C1  UNL d   1       1.146   0.668   2.118  0.00  0.00     0.003 A 
ATOM      3  C2  UNL d   1       0.478   0.407   0.919  0.00  0.00     0.048 A 
ATOM      4  C3  UNL d   1      -0.823   0.874   0.736  0.00  0.00     0.023 A 
ATOM      5  C4  UNL d   1      -1.461   1.600   1.743  0.00  0.00     0.048 A 
ATOM      6  C5  UNL d   1      -0.790   1.858   2.940  0.00  0.00     0.003 A 
ATOM      7  I   UNL d   1      -1.818   0.487  -1.047  0.00  0.00    -0.146 I 
ENDROOT
TORSDOF 0
ENDMDL
