MODEL 1
REMARK minimizedAffinity -1.69163322
REMARK minimizedRMSD -1
REMARK  0 active torsions:
REMARK  status: ('A' for Active; 'I' for Inactive)
ROOT
ATOM      1  C   UNL d   1      -0.258   0.138  -0.708  0.00  0.00     0.023 A 
ATOM      2  C1  UNL d   1      -1.386   0.875  -1.072  0.00  0.00     0.003 A 
ATOM      3  C2  UNL d   1      -2.633   0.559  -0.529  0.00  0.00     0.048 A 
ATOM      4  C3  UNL d   1      -2.745  -0.494   0.379  0.00  0.00     0.023 A 
ATOM      5  C4  UNL d   1      -1.619  -1.232   0.747  0.00  0.00     0.048 A 
ATOM      6  C5  UNL d   1      -0.375  -0.914   0.200  0.00  0.00     0.003 A 
ATOM      7  I   UNL d   1      -4.599  -0.965   1.189  0.00  0.00    -0.146 I 
ENDROOT
TORSDOF 0
ENDMDL
