MODEL 1
REMARK minimizedAffinity -2.30355835
REMARK minimizedRMSD -1
REMARK  0 active torsions:
REMARK  status: ('A' for Active; 'I' for Inactive)
ROOT
ATOM      1  C   UNL d   1      -0.536  -0.451   1.906  0.00  0.00     0.023 A 
ATOM      2  C1  UNL d   1       0.021   0.525   1.080  0.00  0.00     0.003 A 
ATOM      3  C2  UNL d   1       0.436   0.195  -0.212  0.00  0.00     0.048 A 
ATOM      4  C3  UNL d   1       0.289  -1.113  -0.672  0.00  0.00     0.023 A 
ATOM      5  C4  UNL d   1      -0.269  -2.093   0.151  0.00  0.00     0.048 A 
ATOM      6  C5  UNL d   1      -0.681  -1.758   1.442  0.00  0.00     0.003 A 
ATOM      7  I   UNL d   1       0.904  -1.607  -2.595  0.00  0.00    -0.146 I 
ENDROOT
TORSDOF 0
ENDMDL
