MODEL 1
REMARK minimizedAffinity -4.28437757
REMARK minimizedRMSD -1
REMARK  0 active torsions:
REMARK  status: ('A' for Active; 'I' for Inactive)
ROOT
ATOM      1  C   UNL d   1      -0.834   0.315   1.589  0.00  0.00     0.023 A 
ATOM      2  C1  UNL d   1       0.310  -0.482   1.610  0.00  0.00     0.003 A 
ATOM      3  C2  UNL d   1       0.899  -0.891   0.411  0.00  0.00     0.048 A 
ATOM      4  C3  UNL d   1       0.339  -0.498  -0.804  0.00  0.00     0.023 A 
ATOM      5  C4  UNL d   1      -0.805   0.301  -0.829  0.00  0.00     0.048 A 
ATOM      6  C5  UNL d   1      -1.391   0.706   0.371  0.00  0.00     0.003 A 
ATOM      7  I   UNL d   1       1.215  -1.105  -2.588  0.00  0.00    -0.146 I 
ENDROOT
TORSDOF 0
ENDMDL
