MODEL 1
REMARK minimizedAffinity -3.85016489
REMARK minimizedRMSD -1
REMARK  0 active torsions:
REMARK  status: ('A' for Active; 'I' for Inactive)
ROOT
ATOM      1  C   UNL d   1      -1.537  -0.433   3.347  0.00  0.00     0.023 A 
ATOM      2  C1  UNL d   1      -2.396  -0.262   2.262  0.00  0.00     0.003 A 
ATOM      3  C2  UNL d   1      -1.876  -0.034   0.986  0.00  0.00     0.048 A 
ATOM      4  C3  UNL d   1      -0.495   0.020   0.803  0.00  0.00     0.023 A 
ATOM      5  C4  UNL d   1       0.369  -0.151   1.885  0.00  0.00     0.048 A 
ATOM      6  C5  UNL d   1      -0.156  -0.378   3.159  0.00  0.00     0.003 A 
ATOM      7  I   UNL d   1       0.282   0.359  -1.095  0.00  0.00    -0.146 I 
ENDROOT
TORSDOF 0
ENDMDL
