MODEL 1
REMARK minimizedAffinity -4.67280674
REMARK minimizedRMSD -1
REMARK  0 active torsions:
REMARK  status: ('A' for Active; 'I' for Inactive)
ROOT
ATOM      1  C   UNL d   1       0.282  -0.243   2.524  0.00  0.00     0.023 A 
ATOM      2  C1  UNL d   1       1.522  -0.124   1.894  0.00  0.00     0.003 A 
ATOM      3  C2  UNL d   1       1.603  -0.142   0.500  0.00  0.00     0.048 A 
ATOM      4  C3  UNL d   1       0.441  -0.277  -0.258  0.00  0.00     0.023 A 
ATOM      5  C4  UNL d   1      -0.802  -0.395   0.367  0.00  0.00     0.048 A 
ATOM      6  C5  UNL d   1      -0.878  -0.378   1.761  0.00  0.00     0.003 A 
ATOM      7  I   UNL d   1       0.559  -0.303  -2.333  0.00  0.00    -0.146 I 
ENDROOT
TORSDOF 0
ENDMDL
