MODEL 1
REMARK minimizedAffinity 0.275142431
REMARK minimizedRMSD -1
REMARK  0 active torsions:
REMARK  status: ('A' for Active; 'I' for Inactive)
ROOT
ATOM      1  C   UNL d   1      -0.778   0.138   3.504  0.00  0.00     0.023 A 
ATOM      2  C1  UNL d   1      -1.379  -0.814   2.680  0.00  0.00     0.003 A 
ATOM      3  C2  UNL d   1      -1.026  -0.893   1.331  0.00  0.00     0.048 A 
ATOM      4  C3  UNL d   1      -0.072  -0.019   0.813  0.00  0.00     0.023 A 
ATOM      5  C4  UNL d   1       0.533   0.934   1.635  0.00  0.00     0.048 A 
ATOM      6  C5  UNL d   1       0.176   1.011   2.982  0.00  0.00     0.003 A 
ATOM      7  I   UNL d   1       0.455  -0.136  -1.194  0.00  0.00    -0.146 I 
ENDROOT
TORSDOF 0
ENDMDL
