MODEL 1
REMARK minimizedAffinity -3.16515255
REMARK minimizedRMSD -1
REMARK  0 active torsions:
REMARK  status: ('A' for Active; 'I' for Inactive)
ROOT
ATOM      1  C   UNL d   1      -1.856  -0.388   1.460  0.00  0.00     0.023 A 
ATOM      2  C1  UNL d   1      -1.132  -0.459   2.650  0.00  0.00     0.003 A 
ATOM      3  C2  UNL d   1       0.195  -0.027   2.689  0.00  0.00     0.048 A 
ATOM      4  C3  UNL d   1       0.792   0.476   1.533  0.00  0.00     0.023 A 
ATOM      5  C4  UNL d   1       0.071   0.550   0.340  0.00  0.00     0.048 A 
ATOM      6  C5  UNL d   1      -1.255   0.116   0.306  0.00  0.00     0.003 A 
ATOM      7  I   UNL d   1       2.767   1.121   1.588  0.00  0.00    -0.146 I 
ENDROOT
TORSDOF 0
ENDMDL
