MODEL 1
REMARK minimizedAffinity -4.24003601
REMARK minimizedRMSD -1
REMARK  0 active torsions:
REMARK  status: ('A' for Active; 'I' for Inactive)
ROOT
ATOM      1  C   UNL d   1      -0.552   0.200   3.009  0.00  0.00     0.023 A 
ATOM      2  C1  UNL d   1      -1.514  -0.275   2.118  0.00  0.00     0.003 A 
ATOM      3  C2  UNL d   1      -1.219  -0.375   0.757  0.00  0.00     0.048 A 
ATOM      4  C3  UNL d   1       0.041   0.002   0.293  0.00  0.00     0.023 A 
ATOM      5  C4  UNL d   1       1.008   0.477   1.181  0.00  0.00     0.048 A 
ATOM      6  C5  UNL d   1       0.708   0.576   2.541  0.00  0.00     0.003 A 
ATOM      7  I   UNL d   1       0.483  -0.146  -1.733  0.00  0.00    -0.146 I 
ENDROOT
TORSDOF 0
ENDMDL
