MODEL 1
REMARK minimizedAffinity -0.0145974746
REMARK minimizedRMSD -1
REMARK  0 active torsions:
REMARK  status: ('A' for Active; 'I' for Inactive)
ROOT
ATOM      1  C   UNL d   1       1.796  -0.007   2.275  0.00  0.00     0.023 A 
ATOM      2  C1  UNL d   1       0.592   0.135   2.964  0.00  0.00     0.003 A 
ATOM      3  C2  UNL d   1      -0.615   0.178   2.263  0.00  0.00     0.048 A 
ATOM      4  C3  UNL d   1      -0.610   0.079   0.873  0.00  0.00     0.023 A 
ATOM      5  C4  UNL d   1       0.592  -0.064   0.178  0.00  0.00     0.048 A 
ATOM      6  C5  UNL d   1       1.796  -0.107   0.883  0.00  0.00     0.003 A 
ATOM      7  I   UNL d   1      -2.405   0.144  -0.173  0.00  0.00    -0.146 I 
ENDROOT
TORSDOF 0
ENDMDL
