MODEL 1
REMARK minimizedAffinity 1.86623454
REMARK minimizedRMSD -1
REMARK  0 active torsions:
REMARK  status: ('A' for Active; 'I' for Inactive)
ROOT
ATOM      1  C   UNL d   1      -0.590   0.549   1.638  0.00  0.00     0.023 A 
ATOM      2  C1  UNL d   1      -1.161   0.329   0.384  0.00  0.00     0.003 A 
ATOM      3  C2  UNL d   1      -0.347   0.188  -0.741  0.00  0.00     0.048 A 
ATOM      4  C3  UNL d   1       1.039   0.265  -0.605  0.00  0.00     0.023 A 
ATOM      5  C4  UNL d   1       1.615   0.483   0.648  0.00  0.00     0.048 A 
ATOM      6  C5  UNL d   1       0.797   0.625   1.769  0.00  0.00     0.003 A 
ATOM      7  I   UNL d   1       2.254   0.054  -2.278  0.00  0.00    -0.146 I 
ENDROOT
TORSDOF 0
ENDMDL
