MODEL 1
REMARK minimizedAffinity -3.67452431
REMARK minimizedRMSD -1
REMARK  0 active torsions:
REMARK  status: ('A' for Active; 'I' for Inactive)
ROOT
ATOM      1  C   UNL d   1       0.248   0.365   2.695  0.00  0.00     0.023 A 
ATOM      2  C1  UNL d   1       1.336   0.810   1.944  0.00  0.00     0.003 A 
ATOM      3  C2  UNL d   1       1.371   0.590   0.566  0.00  0.00     0.048 A 
ATOM      4  C3  UNL d   1       0.314  -0.074  -0.056  0.00  0.00     0.023 A 
ATOM      5  C4  UNL d   1      -0.777  -0.520   0.691  0.00  0.00     0.048 A 
ATOM      6  C5  UNL d   1      -0.808  -0.298   2.069  0.00  0.00     0.003 A 
ATOM      7  I   UNL d   1       0.364  -0.402  -2.108  0.00  0.00    -0.146 I 
ENDROOT
TORSDOF 0
ENDMDL
