MODEL 1
REMARK minimizedAffinity -1.86099505
REMARK minimizedRMSD -1
REMARK  0 active torsions:
REMARK  status: ('A' for Active; 'I' for Inactive)
ROOT
ATOM      1  C   UNL d   1      -0.720  -0.203   3.057  0.00  0.00     0.023 A 
ATOM      2  C1  UNL d   1      -1.497  -0.771   2.047  0.00  0.00     0.003 A 
ATOM      3  C2  UNL d   1      -1.196  -0.517   0.707  0.00  0.00     0.048 A 
ATOM      4  C3  UNL d   1      -0.117   0.305   0.385  0.00  0.00     0.023 A 
ATOM      5  C4  UNL d   1       0.664   0.875   1.392  0.00  0.00     0.048 A 
ATOM      6  C5  UNL d   1       0.359   0.619   2.730  0.00  0.00     0.003 A 
ATOM      7  I   UNL d   1       0.333   0.684  -1.609  0.00  0.00    -0.146 I 
ENDROOT
TORSDOF 0
ENDMDL
