MODEL 1
REMARK minimizedAffinity -4.21185684
REMARK minimizedRMSD -1
REMARK  0 active torsions:
REMARK  status: ('A' for Active; 'I' for Inactive)
ROOT
ATOM      1  C   UNL d   1      -0.558  -0.644   3.080  0.00  0.00     0.023 A 
ATOM      2  C1  UNL d   1      -1.396  -0.031   2.148  0.00  0.00     0.003 A 
ATOM      3  C2  UNL d   1      -0.971   0.137   0.829  0.00  0.00     0.048 A 
ATOM      4  C3  UNL d   1       0.294  -0.310   0.448  0.00  0.00     0.023 A 
ATOM      5  C4  UNL d   1       1.136  -0.924   1.376  0.00  0.00     0.048 A 
ATOM      6  C5  UNL d   1       0.706  -1.090   2.695  0.00  0.00     0.003 A 
ATOM      7  I   UNL d   1       0.929  -0.061  -1.515  0.00  0.00    -0.146 I 
ENDROOT
TORSDOF 0
ENDMDL
