MODEL 1
REMARK minimizedAffinity -3.40996289
REMARK minimizedRMSD -1
REMARK  0 active torsions:
REMARK  status: ('A' for Active; 'I' for Inactive)
ROOT
ATOM      1  C   UNL d   1      -0.637   0.337   2.610  0.00  0.00     0.023 A 
ATOM      2  C1  UNL d   1      -1.341   0.108   1.428  0.00  0.00     0.003 A 
ATOM      3  C2  UNL d   1      -0.653  -0.194   0.251  0.00  0.00     0.048 A 
ATOM      4  C3  UNL d   1       0.740  -0.265   0.263  0.00  0.00     0.023 A 
ATOM      5  C4  UNL d   1       1.449  -0.037   1.444  0.00  0.00     0.048 A 
ATOM      6  C5  UNL d   1       0.756   0.265   2.618  0.00  0.00     0.003 A 
ATOM      7  I   UNL d   1       1.766  -0.714  -1.487  0.00  0.00    -0.146 I 
ENDROOT
TORSDOF 0
ENDMDL
