MODEL 1
REMARK minimizedAffinity -3.95105529
REMARK minimizedRMSD -1
REMARK  0 active torsions:
REMARK  status: ('A' for Active; 'I' for Inactive)
ROOT
ATOM      1  C   UNL d   1      -0.419  -0.464   3.307  0.00  0.00     0.023 A 
ATOM      2  C1  UNL d   1      -1.332  -0.918   2.355  0.00  0.00     0.003 A 
ATOM      3  C2  UNL d   1      -1.165  -0.583   1.010  0.00  0.00     0.048 A 
ATOM      4  C3  UNL d   1      -0.082   0.205   0.623  0.00  0.00     0.023 A 
ATOM      5  C4  UNL d   1       0.835   0.661   1.571  0.00  0.00     0.048 A 
ATOM      6  C5  UNL d   1       0.663   0.325   2.915  0.00  0.00     0.003 A 
ATOM      7  I   UNL d   1       0.168   0.705  -1.379  0.00  0.00    -0.146 I 
ENDROOT
TORSDOF 0
ENDMDL
