MODEL 1
REMARK minimizedAffinity -2.68209887
REMARK minimizedRMSD -1
REMARK  1 active torsions:
REMARK  status: ('A' for Active; 'I' for Inactive)
REMARK    1  A    between atoms: C3_4  and  O_7 
ROOT
ATOM      1  C   UNL d   1       0.033   0.271   1.303  0.00  0.00    -0.033 A 
ATOM      2  C1  UNL d   1      -1.122  -0.458   1.596  0.00  0.00     0.039 A 
ATOM      3  C2  UNL d   1      -2.187   0.155   2.259  0.00  0.00    -0.080 A 
ATOM      4  C3  UNL d   1      -2.085   1.495   2.622  0.00  0.00     0.150 A 
ATOM      5  C4  UNL d   1      -0.940   2.228   2.330  0.00  0.00    -0.007 A 
ATOM      6  C5  UNL d   1       0.123   1.614   1.668  0.00  0.00     0.039 A 
ENDROOT
BRANCH   4   7
ATOM      7  O   UNL d   1      -3.096   2.135   3.275  0.00  0.00    -0.526 OA
ATOM      8  H5  UNL d   1      -3.811   1.497   3.436  0.00  0.00     0.418 HD
ENDBRANCH   4   7
TORSDOF 1
ENDMDL
