MODEL 1
REMARK minimizedAffinity -5.23964405
REMARK minimizedRMSD -1
REMARK  1 active torsions:
REMARK  status: ('A' for Active; 'I' for Inactive)
REMARK    1  A    between atoms: C3_4  and  O_7 
ROOT
ATOM      1  C   UNL d   1       0.483   0.335   0.724  0.00  0.00    -0.033 A 
ATOM      2  C1  UNL d   1       0.279   1.716   0.690  0.00  0.00     0.039 A 
ATOM      3  C2  UNL d   1      -0.783   2.284   1.396  0.00  0.00    -0.080 A 
ATOM      4  C3  UNL d   1      -1.632   1.462   2.132  0.00  0.00     0.150 A 
ATOM      5  C4  UNL d   1      -1.433   0.086   2.173  0.00  0.00    -0.007 A 
ATOM      6  C5  UNL d   1      -0.372  -0.480   1.467  0.00  0.00     0.039 A 
ENDROOT
BRANCH   4   7
ATOM      7  O   UNL d   1      -2.684   1.971   2.833  0.00  0.00    -0.526 OA
ATOM      8  H5  UNL d   1      -2.715   2.931   2.689  0.00  0.00     0.418 HD
ENDBRANCH   4   7
TORSDOF 1
ENDMDL
