MODEL 1
REMARK minimizedAffinity -1.80098438
REMARK minimizedRMSD -1
REMARK  1 active torsions:
REMARK  status: ('A' for Active; 'I' for Inactive)
REMARK    1  A    between atoms: C3_4  and  O_7 
ROOT
ATOM      1  C   UNL d   1      -1.698   0.199   1.726  0.00  0.00    -0.033 A 
ATOM      2  C1  UNL d   1      -1.452   1.447   1.150  0.00  0.00     0.039 A 
ATOM      3  C2  UNL d   1      -0.214   1.716   0.564  0.00  0.00    -0.080 A 
ATOM      4  C3  UNL d   1       0.768   0.729   0.559  0.00  0.00     0.150 A 
ATOM      5  C4  UNL d   1       0.529  -0.518   1.127  0.00  0.00    -0.007 A 
ATOM      6  C5  UNL d   1      -0.708  -0.784   1.713  0.00  0.00     0.039 A 
ENDROOT
BRANCH   4   7
ATOM      7  O   UNL d   1       1.994   0.947   0.004  0.00  0.00    -0.526 OA
ATOM      8  H5  UNL d   1       2.025   1.861  -0.324  0.00  0.00     0.418 HD
ENDBRANCH   4   7
TORSDOF 1
ENDMDL
