MODEL 1
REMARK minimizedAffinity -5.56739187
REMARK minimizedRMSD -1
REMARK  1 active torsions:
REMARK  status: ('A' for Active; 'I' for Inactive)
REMARK    1  A    between atoms: C3_4  and  O_7 
ROOT
ATOM      1  C   UNL d   1      -0.737   0.376   1.279  0.00  0.00    -0.033 A 
ATOM      2  C1  UNL d   1      -1.780  -0.449   1.703  0.00  0.00     0.039 A 
ATOM      3  C2  UNL d   1      -2.737   0.035   2.597  0.00  0.00    -0.080 A 
ATOM      4  C3  UNL d   1      -2.640   1.345   3.058  0.00  0.00     0.150 A 
ATOM      5  C4  UNL d   1      -1.605   2.174   2.637  0.00  0.00    -0.007 A 
ATOM      6  C5  UNL d   1      -0.650   1.688   1.745  0.00  0.00     0.039 A 
ENDROOT
BRANCH   4   7
ATOM      7  O   UNL d   1      -3.547   1.861   3.936  0.00  0.00    -0.526 OA
ATOM      8  H5  UNL d   1      -4.187   1.165   4.160  0.00  0.00     0.418 HD
ENDBRANCH   4   7
TORSDOF 1
ENDMDL
