MODEL 1
REMARK minimizedAffinity -1.41296721
REMARK minimizedRMSD -1
REMARK  1 active torsions:
REMARK  status: ('A' for Active; 'I' for Inactive)
REMARK    1  A    between atoms: C3_4  and  O_7 
ROOT
ATOM      1  C   UNL d   1       0.105   1.768   1.171  0.00  0.00    -0.033 A 
ATOM      2  C1  UNL d   1      -0.233   0.496   1.637  0.00  0.00     0.039 A 
ATOM      3  C2  UNL d   1      -1.423   0.302   2.341  0.00  0.00    -0.080 A 
ATOM      4  C3  UNL d   1      -2.265   1.387   2.571  0.00  0.00     0.150 A 
ATOM      5  C4  UNL d   1      -1.937   2.656   2.106  0.00  0.00    -0.007 A 
ATOM      6  C5  UNL d   1      -0.747   2.848   1.404  0.00  0.00     0.039 A 
ENDROOT
BRANCH   4   7
ATOM      7  O   UNL d   1      -3.435   1.247   3.257  0.00  0.00    -0.526 OA
ATOM      8  H5  UNL d   1      -3.516   0.322   3.542  0.00  0.00     0.418 HD
ENDBRANCH   4   7
TORSDOF 1
ENDMDL
