MODEL 1
REMARK minimizedAffinity 0.237425029
REMARK minimizedRMSD -1
REMARK  1 active torsions:
REMARK  status: ('A' for Active; 'I' for Inactive)
REMARK    1  A    between atoms: C3_4  and  O_7 
ROOT
ATOM      1  C   UNL d   1       0.393   0.388   1.070  0.00  0.00    -0.033 A 
ATOM      2  C1  UNL d   1       0.383   1.781   1.173  0.00  0.00     0.039 A 
ATOM      3  C2  UNL d   1      -0.570   2.417   1.970  0.00  0.00    -0.080 A 
ATOM      4  C3  UNL d   1      -1.506   1.650   2.660  0.00  0.00     0.150 A 
ATOM      5  C4  UNL d   1      -1.499   0.262   2.565  0.00  0.00    -0.007 A 
ATOM      6  C5  UNL d   1      -0.547  -0.371   1.767  0.00  0.00     0.039 A 
ENDROOT
BRANCH   4   7
ATOM      7  O   UNL d   1      -2.458   2.226   3.446  0.00  0.00    -0.526 OA
ATOM      8  H5  UNL d   1      -2.359   3.192   3.393  0.00  0.00     0.418 HD
ENDBRANCH   4   7
TORSDOF 1
ENDMDL
