MODEL 1
REMARK minimizedAffinity 1.40857375
REMARK minimizedRMSD -1
REMARK  1 active torsions:
REMARK  status: ('A' for Active; 'I' for Inactive)
REMARK    1  A    between atoms: C3_4  and  O_7 
ROOT
ATOM      1  C   UNL d   1      -1.128  -0.287   2.087  0.00  0.00    -0.033 A 
ATOM      2  C1  UNL d   1      -0.982   0.867   1.316  0.00  0.00     0.039 A 
ATOM      3  C2  UNL d   1       0.239   1.148   0.700  0.00  0.00    -0.080 A 
ATOM      4  C3  UNL d   1       1.304   0.266   0.861  0.00  0.00     0.150 A 
ATOM      5  C4  UNL d   1       1.165  -0.889   1.625  0.00  0.00    -0.007 A 
ATOM      6  C5  UNL d   1      -0.055  -1.166   2.240  0.00  0.00     0.039 A 
ENDROOT
BRANCH   4   7
ATOM      7  O   UNL d   1       2.517   0.499   0.283  0.00  0.00    -0.526 OA
ATOM      8  H5  UNL d   1       2.474   1.347  -0.190  0.00  0.00     0.418 HD
ENDBRANCH   4   7
TORSDOF 1
ENDMDL
