MODEL 1
REMARK minimizedAffinity -0.735956192
REMARK minimizedRMSD -1
REMARK  1 active torsions:
REMARK  status: ('A' for Active; 'I' for Inactive)
REMARK    1  A    between atoms: C3_4  and  O_7 
ROOT
ATOM      1  C   UNL d   1       2.556  -0.596   0.040  0.00  0.00    -0.033 A 
ATOM      2  C1  UNL d   1       2.815   0.768  -0.108  0.00  0.00     0.039 A 
ATOM      3  C2  UNL d   1       1.955   1.709   0.461  0.00  0.00    -0.080 A 
ATOM      4  C3  UNL d   1       0.841   1.274   1.175  0.00  0.00     0.150 A 
ATOM      5  C4  UNL d   1       0.580  -0.084   1.329  0.00  0.00    -0.007 A 
ATOM      6  C5  UNL d   1       1.439  -1.022   0.759  0.00  0.00     0.039 A 
ENDROOT
BRANCH   4   7
ATOM      7  O   UNL d   1      -0.030   2.155   1.744  0.00  0.00    -0.526 OA
ATOM      8  H5  UNL d   1       0.262   3.057   1.531  0.00  0.00     0.418 HD
ENDBRANCH   4   7
TORSDOF 1
ENDMDL
