MODEL 1
REMARK minimizedAffinity -2.7542305
REMARK minimizedRMSD -1
REMARK  1 active torsions:
REMARK  status: ('A' for Active; 'I' for Inactive)
REMARK    1  A    between atoms: C3_4  and  O_7 
ROOT
ATOM      1  C   UNL d   1      -1.319  -0.404   2.141  0.00  0.00    -0.033 A 
ATOM      2  C1  UNL d   1      -1.824   0.895   2.222  0.00  0.00     0.039 A 
ATOM      3  C2  UNL d   1      -1.017   1.982   1.880  0.00  0.00    -0.080 A 
ATOM      4  C3  UNL d   1       0.290   1.757   1.460  0.00  0.00     0.150 A 
ATOM      5  C4  UNL d   1       0.799   0.465   1.374  0.00  0.00    -0.007 A 
ATOM      6  C5  UNL d   1      -0.007  -0.619   1.716  0.00  0.00     0.039 A 
ENDROOT
BRANCH   4   7
ATOM      7  O   UNL d   1       1.117   2.787   1.121  0.00  0.00    -0.526 OA
ATOM      8  H5  UNL d   1       0.639   3.622   1.256  0.00  0.00     0.418 HD
ENDBRANCH   4   7
TORSDOF 1
ENDMDL
