MODEL 1
REMARK minimizedAffinity -5.44671679
REMARK minimizedRMSD -1
REMARK  1 active torsions:
REMARK  status: ('A' for Active; 'I' for Inactive)
REMARK    1  A    between atoms: C3_4  and  O_7 
ROOT
ATOM      1  C   UNL d   1       0.580   1.217   0.647  0.00  0.00    -0.033 A 
ATOM      2  C1  UNL d   1       0.309   2.339   1.433  0.00  0.00     0.039 A 
ATOM      3  C2  UNL d   1      -0.839   2.377   2.227  0.00  0.00    -0.080 A 
ATOM      4  C3  UNL d   1      -1.706   1.288   2.227  0.00  0.00     0.150 A 
ATOM      5  C4  UNL d   1      -1.441   0.165   1.450  0.00  0.00    -0.007 A 
ATOM      6  C5  UNL d   1      -0.294   0.130   0.657  0.00  0.00     0.039 A 
ENDROOT
BRANCH   4   7
ATOM      7  O   UNL d   1      -2.842   1.281   2.981  0.00  0.00    -0.526 OA
ATOM      8  H5  UNL d   1      -2.909   2.133   3.443  0.00  0.00     0.418 HD
ENDBRANCH   4   7
TORSDOF 1
ENDMDL
