MODEL 1
REMARK minimizedAffinity -4.91167021
REMARK minimizedRMSD -1
REMARK  1 active torsions:
REMARK  status: ('A' for Active; 'I' for Inactive)
REMARK    1  A    between atoms: C3_4  and  O_7 
ROOT
ATOM      1  C   UNL d   1      -0.442   0.621   1.059  0.00  0.00    -0.033 A 
ATOM      2  C1  UNL d   1      -1.444  -0.221   1.545  0.00  0.00     0.039 A 
ATOM      3  C2  UNL d   1      -2.411   0.275   2.422  0.00  0.00    -0.080 A 
ATOM      4  C3  UNL d   1      -2.365   1.613   2.804  0.00  0.00     0.150 A 
ATOM      5  C4  UNL d   1      -1.372   2.459   2.321  0.00  0.00    -0.007 A 
ATOM      6  C5  UNL d   1      -0.407   1.961   1.446  0.00  0.00     0.039 A 
ENDROOT
BRANCH   4   7
ATOM      7  O   UNL d   1      -3.284   2.141   3.662  0.00  0.00    -0.526 OA
ATOM      8  H5  UNL d   1      -3.892   1.434   3.935  0.00  0.00     0.418 HD
ENDBRANCH   4   7
TORSDOF 1
ENDMDL
