MODEL 1
REMARK minimizedAffinity 0.244594648
REMARK minimizedRMSD -1
REMARK  1 active torsions:
REMARK  status: ('A' for Active; 'I' for Inactive)
REMARK    1  A    between atoms: C3_4  and  O_7 
ROOT
ATOM      1  C   UNL d   1       1.302   0.715   1.425  0.00  0.00    -0.033 A 
ATOM      2  C1  UNL d   1       0.814   1.836   0.751  0.00  0.00     0.039 A 
ATOM      3  C2  UNL d   1      -0.356   2.461   1.187  0.00  0.00    -0.080 A 
ATOM      4  C3  UNL d   1      -1.027   1.957   2.298  0.00  0.00     0.150 A 
ATOM      5  C4  UNL d   1      -0.545   0.842   2.976  0.00  0.00    -0.007 A 
ATOM      6  C5  UNL d   1       0.623   0.219   2.539  0.00  0.00     0.039 A 
ENDROOT
BRANCH   4   7
ATOM      7  O   UNL d   1      -2.175   2.530   2.757  0.00  0.00    -0.526 OA
ATOM      8  H5  UNL d   1      -2.404   3.272   2.173  0.00  0.00     0.418 HD
ENDBRANCH   4   7
TORSDOF 1
ENDMDL
