MODEL 1
REMARK minimizedAffinity -3.21424794
REMARK minimizedRMSD -1
REMARK  1 active torsions:
REMARK  status: ('A' for Active; 'I' for Inactive)
REMARK    1  A    between atoms: C3_4  and  O_7 
ROOT
ATOM      1  C   UNL d   1       0.650   0.538   0.806  0.00  0.00    -0.033 A 
ATOM      2  C1  UNL d   1       0.877   1.727   1.502  0.00  0.00     0.039 A 
ATOM      3  C2  UNL d   1      -0.168   2.345   2.192  0.00  0.00    -0.080 A 
ATOM      4  C3  UNL d   1      -1.433   1.764   2.178  0.00  0.00     0.150 A 
ATOM      5  C4  UNL d   1      -1.666   0.578   1.490  0.00  0.00    -0.007 A 
ATOM      6  C5  UNL d   1      -0.621  -0.037   0.801  0.00  0.00     0.039 A 
ENDROOT
BRANCH   4   7
ATOM      7  O   UNL d   1      -2.486   2.333   2.832  0.00  0.00    -0.526 OA
ATOM      8  H5  UNL d   1      -2.183   3.162   3.238  0.00  0.00     0.418 HD
ENDBRANCH   4   7
TORSDOF 1
ENDMDL
