MODEL 1
REMARK minimizedAffinity 0.902539849
REMARK minimizedRMSD -1
REMARK  1 active torsions:
REMARK  status: ('A' for Active; 'I' for Inactive)
REMARK    1  A    between atoms: C3_4  and  O_7 
ROOT
ATOM      1  C   UNL d   1      -2.788   1.236   2.893  0.00  0.00    -0.033 A 
ATOM      2  C1  UNL d   1      -1.685   1.970   3.333  0.00  0.00     0.039 A 
ATOM      3  C2  UNL d   1      -0.461   1.860   2.668  0.00  0.00    -0.080 A 
ATOM      4  C3  UNL d   1      -0.356   1.016   1.567  0.00  0.00     0.150 A 
ATOM      5  C4  UNL d   1      -1.452   0.285   1.121  0.00  0.00    -0.007 A 
ATOM      6  C5  UNL d   1      -2.672   0.395   1.786  0.00  0.00     0.039 A 
ENDROOT
BRANCH   4   7
ATOM      7  O   UNL d   1       0.819   0.872   0.889  0.00  0.00    -0.526 OA
ATOM      8  H5  UNL d   1       1.495   1.415   1.327  0.00  0.00     0.418 HD
ENDBRANCH   4   7
TORSDOF 1
ENDMDL
