MODEL 1
REMARK minimizedAffinity 1.82658577
REMARK minimizedRMSD -1
REMARK  1 active torsions:
REMARK  status: ('A' for Active; 'I' for Inactive)
REMARK    1  A    between atoms: C3_4  and  O_7 
ROOT
ATOM      1  C   UNL d   1       0.649   2.241   1.825  0.00  0.00    -0.033 A 
ATOM      2  C1  UNL d   1      -0.266   3.294   1.756  0.00  0.00     0.039 A 
ATOM      3  C2  UNL d   1      -1.581   3.108   2.185  0.00  0.00    -0.080 A 
ATOM      4  C3  UNL d   1      -1.969   1.866   2.681  0.00  0.00     0.150 A 
ATOM      5  C4  UNL d   1      -1.062   0.814   2.756  0.00  0.00    -0.007 A 
ATOM      6  C5  UNL d   1       0.251   1.001   2.326  0.00  0.00     0.039 A 
ENDROOT
BRANCH   4   7
ATOM      7  O   UNL d   1      -3.243   1.636   3.107  0.00  0.00    -0.526 OA
ATOM      8  H5  UNL d   1      -3.765   2.444   2.969  0.00  0.00     0.418 HD
ENDBRANCH   4   7
TORSDOF 1
ENDMDL
