MODEL 1
REMARK minimizedAffinity 1.55717432
REMARK minimizedRMSD -1
REMARK  2 active torsions:
REMARK  status: ('A' for Active; 'I' for Inactive)
REMARK    1  A    between atoms: C2'_3  and  C1'_4 
REMARK    2  A    between atoms: C1'_4  and  C1_5 
ROOT
ATOM      1  C1  I4B d   1      -3.148  -0.658  -3.881  0.00  0.00    -0.075 A 
ATOM      2  C2  I4B d   1      -4.500  -0.893  -3.909  0.00  0.00     0.003 A 
ATOM      3  C3  I4B d   1      -5.282  -0.430  -4.995  0.00  0.00     0.002 A 
ATOM      4  C4  I4B d   1      -4.683   0.302  -5.999  0.00  0.00    -0.004 A 
ATOM      5  C5  I4B d   1      -3.308   0.519  -5.981  0.00  0.00     0.002 A 
ATOM      6  C6  I4B d   1      -2.533   0.026  -4.921  0.00  0.00     0.003 A 
ENDROOT
BRANCH   1   7
ATOM      7  C1' I4B d   1      -2.358  -1.133  -2.702  0.00  0.00     0.060 C 
BRANCH   7   8
ATOM      8  C2' I4B d   1      -3.100  -0.723  -1.447  0.00  0.00    -0.013 C 
ATOM      9  C4' I4B d   1      -2.306  -1.054  -0.211  0.00  0.00     0.013 C 
ATOM     10  C3' I4B d   1      -3.379   0.748  -1.534  0.00  0.00     0.013 C 
ENDBRANCH   7   8
ENDBRANCH   1   7
TORSDOF 2
ENDMDL
