MODEL 1
REMARK minimizedAffinity 11.3910542
REMARK minimizedRMSD -1
REMARK  2 active torsions:
REMARK  status: ('A' for Active; 'I' for Inactive)
REMARK    1  A    between atoms: C2'_3  and  C1'_4 
REMARK    2  A    between atoms: C1'_4  and  C1_5 
ROOT
ATOM      1  C1  I4B d   1       3.350  -3.967   0.753  0.00  0.00    -0.075 A 
ATOM      2  C2  I4B d   1       3.602  -4.200   2.082  0.00  0.00     0.003 A 
ATOM      3  C3  I4B d   1       4.727  -4.967   2.470  0.00  0.00     0.002 A 
ATOM      4  C4  I4B d   1       5.540  -5.521   1.502  0.00  0.00    -0.004 A 
ATOM      5  C5  I4B d   1       5.295  -5.265   0.155  0.00  0.00     0.002 A 
ATOM      6  C6  I4B d   1       4.201  -4.473  -0.222  0.00  0.00     0.003 A 
ENDROOT
BRANCH   1   7
ATOM      7  C1' I4B d   1       2.135  -3.181   0.377  0.00  0.00     0.060 C 
BRANCH   7   8
ATOM      8  C2' I4B d   1       2.189  -1.858   1.113  0.00  0.00    -0.013 C 
ATOM      9  C4' I4B d   1       2.587  -0.736   0.190  0.00  0.00     0.013 C 
ATOM     10  C3' I4B d   1       0.839  -1.608   1.716  0.00  0.00     0.013 C 
ENDBRANCH   7   8
ENDBRANCH   1   7
TORSDOF 2
ENDMDL
