MODEL 1
REMARK minimizedAffinity 13.2287016
REMARK minimizedRMSD -1
REMARK  2 active torsions:
REMARK  status: ('A' for Active; 'I' for Inactive)
REMARK    1  A    between atoms: C2'_3  and  C1'_4 
REMARK    2  A    between atoms: C1'_4  and  C1_5 
ROOT
ATOM      1  C1  I4B d   1      -0.230   3.719  -3.796  0.00  0.00    -0.075 A 
ATOM      2  C2  I4B d   1      -1.008   3.589  -2.673  0.00  0.00     0.003 A 
ATOM      3  C3  I4B d   1      -2.062   2.644  -2.643  0.00  0.00     0.002 A 
ATOM      4  C4  I4B d   1      -2.333   1.891  -3.767  0.00  0.00    -0.004 A 
ATOM      5  C5  I4B d   1      -1.529   2.009  -4.897  0.00  0.00     0.002 A 
ATOM      6  C6  I4B d   1      -0.462   2.920  -4.907  0.00  0.00     0.003 A 
ENDROOT
BRANCH   1   7
ATOM      7  C1' I4B d   1       0.854   4.750  -3.806  0.00  0.00     0.060 C 
BRANCH   7   8
ATOM      8  C2' I4B d   1       1.524   4.711  -5.164  0.00  0.00    -0.013 C 
ATOM      9  C4' I4B d   1       1.133   5.903  -5.999  0.00  0.00     0.013 C 
ATOM     10  C3' I4B d   1       3.007   4.663  -4.949  0.00  0.00     0.013 C 
ENDBRANCH   7   8
ENDBRANCH   1   7
TORSDOF 2
ENDMDL
