MODEL 1
REMARK minimizedAffinity 14.8192968
REMARK minimizedRMSD -1
REMARK  2 active torsions:
REMARK  status: ('A' for Active; 'I' for Inactive)
REMARK    1  A    between atoms: C2'_3  and  C1'_4 
REMARK    2  A    between atoms: C1'_4  and  C1_5 
ROOT
ATOM      1  C1  I4B d   1      -3.059   1.171  -2.574  0.00  0.00    -0.075 A 
ATOM      2  C2  I4B d   1      -2.200   2.011  -1.909  0.00  0.00     0.003 A 
ATOM      3  C3  I4B d   1      -1.686   3.161  -2.555  0.00  0.00     0.002 A 
ATOM      4  C4  I4B d   1      -2.014   3.405  -3.873  0.00  0.00    -0.004 A 
ATOM      5  C5  I4B d   1      -2.903   2.565  -4.538  0.00  0.00     0.002 A 
ATOM      6  C6  I4B d   1      -3.439   1.448  -3.881  0.00  0.00     0.003 A 
ENDROOT
BRANCH   1   7
ATOM      7  C1' I4B d   1      -3.558  -0.052  -1.873  0.00  0.00     0.060 C 
BRANCH   7   8
ATOM      8  C2' I4B d   1      -2.381  -0.700  -1.171  0.00  0.00    -0.013 C 
ATOM      9  C4' I4B d   1      -2.843  -1.706  -0.149  0.00  0.00     0.013 C 
ATOM     10  C3' I4B d   1      -1.518  -1.344  -2.214  0.00  0.00     0.013 C 
ENDBRANCH   7   8
ENDBRANCH   1   7
TORSDOF 2
ENDMDL
