MODEL 1
REMARK minimizedAffinity 17.2317619
REMARK minimizedRMSD -1
REMARK  2 active torsions:
REMARK  status: ('A' for Active; 'I' for Inactive)
REMARK    1  A    between atoms: C2'_3  and  C1'_4 
REMARK    2  A    between atoms: C1'_4  and  C1_5 
ROOT
ATOM      1  C1  I4B d   1       5.562  -5.130   3.338  0.00  0.00    -0.075 A 
ATOM      2  C2  I4B d   1       5.241  -5.991   4.358  0.00  0.00     0.003 A 
ATOM      3  C3  I4B d   1       5.283  -5.549   5.703  0.00  0.00     0.002 A 
ATOM      4  C4  I4B d   1       5.697  -4.263   5.983  0.00  0.00    -0.004 A 
ATOM      5  C5  I4B d   1       5.999  -3.385   4.947  0.00  0.00     0.002 A 
ATOM      6  C6  I4B d   1       5.920  -3.817   3.615  0.00  0.00     0.003 A 
ENDROOT
BRANCH   1   7
ATOM      7  C1' I4B d   1       5.539  -5.639   1.932  0.00  0.00     0.060 C 
BRANCH   7   8
ATOM      8  C2' I4B d   1       5.346  -4.453   1.009  0.00  0.00    -0.013 C 
ATOM      9  C4' I4B d   1       5.359  -4.878  -0.436  0.00  0.00     0.013 C 
ATOM     10  C3' I4B d   1       4.048  -3.794   1.368  0.00  0.00     0.013 C 
ENDBRANCH   7   8
ENDBRANCH   1   7
TORSDOF 2
ENDMDL
