MODEL 1
REMARK minimizedAffinity 11.1811733
REMARK minimizedRMSD -1
REMARK  2 active torsions:
REMARK  status: ('A' for Active; 'I' for Inactive)
REMARK    1  A    between atoms: C2'_3  and  C1'_4 
REMARK    2  A    between atoms: C1'_4  and  C1_5 
ROOT
ATOM      1  C1  I4B d   1       4.483   3.583  -5.756  0.00  0.00    -0.075 A 
ATOM      2  C2  I4B d   1       5.128   4.770  -5.997  0.00  0.00     0.003 A 
ATOM      3  C3  I4B d   1       4.451   6.000  -5.809  0.00  0.00     0.002 A 
ATOM      4  C4  I4B d   1       3.124   5.994  -5.430  0.00  0.00    -0.004 A 
ATOM      5  C5  I4B d   1       2.479   4.789  -5.163  0.00  0.00     0.002 A 
ATOM      6  C6  I4B d   1       3.166   3.576  -5.315  0.00  0.00     0.003 A 
ENDROOT
BRANCH   1   7
ATOM      7  C1' I4B d   1       5.218   2.302  -5.996  0.00  0.00     0.060 C 
BRANCH   7   8
ATOM      8  C2' I4B d   1       4.794   1.313  -4.930  0.00  0.00    -0.013 C 
ATOM      9  C4' I4B d   1       5.185   1.792  -3.556  0.00  0.00     0.013 C 
ATOM     10  C3' I4B d   1       3.310   1.126  -5.036  0.00  0.00     0.013 C 
ENDBRANCH   7   8
ENDBRANCH   1   7
TORSDOF 2
ENDMDL
