MODEL 1
REMARK minimizedAffinity 16.139307
REMARK minimizedRMSD -1
REMARK  2 active torsions:
REMARK  status: ('A' for Active; 'I' for Inactive)
REMARK    1  A    between atoms: C2'_3  and  C1'_4 
REMARK    2  A    between atoms: C1'_4  and  C1_5 
ROOT
ATOM      1  C1  I4B d   1       4.061   3.593  -5.435  0.00  0.00    -0.075 A 
ATOM      2  C2  I4B d   1       4.446   4.879  -5.722  0.00  0.00     0.003 A 
ATOM      3  C3  I4B d   1       3.491   5.925  -5.727  0.00  0.00     0.002 A 
ATOM      4  C4  I4B d   1       2.163   5.634  -5.491  0.00  0.00    -0.004 A 
ATOM      5  C5  I4B d   1       1.778   4.333  -5.178  0.00  0.00     0.002 A 
ATOM      6  C6  I4B d   1       2.734   3.308  -5.138  0.00  0.00     0.003 A 
ENDROOT
BRANCH   1   7
ATOM      7  C1' I4B d   1       5.089   2.507  -5.471  0.00  0.00     0.060 C 
BRANCH   7   8
ATOM      8  C2' I4B d   1       4.739   1.497  -4.398  0.00  0.00    -0.013 C 
ATOM      9  C4' I4B d   1       3.668   0.549  -4.870  0.00  0.00     0.013 C 
ATOM     10  C3' I4B d   1       5.991   0.759  -4.030  0.00  0.00     0.013 C 
ENDBRANCH   7   8
ENDBRANCH   1   7
TORSDOF 2
ENDMDL
