MODEL 1
REMARK minimizedAffinity 12.760931
REMARK minimizedRMSD -1
REMARK  2 active torsions:
REMARK  status: ('A' for Active; 'I' for Inactive)
REMARK    1  A    between atoms: C2'_3  and  C1'_4 
REMARK    2  A    between atoms: C1'_4  and  C1_5 
ROOT
ATOM      1  C1  I4B d   1       5.217   3.548  -5.672  0.00  0.00    -0.075 A 
ATOM      2  C2  I4B d   1       3.907   3.585  -5.263  0.00  0.00     0.003 A 
ATOM      3  C3  I4B d   1       3.230   4.824  -5.155  0.00  0.00     0.002 A 
ATOM      4  C4  I4B d   1       3.911   5.996  -5.414  0.00  0.00    -0.004 A 
ATOM      5  C5  I4B d   1       5.232   5.954  -5.850  0.00  0.00     0.002 A 
ATOM      6  C6  I4B d   1       5.886   4.722  -5.992  0.00  0.00     0.003 A 
ENDROOT
BRANCH   1   7
ATOM      7  C1' I4B d   1       5.912   2.225  -5.743  0.00  0.00     0.060 C 
BRANCH   7   8
ATOM      8  C2' I4B d   1       5.349   1.342  -4.648  0.00  0.00    -0.013 C 
ATOM      9  C4' I4B d   1       5.513   1.982  -3.294  0.00  0.00     0.013 C 
ATOM     10  C3' I4B d   1       3.904   1.087  -4.955  0.00  0.00     0.013 C 
ENDBRANCH   7   8
ENDBRANCH   1   7
TORSDOF 2
ENDMDL
