MODEL 1
REMARK minimizedAffinity 15.519392
REMARK minimizedRMSD -1
REMARK  2 active torsions:
REMARK  status: ('A' for Active; 'I' for Inactive)
REMARK    1  A    between atoms: C2'_3  and  C1'_4 
REMARK    2  A    between atoms: C1'_4  and  C1_5 
ROOT
ATOM      1  C1  I4B d   1       4.810   3.865  -5.554  0.00  0.00    -0.075 A 
ATOM      2  C2  I4B d   1       5.916   3.098  -5.825  0.00  0.00     0.003 A 
ATOM      3  C3  I4B d   1       5.966   1.746  -5.407  0.00  0.00     0.002 A 
ATOM      4  C4  I4B d   1       4.917   1.220  -4.682  0.00  0.00    -0.004 A 
ATOM      5  C5  I4B d   1       3.787   1.991  -4.429  0.00  0.00     0.002 A 
ATOM      6  C6  I4B d   1       3.727   3.319  -4.878  0.00  0.00     0.003 A 
ENDROOT
BRANCH   1   7
ATOM      7  C1' I4B d   1       4.805   5.298  -5.982  0.00  0.00     0.060 C 
BRANCH   7   8
ATOM      8  C2' I4B d   1       3.677   5.998  -5.252  0.00  0.00    -0.013 C 
ATOM      9  C4' I4B d   1       2.375   5.855  -5.995  0.00  0.00     0.013 C 
ATOM     10  C3' I4B d   1       3.581   5.411  -3.875  0.00  0.00     0.013 C 
ENDBRANCH   7   8
ENDBRANCH   1   7
TORSDOF 2
ENDMDL
