MODEL 1
REMARK minimizedAffinity 5.65896797
REMARK minimizedRMSD -1
REMARK  2 active torsions:
REMARK  status: ('A' for Active; 'I' for Inactive)
REMARK    1  A    between atoms: C2'_3  and  C1'_4 
REMARK    2  A    between atoms: C1'_4  and  C1_5 
ROOT
ATOM      1  C1  I4B d   1       0.391  -0.845   2.592  0.00  0.00    -0.075 A 
ATOM      2  C2  I4B d   1       1.536  -0.117   2.802  0.00  0.00     0.003 A 
ATOM      3  C3  I4B d   1       1.475   1.128   3.474  0.00  0.00     0.002 A 
ATOM      4  C4  I4B d   1       0.252   1.627   3.872  0.00  0.00    -0.004 A 
ATOM      5  C5  I4B d   1      -0.905   0.878   3.678  0.00  0.00     0.002 A 
ATOM      6  C6  I4B d   1      -0.834  -0.372   3.046  0.00  0.00     0.003 A 
ENDROOT
BRANCH   1   7
ATOM      7  C1' I4B d   1       0.486  -2.140   1.850  0.00  0.00     0.060 C 
BRANCH   7   8
ATOM      8  C2' I4B d   1       1.795  -2.146   1.087  0.00  0.00    -0.013 C 
ATOM      9  C4' I4B d   1       2.216  -3.548   0.736  0.00  0.00     0.013 C 
ATOM     10  C3' I4B d   1       1.617  -1.309  -0.144  0.00  0.00     0.013 C 
ENDBRANCH   7   8
ENDBRANCH   1   7
TORSDOF 2
ENDMDL
