MODEL 1
REMARK minimizedAffinity 1.35846806
REMARK minimizedRMSD -1
REMARK  0 active torsions:
REMARK  status: ('A' for Active; 'I' for Inactive)
ROOT
ATOM      1  C1  DEN d   1      -5.526   1.982   5.759  0.00  0.00     0.130 A 
ATOM      2  C2  DEN d   1      -5.636   3.418   6.000  0.00  0.00    -0.031 A 
ATOM      3  C3  DEN d   1      -5.840   4.085   4.698  0.00  0.00     0.027 A 
ATOM      4  C4  DEN d   1      -6.000   3.037   2.346  0.00  0.00     0.027 A 
ATOM      5  C5  DEN d   1      -5.954   1.857   1.638  0.00  0.00    -0.003 A 
ATOM      6  C6  DEN d   1      -5.730   0.650   2.244  0.00  0.00     0.001 A 
ATOM      7  C7  DEN d   1      -5.589   0.589   3.605  0.00  0.00     0.017 A 
ATOM      8  C8  DEN d   1      -5.626   1.776   4.326  0.00  0.00    -0.094 A 
ATOM      9  C9  DEN d   1      -5.866   2.985   3.696  0.00  0.00    -0.072 A 
ENDROOT
TORSDOF 0
ENDMDL
