MODEL 1
REMARK minimizedAffinity 9.47530651
REMARK minimizedRMSD -1
REMARK  0 active torsions:
REMARK  status: ('A' for Active; 'I' for Inactive)
ROOT
ATOM      1  C1  DEN d   1      -4.398   2.233   5.427  0.00  0.00     0.130 A 
ATOM      2  C2  DEN d   1      -5.219   3.298   5.996  0.00  0.00    -0.031 A 
ATOM      3  C3  DEN d   1      -5.985   3.920   4.898  0.00  0.00     0.027 A 
ATOM      4  C4  DEN d   1      -5.985   3.338   2.386  0.00  0.00     0.027 A 
ATOM      5  C5  DEN d   1      -5.441   2.515   1.424  0.00  0.00    -0.003 A 
ATOM      6  C6  DEN d   1      -4.494   1.571   1.722  0.00  0.00     0.001 A 
ATOM      7  C7  DEN d   1      -4.094   1.396   3.021  0.00  0.00     0.017 A 
ATOM      8  C8  DEN d   1      -4.633   2.227   3.994  0.00  0.00    -0.094 A 
ATOM      9  C9  DEN d   1      -5.598   3.167   3.675  0.00  0.00    -0.072 A 
ENDROOT
TORSDOF 0
ENDMDL
