MODEL 1
REMARK minimizedAffinity 6.64008665
REMARK minimizedRMSD -1
REMARK  0 active torsions:
REMARK  status: ('A' for Active; 'I' for Inactive)
ROOT
ATOM      1  C1  DEN d   1       1.374   0.743  -0.312  0.00  0.00     0.130 A 
ATOM      2  C2  DEN d   1       2.287   1.883  -0.321  0.00  0.00    -0.031 A 
ATOM      3  C3  DEN d   1       3.198   1.747   0.833  0.00  0.00     0.027 A 
ATOM      4  C4  DEN d   1       3.288  -0.112   2.620  0.00  0.00     0.027 A 
ATOM      5  C5  DEN d   1       2.706  -1.284   3.050  0.00  0.00    -0.003 A 
ATOM      6  C6  DEN d   1       1.627  -1.840   2.416  0.00  0.00     0.001 A 
ATOM      7  C7  DEN d   1       1.124  -1.248   1.287  0.00  0.00     0.017 A 
ATOM      8  C8  DEN d   1       1.700  -0.062   0.851  0.00  0.00    -0.094 A 
ATOM      9  C9  DEN d   1       2.798   0.478   1.500  0.00  0.00    -0.072 A 
ENDROOT
TORSDOF 0
ENDMDL
