MODEL 1
REMARK minimizedAffinity 4.03938913
REMARK minimizedRMSD -1
REMARK  0 active torsions:
REMARK  status: ('A' for Active; 'I' for Inactive)
ROOT
ATOM      1  C1  DEN d   1       0.525   0.665   2.617  0.00  0.00     0.130 A 
ATOM      2  C2  DEN d   1       0.408   1.804   3.523  0.00  0.00    -0.031 A 
ATOM      3  C3  DEN d   1      -0.931   2.400   3.336  0.00  0.00     0.027 A 
ATOM      4  C4  DEN d   1      -2.824   1.670   1.743  0.00  0.00     0.027 A 
ATOM      5  C5  DEN d   1      -3.186   0.764   0.771  0.00  0.00    -0.003 A 
ATOM      6  C6  DEN d   1      -2.331  -0.209   0.326  0.00  0.00     0.001 A 
ATOM      7  C7  DEN d   1      -1.087  -0.328   0.885  0.00  0.00     0.017 A 
ATOM      8  C8  DEN d   1      -0.712   0.587   1.860  0.00  0.00    -0.094 A 
ATOM      9  C9  DEN d   1      -1.594   1.556   2.306  0.00  0.00    -0.072 A 
ENDROOT
TORSDOF 0
ENDMDL
