MODEL 1
REMARK minimizedAffinity 12.2155342
REMARK minimizedRMSD -1
REMARK  0 active torsions:
REMARK  status: ('A' for Active; 'I' for Inactive)
ROOT
ATOM      1  C1  DEN d   1      -0.406  -0.807   1.133  0.00  0.00     0.130 A 
ATOM      2  C2  DEN d   1       1.044  -0.718   0.983  0.00  0.00    -0.031 A 
ATOM      3  C3  DEN d   1       1.481   0.581   1.532  0.00  0.00     0.027 A 
ATOM      4  C4  DEN d   1       0.061   2.452   2.598  0.00  0.00     0.027 A 
ATOM      5  C5  DEN d   1      -1.218   2.837   2.934  0.00  0.00    -0.003 A 
ATOM      6  C6  DEN d   1      -2.310   2.056   2.666  0.00  0.00     0.001 A 
ATOM      7  C7  DEN d   1      -2.140   0.828   2.083  0.00  0.00     0.017 A 
ATOM      8  C8  DEN d   1      -0.854   0.436   1.734  0.00  0.00    -0.094 A 
ATOM      9  C9  DEN d   1       0.239   1.235   2.025  0.00  0.00    -0.072 A 
ENDROOT
TORSDOF 0
ENDMDL
