MODEL 1
REMARK minimizedAffinity 4.14572954
REMARK minimizedRMSD -1
REMARK  0 active torsions:
REMARK  status: ('A' for Active; 'I' for Inactive)
ROOT
ATOM      1  C1  DEN d   1      -0.343   0.656   2.496  0.00  0.00     0.130 A 
ATOM      2  C2  DEN d   1       0.184  -0.128   1.382  0.00  0.00    -0.031 A 
ATOM      3  C3  DEN d   1      -0.891  -0.279   0.381  0.00  0.00     0.027 A 
ATOM      4  C4  DEN d   1      -3.306   0.622   0.445  0.00  0.00     0.027 A 
ATOM      5  C5  DEN d   1      -4.219   1.334   1.191  0.00  0.00    -0.003 A 
ATOM      6  C6  DEN d   1      -3.917   1.836   2.429  0.00  0.00     0.001 A 
ATOM      7  C7  DEN d   1      -2.657   1.672   2.939  0.00  0.00     0.017 A 
ATOM      8  C8  DEN d   1      -1.733   0.950   2.196  0.00  0.00    -0.094 A 
ATOM      9  C9  DEN d   1      -2.054   0.461   0.941  0.00  0.00    -0.072 A 
ENDROOT
TORSDOF 0
ENDMDL
