MODEL 1
REMARK minimizedAffinity 8.0950737
REMARK minimizedRMSD -1
REMARK  0 active torsions:
REMARK  status: ('A' for Active; 'I' for Inactive)
ROOT
ATOM      1  C1  DEN d   1       0.477   1.215   2.469  0.00  0.00     0.130 A 
ATOM      2  C2  DEN d   1       1.328   0.197   1.859  0.00  0.00    -0.031 A 
ATOM      3  C3  DEN d   1       0.489  -0.619   0.958  0.00  0.00     0.027 A 
ATOM      4  C4  DEN d   1      -2.030  -0.405   0.450  0.00  0.00     0.027 A 
ATOM      5  C5  DEN d   1      -3.177   0.301   0.738  0.00  0.00    -0.003 A 
ATOM      6  C6  DEN d   1      -3.194   1.330   1.642  0.00  0.00     0.001 A 
ATOM      7  C7  DEN d   1      -2.031   1.713   2.256  0.00  0.00     0.017 A 
ATOM      8  C8  DEN d   1      -0.872   1.001   1.976  0.00  0.00    -0.094 A 
ATOM      9  C9  DEN d   1      -0.873  -0.028   1.051  0.00  0.00    -0.072 A 
ENDROOT
TORSDOF 0
ENDMDL
