MODEL 1
REMARK minimizedAffinity 5.72035885
REMARK minimizedRMSD -1
REMARK  0 active torsions:
REMARK  status: ('A' for Active; 'I' for Inactive)
ROOT
ATOM      1  C1  DEN d   1      -1.084  -0.650   0.411  0.00  0.00     0.130 A 
ATOM      2  C2  DEN d   1      -2.036  -1.437  -0.367  0.00  0.00    -0.031 A 
ATOM      3  C3  DEN d   1      -3.385  -0.880  -0.138  0.00  0.00     0.027 A 
ATOM      4  C4  DEN d   1      -4.086   1.116   1.337  0.00  0.00     0.027 A 
ATOM      5  C5  DEN d   1      -3.631   2.089   2.199  0.00  0.00    -0.003 A 
ATOM      6  C6  DEN d   1      -2.311   2.195   2.550  0.00  0.00     0.001 A 
ATOM      7  C7  DEN d   1      -1.392   1.341   2.000  0.00  0.00     0.017 A 
ATOM      8  C8  DEN d   1      -1.844   0.353   1.136  0.00  0.00    -0.094 A 
ATOM      9  C9  DEN d   1      -3.181   0.270   0.784  0.00  0.00    -0.072 A 
ENDROOT
TORSDOF 0
ENDMDL
