MODEL 1
REMARK minimizedAffinity 7.02294874
REMARK minimizedRMSD -1
REMARK  0 active torsions:
REMARK  status: ('A' for Active; 'I' for Inactive)
ROOT
ATOM      1  C1  DEN d   1      -2.649   0.701   0.486  0.00  0.00     0.130 A 
ATOM      2  C2  DEN d   1      -3.475   1.367   1.489  0.00  0.00    -0.031 A 
ATOM      3  C3  DEN d   1      -2.592   1.805   2.589  0.00  0.00     0.027 A 
ATOM      4  C4  DEN d   1      -0.039   1.523   2.831  0.00  0.00     0.027 A 
ATOM      5  C5  DEN d   1       1.095   1.012   2.239  0.00  0.00    -0.003 A 
ATOM      6  C6  DEN d   1       1.056   0.338   1.047  0.00  0.00     0.001 A 
ATOM      7  C7  DEN d   1      -0.136   0.195   0.387  0.00  0.00     0.017 A 
ATOM      8  C8  DEN d   1      -1.284   0.701   0.981  0.00  0.00    -0.094 A 
ATOM      9  C9  DEN d   1      -1.223   1.390   2.180  0.00  0.00    -0.072 A 
ENDROOT
TORSDOF 0
ENDMDL
