MODEL 1
REMARK minimizedAffinity 9.09405327
REMARK minimizedRMSD -1
REMARK  0 active torsions:
REMARK  status: ('A' for Active; 'I' for Inactive)
ROOT
ATOM      1  C1  DEN d   1      -0.019  -0.287   0.832  0.00  0.00     0.130 A 
ATOM      2  C2  DEN d   1      -1.241  -0.605   0.099  0.00  0.00    -0.031 A 
ATOM      3  C3  DEN d   1      -2.316   0.275   0.600  0.00  0.00     0.027 A 
ATOM      4  C4  DEN d   1      -2.206   2.092   2.427  0.00  0.00     0.027 A 
ATOM      5  C5  DEN d   1      -1.387   2.716   3.342  0.00  0.00    -0.003 A 
ATOM      6  C6  DEN d   1      -0.074   2.363   3.506  0.00  0.00     0.001 A 
ATOM      7  C7  DEN d   1       0.471   1.388   2.713  0.00  0.00     0.017 A 
ATOM      8  C8  DEN d   1      -0.351   0.749   1.794  0.00  0.00    -0.094 A 
ATOM      9  C9  DEN d   1      -1.672   1.129   1.634  0.00  0.00    -0.072 A 
ENDROOT
TORSDOF 0
ENDMDL
