MODEL 1
REMARK minimizedAffinity 4.65969229
REMARK minimizedRMSD -1
REMARK  0 active torsions:
REMARK  status: ('A' for Active; 'I' for Inactive)
ROOT
ATOM      1  C1  DEN d   1      -0.610  -0.096   0.794  0.00  0.00     0.130 A 
ATOM      2  C2  DEN d   1      -2.025   0.001   0.449  0.00  0.00    -0.031 A 
ATOM      3  C3  DEN d   1      -2.624   1.072   1.271  0.00  0.00     0.027 A 
ATOM      4  C4  DEN d   1      -1.501   2.585   3.032  0.00  0.00     0.027 A 
ATOM      5  C5  DEN d   1      -0.318   2.868   3.679  0.00  0.00    -0.003 A 
ATOM      6  C6  DEN d   1       0.833   2.167   3.435  0.00  0.00     0.001 A 
ATOM      7  C7  DEN d   1       0.837   1.176   2.489  0.00  0.00     0.017 A 
ATOM      8  C8  DEN d   1      -0.354   0.880   1.839  0.00  0.00    -0.094 A 
ATOM      9  C9  DEN d   1      -1.504   1.608   2.090  0.00  0.00    -0.072 A 
ENDROOT
TORSDOF 0
ENDMDL
