MODEL 1
REMARK minimizedAffinity 3.27217817
REMARK minimizedRMSD -1
REMARK  0 active torsions:
REMARK  status: ('A' for Active; 'I' for Inactive)
ROOT
ATOM      1  C1  DEN d   1       0.700   1.441   2.295  0.00  0.00     0.130 A 
ATOM      2  C2  DEN d   1       0.510   2.434   3.348  0.00  0.00    -0.031 A 
ATOM      3  C3  DEN d   1      -0.942   2.610   3.554  0.00  0.00     0.027 A 
ATOM      4  C4  DEN d   1      -2.903   1.443   2.353  0.00  0.00     0.027 A 
ATOM      5  C5  DEN d   1      -3.239   0.531   1.377  0.00  0.00    -0.003 A 
ATOM      6  C6  DEN d   1      -2.294  -0.111   0.621  0.00  0.00     0.001 A 
ATOM      7  C7  DEN d   1      -0.965   0.116   0.861  0.00  0.00     0.017 A 
ATOM      8  C8  DEN d   1      -0.619   1.040   1.838  0.00  0.00    -0.094 A 
ATOM      9  C9  DEN d   1      -1.588   1.670   2.599  0.00  0.00    -0.072 A 
ENDROOT
TORSDOF 0
ENDMDL
