MODEL 1
REMARK minimizedAffinity 4.62504387
REMARK minimizedRMSD -1
REMARK  0 active torsions:
REMARK  status: ('A' for Active; 'I' for Inactive)
ROOT
ATOM      1  C1  DEN d   1      -0.510   0.074   0.599  0.00  0.00     0.130 A 
ATOM      2  C2  DEN d   1      -1.951  -0.106   0.450  0.00  0.00    -0.031 A 
ATOM      3  C3  DEN d   1      -2.622   0.710   1.482  0.00  0.00     0.027 A 
ATOM      4  C4  DEN d   1      -1.574   2.231   3.282  0.00  0.00     0.027 A 
ATOM      5  C5  DEN d   1      -0.389   2.695   3.808  0.00  0.00    -0.003 A 
ATOM      6  C6  DEN d   1       0.830   2.295   3.328  0.00  0.00     0.001 A 
ATOM      7  C7  DEN d   1       0.890   1.439   2.260  0.00  0.00     0.017 A 
ATOM      8  C8  DEN d   1      -0.300   0.961   1.729  0.00  0.00    -0.094 A 
ATOM      9  C9  DEN d   1      -1.522   1.387   2.221  0.00  0.00    -0.072 A 
ENDROOT
TORSDOF 0
ENDMDL
