MODEL 1
REMARK minimizedAffinity 5.83647776
REMARK minimizedRMSD -1
REMARK  0 active torsions:
REMARK  status: ('A' for Active; 'I' for Inactive)
ROOT
ATOM      1  C1  DEN d   1       0.222  -0.010   0.734  0.00  0.00     0.130 A 
ATOM      2  C2  DEN d   1      -1.137  -0.311   0.292  0.00  0.00    -0.031 A 
ATOM      3  C3  DEN d   1      -2.069   0.503   1.098  0.00  0.00     0.027 A 
ATOM      4  C4  DEN d   1      -1.543   2.193   2.974  0.00  0.00     0.027 A 
ATOM      5  C5  DEN d   1      -0.534   2.776   3.709  0.00  0.00    -0.003 A 
ATOM      6  C6  DEN d   1       0.783   2.449   3.529  0.00  0.00     0.001 A 
ATOM      7  C7  DEN d   1       1.132   1.546   2.560  0.00  0.00     0.017 A 
ATOM      8  C8  DEN d   1       0.120   0.949   1.819  0.00  0.00    -0.094 A 
ATOM      9  C9  DEN d   1      -1.205   1.302   2.008  0.00  0.00    -0.072 A 
ENDROOT
TORSDOF 0
ENDMDL
