MODEL 1
REMARK minimizedAffinity 9.55086994
REMARK minimizedRMSD -1
REMARK  0 active torsions:
REMARK  status: ('A' for Active; 'I' for Inactive)
ROOT
ATOM      1  C1  DEN d   1       0.606   1.859   3.782  0.00  0.00     0.130 A 
ATOM      2  C2  DEN d   1      -0.319   2.909   4.201  0.00  0.00    -0.031 A 
ATOM      3  C3  DEN d   1      -1.498   2.859   3.313  0.00  0.00     0.027 A 
ATOM      4  C4  DEN d   1      -1.981   1.264   1.345  0.00  0.00     0.027 A 
ATOM      5  C5  DEN d   1      -1.486   0.214   0.604  0.00  0.00    -0.003 A 
ATOM      6  C6  DEN d   1      -0.254  -0.335   0.846  0.00  0.00     0.001 A 
ATOM      7  C7  DEN d   1       0.505   0.135   1.885  0.00  0.00     0.017 A 
ATOM      8  C8  DEN d   1       0.016   1.198   2.632  0.00  0.00    -0.094 A 
ATOM      9  C9  DEN d   1      -1.236   1.731   2.379  0.00  0.00    -0.072 A 
ENDROOT
TORSDOF 0
ENDMDL
