MODEL 1
REMARK minimizedAffinity 2.29033661
REMARK minimizedRMSD -1
REMARK  0 active torsions:
REMARK  status: ('A' for Active; 'I' for Inactive)
ROOT
ATOM      1  N1  IND d   1      -4.090  -2.538  -3.964  0.00  0.00    -0.196 N 
ATOM      2  C2  IND d   1      -5.077  -1.667  -4.333  0.00  0.00     0.054 A 
ATOM      3  C3  IND d   1      -5.946  -2.270  -5.174  0.00  0.00    -0.031 A 
ATOM      4  C4  IND d   1      -5.999  -4.708  -6.000  0.00  0.00     0.051 A 
ATOM      5  C5  IND d   1      -5.286  -5.874  -5.964  0.00  0.00    -0.031 A 
ATOM      6  C6  IND d   1      -4.115  -5.990  -5.243  0.00  0.00     0.015 A 
ATOM      7  C7  IND d   1      -3.618  -4.943  -4.518  0.00  0.00    -0.016 A 
ATOM      8  C8  IND d   1      -4.336  -3.756  -4.558  0.00  0.00    -0.047 A 
ATOM      9  C9  IND d   1      -5.502  -3.620  -5.322  0.00  0.00    -0.096 A 
ATOM     10  HN1 IND d   1      -3.427  -2.355  -3.449  0.00  0.00     0.298 HD
ENDROOT
TORSDOF 0
ENDMDL
