MODEL 1
REMARK minimizedAffinity 11.280364
REMARK minimizedRMSD -1
REMARK  0 active torsions:
REMARK  status: ('A' for Active; 'I' for Inactive)
ROOT
ATOM      1  N1  IND d   1      -5.940  -2.288  -5.148  0.00  0.00    -0.196 N 
ATOM      2  C2  IND d   1      -5.142  -1.629  -4.254  0.00  0.00     0.054 A 
ATOM      3  C3  IND d   1      -4.218  -2.471  -3.740  0.00  0.00    -0.031 A 
ATOM      4  C4  IND d   1      -3.767  -4.943  -4.298  0.00  0.00     0.051 A 
ATOM      5  C5  IND d   1      -4.258  -5.990  -5.027  0.00  0.00    -0.031 A 
ATOM      6  C6  IND d   1      -5.355  -5.852  -5.853  0.00  0.00     0.015 A 
ATOM      7  C7  IND d   1      -5.998  -4.655  -5.989  0.00  0.00    -0.016 A 
ATOM      8  C8  IND d   1      -5.507  -3.592  -5.245  0.00  0.00    -0.047 A 
ATOM      9  C9  IND d   1      -4.420  -3.736  -4.373  0.00  0.00    -0.096 A 
ATOM     10  HN1 IND d   1      -6.601  -1.945  -5.578  0.00  0.00     0.298 HD
ENDROOT
TORSDOF 0
ENDMDL
