MODEL 1
REMARK minimizedAffinity 13.3124771
REMARK minimizedRMSD -1
REMARK  0 active torsions:
REMARK  status: ('A' for Active; 'I' for Inactive)
ROOT
ATOM      1  N1  IND d   1      -6.000   4.108  -2.710  0.00  0.00    -0.196 N 
ATOM      2  C2  IND d   1      -6.000   4.548  -1.416  0.00  0.00     0.054 A 
ATOM      3  C3  IND d   1      -5.071   3.884  -0.693  0.00  0.00    -0.031 A 
ATOM      4  C4  IND d   1      -3.370   2.107  -1.453  0.00  0.00     0.051 A 
ATOM      5  C5  IND d   1      -3.010   1.354  -2.535  0.00  0.00    -0.031 A 
ATOM      6  C6  IND d   1      -3.639   1.485  -3.756  0.00  0.00     0.015 A 
ATOM      7  C7  IND d   1      -4.649   2.386  -3.944  0.00  0.00    -0.016 A 
ATOM      8  C8  IND d   1      -5.022   3.148  -2.846  0.00  0.00    -0.047 A 
ATOM      9  C9  IND d   1      -4.416   2.989  -1.593  0.00  0.00    -0.096 A 
ATOM     10  HN1 IND d   1      -6.523   4.384  -3.334  0.00  0.00     0.298 HD
ENDROOT
TORSDOF 0
ENDMDL
