MODEL 1
REMARK minimizedAffinity 16.3073025
REMARK minimizedRMSD -1
REMARK  0 active torsions:
REMARK  status: ('A' for Active; 'I' for Inactive)
ROOT
ATOM      1  N1  IND d   1       0.626  -1.003   2.705  0.00  0.00    -0.196 N 
ATOM      2  C2  IND d   1       0.969  -2.231   2.213  0.00  0.00     0.054 A 
ATOM      3  C3  IND d   1       1.979  -2.115   1.322  0.00  0.00    -0.031 A 
ATOM      4  C4  IND d   1       3.287  -0.020   0.595  0.00  0.00     0.051 A 
ATOM      5  C5  IND d   1       3.314   1.338   0.744  0.00  0.00    -0.031 A 
ATOM      6  C6  IND d   1       2.430   1.999   1.572  0.00  0.00     0.015 A 
ATOM      7  C7  IND d   1       1.489   1.321   2.295  0.00  0.00    -0.016 A 
ATOM      8  C8  IND d   1       1.455  -0.057   2.142  0.00  0.00    -0.047 A 
ATOM      9  C9  IND d   1       2.321  -0.729   1.270  0.00  0.00    -0.096 A 
ATOM     10  HN1 IND d   1      -0.002  -0.847   3.271  0.00  0.00     0.298 HD
ENDROOT
TORSDOF 0
ENDMDL
