MODEL 1
REMARK minimizedAffinity 13.057209
REMARK minimizedRMSD -1
REMARK  0 active torsions:
REMARK  status: ('A' for Active; 'I' for Inactive)
ROOT
ATOM      1  N1  IND d   1      -2.234   2.454   1.066  0.00  0.00    -0.196 N 
ATOM      2  C2  IND d   1      -1.520   1.367   1.488  0.00  0.00     0.054 A 
ATOM      3  C3  IND d   1      -1.463   0.434   0.511  0.00  0.00    -0.031 A 
ATOM      4  C4  IND d   1      -2.381   0.524  -1.892  0.00  0.00     0.051 A 
ATOM      5  C5  IND d   1      -3.137   1.297  -2.729  0.00  0.00    -0.031 A 
ATOM      6  C6  IND d   1      -3.639   2.521  -2.336  0.00  0.00     0.015 A 
ATOM      7  C7  IND d   1      -3.392   3.025  -1.090  0.00  0.00    -0.016 A 
ATOM      8  C8  IND d   1      -2.631   2.240  -0.236  0.00  0.00    -0.047 A 
ATOM      9  C9  IND d   1      -2.155   0.978  -0.615  0.00  0.00    -0.096 A 
ATOM     10  HN1 IND d   1      -2.406   3.154   1.535  0.00  0.00     0.298 HD
ENDROOT
TORSDOF 0
ENDMDL
