MODEL 1
REMARK minimizedAffinity 11.1804209
REMARK minimizedRMSD -1
REMARK  0 active torsions:
REMARK  status: ('A' for Active; 'I' for Inactive)
ROOT
ATOM      1  N1  IND d   1      -3.873  -2.558  -4.020  0.00  0.00    -0.196 N 
ATOM      2  C2  IND d   1      -4.875  -1.687  -4.346  0.00  0.00     0.054 A 
ATOM      3  C3  IND d   1      -5.773  -2.286  -5.159  0.00  0.00    -0.031 A 
ATOM      4  C4  IND d   1      -5.851  -4.718  -6.000  0.00  0.00     0.051 A 
ATOM      5  C5  IND d   1      -5.134  -5.882  -5.998  0.00  0.00    -0.031 A 
ATOM      6  C6  IND d   1      -3.938  -6.000  -5.322  0.00  0.00     0.015 A 
ATOM      7  C7  IND d   1      -3.416  -4.958  -4.609  0.00  0.00    -0.016 A 
ATOM      8  C8  IND d   1      -4.138  -3.772  -4.614  0.00  0.00    -0.047 A 
ATOM      9  C9  IND d   1      -5.332  -3.633  -5.333  0.00  0.00    -0.096 A 
ATOM     10  HN1 IND d   1      -3.192  -2.377  -3.528  0.00  0.00     0.298 HD
ENDROOT
TORSDOF 0
ENDMDL
