MODEL 1
REMARK minimizedAffinity 8.9985714
REMARK minimizedRMSD -1
REMARK  0 active torsions:
REMARK  status: ('A' for Active; 'I' for Inactive)
ROOT
ATOM      1  N1  IND d   1      -1.377  -1.448   2.144  0.00  0.00    -0.196 N 
ATOM      2  C2  IND d   1      -0.903  -0.205   1.830  0.00  0.00     0.054 A 
ATOM      3  C3  IND d   1       0.433  -0.248   1.630  0.00  0.00    -0.031 A 
ATOM      4  C4  IND d   1       2.028  -2.268   1.668  0.00  0.00     0.051 A 
ATOM      5  C5  IND d   1       2.066  -3.606   1.944  0.00  0.00    -0.031 A 
ATOM      6  C6  IND d   1       0.934  -4.308   2.305  0.00  0.00     0.015 A 
ATOM      7  C7  IND d   1      -0.285  -3.697   2.394  0.00  0.00    -0.016 A 
ATOM      8  C8  IND d   1      -0.325  -2.337   2.121  0.00  0.00    -0.047 A 
ATOM      9  C9  IND d   1       0.827  -1.611   1.795  0.00  0.00    -0.096 A 
ATOM     10  HN1 IND d   1      -2.195  -1.642   2.326  0.00  0.00     0.298 HD
ENDROOT
TORSDOF 0
ENDMDL
