MODEL 1
REMARK minimizedAffinity 3.19076538
REMARK minimizedRMSD -1
REMARK  0 active torsions:
REMARK  status: ('A' for Active; 'I' for Inactive)
ROOT
ATOM      1  N1  IND d   1       1.948  -2.621   4.817  0.00  0.00    -0.196 N 
ATOM      2  C2  IND d   1       1.591  -2.566   3.498  0.00  0.00     0.054 A 
ATOM      3  C3  IND d   1       2.691  -2.555   2.713  0.00  0.00    -0.031 A 
ATOM      4  C4  IND d   1       5.173  -2.723   3.373  0.00  0.00     0.051 A 
ATOM      5  C5  IND d   1       5.999  -2.755   4.462  0.00  0.00    -0.031 A 
ATOM      6  C6  IND d   1       5.506  -2.747   5.751  0.00  0.00     0.015 A 
ATOM      7  C7  IND d   1       4.163  -2.717   6.000  0.00  0.00    -0.016 A 
ATOM      8  C8  IND d   1       3.322  -2.678   4.896  0.00  0.00    -0.047 A 
ATOM      9  C9  IND d   1       3.818  -2.643   3.587  0.00  0.00    -0.096 A 
ATOM     10  HN1 IND d   1       1.406  -2.620   5.484  0.00  0.00     0.298 HD
ENDROOT
TORSDOF 0
ENDMDL
