MODEL 1
REMARK minimizedAffinity 4.79938793
REMARK minimizedRMSD -1
REMARK  0 active torsions:
REMARK  status: ('A' for Active; 'I' for Inactive)
ROOT
ATOM      1  C   UNL d   1       0.042   1.349   2.395  0.00  0.00     0.124 A 
ATOM      2  C1  UNL d   1       1.355   1.498   2.821  0.00  0.00     0.062 A 
ATOM      3  C2  UNL d   1       2.383   1.617   1.891  0.00  0.00     0.162 A 
ATOM      4  C3  UNL d   1       2.104   1.588   0.525  0.00  0.00    -0.034 A 
ATOM      5  C4  UNL d   1       0.781   1.438   0.104  0.00  0.00     0.162 A 
ATOM      6  C5  UNL d   1      -0.243   1.319   1.037  0.00  0.00     0.062 A 
ATOM      7  F   UNL d   1      -1.511   1.176   0.624  0.00  0.00    -0.097 F 
ATOM      8  F1  UNL d   1       0.477   1.406  -1.202  0.00  0.00    -0.096 F 
ATOM      9  I   UNL d   1       3.639   1.765  -0.869  0.00  0.00    -0.060 I 
ATOM     10  F2  UNL d   1       3.642   1.759   2.332  0.00  0.00    -0.096 F 
ATOM     11  F3  UNL d   1       1.633   1.527   4.133  0.00  0.00    -0.097 F 
ATOM     12  F4  UNL d   1      -0.946   1.235   3.292  0.00  0.00    -0.092 F 
ENDROOT
TORSDOF 0
ENDMDL
