MODEL 1
REMARK minimizedAffinity 4.38006067
REMARK minimizedRMSD -1
REMARK  0 active torsions:
REMARK  status: ('A' for Active; 'I' for Inactive)
ROOT
ATOM      1  C   UNL d   1       0.230  -1.568  -0.783  0.00  0.00     0.124 A 
ATOM      2  C1  UNL d   1      -0.142  -0.237  -0.912  0.00  0.00     0.062 A 
ATOM      3  C2  UNL d   1       0.815   0.769  -0.811  0.00  0.00     0.162 A 
ATOM      4  C3  UNL d   1       2.152   0.448  -0.580  0.00  0.00    -0.034 A 
ATOM      5  C4  UNL d   1       2.518  -0.893  -0.451  0.00  0.00     0.162 A 
ATOM      6  C5  UNL d   1       1.558  -1.895  -0.553  0.00  0.00     0.062 A 
ATOM      7  F   UNL d   1       1.919  -3.181  -0.428  0.00  0.00    -0.097 F 
ATOM      8  F1  UNL d   1       3.795  -1.237  -0.229  0.00  0.00    -0.096 F 
ATOM      9  I   UNL d   1       3.585   1.950  -0.428  0.00  0.00    -0.060 I 
ATOM     10  F2  UNL d   1       0.428   2.047  -0.939  0.00  0.00    -0.096 F 
ATOM     11  F3  UNL d   1      -1.425   0.081  -1.134  0.00  0.00    -0.097 F 
ATOM     12  F4  UNL d   1      -0.693  -2.535  -0.880  0.00  0.00    -0.092 F 
ENDROOT
TORSDOF 0
ENDMDL
