MODEL 1
REMARK minimizedAffinity -0.342448294
REMARK minimizedRMSD -1
REMARK  0 active torsions:
REMARK  status: ('A' for Active; 'I' for Inactive)
ROOT
ATOM      1  C   UNL d   1       0.776  -1.332  -0.392  0.00  0.00     0.124 A 
ATOM      2  C1  UNL d   1       0.378  -0.002  -0.420  0.00  0.00     0.062 A 
ATOM      3  C2  UNL d   1       1.329   1.014  -0.410  0.00  0.00     0.162 A 
ATOM      4  C3  UNL d   1       2.689   0.704  -0.372  0.00  0.00    -0.034 A 
ATOM      5  C4  UNL d   1       3.081  -0.635  -0.343  0.00  0.00     0.162 A 
ATOM      6  C5  UNL d   1       2.127  -1.647  -0.354  0.00  0.00     0.062 A 
ATOM      7  F   UNL d   1       2.514  -2.930  -0.327  0.00  0.00    -0.097 F 
ATOM      8  F1  UNL d   1       4.380  -0.967  -0.307  0.00  0.00    -0.096 F 
ATOM      9  I   UNL d   1       4.114   2.221  -0.356  0.00  0.00    -0.060 I 
ATOM     10  F2  UNL d   1       0.915   2.289  -0.437  0.00  0.00    -0.096 F 
ATOM     11  F3  UNL d   1      -0.927   0.304  -0.456  0.00  0.00    -0.097 F 
ATOM     12  F4  UNL d   1      -0.141  -2.307  -0.402  0.00  0.00    -0.092 F 
ENDROOT
TORSDOF 0
ENDMDL
