MODEL 1
REMARK minimizedAffinity 8.29507828
REMARK minimizedRMSD -1
REMARK  0 active torsions:
REMARK  status: ('A' for Active; 'I' for Inactive)
ROOT
ATOM      1  C   UNL d   1       4.064   0.128  -1.881  0.00  0.00     0.124 A 
ATOM      2  C1  UNL d   1       3.196   0.838  -1.063  0.00  0.00     0.062 A 
ATOM      3  C2  UNL d   1       1.999   0.262  -0.646  0.00  0.00     0.162 A 
ATOM      4  C3  UNL d   1       1.664  -1.031  -1.045  0.00  0.00    -0.034 A 
ATOM      5  C4  UNL d   1       2.541  -1.739  -1.869  0.00  0.00     0.162 A 
ATOM      6  C5  UNL d   1       3.736  -1.159  -2.283  0.00  0.00     0.062 A 
ATOM      7  F   UNL d   1       4.573  -1.846  -3.074  0.00  0.00    -0.097 F 
ATOM      8  F1  UNL d   1       2.250  -2.984  -2.272  0.00  0.00    -0.096 F 
ATOM      9  I   UNL d   1      -0.125  -1.895  -0.424  0.00  0.00    -0.060 I 
ATOM     10  F2  UNL d   1       1.180   0.971   0.144  0.00  0.00    -0.096 F 
ATOM     11  F3  UNL d   1       3.510   2.082  -0.674  0.00  0.00    -0.097 F 
ATOM     12  F4  UNL d   1       5.214   0.685  -2.282  0.00  0.00    -0.092 F 
ENDROOT
TORSDOF 0
ENDMDL
