MODEL 1
REMARK minimizedAffinity 11.3482609
REMARK minimizedRMSD -1
REMARK  0 active torsions:
REMARK  status: ('A' for Active; 'I' for Inactive)
ROOT
ATOM      1  C   UNL d   1       0.437  -1.155  -0.493  0.00  0.00     0.124 A 
ATOM      2  C1  UNL d   1       1.443  -1.941  -1.037  0.00  0.00     0.062 A 
ATOM      3  C2  UNL d   1       2.676  -1.379  -1.354  0.00  0.00     0.162 A 
ATOM      4  C3  UNL d   1       2.911  -0.023  -1.128  0.00  0.00    -0.034 A 
ATOM      5  C4  UNL d   1       1.893   0.762  -0.582  0.00  0.00     0.162 A 
ATOM      6  C5  UNL d   1       0.663   0.195  -0.267  0.00  0.00     0.062 A 
ATOM      7  F   UNL d   1      -0.309   0.956   0.259  0.00  0.00    -0.097 F 
ATOM      8  F1  UNL d   1       2.085   2.069  -0.352  0.00  0.00    -0.096 F 
ATOM      9  I   UNL d   1       4.753   0.822  -1.602  0.00  0.00    -0.060 I 
ATOM     10  F2  UNL d   1       3.631  -2.163  -1.879  0.00  0.00    -0.096 F 
ATOM     11  F3  UNL d   1       1.227  -3.246  -1.257  0.00  0.00    -0.097 F 
ATOM     12  F4  UNL d   1      -0.749  -1.698  -0.189  0.00  0.00    -0.092 F 
ENDROOT
TORSDOF 0
ENDMDL
