MODEL 1
REMARK minimizedAffinity 2.85684657
REMARK minimizedRMSD -1
REMARK  0 active torsions:
REMARK  status: ('A' for Active; 'I' for Inactive)
ROOT
ATOM      1  C   UNL d   1      -0.088  -1.533  -1.008  0.00  0.00     0.124 A 
ATOM      2  C1  UNL d   1       1.222  -1.877  -0.703  0.00  0.00     0.062 A 
ATOM      3  C2  UNL d   1       2.160  -0.886  -0.430  0.00  0.00     0.162 A 
ATOM      4  C3  UNL d   1       1.793   0.459  -0.461  0.00  0.00    -0.034 A 
ATOM      5  C4  UNL d   1       0.474   0.797  -0.770  0.00  0.00     0.162 A 
ATOM      6  C5  UNL d   1      -0.460  -0.197  -1.042  0.00  0.00     0.062 A 
ATOM      7  F   UNL d   1      -1.725   0.137  -1.337  0.00  0.00    -0.097 F 
ATOM      8  F1  UNL d   1       0.087   2.081  -0.809  0.00  0.00    -0.096 F 
ATOM      9  I   UNL d   1       3.193   1.944  -0.054  0.00  0.00    -0.060 I 
ATOM     10  F2  UNL d   1       3.418  -1.247  -0.137  0.00  0.00    -0.096 F 
ATOM     11  F3  UNL d   1       1.584  -3.168  -0.670  0.00  0.00    -0.097 F 
ATOM     12  F4  UNL d   1      -0.989  -2.489  -1.271  0.00  0.00    -0.092 F 
ENDROOT
TORSDOF 0
ENDMDL
