MODEL 1
REMARK minimizedAffinity 8.6624403
REMARK minimizedRMSD -1
REMARK  0 active torsions:
REMARK  status: ('A' for Active; 'I' for Inactive)
ROOT
ATOM      1  C   UNL d   1      -2.233  -3.042   2.491  0.00  0.00     0.172 C 
ATOM      2  N   UNL d   1      -1.097  -2.158   2.603  0.00  0.00    -0.070 N 
ATOM      3  C1  UNL d   1       0.010  -2.174   1.797  0.00  0.00    -0.004 A 
ATOM      4  C2  UNL d   1       0.860  -1.178   2.227  0.00  0.00    -0.047 A 
ATOM      5  C3  UNL d   1       0.244  -0.542   3.330  0.00  0.00    -0.047 A 
ATOM      6  C4  UNL d   1      -0.966  -1.168   3.542  0.00  0.00    -0.004 A 
ENDROOT
TORSDOF 0
ENDMDL
