MODEL 1
REMARK minimizedAffinity 2.98782301
REMARK minimizedRMSD -1
REMARK  0 active torsions:
REMARK  status: ('A' for Active; 'I' for Inactive)
ROOT
ATOM      1  C   UNL d   1      -1.732  -3.438   3.377  0.00  0.00     0.172 C 
ATOM      2  N   UNL d   1      -0.763  -2.369   3.320  0.00  0.00    -0.070 N 
ATOM      3  C1  UNL d   1      -0.719  -1.286   4.157  0.00  0.00    -0.004 A 
ATOM      4  C2  UNL d   1       0.348  -0.502   3.776  0.00  0.00    -0.047 A 
ATOM      5  C3  UNL d   1       0.966  -1.135   2.671  0.00  0.00    -0.047 A 
ATOM      6  C4  UNL d   1       0.258  -2.289   2.410  0.00  0.00    -0.004 A 
ENDROOT
TORSDOF 0
ENDMDL
