MODEL 1
REMARK minimizedAffinity 6.97117281
REMARK minimizedRMSD -1
REMARK  0 active torsions:
REMARK  status: ('A' for Active; 'I' for Inactive)
ROOT
ATOM      1  C   UNL d   1      -2.002   4.140  -4.963  0.00  0.00     0.172 C 
ATOM      2  N   UNL d   1      -2.029   3.405  -3.721  0.00  0.00    -0.070 N 
ATOM      3  C1  UNL d   1      -3.155   2.974  -3.072  0.00  0.00    -0.004 A 
ATOM      4  C2  UNL d   1      -2.757   2.315  -1.929  0.00  0.00    -0.047 A 
ATOM      5  C3  UNL d   1      -1.343   2.352  -1.889  0.00  0.00    -0.047 A 
ATOM      6  C4  UNL d   1      -0.918   3.032  -3.011  0.00  0.00    -0.004 A 
ENDROOT
TORSDOF 0
ENDMDL
