MODEL 1
REMARK minimizedAffinity 3.77547598
REMARK minimizedRMSD -1
REMARK  0 active torsions:
REMARK  status: ('A' for Active; 'I' for Inactive)
ROOT
ATOM      1  C   UNL d   1      -0.329  -0.317   4.251  0.00  0.00     0.172 C 
ATOM      2  N   UNL d   1      -0.284  -1.464   3.375  0.00  0.00    -0.070 N 
ATOM      3  C1  UNL d   1       0.625  -1.667   2.371  0.00  0.00    -0.004 A 
ATOM      4  C2  UNL d   1       0.331  -2.873   1.773  0.00  0.00    -0.047 A 
ATOM      5  C3  UNL d   1      -0.795  -3.413   2.439  0.00  0.00    -0.047 A 
ATOM      6  C4  UNL d   1      -1.155  -2.520   3.427  0.00  0.00    -0.004 A 
ENDROOT
TORSDOF 0
ENDMDL
