MODEL 1
REMARK minimizedAffinity 5.41162443
REMARK minimizedRMSD -1
REMARK  0 active torsions:
REMARK  status: ('A' for Active; 'I' for Inactive)
ROOT
ATOM      1  C   UNL d   1       1.497  -4.546  -2.007  0.00  0.00     0.172 C 
ATOM      2  N   UNL d   1       1.209  -4.952  -3.362  0.00  0.00    -0.070 N 
ATOM      3  C1  UNL d   1       0.303  -5.910  -3.733  0.00  0.00    -0.004 A 
ATOM      4  C2  UNL d   1       0.324  -6.000  -5.108  0.00  0.00    -0.047 A 
ATOM      5  C3  UNL d   1       1.276  -5.065  -5.580  0.00  0.00    -0.047 A 
ATOM      6  C4  UNL d   1       1.808  -4.430  -4.478  0.00  0.00    -0.004 A 
ENDROOT
TORSDOF 0
ENDMDL
