MODEL 1
REMARK minimizedAffinity 2.42950654
REMARK minimizedRMSD -1
REMARK  0 active torsions:
REMARK  status: ('A' for Active; 'I' for Inactive)
ROOT
ATOM      1  C   UNL d   1      -0.989   3.108  -3.660  0.00  0.00     0.172 C 
ATOM      2  N   UNL d   1      -0.238   2.963  -2.436  0.00  0.00    -0.070 N 
ATOM      3  C1  UNL d   1       0.710   3.836  -1.973  0.00  0.00    -0.004 A 
ATOM      4  C2  UNL d   1       1.191   3.343  -0.779  0.00  0.00    -0.047 A 
ATOM      5  C3  UNL d   1       0.509   2.131  -0.516  0.00  0.00    -0.047 A 
ATOM      6  C4  UNL d   1      -0.370   1.920  -1.558  0.00  0.00    -0.004 A 
ENDROOT
TORSDOF 0
ENDMDL
