MODEL 1
REMARK minimizedAffinity 8.09061718
REMARK minimizedRMSD -1
REMARK  0 active torsions:
REMARK  status: ('A' for Active; 'I' for Inactive)
ROOT
ATOM      1  C   UNL d   1      -0.353  -0.687   4.972  0.00  0.00     0.172 C 
ATOM      2  N   UNL d   1       0.475  -1.149   3.883  0.00  0.00    -0.070 N 
ATOM      3  C1  UNL d   1       1.368  -0.386   3.180  0.00  0.00    -0.004 A 
ATOM      4  C2  UNL d   1       1.956  -1.193   2.229  0.00  0.00    -0.047 A 
ATOM      5  C3  UNL d   1       1.396  -2.485   2.365  0.00  0.00    -0.047 A 
ATOM      6  C4  UNL d   1       0.482  -2.430   3.396  0.00  0.00    -0.004 A 
ENDROOT
TORSDOF 0
ENDMDL
