MODEL 1
REMARK minimizedAffinity 5.37944031
REMARK minimizedRMSD -1
REMARK  0 active torsions:
REMARK  status: ('A' for Active; 'I' for Inactive)
ROOT
ATOM      1  C   UNL d   1       4.402  -0.376  -1.031  0.00  0.00     0.172 C 
ATOM      2  N   UNL d   1       4.732   0.377  -2.218  0.00  0.00    -0.070 N 
ATOM      3  C1  UNL d   1       3.836   0.831  -3.149  0.00  0.00    -0.004 A 
ATOM      4  C2  UNL d   1       4.545   1.501  -4.124  0.00  0.00    -0.047 A 
ATOM      5  C3  UNL d   1       5.913   1.445  -3.767  0.00  0.00    -0.047 A 
ATOM      6  C4  UNL d   1       6.000   0.744  -2.583  0.00  0.00    -0.004 A 
ENDROOT
TORSDOF 0
ENDMDL
