MODEL 1
REMARK minimizedAffinity 6.27054882
REMARK minimizedRMSD -1
REMARK  0 active torsions:
REMARK  status: ('A' for Active; 'I' for Inactive)
ROOT
ATOM      1  C   UNL d   1      -4.475  -5.068  -0.332  0.00  0.00     0.172 C 
ATOM      2  N   UNL d   1      -4.226  -4.278   0.852  0.00  0.00    -0.070 N 
ATOM      3  C1  UNL d   1      -5.148  -3.503   1.503  0.00  0.00    -0.004 A 
ATOM      4  C2  UNL d   1      -4.521  -2.915   2.579  0.00  0.00    -0.047 A 
ATOM      5  C3  UNL d   1      -3.174  -3.351   2.575  0.00  0.00    -0.047 A 
ATOM      6  C4  UNL d   1      -3.020  -4.194   1.494  0.00  0.00    -0.004 A 
ENDROOT
TORSDOF 0
ENDMDL
