MODEL 1
REMARK minimizedAffinity 3.64226842
REMARK minimizedRMSD -1
REMARK  0 active torsions:
REMARK  status: ('A' for Active; 'I' for Inactive)
ROOT
ATOM      1  C   UNL d   1      -1.271  -3.578   3.361  0.00  0.00     0.172 C 
ATOM      2  N   UNL d   1      -1.159  -2.482   4.295  0.00  0.00    -0.070 N 
ATOM      3  C1  UNL d   1      -1.988  -2.253   5.360  0.00  0.00    -0.004 A 
ATOM      4  C2  UNL d   1      -1.548  -1.114   6.000  0.00  0.00    -0.047 A 
ATOM      5  C3  UNL d   1      -0.415  -0.643   5.294  0.00  0.00    -0.047 A 
ATOM      6  C4  UNL d   1      -0.197  -1.508   4.243  0.00  0.00    -0.004 A 
ENDROOT
TORSDOF 0
ENDMDL
