MODEL 1
REMARK minimizedAffinity 0.836820364
REMARK minimizedRMSD -1
REMARK  0 active torsions:
REMARK  status: ('A' for Active; 'I' for Inactive)
ROOT
ATOM      1  C   UNL d   1       3.459  -3.763  -5.964  0.00  0.00     0.172 C 
ATOM      2  N   UNL d   1       2.466  -4.606  -5.341  0.00  0.00    -0.070 N 
ATOM      3  C1  UNL d   1       1.509  -5.332  -5.999  0.00  0.00    -0.004 A 
ATOM      4  C2  UNL d   1       0.761  -5.999  -5.053  0.00  0.00    -0.047 A 
ATOM      5  C3  UNL d   1       1.286  -5.662  -3.783  0.00  0.00    -0.047 A 
ATOM      6  C4  UNL d   1       2.340  -4.798  -3.991  0.00  0.00    -0.004 A 
ENDROOT
TORSDOF 0
ENDMDL
