MODEL 1
REMARK minimizedAffinity 1.19579887
REMARK minimizedRMSD -1
REMARK  0 active torsions:
REMARK  status: ('A' for Active; 'I' for Inactive)
ROOT
ATOM      1  C   UNL d   1      -1.307  -3.029   2.815  0.00  0.00     0.172 C 
ATOM      2  N   UNL d   1      -0.946  -1.973   3.732  0.00  0.00    -0.070 N 
ATOM      3  C1  UNL d   1      -0.047  -0.971   3.482  0.00  0.00    -0.004 A 
ATOM      4  C2  UNL d   1       0.015  -0.170   4.601  0.00  0.00    -0.047 A 
ATOM      5  C3  UNL d   1      -0.878  -0.709   5.558  0.00  0.00    -0.047 A 
ATOM      6  C4  UNL d   1      -1.459  -1.825   4.994  0.00  0.00    -0.004 A 
ENDROOT
TORSDOF 0
ENDMDL
