MODEL 1
REMARK minimizedAffinity 4.89602518
REMARK minimizedRMSD -1
REMARK  0 active torsions:
REMARK  status: ('A' for Active; 'I' for Inactive)
ROOT
ATOM      1  C   UNL d   1      -1.594   2.952  -2.912  0.00  0.00     0.172 C 
ATOM      2  N   UNL d   1      -2.899   2.891  -2.295  0.00  0.00    -0.070 N 
ATOM      3  C1  UNL d   1      -3.841   1.922  -2.515  0.00  0.00    -0.004 A 
ATOM      4  C2  UNL d   1      -4.942   2.221  -1.742  0.00  0.00    -0.047 A 
ATOM      5  C3  UNL d   1      -4.652   3.412  -1.034  0.00  0.00    -0.047 A 
ATOM      6  C4  UNL d   1      -3.381   3.805  -1.396  0.00  0.00    -0.004 A 
ENDROOT
TORSDOF 0
ENDMDL
