MODEL 1
REMARK minimizedAffinity 3.5935154
REMARK minimizedRMSD -1
REMARK  0 active torsions:
REMARK  status: ('A' for Active; 'I' for Inactive)
ROOT
ATOM      1  C   UNL d   1      -1.629   4.164  -3.165  0.00  0.00     0.172 C 
ATOM      2  N   UNL d   1      -0.806   3.448  -2.219  0.00  0.00    -0.070 N 
ATOM      3  C1  UNL d   1       0.514   3.702  -1.957  0.00  0.00    -0.004 A 
ATOM      4  C2  UNL d   1       0.934   2.805  -0.999  0.00  0.00    -0.047 A 
ATOM      5  C3  UNL d   1      -0.171   1.983  -0.675  0.00  0.00    -0.047 A 
ATOM      6  C4  UNL d   1      -1.235   2.403  -1.445  0.00  0.00    -0.004 A 
ENDROOT
TORSDOF 0
ENDMDL
