MODEL 1
REMARK minimizedAffinity 1.73051965
REMARK minimizedRMSD -1
REMARK  0 active torsions:
REMARK  status: ('A' for Active; 'I' for Inactive)
ROOT
ATOM      1  C   UNL d   1       0.735   5.475  -0.236  0.00  0.00     0.172 C 
ATOM      2  N   UNL d   1       0.480   4.160  -0.775  0.00  0.00    -0.070 N 
ATOM      3  C1  UNL d   1       0.741   2.973  -0.144  0.00  0.00    -0.004 A 
ATOM      4  C2  UNL d   1       0.356   1.953  -0.986  0.00  0.00    -0.047 A 
ATOM      5  C3  UNL d   1      -0.153   2.547  -2.165  0.00  0.00    -0.047 A 
ATOM      6  C4  UNL d   1      -0.065   3.914  -2.008  0.00  0.00    -0.004 A 
ENDROOT
TORSDOF 0
ENDMDL
