MODEL 1
REMARK minimizedAffinity 2.57231188
REMARK minimizedRMSD -1
REMARK  0 active torsions:
REMARK  status: ('A' for Active; 'I' for Inactive)
ROOT
ATOM      1  C   UNL d   1       5.943  -5.306  -5.999  0.00  0.00     0.172 C 
ATOM      2  N   UNL d   1       5.503  -4.060  -5.416  0.00  0.00    -0.070 N 
ATOM      3  C1  UNL d   1       5.999  -3.496  -4.271  0.00  0.00    -0.004 A 
ATOM      4  C2  UNL d   1       5.321  -2.317  -4.053  0.00  0.00    -0.047 A 
ATOM      5  C3  UNL d   1       4.383  -2.167  -5.103  0.00  0.00    -0.047 A 
ATOM      6  C4  UNL d   1       4.518  -3.261  -5.932  0.00  0.00    -0.004 A 
ENDROOT
TORSDOF 0
ENDMDL
