MODEL 1
REMARK minimizedAffinity 17.3490257
REMARK minimizedRMSD -1
REMARK  0 active torsions:
REMARK  status: ('A' for Active; 'I' for Inactive)
ROOT
ATOM      1  C   UNL d   1       0.751   1.482   0.486  0.00  0.00     0.172 C 
ATOM      2  N   UNL d   1       1.070   0.185   1.035  0.00  0.00    -0.070 N 
ATOM      3  C1  UNL d   1       2.310  -0.225   1.446  0.00  0.00    -0.004 A 
ATOM      4  C2  UNL d   1       2.197  -1.519   1.904  0.00  0.00    -0.047 A 
ATOM      5  C3  UNL d   1       0.841  -1.901   1.764  0.00  0.00    -0.047 A 
ATOM      6  C4  UNL d   1       0.166  -0.827   1.223  0.00  0.00    -0.004 A 
ENDROOT
TORSDOF 0
ENDMDL
