MODEL 1
REMARK minimizedAffinity 3.52342749
REMARK minimizedRMSD -1
REMARK  0 active torsions:
REMARK  status: ('A' for Active; 'I' for Inactive)
ROOT
ATOM      1  C   UNL d   1       2.582   0.059   1.163  0.00  0.00    -0.002 A 
ATOM      2  C1  UNL d   1       3.284  -0.223  -0.001  0.00  0.00     0.010 A 
ATOM      3  C2  UNL d   1       2.613  -0.655  -1.147  0.00  0.00     0.041 A 
ATOM      4  C3  UNL d   1       1.212  -0.797  -1.104  0.00  0.00    -0.075 A 
ATOM      5  S   UNL d   1       0.180  -1.310  -2.386  0.00  0.00     0.015 SA
ATOM      6  C4  UNL d   1      -1.216  -1.165  -1.420  0.00  0.00     0.022 A 
ATOM      7  C5  UNL d   1      -0.921  -0.737  -0.147  0.00  0.00     0.026 A 
ATOM      8  C6  UNL d   1       0.484  -0.517   0.055  0.00  0.00    -0.082 A 
ATOM      9  C7  UNL d   1       1.193  -0.083   1.201  0.00  0.00     0.045 A 
ENDROOT
TORSDOF 0
ENDMDL
