MODEL 1
REMARK minimizedAffinity -2.82114267
REMARK minimizedRMSD -1
REMARK  0 active torsions:
REMARK  status: ('A' for Active; 'I' for Inactive)
ROOT
ATOM      1  C   UNL d   1      -4.875   1.689  -1.813  0.00  0.00    -0.002 A 
ATOM      2  C1  UNL d   1      -5.985   2.056  -1.066  0.00  0.00     0.010 A 
ATOM      3  C2  UNL d   1      -6.000   3.261  -0.360  0.00  0.00     0.041 A 
ATOM      4  C3  UNL d   1      -4.870   4.100  -0.421  0.00  0.00    -0.075 A 
ATOM      5  S   UNL d   1      -4.663   5.623   0.360  0.00  0.00     0.015 SA
ATOM      6  C4  UNL d   1      -3.097   5.823  -0.281  0.00  0.00     0.022 A 
ATOM      7  C5  UNL d   1      -2.725   4.764  -1.074  0.00  0.00     0.026 A 
ATOM      8  C6  UNL d   1      -3.741   3.753  -1.168  0.00  0.00    -0.082 A 
ATOM      9  C7  UNL d   1      -3.756   2.524  -1.871  0.00  0.00     0.045 A 
ENDROOT
TORSDOF 0
ENDMDL
