MODEL 1
REMARK minimizedAffinity 3.01537347
REMARK minimizedRMSD -1
REMARK  0 active torsions:
REMARK  status: ('A' for Active; 'I' for Inactive)
ROOT
ATOM      1  C   UNL d   1      -2.239  -0.621   4.358  0.00  0.00    -0.002 A 
ATOM      2  C1  UNL d   1      -2.293   0.756   4.523  0.00  0.00     0.010 A 
ATOM      3  C2  UNL d   1      -2.322   1.603   3.414  0.00  0.00     0.041 A 
ATOM      4  C3  UNL d   1      -2.297   1.038   2.124  0.00  0.00    -0.075 A 
ATOM      5  S   UNL d   1      -2.326   1.881   0.620  0.00  0.00     0.015 SA
ATOM      6  C4  UNL d   1      -2.268   0.433  -0.277  0.00  0.00     0.022 A 
ATOM      7  C5  UNL d   1      -2.228  -0.676   0.535  0.00  0.00     0.026 A 
ATOM      8  C6  UNL d   1      -2.244  -0.345   1.932  0.00  0.00    -0.082 A 
ATOM      9  C7  UNL d   1      -2.215  -1.178   3.077  0.00  0.00     0.045 A 
ENDROOT
TORSDOF 0
ENDMDL
