MODEL 1
REMARK minimizedAffinity 9.23754692
REMARK minimizedRMSD -1
REMARK  0 active torsions:
REMARK  status: ('A' for Active; 'I' for Inactive)
ROOT
ATOM      1  C   UNL d   1      -3.462   0.398  -0.589  0.00  0.00    -0.002 A 
ATOM      2  C1  UNL d   1      -3.327  -0.959  -0.334  0.00  0.00     0.010 A 
ATOM      3  C2  UNL d   1      -2.656  -1.403   0.807  0.00  0.00     0.041 A 
ATOM      4  C3  UNL d   1      -2.121  -0.452   1.697  0.00  0.00    -0.075 A 
ATOM      5  S   UNL d   1      -1.261  -0.764   3.158  0.00  0.00     0.015 SA
ATOM      6  C4  UNL d   1      -1.053   0.897   3.479  0.00  0.00     0.022 A 
ATOM      7  C5  UNL d   1      -1.620   1.685   2.505  0.00  0.00     0.026 A 
ATOM      8  C6  UNL d   1      -2.245   0.920   1.462  0.00  0.00    -0.082 A 
ATOM      9  C7  UNL d   1      -2.929   1.339   0.296  0.00  0.00     0.045 A 
ENDROOT
TORSDOF 0
ENDMDL
