MODEL 1
REMARK minimizedAffinity 3.36145973
REMARK minimizedRMSD -1
REMARK  0 active torsions:
REMARK  status: ('A' for Active; 'I' for Inactive)
ROOT
ATOM      1  C   UNL d   1      -1.971   0.456   2.207  0.00  0.00    -0.002 A 
ATOM      2  C1  UNL d   1      -2.309  -0.188   1.024  0.00  0.00     0.010 A 
ATOM      3  C2  UNL d   1      -1.331  -0.829   0.261  0.00  0.00     0.041 A 
ATOM      4  C3  UNL d   1       0.004  -0.813   0.710  0.00  0.00    -0.075 A 
ATOM      5  S   UNL d   1       1.369  -1.532  -0.060  0.00  0.00     0.015 SA
ATOM      6  C4  UNL d   1       2.431  -1.002   1.163  0.00  0.00     0.022 A 
ATOM      7  C5  UNL d   1       1.778  -0.293   2.142  0.00  0.00     0.026 A 
ATOM      8  C6  UNL d   1       0.368  -0.172   1.898  0.00  0.00    -0.082 A 
ATOM      9  C7  UNL d   1      -0.646   0.469   2.649  0.00  0.00     0.045 A 
ENDROOT
TORSDOF 0
ENDMDL
