MODEL 1
REMARK minimizedAffinity 12.3752794
REMARK minimizedRMSD -1
REMARK  0 active torsions:
REMARK  status: ('A' for Active; 'I' for Inactive)
ROOT
ATOM      1  C   UNL d   1      -1.449  -0.157   1.767  0.00  0.00    -0.002 A 
ATOM      2  C1  UNL d   1      -1.447   1.168   2.178  0.00  0.00     0.010 A 
ATOM      3  C2  UNL d   1      -2.390   2.068   1.679  0.00  0.00     0.041 A 
ATOM      4  C3  UNL d   1      -3.346   1.609   0.751  0.00  0.00    -0.075 A 
ATOM      5  S   UNL d   1      -4.598   2.531   0.006  0.00  0.00     0.015 SA
ATOM      6  C4  UNL d   1      -5.165   1.188  -0.875  0.00  0.00     0.022 A 
ATOM      7  C5  UNL d   1      -4.429   0.055  -0.620  0.00  0.00     0.026 A 
ATOM      8  C6  UNL d   1      -3.369   0.279   0.323  0.00  0.00    -0.082 A 
ATOM      9  C7  UNL d   1      -2.399  -0.609   0.847  0.00  0.00     0.045 A 
ENDROOT
TORSDOF 0
ENDMDL
