MODEL 1
REMARK minimizedAffinity 5.20251942
REMARK minimizedRMSD -1
REMARK  0 active torsions:
REMARK  status: ('A' for Active; 'I' for Inactive)
ROOT
ATOM      1  C   UNL d   1      -0.710  -5.216  -5.531  0.00  0.00    -0.002 A 
ATOM      2  C1  UNL d   1      -1.834  -5.215  -4.716  0.00  0.00     0.010 A 
ATOM      3  C2  UNL d   1      -2.171  -4.083  -3.972  0.00  0.00     0.041 A 
ATOM      4  C3  UNL d   1      -1.353  -2.939  -4.063  0.00  0.00    -0.075 A 
ATOM      5  S   UNL d   1      -1.571  -1.438  -3.245  0.00  0.00     0.015 SA
ATOM      6  C4  UNL d   1      -0.179  -0.761  -3.958  0.00  0.00     0.022 A 
ATOM      7  C5  UNL d   1       0.449  -1.646  -4.803  0.00  0.00     0.026 A 
ATOM      8  C6  UNL d   1      -0.217  -2.915  -4.878  0.00  0.00    -0.082 A 
ATOM      9  C7  UNL d   1       0.098  -4.080  -5.619  0.00  0.00     0.045 A 
ENDROOT
TORSDOF 0
ENDMDL
