MODEL 1
REMARK minimizedAffinity 14.5068016
REMARK minimizedRMSD -1
REMARK  0 active torsions:
REMARK  status: ('A' for Active; 'I' for Inactive)
ROOT
ATOM      1  C   UNL d   1      -4.140  -1.133   3.688  0.00  0.00    -0.002 A 
ATOM      2  C1  UNL d   1      -3.083  -1.991   3.417  0.00  0.00     0.010 A 
ATOM      3  C2  UNL d   1      -1.966  -1.540   2.712  0.00  0.00     0.041 A 
ATOM      4  C3  UNL d   1      -1.926  -0.199   2.282  0.00  0.00    -0.075 A 
ATOM      5  S   UNL d   1      -0.659   0.574   1.404  0.00  0.00     0.015 SA
ATOM      6  C4  UNL d   1      -1.490   2.061   1.369  0.00  0.00     0.022 A 
ATOM      7  C5  UNL d   1      -2.705   1.988   2.007  0.00  0.00     0.026 A 
ATOM      8  C6  UNL d   1      -2.977   0.684   2.544  0.00  0.00    -0.082 A 
ATOM      9  C7  UNL d   1      -4.096   0.197   3.260  0.00  0.00     0.045 A 
ENDROOT
TORSDOF 0
ENDMDL
