MODEL 1
REMARK minimizedAffinity 5.57541227
REMARK minimizedRMSD -1
REMARK  0 active torsions:
REMARK  status: ('A' for Active; 'I' for Inactive)
ROOT
ATOM      1  C   UNL d   1      -1.651  -4.373  -4.964  0.00  0.00    -0.002 A 
ATOM      2  C1  UNL d   1      -0.345  -4.797  -5.166  0.00  0.00     0.010 A 
ATOM      3  C2  UNL d   1       0.685  -3.868  -5.332  0.00  0.00     0.041 A 
ATOM      4  C3  UNL d   1       0.377  -2.494  -5.291  0.00  0.00    -0.075 A 
ATOM      5  S   UNL d   1       1.475  -1.177  -5.469  0.00  0.00     0.015 SA
ATOM      6  C4  UNL d   1       0.237  -0.022  -5.281  0.00  0.00     0.022 A 
ATOM      7  C5  UNL d   1      -0.991  -0.609  -5.087  0.00  0.00     0.026 A 
ATOM      8  C6  UNL d   1      -0.930  -2.044  -5.088  0.00  0.00    -0.082 A 
ATOM      9  C7  UNL d   1      -1.952  -3.009  -4.924  0.00  0.00     0.045 A 
ENDROOT
TORSDOF 0
ENDMDL
