MODEL 1
REMARK minimizedAffinity 6.58951569
REMARK minimizedRMSD -1
REMARK  0 active torsions:
REMARK  status: ('A' for Active; 'I' for Inactive)
ROOT
ATOM      1  C   UNL d   1      -1.438  -5.149  -5.453  0.00  0.00    -0.002 A 
ATOM      2  C1  UNL d   1      -0.080  -5.003  -5.205  0.00  0.00     0.010 A 
ATOM      3  C2  UNL d   1       0.367  -4.219  -4.140  0.00  0.00     0.041 A 
ATOM      4  C3  UNL d   1      -0.582  -3.578  -3.319  0.00  0.00    -0.075 A 
ATOM      5  S   UNL d   1      -0.266  -2.569  -1.958  0.00  0.00     0.015 SA
ATOM      6  C4  UNL d   1      -1.926  -2.308  -1.672  0.00  0.00     0.022 A 
ATOM      7  C5  UNL d   1      -2.716  -2.968  -2.584  0.00  0.00     0.026 A 
ATOM      8  C6  UNL d   1      -1.954  -3.711  -3.548  0.00  0.00    -0.082 A 
ATOM      9  C7  UNL d   1      -2.376  -4.512  -4.636  0.00  0.00     0.045 A 
ENDROOT
TORSDOF 0
ENDMDL
