MODEL 1
REMARK minimizedAffinity -1.36747706
REMARK minimizedRMSD -1
REMARK  0 active torsions:
REMARK  status: ('A' for Active; 'I' for Inactive)
ROOT
ATOM      1  C   UNL d   1      -3.547   0.935   0.218  0.00  0.00    -0.002 A 
ATOM      2  C1  UNL d   1      -3.026  -0.035  -0.627  0.00  0.00     0.010 A 
ATOM      3  C2  UNL d   1      -1.839  -0.695  -0.303  0.00  0.00     0.041 A 
ATOM      4  C3  UNL d   1      -1.180  -0.362   0.897  0.00  0.00    -0.075 A 
ATOM      5  S   UNL d   1       0.286  -1.040   1.500  0.00  0.00     0.015 SA
ATOM      6  C4  UNL d   1       0.254  -0.059   2.894  0.00  0.00     0.022 A 
ATOM      7  C5  UNL d   1      -0.841   0.771   2.914  0.00  0.00     0.026 A 
ATOM      8  C6  UNL d   1      -1.686   0.610   1.764  0.00  0.00    -0.082 A 
ATOM      9  C7  UNL d   1      -2.891   1.262   1.407  0.00  0.00     0.045 A 
ENDROOT
TORSDOF 0
ENDMDL
