MODEL 1
REMARK minimizedAffinity -5.79440832
REMARK minimizedRMSD -1
REMARK  2 active torsions:
REMARK  status: ('A' for Active; 'I' for Inactive)
REMARK    1  A    between atoms: C1_2  and  C2_3 
REMARK    2  A    between atoms: C2_3  and  C3_4 
ROOT
ATOM      1  C3  UNL d   1      -1.263   1.730   0.114  0.00  0.00    -0.075 A 
ATOM      2  C4  UNL d   1      -0.657   0.728  -0.658  0.00  0.00     0.002 A 
ATOM      3  C5  UNL d   1      -0.072  -0.381  -0.046  0.00  0.00     0.002 A 
ATOM      4  C6  UNL d   1      -0.077  -0.497   1.343  0.00  0.00    -0.004 A 
ATOM      5  C7  UNL d   1      -0.661   0.500   2.120  0.00  0.00     0.002 A 
ATOM      6  C8  UNL d   1      -1.251   1.609   1.510  0.00  0.00     0.002 A 
ENDROOT
BRANCH   1   7
ATOM      7  C2  UNL d   1      -1.923   2.919  -0.543  0.00  0.00     0.056 C 
BRANCH   7   8
ATOM      8  C1  UNL d   1      -0.985   3.741  -1.432  0.00  0.00     0.007 C 
ATOM      9  C   UNL d   1       0.284   4.186  -0.716  0.00  0.00     0.009 C 
ENDBRANCH   7   8
ENDBRANCH   1   7
TORSDOF 2
ENDMDL
