MODEL 1
REMARK minimizedAffinity -5.3922019
REMARK minimizedRMSD -1
REMARK  2 active torsions:
REMARK  status: ('A' for Active; 'I' for Inactive)
REMARK    1  A    between atoms: C1_2  and  C2_3 
REMARK    2  A    between atoms: C2_3  and  C3_4 
ROOT
ATOM      1  C3  UNL d   1      -0.416   0.305   0.689  0.00  0.00    -0.075 A 
ATOM      2  C4  UNL d   1      -0.043   1.468   0.000  0.00  0.00     0.002 A 
ATOM      3  C5  UNL d   1      -0.705   2.674   0.235  0.00  0.00     0.002 A 
ATOM      4  C6  UNL d   1      -1.753   2.730   1.152  0.00  0.00    -0.004 A 
ATOM      5  C7  UNL d   1      -2.143   1.576   1.829  0.00  0.00     0.002 A 
ATOM      6  C8  UNL d   1      -1.479   0.370   1.599  0.00  0.00     0.002 A 
ENDROOT
BRANCH   1   7
ATOM      7  C2  UNL d   1       0.315  -0.996   0.461  0.00  0.00     0.056 C 
BRANCH   7   8
ATOM      8  C1  UNL d   1       1.115  -1.042  -0.846  0.00  0.00     0.007 C 
ATOM      9  C   UNL d   1       1.138  -2.422  -1.488  0.00  0.00     0.009 C 
ENDBRANCH   7   8
ENDBRANCH   1   7
TORSDOF 2
ENDMDL
