MODEL 1
REMARK minimizedAffinity -3.27045918
REMARK minimizedRMSD -1
REMARK  2 active torsions:
REMARK  status: ('A' for Active; 'I' for Inactive)
REMARK    1  A    between atoms: C1_2  and  C2_3 
REMARK    2  A    between atoms: C2_3  and  C3_4 
ROOT
ATOM      1  C3  UNL d   1       0.332  -1.117  -0.681  0.00  0.00    -0.075 A 
ATOM      2  C4  UNL d   1      -0.036  -1.124  -2.034  0.00  0.00     0.002 A 
ATOM      3  C5  UNL d   1       0.070  -2.291  -2.791  0.00  0.00     0.002 A 
ATOM      4  C6  UNL d   1       0.554  -3.461  -2.209  0.00  0.00    -0.004 A 
ATOM      5  C7  UNL d   1       0.938  -3.461  -0.870  0.00  0.00     0.002 A 
ATOM      6  C8  UNL d   1       0.829  -2.296  -0.109  0.00  0.00     0.002 A 
ENDROOT
BRANCH   1   7
ATOM      7  C2  UNL d   1       0.191   0.135   0.152  0.00  0.00     0.056 C 
BRANCH   7   8
ATOM      8  C1  UNL d   1      -0.693  -0.036   1.391  0.00  0.00     0.007 C 
ATOM      9  C   UNL d   1      -1.190   1.286   1.961  0.00  0.00     0.009 C 
ENDBRANCH   7   8
ENDBRANCH   1   7
TORSDOF 2
ENDMDL
