MODEL 1
REMARK minimizedAffinity -4.84491634
REMARK minimizedRMSD -1
REMARK  2 active torsions:
REMARK  status: ('A' for Active; 'I' for Inactive)
REMARK    1  A    between atoms: C1_2  and  C2_3 
REMARK    2  A    between atoms: C2_3  and  C3_4 
ROOT
ATOM      1  C3  UNL d   1      -0.161  -0.105   0.315  0.00  0.00    -0.075 A 
ATOM      2  C4  UNL d   1      -0.709  -0.007   1.602  0.00  0.00     0.002 A 
ATOM      3  C5  UNL d   1      -1.010   1.240   2.150  0.00  0.00     0.002 A 
ATOM      4  C6  UNL d   1      -0.758   2.402   1.425  0.00  0.00    -0.004 A 
ATOM      5  C7  UNL d   1      -0.198   2.317   0.152  0.00  0.00     0.002 A 
ATOM      6  C8  UNL d   1       0.100   1.071  -0.401  0.00  0.00     0.002 A 
ENDROOT
BRANCH   1   7
ATOM      7  C2  UNL d   1       0.140  -1.453  -0.296  0.00  0.00     0.056 C 
BRANCH   7   8
ATOM      8  C1  UNL d   1       1.168  -1.408  -1.431  0.00  0.00     0.007 C 
ATOM      9  C   UNL d   1       0.796  -2.291  -2.615  0.00  0.00     0.009 C 
ENDBRANCH   7   8
ENDBRANCH   1   7
TORSDOF 2
ENDMDL
