MODEL 1
REMARK minimizedAffinity -3.44186974
REMARK minimizedRMSD -1
REMARK  2 active torsions:
REMARK  status: ('A' for Active; 'I' for Inactive)
REMARK    1  A    between atoms: C1_2  and  C2_3 
REMARK    2  A    between atoms: C2_3  and  C3_4 
ROOT
ATOM      1  C3  UNL d   1       0.291  -1.379  -0.897  0.00  0.00    -0.075 A 
ATOM      2  C4  UNL d   1       1.278  -1.424  -1.893  0.00  0.00     0.002 A 
ATOM      3  C5  UNL d   1       1.427  -2.557  -2.693  0.00  0.00     0.002 A 
ATOM      4  C6  UNL d   1       0.600  -3.662  -2.501  0.00  0.00    -0.004 A 
ATOM      5  C7  UNL d   1      -0.373  -3.635  -1.504  0.00  0.00     0.002 A 
ATOM      6  C8  UNL d   1      -0.527  -2.500  -0.705  0.00  0.00     0.002 A 
ENDROOT
BRANCH   1   7
ATOM      7  C2  UNL d   1       0.106  -0.144  -0.049  0.00  0.00     0.056 C 
BRANCH   7   8
ATOM      8  C1  UNL d   1      -0.205  -0.439   1.423  0.00  0.00     0.007 C 
ATOM      9  C   UNL d   1      -1.462   0.260   1.923  0.00  0.00     0.009 C 
ENDBRANCH   7   8
ENDBRANCH   1   7
TORSDOF 2
ENDMDL
