MODEL 1
REMARK minimizedAffinity -6.20105791
REMARK minimizedRMSD -1
REMARK  2 active torsions:
REMARK  status: ('A' for Active; 'I' for Inactive)
REMARK    1  A    between atoms: C1_2  and  C2_3 
REMARK    2  A    between atoms: C2_3  and  C3_4 
ROOT
ATOM      1  C3  UNL d   1      -1.095   1.121   0.869  0.00  0.00    -0.075 A 
ATOM      2  C4  UNL d   1      -0.358   2.051   0.120  0.00  0.00     0.002 A 
ATOM      3  C5  UNL d   1      -0.770   3.381   0.039  0.00  0.00     0.002 A 
ATOM      4  C6  UNL d   1      -1.927   3.796   0.695  0.00  0.00    -0.004 A 
ATOM      5  C7  UNL d   1      -2.675   2.878   1.428  0.00  0.00     0.002 A 
ATOM      6  C8  UNL d   1      -2.263   1.547   1.515  0.00  0.00     0.002 A 
ENDROOT
BRANCH   1   7
ATOM      7  C2  UNL d   1      -0.638  -0.313   0.985  0.00  0.00     0.056 C 
BRANCH   7   8
ATOM      8  C1  UNL d   1       0.725  -0.588   0.340  0.00  0.00     0.007 C 
ATOM      9  C   UNL d   1       0.639  -1.484  -0.888  0.00  0.00     0.009 C 
ENDBRANCH   7   8
ENDBRANCH   1   7
TORSDOF 2
ENDMDL
