MODEL 1
REMARK minimizedAffinity -6.20753241
REMARK minimizedRMSD -1
REMARK  2 active torsions:
REMARK  status: ('A' for Active; 'I' for Inactive)
REMARK    1  A    between atoms: C1_2  and  C2_3 
REMARK    2  A    between atoms: C2_3  and  C3_4 
ROOT
ATOM      1  C3  UNL d   1      -0.880   1.264   0.350  0.00  0.00    -0.075 A 
ATOM      2  C4  UNL d   1      -2.108   1.439   1.004  0.00  0.00     0.002 A 
ATOM      3  C5  UNL d   1      -2.753   2.676   0.981  0.00  0.00     0.002 A 
ATOM      4  C6  UNL d   1      -2.175   3.754   0.314  0.00  0.00    -0.004 A 
ATOM      5  C7  UNL d   1      -0.947   3.596  -0.324  0.00  0.00     0.002 A 
ATOM      6  C8  UNL d   1      -0.302   2.359  -0.307  0.00  0.00     0.002 A 
ENDROOT
BRANCH   1   7
ATOM      7  C2  UNL d   1      -0.190  -0.079   0.347  0.00  0.00     0.056 C 
BRANCH   7   8
ATOM      8  C1  UNL d   1       0.623  -0.360  -0.921  0.00  0.00     0.007 C 
ATOM      9  C   UNL d   1       0.071  -1.515  -1.746  0.00  0.00     0.009 C 
ENDBRANCH   7   8
ENDBRANCH   1   7
TORSDOF 2
ENDMDL
