MODEL 1
REMARK minimizedAffinity -6.3608036
REMARK minimizedRMSD -1
REMARK  2 active torsions:
REMARK  status: ('A' for Active; 'I' for Inactive)
REMARK    1  A    between atoms: C1_2  and  C2_3 
REMARK    2  A    between atoms: C2_3  and  C3_4 
ROOT
ATOM      1  C3  UNL d   1      -1.250   1.364   1.061  0.00  0.00    -0.075 A 
ATOM      2  C4  UNL d   1      -0.806   0.678   2.201  0.00  0.00     0.002 A 
ATOM      3  C5  UNL d   1       0.018  -0.442   2.078  0.00  0.00     0.002 A 
ATOM      4  C6  UNL d   1       0.399  -0.895   0.817  0.00  0.00    -0.004 A 
ATOM      5  C7  UNL d   1      -0.049  -0.231  -0.323  0.00  0.00     0.002 A 
ATOM      6  C8  UNL d   1      -0.870   0.892  -0.203  0.00  0.00     0.002 A 
ENDROOT
BRANCH   1   7
ATOM      7  C2  UNL d   1      -2.118   2.593   1.188  0.00  0.00     0.056 C 
BRANCH   7   8
ATOM      8  C1  UNL d   1      -1.588   3.811   0.424  0.00  0.00     0.007 C 
ATOM      9  C   UNL d   1      -0.078   3.977   0.530  0.00  0.00     0.009 C 
ENDBRANCH   7   8
ENDBRANCH   1   7
TORSDOF 2
ENDMDL
