MODEL 1
REMARK minimizedAffinity -6.29530621
REMARK minimizedRMSD -1
REMARK  2 active torsions:
REMARK  status: ('A' for Active; 'I' for Inactive)
REMARK    1  A    between atoms: C1_2  and  C2_3 
REMARK    2  A    between atoms: C2_3  and  C3_4 
ROOT
ATOM      1  C3  UNL d   1      -0.291   1.060   0.262  0.00  0.00    -0.075 A 
ATOM      2  C4  UNL d   1       0.326   2.201  -0.273  0.00  0.00     0.002 A 
ATOM      3  C5  UNL d   1      -0.334   3.430  -0.272  0.00  0.00     0.002 A 
ATOM      4  C6  UNL d   1      -1.620   3.532   0.253  0.00  0.00    -0.004 A 
ATOM      5  C7  UNL d   1      -2.250   2.403   0.772  0.00  0.00     0.002 A 
ATOM      6  C8  UNL d   1      -1.590   1.173   0.776  0.00  0.00     0.002 A 
ENDROOT
BRANCH   1   7
ATOM      7  C2  UNL d   1       0.429  -0.266   0.291  0.00  0.00     0.056 C 
BRANCH   7   8
ATOM      8  C1  UNL d   1       1.178  -0.598  -1.005  0.00  0.00     0.007 C 
ATOM      9  C   UNL d   1       0.646  -1.842  -1.704  0.00  0.00     0.009 C 
ENDBRANCH   7   8
ENDBRANCH   1   7
TORSDOF 2
ENDMDL
