MODEL 1
REMARK minimizedAffinity -5.61481524
REMARK minimizedRMSD -1
REMARK  2 active torsions:
REMARK  status: ('A' for Active; 'I' for Inactive)
REMARK    1  A    between atoms: C1_2  and  C2_3 
REMARK    2  A    between atoms: C2_3  and  C3_4 
ROOT
ATOM      1  C3  UNL d   1       0.002   1.174  -0.035  0.00  0.00    -0.075 A 
ATOM      2  C4  UNL d   1      -1.187   0.993   0.687  0.00  0.00     0.002 A 
ATOM      3  C5  UNL d   1      -2.031   2.073   0.945  0.00  0.00     0.002 A 
ATOM      4  C6  UNL d   1      -1.693   3.348   0.494  0.00  0.00    -0.004 A 
ATOM      5  C7  UNL d   1      -0.506   3.542  -0.209  0.00  0.00     0.002 A 
ATOM      6  C8  UNL d   1       0.338   2.462  -0.472  0.00  0.00     0.002 A 
ENDROOT
BRANCH   1   7
ATOM      7  C2  UNL d   1       0.905   0.003  -0.343  0.00  0.00     0.056 C 
BRANCH   7   8
ATOM      8  C1  UNL d   1       0.158  -1.269  -0.755  0.00  0.00     0.007 C 
ATOM      9  C   UNL d   1       1.048  -2.287  -1.456  0.00  0.00     0.009 C 
ENDBRANCH   7   8
ENDBRANCH   1   7
TORSDOF 2
ENDMDL
