MODEL 1
REMARK minimizedAffinity 0.797180295
REMARK minimizedRMSD -1
REMARK  1 active torsions:
REMARK  status: ('A' for Active; 'I' for Inactive)
REMARK    1  A    between atoms: C1_2  and  C2_3 
ROOT
ATOM      1  C2  UNL d   1       3.303  -0.450  -5.296  0.00  0.00    -0.077 A 
ATOM      2  C3  UNL d   1       1.913  -0.270  -5.302  0.00  0.00     0.002 A 
ATOM      3  C4  UNL d   1       1.066  -1.322  -5.654  0.00  0.00     0.002 A 
ATOM      4  C5  UNL d   1       1.599  -2.562  -6.000  0.00  0.00    -0.004 A 
ATOM      5  C6  UNL d   1       2.981  -2.751  -6.000  0.00  0.00     0.002 A 
ATOM      6  C7  UNL d   1       3.829  -1.699  -5.649  0.00  0.00     0.002 A 
ENDROOT
BRANCH   1   7
ATOM      7  C1  UNL d   1       4.216   0.670  -4.869  0.00  0.00     0.055 C 
ATOM      8  C   UNL d   1       5.396   0.815  -5.818  0.00  0.00     0.019 C 
ENDBRANCH   1   7
TORSDOF 1
ENDMDL
