MODEL 1
REMARK minimizedAffinity 10.435359
REMARK minimizedRMSD -1
REMARK  1 active torsions:
REMARK  status: ('A' for Active; 'I' for Inactive)
REMARK    1  A    between atoms: C1_2  and  C2_3 
ROOT
ATOM      1  C2  UNL d   1       0.637   0.512   3.273  0.00  0.00    -0.077 A 
ATOM      2  C3  UNL d   1       0.731   1.126   4.530  0.00  0.00     0.002 A 
ATOM      3  C4  UNL d   1       0.045   2.314   4.789  0.00  0.00     0.002 A 
ATOM      4  C5  UNL d   1      -0.744   2.895   3.798  0.00  0.00    -0.004 A 
ATOM      5  C6  UNL d   1      -0.843   2.293   2.545  0.00  0.00     0.002 A 
ATOM      6  C7  UNL d   1      -0.156   1.106   2.284  0.00  0.00     0.002 A 
ENDROOT
BRANCH   1   7
ATOM      7  C1  UNL d   1       1.337  -0.795   3.008  0.00  0.00     0.055 C 
ATOM      8  C   UNL d   1       1.469  -1.620   4.279  0.00  0.00     0.019 C 
ENDBRANCH   1   7
TORSDOF 1
ENDMDL
