MODEL 1
REMARK minimizedAffinity 12.2931013
REMARK minimizedRMSD -1
REMARK  1 active torsions:
REMARK  status: ('A' for Active; 'I' for Inactive)
REMARK    1  A    between atoms: C1_2  and  C2_3 
ROOT
ATOM      1  C2  UNL d   1       2.950  -0.640   3.125  0.00  0.00    -0.077 A 
ATOM      2  C3  UNL d   1       2.643   0.604   2.557  0.00  0.00     0.002 A 
ATOM      3  C4  UNL d   1       3.486   1.698   2.755  0.00  0.00     0.002 A 
ATOM      4  C5  UNL d   1       4.644   1.559   3.518  0.00  0.00    -0.004 A 
ATOM      5  C6  UNL d   1       4.957   0.326   4.089  0.00  0.00     0.002 A 
ATOM      6  C7  UNL d   1       4.114  -0.769   3.893  0.00  0.00     0.002 A 
ENDROOT
BRANCH   1   7
ATOM      7  C1  UNL d   1       2.067  -1.834   2.872  0.00  0.00     0.055 C 
ATOM      8  C   UNL d   1       2.450  -3.006   3.765  0.00  0.00     0.019 C 
ENDBRANCH   1   7
TORSDOF 1
ENDMDL
