MODEL 1
REMARK minimizedAffinity 4.28985834
REMARK minimizedRMSD -1
REMARK  1 active torsions:
REMARK  status: ('A' for Active; 'I' for Inactive)
REMARK    1  A    between atoms: C1_2  and  C2_3 
ROOT
ATOM      1  C2  UNL d   1       3.998  -2.761   5.049  0.00  0.00    -0.077 A 
ATOM      2  C3  UNL d   1       2.853  -3.201   4.370  0.00  0.00     0.002 A 
ATOM      3  C4  UNL d   1       2.147  -2.330   3.538  0.00  0.00     0.002 A 
ATOM      4  C5  UNL d   1       2.580  -1.016   3.373  0.00  0.00    -0.004 A 
ATOM      5  C6  UNL d   1       3.716  -0.568   4.046  0.00  0.00     0.002 A 
ATOM      6  C7  UNL d   1       4.423  -1.437   4.879  0.00  0.00     0.002 A 
ENDROOT
BRANCH   1   7
ATOM      7  C1  UNL d   1       4.788  -3.713   5.908  0.00  0.00     0.055 C 
ATOM      8  C   UNL d   1       5.890  -4.395   5.109  0.00  0.00     0.019 C 
ENDBRANCH   1   7
TORSDOF 1
ENDMDL
