MODEL 1
REMARK minimizedAffinity -5.7756052
REMARK minimizedRMSD -1
REMARK  1 active torsions:
REMARK  status: ('A' for Active; 'I' for Inactive)
REMARK    1  A    between atoms: C1_2  and  C2_3 
ROOT
ATOM      1  C2  UNL d   1      -0.349   0.192   0.470  0.00  0.00    -0.077 A 
ATOM      2  C3  UNL d   1      -1.589   0.468   1.064  0.00  0.00     0.002 A 
ATOM      3  C4  UNL d   1      -2.417  -0.574   1.487  0.00  0.00     0.002 A 
ATOM      4  C5  UNL d   1      -2.012  -1.897   1.325  0.00  0.00    -0.004 A 
ATOM      5  C6  UNL d   1      -0.782  -2.182   0.734  0.00  0.00     0.002 A 
ATOM      6  C7  UNL d   1       0.046  -1.142   0.309  0.00  0.00     0.002 A 
ENDROOT
BRANCH   1   7
ATOM      7  C1  UNL d   1       0.566   1.315   0.058  0.00  0.00     0.055 C 
ATOM      8  C   UNL d   1       0.439   1.616  -1.428  0.00  0.00     0.019 C 
ENDBRANCH   1   7
TORSDOF 1
ENDMDL
