MODEL 1
REMARK minimizedAffinity -5.06542826
REMARK minimizedRMSD -1
REMARK  1 active torsions:
REMARK  status: ('A' for Active; 'I' for Inactive)
REMARK    1  A    between atoms: C1_2  and  C2_3 
ROOT
ATOM      1  C2  UNL d   1      -1.619  -0.974   1.619  0.00  0.00    -0.077 A 
ATOM      2  C3  UNL d   1      -1.195   0.185   0.954  0.00  0.00     0.002 A 
ATOM      3  C4  UNL d   1      -0.036   0.168   0.175  0.00  0.00     0.002 A 
ATOM      4  C5  UNL d   1       0.704  -1.006   0.049  0.00  0.00    -0.004 A 
ATOM      5  C6  UNL d   1       0.291  -2.163   0.708  0.00  0.00     0.002 A 
ATOM      6  C7  UNL d   1      -0.866  -2.148   1.489  0.00  0.00     0.002 A 
ENDROOT
BRANCH   1   7
ATOM      7  C1  UNL d   1      -2.895  -0.971   2.420  0.00  0.00     0.055 C 
ATOM      8  C   UNL d   1      -2.820   0.016   3.576  0.00  0.00     0.019 C 
ENDBRANCH   1   7
TORSDOF 1
ENDMDL
