MODEL 1
REMARK minimizedAffinity -0.389701962
REMARK minimizedRMSD -1
REMARK  1 active torsions:
REMARK  status: ('A' for Active; 'I' for Inactive)
REMARK    1  A    between atoms: C1_2  and  C2_3 
ROOT
ATOM      1  C2  UNL d   1       0.205  -1.226   0.713  0.00  0.00    -0.077 A 
ATOM      2  C3  UNL d   1       1.284  -1.086  -0.171  0.00  0.00     0.002 A 
ATOM      3  C4  UNL d   1       1.472   0.107  -0.872  0.00  0.00     0.002 A 
ATOM      4  C5  UNL d   1       0.588   1.169  -0.693  0.00  0.00    -0.004 A 
ATOM      5  C6  UNL d   1      -0.489   1.039   0.183  0.00  0.00     0.002 A 
ATOM      6  C7  UNL d   1      -0.679  -0.153   0.883  0.00  0.00     0.002 A 
ENDROOT
BRANCH   1   7
ATOM      7  C1  UNL d   1       0.029  -2.494   1.507  0.00  0.00     0.055 C 
ATOM      8  C   UNL d   1      -1.242  -2.452   2.343  0.00  0.00     0.019 C 
ENDBRANCH   1   7
TORSDOF 1
ENDMDL
