MODEL 1
REMARK minimizedAffinity -2.89466643
REMARK minimizedRMSD -1
REMARK  1 active torsions:
REMARK  status: ('A' for Active; 'I' for Inactive)
REMARK    1  A    between atoms: C1_2  and  C2_3 
ROOT
ATOM      1  C2  UNL d   1      -0.478  -1.126   0.991  0.00  0.00    -0.077 A 
ATOM      2  C3  UNL d   1      -1.066   0.146   1.017  0.00  0.00     0.002 A 
ATOM      3  C4  UNL d   1      -2.439   0.285   1.234  0.00  0.00     0.002 A 
ATOM      4  C5  UNL d   1      -3.233  -0.843   1.431  0.00  0.00    -0.004 A 
ATOM      5  C6  UNL d   1      -2.657  -2.113   1.405  0.00  0.00     0.002 A 
ATOM      6  C7  UNL d   1      -1.286  -2.254   1.187  0.00  0.00     0.002 A 
ENDROOT
BRANCH   1   7
ATOM      7  C1  UNL d   1       1.010  -1.276   0.806  0.00  0.00     0.055 C 
ATOM      8  C   UNL d   1       1.735   0.036   1.068  0.00  0.00     0.019 C 
ENDBRANCH   1   7
TORSDOF 1
ENDMDL
