MODEL 1
REMARK minimizedAffinity -2.25344563
REMARK minimizedRMSD -1
REMARK  1 active torsions:
REMARK  status: ('A' for Active; 'I' for Inactive)
REMARK    1  A    between atoms: C1_2  and  C2_3 
ROOT
ATOM      1  C2  UNL d   1       0.324   0.253   0.234  0.00  0.00    -0.077 A 
ATOM      2  C3  UNL d   1      -0.751   0.285   1.134  0.00  0.00     0.002 A 
ATOM      3  C4  UNL d   1      -1.134  -0.870   1.817  0.00  0.00     0.002 A 
ATOM      4  C5  UNL d   1      -0.447  -2.064   1.611  0.00  0.00    -0.004 A 
ATOM      5  C6  UNL d   1       0.622  -2.107   0.717  0.00  0.00     0.002 A 
ATOM      6  C7  UNL d   1       1.007  -0.954   0.032  0.00  0.00     0.002 A 
ENDROOT
BRANCH   1   7
ATOM      7  C1  UNL d   1       0.771   1.509  -0.467  0.00  0.00     0.055 C 
ATOM      8  C   UNL d   1       0.430   1.467  -1.949  0.00  0.00     0.019 C 
ENDBRANCH   1   7
TORSDOF 1
ENDMDL
