MODEL 1
REMARK minimizedAffinity 3.12711406
REMARK minimizedRMSD -1
REMARK  1 active torsions:
REMARK  status: ('A' for Active; 'I' for Inactive)
REMARK    1  A    between atoms: C1_2  and  C2_3 
ROOT
ATOM      1  C2  UNL d   1       0.699   0.543  -0.856  0.00  0.00    -0.077 A 
ATOM      2  C3  UNL d   1      -0.537   0.964  -1.365  0.00  0.00     0.002 A 
ATOM      3  C4  UNL d   1      -0.594   1.794  -2.486  0.00  0.00     0.002 A 
ATOM      4  C5  UNL d   1       0.582   2.206  -3.109  0.00  0.00    -0.004 A 
ATOM      5  C6  UNL d   1       1.817   1.794  -2.610  0.00  0.00     0.002 A 
ATOM      6  C7  UNL d   1       1.875   0.965  -1.488  0.00  0.00     0.002 A 
ENDROOT
BRANCH   1   7
ATOM      7  C1  UNL d   1       0.760  -0.393   0.324  0.00  0.00     0.055 C 
ATOM      8  C   UNL d   1       1.627  -1.607   0.023  0.00  0.00     0.019 C 
ENDBRANCH   1   7
TORSDOF 1
ENDMDL
