MODEL 1
REMARK minimizedAffinity -1.36153817
REMARK minimizedRMSD -1
REMARK  1 active torsions:
REMARK  status: ('A' for Active; 'I' for Inactive)
REMARK    1  A    between atoms: C1_2  and  C2_3 
ROOT
ATOM      1  C2  UNL d   1      -0.391   0.167   1.179  0.00  0.00    -0.077 A 
ATOM      2  C3  UNL d   1       0.857   0.054   0.551  0.00  0.00     0.002 A 
ATOM      3  C4  UNL d   1       1.529  -1.171   0.531  0.00  0.00     0.002 A 
ATOM      4  C5  UNL d   1       0.958  -2.290   1.132  0.00  0.00    -0.004 A 
ATOM      5  C6  UNL d   1      -0.283  -2.187   1.761  0.00  0.00     0.002 A 
ATOM      6  C7  UNL d   1      -0.955  -0.964   1.783  0.00  0.00     0.002 A 
ENDROOT
BRANCH   1   7
ATOM      7  C1  UNL d   1      -1.139   1.475   1.159  0.00  0.00     0.055 C 
ATOM      8  C   UNL d   1      -1.544   1.859  -0.257  0.00  0.00     0.019 C 
ENDBRANCH   1   7
TORSDOF 1
ENDMDL
