MODEL 1
REMARK minimizedAffinity -6.34758472
REMARK minimizedRMSD -1
REMARK  1 active torsions:
REMARK  status: ('A' for Active; 'I' for Inactive)
REMARK    1  A    between atoms: C1_2  and  C2_3 
ROOT
ATOM      1  C2  UNL d   1      -1.629  -1.174   1.446  0.00  0.00    -0.077 A 
ATOM      2  C3  UNL d   1      -0.627  -2.095   1.107  0.00  0.00     0.002 A 
ATOM      3  C4  UNL d   1       0.472  -1.693   0.345  0.00  0.00     0.002 A 
ATOM      4  C5  UNL d   1       0.582  -0.370  -0.079  0.00  0.00    -0.004 A 
ATOM      5  C6  UNL d   1      -0.410   0.552   0.252  0.00  0.00     0.002 A 
ATOM      6  C7  UNL d   1      -1.510   0.152   1.012  0.00  0.00     0.002 A 
ENDROOT
BRANCH   1   7
ATOM      7  C1  UNL d   1      -2.790  -1.594   2.309  0.00  0.00     0.055 C 
ATOM      8  C   UNL d   1      -3.079  -0.561   3.389  0.00  0.00     0.019 C 
ENDBRANCH   1   7
TORSDOF 1
ENDMDL
