MODEL 1
REMARK minimizedAffinity -6.49935961
REMARK minimizedRMSD -1
REMARK  1 active torsions:
REMARK  status: ('A' for Active; 'I' for Inactive)
REMARK    1  A    between atoms: C1_2  and  C2_3 
ROOT
ATOM      1  C2  UNL d   1      -0.886  -0.853   0.790  0.00  0.00    -0.077 A 
ATOM      2  C3  UNL d   1      -0.937  -2.235   1.024  0.00  0.00     0.002 A 
ATOM      3  C4  UNL d   1      -2.032  -2.800   1.680  0.00  0.00     0.002 A 
ATOM      4  C5  UNL d   1      -3.085  -1.993   2.105  0.00  0.00    -0.004 A 
ATOM      5  C6  UNL d   1      -3.043  -0.617   1.879  0.00  0.00     0.002 A 
ATOM      6  C7  UNL d   1      -1.949  -0.050   1.224  0.00  0.00     0.002 A 
ENDROOT
BRANCH   1   7
ATOM      7  C1  UNL d   1       0.270  -0.248   0.038  0.00  0.00     0.055 C 
ATOM      8  C   UNL d   1       0.370   1.250   0.288  0.00  0.00     0.019 C 
ENDBRANCH   1   7
TORSDOF 1
ENDMDL
