MODEL 1
REMARK minimizedAffinity 3.50736237
REMARK minimizedRMSD -1
REMARK  0 active torsions:
REMARK  status: ('A' for Active; 'I' for Inactive)
ROOT
ATOM      1  C   UNL d   1       1.827  -1.681  -1.618  0.00  0.00     0.023 A 
ATOM      2  C1  UNL d   1       2.201  -0.900  -2.712  0.00  0.00     0.003 A 
ATOM      3  C2  UNL d   1       2.945   0.265  -2.517  0.00  0.00     0.048 A 
ATOM      4  C3  UNL d   1       3.313   0.643  -1.226  0.00  0.00     0.023 A 
ATOM      5  C4  UNL d   1       2.941  -0.136  -0.129  0.00  0.00     0.048 A 
ATOM      6  C5  UNL d   1       2.196  -1.299  -0.328  0.00  0.00     0.003 A 
ATOM      7  I   UNL d   1       4.420   2.377  -0.933  0.00  0.00    -0.146 I 
ENDROOT
TORSDOF 0
ENDMDL
