MODEL 1
REMARK minimizedAffinity 4.81846046
REMARK minimizedRMSD -1
REMARK  0 active torsions:
REMARK  status: ('A' for Active; 'I' for Inactive)
ROOT
ATOM      1  C   UNL d   1      -5.276  -0.154  -0.787  0.00  0.00     0.023 A 
ATOM      2  C1  UNL d   1      -5.896  -0.082   0.461  0.00  0.00     0.003 A 
ATOM      3  C2  UNL d   1      -5.997   1.143   1.122  0.00  0.00     0.048 A 
ATOM      4  C3  UNL d   1      -5.477   2.293   0.530  0.00  0.00     0.023 A 
ATOM      5  C4  UNL d   1      -4.856   2.226  -0.719  0.00  0.00     0.048 A 
ATOM      6  C5  UNL d   1      -4.756   0.998  -1.376  0.00  0.00     0.003 A 
ATOM      7  I   UNL d   1      -5.626   4.119   1.512  0.00  0.00    -0.146 I 
ENDROOT
TORSDOF 0
ENDMDL
