MODEL 1
REMARK minimizedAffinity -0.53006947
REMARK minimizedRMSD -1
REMARK  0 active torsions:
REMARK  status: ('A' for Active; 'I' for Inactive)
ROOT
ATOM      1  C   UNL d   1      -3.583   3.349  -3.025  0.00  0.00     0.023 A 
ATOM      2  C1  UNL d   1      -4.975   3.288  -2.941  0.00  0.00     0.003 A 
ATOM      3  C2  UNL d   1      -5.660   2.197  -3.480  0.00  0.00     0.048 A 
ATOM      4  C3  UNL d   1      -4.949   1.171  -4.101  0.00  0.00     0.023 A 
ATOM      5  C4  UNL d   1      -3.557   1.228  -4.186  0.00  0.00     0.048 A 
ATOM      6  C5  UNL d   1      -2.876   2.320  -3.647  0.00  0.00     0.003 A 
ATOM      7  I   UNL d   1      -5.968  -0.453  -4.904  0.00  0.00    -0.146 I 
ENDROOT
TORSDOF 0
ENDMDL
