MODEL 1
REMARK minimizedAffinity -0.899325967
REMARK minimizedRMSD -1
REMARK  0 active torsions:
REMARK  status: ('A' for Active; 'I' for Inactive)
ROOT
ATOM      1  C   UNL d   1       5.190   1.796  -0.438  0.00  0.00     0.023 A 
ATOM      2  C1  UNL d   1       5.484   2.421   0.773  0.00  0.00     0.003 A 
ATOM      3  C2  UNL d   1       4.493   2.559   1.748  0.00  0.00     0.048 A 
ATOM      4  C3  UNL d   1       3.211   2.069   1.504  0.00  0.00     0.023 A 
ATOM      5  C4  UNL d   1       2.912   1.442   0.294  0.00  0.00     0.048 A 
ATOM      6  C5  UNL d   1       3.905   1.306  -0.678  0.00  0.00     0.003 A 
ATOM      7  I   UNL d   1       1.735   2.273   2.953  0.00  0.00    -0.146 I 
ENDROOT
TORSDOF 0
ENDMDL
