MODEL 1
REMARK minimizedAffinity 6.85560465
REMARK minimizedRMSD -1
REMARK  0 active torsions:
REMARK  status: ('A' for Active; 'I' for Inactive)
ROOT
ATOM      1  C   UNL d   1      -4.130   1.295  -4.882  0.00  0.00     0.023 A 
ATOM      2  C1  UNL d   1      -4.320   2.325  -3.961  0.00  0.00     0.003 A 
ATOM      3  C2  UNL d   1      -4.857   2.048  -2.703  0.00  0.00     0.048 A 
ATOM      4  C3  UNL d   1      -5.201   0.738  -2.371  0.00  0.00     0.023 A 
ATOM      5  C4  UNL d   1      -5.012  -0.297  -3.289  0.00  0.00     0.048 A 
ATOM      6  C5  UNL d   1      -4.475  -0.015  -4.547  0.00  0.00     0.003 A 
ATOM      7  I   UNL d   1      -6.000   0.322  -0.498  0.00  0.00    -0.146 I 
ENDROOT
TORSDOF 0
ENDMDL
