MODEL 1
REMARK minimizedAffinity 6.43699169
REMARK minimizedRMSD -1
REMARK  0 active torsions:
REMARK  status: ('A' for Active; 'I' for Inactive)
ROOT
ATOM      1  C   UNL d   1      -3.852   3.164  -3.781  0.00  0.00     0.023 A 
ATOM      2  C1  UNL d   1      -5.006   3.233  -3.001  0.00  0.00     0.003 A 
ATOM      3  C2  UNL d   1      -5.624   2.061  -2.561  0.00  0.00     0.048 A 
ATOM      4  C3  UNL d   1      -5.082   0.822  -2.904  0.00  0.00     0.023 A 
ATOM      5  C4  UNL d   1      -3.927   0.748  -3.684  0.00  0.00     0.048 A 
ATOM      6  C5  UNL d   1      -3.313   1.923  -4.123  0.00  0.00     0.003 A 
ATOM      7  I   UNL d   1      -6.000  -0.924  -2.250  0.00  0.00    -0.146 I 
ENDROOT
TORSDOF 0
ENDMDL
