MODEL 1
REMARK minimizedAffinity 7.64374924
REMARK minimizedRMSD -1
REMARK  0 active torsions:
REMARK  status: ('A' for Active; 'I' for Inactive)
ROOT
ATOM      1  C   UNL d   1      -1.492  -5.747  -2.353  0.00  0.00     0.023 A 
ATOM      2  C1  UNL d   1      -2.690  -5.929  -1.662  0.00  0.00     0.003 A 
ATOM      3  C2  UNL d   1      -3.897  -5.999  -2.360  0.00  0.00     0.048 A 
ATOM      4  C3  UNL d   1      -3.899  -5.887  -3.750  0.00  0.00     0.023 A 
ATOM      5  C4  UNL d   1      -2.703  -5.705  -4.446  0.00  0.00     0.048 A 
ATOM      6  C5  UNL d   1      -1.499  -5.635  -3.744  0.00  0.00     0.003 A 
ATOM      7  I   UNL d   1      -5.695  -5.990  -4.792  0.00  0.00    -0.146 I 
ENDROOT
TORSDOF 0
ENDMDL
