MODEL 1
REMARK minimizedAffinity 4.75865841
REMARK minimizedRMSD -1
REMARK  0 active torsions:
REMARK  status: ('A' for Active; 'I' for Inactive)
ROOT
ATOM      1  C   UNL d   1      -4.107  -0.353  -4.581  0.00  0.00     0.023 A 
ATOM      2  C1  UNL d   1      -5.453  -0.025  -4.737  0.00  0.00     0.003 A 
ATOM      3  C2  UNL d   1      -5.998   1.048  -4.029  0.00  0.00     0.048 A 
ATOM      4  C3  UNL d   1      -5.190   1.789  -3.167  0.00  0.00     0.023 A 
ATOM      5  C4  UNL d   1      -3.842   1.465  -3.008  0.00  0.00     0.048 A 
ATOM      6  C5  UNL d   1      -3.302   0.390  -3.718  0.00  0.00     0.003 A 
ATOM      7  I   UNL d   1      -5.999   3.387  -2.112  0.00  0.00    -0.146 I 
ENDROOT
TORSDOF 0
ENDMDL
