MODEL 1
REMARK minimizedAffinity 0.808007538
REMARK minimizedRMSD -1
REMARK  0 active torsions:
REMARK  status: ('A' for Active; 'I' for Inactive)
ROOT
ATOM      1  C   UNL d   1       3.694   0.036  -2.365  0.00  0.00     0.023 A 
ATOM      2  C1  UNL d   1       3.010  -1.165  -2.169  0.00  0.00     0.003 A 
ATOM      3  C2  UNL d   1       2.651  -1.562  -0.880  0.00  0.00     0.048 A 
ATOM      4  C3  UNL d   1       2.977  -0.755   0.209  0.00  0.00     0.023 A 
ATOM      5  C4  UNL d   1       3.660   0.447   0.018  0.00  0.00     0.048 A 
ATOM      6  C5  UNL d   1       4.018   0.841  -1.273  0.00  0.00     0.003 A 
ATOM      7  I   UNL d   1       2.442  -1.345   2.129  0.00  0.00    -0.146 I 
ENDROOT
TORSDOF 0
ENDMDL
