MODEL 1
REMARK minimizedAffinity 3.04571795
REMARK minimizedRMSD -1
REMARK  0 active torsions:
REMARK  status: ('A' for Active; 'I' for Inactive)
ROOT
ATOM      1  C   UNL d   1      -5.522   0.125  -3.869  0.00  0.00     0.023 A 
ATOM      2  C1  UNL d   1      -4.153  -0.085  -4.034  0.00  0.00     0.003 A 
ATOM      3  C2  UNL d   1      -3.253   0.957  -3.803  0.00  0.00     0.048 A 
ATOM      4  C3  UNL d   1      -3.728   2.205  -3.404  0.00  0.00     0.023 A 
ATOM      5  C4  UNL d   1      -5.097   2.420  -3.236  0.00  0.00     0.048 A 
ATOM      6  C5  UNL d   1      -5.994   1.376  -3.470  0.00  0.00     0.003 A 
ATOM      7  I   UNL d   1      -2.390   3.758  -3.058  0.00  0.00    -0.146 I 
ENDROOT
TORSDOF 0
ENDMDL
