MODEL 1
REMARK minimizedAffinity 7.50999212
REMARK minimizedRMSD -1
REMARK  0 active torsions:
REMARK  status: ('A' for Active; 'I' for Inactive)
ROOT
ATOM      1  C   UNL d   1      -5.741   3.841   1.588  0.00  0.00     0.023 A 
ATOM      2  C1  UNL d   1      -5.618   5.227   1.687  0.00  0.00     0.003 A 
ATOM      3  C2  UNL d   1      -5.687   5.848   2.936  0.00  0.00     0.048 A 
ATOM      4  C3  UNL d   1      -5.877   5.077   4.082  0.00  0.00     0.023 A 
ATOM      5  C4  UNL d   1      -6.000   3.690   3.988  0.00  0.00     0.048 A 
ATOM      6  C5  UNL d   1      -5.931   3.073   2.738  0.00  0.00     0.003 A 
ATOM      7  I   UNL d   1      -5.980   6.000   5.941  0.00  0.00    -0.146 I 
ENDROOT
TORSDOF 0
ENDMDL
