MODEL 1
REMARK minimizedAffinity 3.22936821
REMARK minimizedRMSD -1
REMARK  0 active torsions:
REMARK  status: ('A' for Active; 'I' for Inactive)
ROOT
ATOM      1  C   UNL d   1      -4.863   0.747  -4.550  0.00  0.00     0.023 A 
ATOM      2  C1  UNL d   1      -5.789   1.570  -3.908  0.00  0.00     0.003 A 
ATOM      3  C2  UNL d   1      -5.999   1.447  -2.533  0.00  0.00     0.048 A 
ATOM      4  C3  UNL d   1      -5.279   0.500  -1.806  0.00  0.00     0.023 A 
ATOM      5  C4  UNL d   1      -4.351  -0.325  -2.443  0.00  0.00     0.048 A 
ATOM      6  C5  UNL d   1      -4.145  -0.199  -3.818  0.00  0.00     0.003 A 
ATOM      7  I   UNL d   1      -5.590   0.316   0.241  0.00  0.00    -0.146 I 
ENDROOT
TORSDOF 0
ENDMDL
