MODEL 1
REMARK minimizedAffinity 4.54665327
REMARK minimizedRMSD -1
REMARK  0 active torsions:
REMARK  status: ('A' for Active; 'I' for Inactive)
ROOT
ATOM      1  C   UNL d   1       1.159   0.218  -0.683  0.00  0.00     0.023 A 
ATOM      2  C1  UNL d   1      -0.213   0.097  -0.899  0.00  0.00     0.003 A 
ATOM      3  C2  UNL d   1      -0.792  -1.167  -1.031  0.00  0.00     0.048 A 
ATOM      4  C3  UNL d   1       0.008  -2.306  -0.944  0.00  0.00     0.023 A 
ATOM      5  C4  UNL d   1       1.381  -2.190  -0.726  0.00  0.00     0.048 A 
ATOM      6  C5  UNL d   1       1.956  -0.924  -0.596  0.00  0.00     0.003 A 
ATOM      7  I   UNL d   1      -0.852  -4.188  -1.139  0.00  0.00    -0.146 I 
ENDROOT
TORSDOF 0
ENDMDL
