MODEL 1
REMARK minimizedAffinity 11.8609991
REMARK minimizedRMSD -1
REMARK  0 active torsions:
REMARK  status: ('A' for Active; 'I' for Inactive)
ROOT
ATOM      1  C   UNL d   1      -4.293   1.751  -3.645  0.00  0.00     0.023 A 
ATOM      2  C1  UNL d   1      -2.945   1.428  -3.484  0.00  0.00     0.003 A 
ATOM      3  C2  UNL d   1      -2.349   1.519  -2.225  0.00  0.00     0.048 A 
ATOM      4  C3  UNL d   1      -3.107   1.933  -1.130  0.00  0.00     0.023 A 
ATOM      5  C4  UNL d   1      -4.456   2.256  -1.285  0.00  0.00     0.048 A 
ATOM      6  C5  UNL d   1      -5.047   2.164  -2.547  0.00  0.00     0.003 A 
ATOM      7  I   UNL d   1      -2.222   2.069   0.746  0.00  0.00    -0.146 I 
ENDROOT
TORSDOF 0
ENDMDL
