MODEL 1
REMARK minimizedAffinity 9.13003635
REMARK minimizedRMSD -1
REMARK  0 active torsions:
REMARK  status: ('A' for Active; 'I' for Inactive)
ROOT
ATOM      1  C   UNL d   1       5.617   0.927  -5.999  0.00  0.00     0.023 A 
ATOM      2  C1  UNL d   1       4.510   1.542  -5.414  0.00  0.00     0.003 A 
ATOM      3  C2  UNL d   1       3.781   0.877  -4.426  0.00  0.00     0.048 A 
ATOM      4  C3  UNL d   1       4.166  -0.403  -4.027  0.00  0.00     0.023 A 
ATOM      5  C4  UNL d   1       5.273  -1.022  -4.609  0.00  0.00     0.048 A 
ATOM      6  C5  UNL d   1       5.998  -0.353  -5.597  0.00  0.00     0.003 A 
ATOM      7  I   UNL d   1       3.083  -1.395  -2.556  0.00  0.00    -0.146 I 
ENDROOT
TORSDOF 0
ENDMDL
