MODEL 1
REMARK minimizedAffinity 6.63460398
REMARK minimizedRMSD -1
REMARK  0 active torsions:
REMARK  status: ('A' for Active; 'I' for Inactive)
ROOT
ATOM      1  C   UNL d   1       5.530   0.294  -5.998  0.00  0.00     0.023 A 
ATOM      2  C1  UNL d   1       6.000  -0.800  -5.271  0.00  0.00     0.003 A 
ATOM      3  C2  UNL d   1       5.395  -1.146  -4.061  0.00  0.00     0.048 A 
ATOM      4  C3  UNL d   1       4.321  -0.395  -3.585  0.00  0.00     0.023 A 
ATOM      5  C4  UNL d   1       3.847   0.699  -4.310  0.00  0.00     0.048 A 
ATOM      6  C5  UNL d   1       4.456   1.043  -5.518  0.00  0.00     0.003 A 
ATOM      7  I   UNL d   1       3.419  -0.910  -1.784  0.00  0.00    -0.146 I 
ENDROOT
TORSDOF 0
ENDMDL
