MODEL 1
REMARK minimizedAffinity 9.28349304
REMARK minimizedRMSD -1
REMARK  0 active torsions:
REMARK  status: ('A' for Active; 'I' for Inactive)
ROOT
ATOM      1  C   UNL d   1       5.942  -4.354   4.553  0.00  0.00     0.023 A 
ATOM      2  C1  UNL d   1       4.746  -4.393   5.271  0.00  0.00     0.003 A 
ATOM      3  C2  UNL d   1       3.589  -3.825   4.733  0.00  0.00     0.048 A 
ATOM      4  C3  UNL d   1       3.635  -3.221   3.478  0.00  0.00     0.023 A 
ATOM      5  C4  UNL d   1       4.829  -3.180   2.756  0.00  0.00     0.048 A 
ATOM      6  C5  UNL d   1       5.983  -3.748   3.298  0.00  0.00     0.003 A 
ATOM      7  I   UNL d   1       1.914  -2.375   2.676  0.00  0.00    -0.146 I 
ENDROOT
TORSDOF 0
ENDMDL
