MODEL 1
REMARK minimizedAffinity 5.08488083
REMARK minimizedRMSD -1
REMARK  0 active torsions:
REMARK  status: ('A' for Active; 'I' for Inactive)
ROOT
ATOM      1  C   UNL d   1      -5.020  -5.996  -5.787  0.00  0.00     0.023 A 
ATOM      2  C1  UNL d   1      -5.998  -5.025  -5.997  0.00  0.00     0.003 A 
ATOM      3  C2  UNL d   1      -5.870  -3.764  -5.411  0.00  0.00     0.048 A 
ATOM      4  C3  UNL d   1      -4.759  -3.480  -4.617  0.00  0.00     0.023 A 
ATOM      5  C4  UNL d   1      -3.777  -4.449  -4.405  0.00  0.00     0.048 A 
ATOM      6  C5  UNL d   1      -3.910  -5.708  -4.992  0.00  0.00     0.003 A 
ATOM      7  I   UNL d   1      -4.566  -1.604  -3.744  0.00  0.00    -0.146 I 
ENDROOT
TORSDOF 0
ENDMDL
