MODEL 1
REMARK minimizedAffinity 0.769325256
REMARK minimizedRMSD -1
REMARK  0 active torsions:
REMARK  status: ('A' for Active; 'I' for Inactive)
ROOT
ATOM      1  C   UNL d   1       1.107  -1.803   2.686  0.00  0.00     0.023 A 
ATOM      2  C1  UNL d   1       1.385  -2.455   3.887  0.00  0.00     0.003 A 
ATOM      3  C2  UNL d   1       2.708  -2.708   4.256  0.00  0.00     0.048 A 
ATOM      4  C3  UNL d   1       3.748  -2.305   3.419  0.00  0.00     0.023 A 
ATOM      5  C4  UNL d   1       3.475  -1.652   2.216  0.00  0.00     0.048 A 
ATOM      6  C5  UNL d   1       2.150  -1.402   1.851  0.00  0.00     0.003 A 
ATOM      7  I   UNL d   1       5.718  -2.680   3.966  0.00  0.00    -0.146 I 
ENDROOT
TORSDOF 0
ENDMDL
