MODEL 1
REMARK minimizedAffinity 4.28192282
REMARK minimizedRMSD -1
REMARK  0 active torsions:
REMARK  status: ('A' for Active; 'I' for Inactive)
ROOT
ATOM      1  C   UNL d   1       3.766  -0.745  -1.678  0.00  0.00     0.023 A 
ATOM      2  C1  UNL d   1       3.013  -0.739  -2.852  0.00  0.00     0.003 A 
ATOM      3  C2  UNL d   1       3.652  -0.748  -4.093  0.00  0.00     0.048 A 
ATOM      4  C3  UNL d   1       5.045  -0.764  -4.153  0.00  0.00     0.023 A 
ATOM      5  C4  UNL d   1       5.803  -0.771  -2.981  0.00  0.00     0.048 A 
ATOM      6  C5  UNL d   1       5.159  -0.761  -1.742  0.00  0.00     0.003 A 
ATOM      7  I   UNL d   1       6.000  -0.778  -5.999  0.00  0.00    -0.146 I 
ENDROOT
TORSDOF 0
ENDMDL
