MODEL 1
REMARK minimizedAffinity 16.6414909
REMARK minimizedRMSD -1
REMARK  0 active torsions:
REMARK  status: ('A' for Active; 'I' for Inactive)
ROOT
ATOM      1  C   UNL d   1      -5.367   2.590  -3.698  0.00  0.00     0.023 A 
ATOM      2  C1  UNL d   1      -4.089   2.031  -3.753  0.00  0.00     0.003 A 
ATOM      3  C2  UNL d   1      -3.355   1.850  -2.579  0.00  0.00     0.048 A 
ATOM      4  C3  UNL d   1      -3.904   2.229  -1.354  0.00  0.00     0.023 A 
ATOM      5  C4  UNL d   1      -5.182   2.787  -1.295  0.00  0.00     0.048 A 
ATOM      6  C5  UNL d   1      -5.912   2.967  -2.471  0.00  0.00     0.003 A 
ATOM      7  I   UNL d   1      -2.812   1.960   0.394  0.00  0.00    -0.146 I 
ENDROOT
TORSDOF 0
ENDMDL
