MODEL 1
REMARK minimizedAffinity 1.10764885
REMARK minimizedRMSD -1
REMARK  0 active torsions:
REMARK  status: ('A' for Active; 'I' for Inactive)
ROOT
ATOM      1  C   UNL d   1       4.498   5.398  -1.730  0.00  0.00    -0.002 A 
ATOM      2  C1  UNL d   1       5.622   5.999  -2.280  0.00  0.00     0.010 A 
ATOM      3  C2  UNL d   1       6.000   5.728  -3.597  0.00  0.00     0.041 A 
ATOM      4  C3  UNL d   1       5.220   4.836  -4.360  0.00  0.00    -0.075 A 
ATOM      5  S   UNL d   1       5.490   4.356  -5.993  0.00  0.00     0.015 SA
ATOM      6  C4  UNL d   1       4.120   3.343  -6.000  0.00  0.00     0.022 A 
ATOM      7  C5  UNL d   1       3.461   3.359  -4.794  0.00  0.00     0.026 A 
ATOM      8  C6  UNL d   1       4.083   4.220  -3.828  0.00  0.00    -0.082 A 
ATOM      9  C7  UNL d   1       3.727   4.515  -2.490  0.00  0.00     0.045 A 
ENDROOT
TORSDOF 0
ENDMDL
