MODEL 1
REMARK minimizedAffinity -1.03592634
REMARK minimizedRMSD -1
REMARK  0 active torsions:
REMARK  status: ('A' for Active; 'I' for Inactive)
ROOT
ATOM      1  C   UNL d   1       4.117   2.842  -5.623  0.00  0.00    -0.002 A 
ATOM      2  C1  UNL d   1       5.359   3.332  -5.999  0.00  0.00     0.010 A 
ATOM      3  C2  UNL d   1       5.996   4.313  -5.236  0.00  0.00     0.041 A 
ATOM      4  C3  UNL d   1       5.359   4.795  -4.076  0.00  0.00    -0.075 A 
ATOM      5  S   UNL d   1       5.950   5.993  -2.987  0.00  0.00     0.015 SA
ATOM      6  C4  UNL d   1       4.568   5.882  -1.996  0.00  0.00     0.022 A 
ATOM      7  C5  UNL d   1       3.667   4.958  -2.470  0.00  0.00     0.026 A 
ATOM      8  C6  UNL d   1       4.108   4.316  -3.676  0.00  0.00    -0.082 A 
ATOM      9  C7  UNL d   1       3.487   3.323  -4.472  0.00  0.00     0.045 A 
ENDROOT
TORSDOF 0
ENDMDL
