MODEL 1
REMARK minimizedAffinity 15.6926842
REMARK minimizedRMSD -1
REMARK  0 active torsions:
REMARK  status: ('A' for Active; 'I' for Inactive)
ROOT
ATOM      1  C   UNL d   1       1.287  -3.473   3.197  0.00  0.00    -0.002 A 
ATOM      2  C1  UNL d   1       0.884  -2.649   4.239  0.00  0.00     0.010 A 
ATOM      3  C2  UNL d   1       1.052  -1.266   4.156  0.00  0.00     0.041 A 
ATOM      4  C3  UNL d   1       1.637  -0.719   2.997  0.00  0.00    -0.075 A 
ATOM      5  S   UNL d   1       1.942   0.947   2.674  0.00  0.00     0.015 SA
ATOM      6  C4  UNL d   1       2.613   0.605   1.145  0.00  0.00     0.022 A 
ATOM      7  C5  UNL d   1       2.613  -0.743   0.872  0.00  0.00     0.026 A 
ATOM      8  C6  UNL d   1       2.050  -1.527   1.934  0.00  0.00    -0.082 A 
ATOM      9  C7  UNL d   1       1.866  -2.927   2.049  0.00  0.00     0.045 A 
ENDROOT
TORSDOF 0
ENDMDL
