MODEL 1
REMARK minimizedAffinity 8.30793953
REMARK minimizedRMSD -1
REMARK  0 active torsions:
REMARK  status: ('A' for Active; 'I' for Inactive)
ROOT
ATOM      1  O1  BZF d   1      -0.650  -5.325   1.697  0.00  0.00    -0.204 OA
ATOM      2  C2  BZF d   1      -1.856  -5.987   1.821  0.00  0.00     0.174 A 
ATOM      3  C3  BZF d   1      -2.881  -5.183   1.472  0.00  0.00    -0.012 A 
ATOM      4  C3A BZF d   1      -2.271  -3.970   1.020  0.00  0.00    -0.107 A 
ATOM      5  C4  BZF d   1      -2.766  -2.796   0.529  0.00  0.00     0.055 A 
ATOM      6  C5  BZF d   1      -1.906  -1.782   0.248  0.00  0.00    -0.016 A 
ATOM      7  C6  BZF d   1      -0.547  -1.906   0.450  0.00  0.00     0.022 A 
ATOM      8  C7  BZF d   1      -0.008  -3.053   0.931  0.00  0.00     0.029 A 
ATOM      9  C7A BZF d   1      -0.872  -4.091   1.184  0.00  0.00     0.058 A 
ENDROOT
TORSDOF 0
ENDMDL
