MODEL 1
REMARK minimizedAffinity 11.2802277
REMARK minimizedRMSD -1
REMARK  0 active torsions:
REMARK  status: ('A' for Active; 'I' for Inactive)
ROOT
ATOM      1  O1  BZF d   1      -5.240   0.514   5.997  0.00  0.00    -0.204 OA
ATOM      2  C2  BZF d   1      -5.869  -0.666   5.649  0.00  0.00     0.174 A 
ATOM      3  C3  BZF d   1      -6.000  -0.763   4.311  0.00  0.00    -0.012 A 
ATOM      4  C3A BZF d   1      -5.333   0.388   3.783  0.00  0.00    -0.107 A 
ATOM      5  C4  BZF d   1      -5.108   0.844   2.516  0.00  0.00     0.055 A 
ATOM      6  C5  BZF d   1      -4.487   2.041   2.345  0.00  0.00    -0.016 A 
ATOM      7  C6  BZF d   1      -4.084   2.809   3.418  0.00  0.00     0.022 A 
ATOM      8  C7  BZF d   1      -4.280   2.396   4.694  0.00  0.00     0.029 A 
ATOM      9  C7A BZF d   1      -4.878   1.171   4.869  0.00  0.00     0.058 A 
ENDROOT
TORSDOF 0
ENDMDL
