MODEL 1
REMARK minimizedAffinity 8.68654633
REMARK minimizedRMSD -1
REMARK  0 active torsions:
REMARK  status: ('A' for Active; 'I' for Inactive)
ROOT
ATOM      1  O1  BZF d   1       4.225  -0.487  -1.016  0.00  0.00    -0.204 OA
ATOM      2  C2  BZF d   1       5.457  -1.090  -1.180  0.00  0.00     0.174 A 
ATOM      3  C3  BZF d   1       6.000  -1.401   0.015  0.00  0.00    -0.012 A 
ATOM      4  C3A BZF d   1       5.007  -1.047   0.983  0.00  0.00    -0.107 A 
ATOM      5  C4  BZF d   1       4.951  -1.132   2.345  0.00  0.00     0.055 A 
ATOM      6  C5  BZF d   1       3.867  -0.632   2.994  0.00  0.00    -0.016 A 
ATOM      7  C6  BZF d   1       2.825  -0.037   2.314  0.00  0.00     0.022 A 
ATOM      8  C7  BZF d   1       2.833   0.066   0.963  0.00  0.00     0.029 A 
ATOM      9  C7A BZF d   1       3.912  -0.468   0.302  0.00  0.00     0.058 A 
ENDROOT
TORSDOF 0
ENDMDL
