MODEL 1
REMARK minimizedAffinity 12.9059458
REMARK minimizedRMSD -1
REMARK  0 active torsions:
REMARK  status: ('A' for Active; 'I' for Inactive)
ROOT
ATOM      1  O1  BZF d   1      -5.628   6.000   3.461  0.00  0.00    -0.204 OA
ATOM      2  C2  BZF d   1      -5.999   5.995   2.131  0.00  0.00     0.174 A 
ATOM      3  C3  BZF d   1      -5.839   4.768   1.594  0.00  0.00    -0.012 A 
ATOM      4  C3A BZF d   1      -5.424   3.933   2.680  0.00  0.00    -0.107 A 
ATOM      5  C4  BZF d   1      -5.123   2.605   2.781  0.00  0.00     0.055 A 
ATOM      6  C5  BZF d   1      -4.679   2.118   3.970  0.00  0.00    -0.016 A 
ATOM      7  C6  BZF d   1      -4.521   2.929   5.074  0.00  0.00     0.022 A 
ATOM      8  C7  BZF d   1      -4.813   4.252   5.023  0.00  0.00     0.029 A 
ATOM      9  C7A BZF d   1      -5.292   4.741   3.833  0.00  0.00     0.058 A 
ENDROOT
TORSDOF 0
ENDMDL
