MODEL 1
REMARK minimizedAffinity 1.29164624
REMARK minimizedRMSD -1
REMARK  0 active torsions:
REMARK  status: ('A' for Active; 'I' for Inactive)
ROOT
ATOM      1  O1  BZF d   1      -4.488   3.996   4.612  0.00  0.00    -0.204 OA
ATOM      2  C2  BZF d   1      -5.256   4.106   5.755  0.00  0.00     0.174 A 
ATOM      3  C3  BZF d   1      -5.917   2.956   6.000  0.00  0.00    -0.012 A 
ATOM      4  C3A BZF d   1      -5.467   2.043   4.995  0.00  0.00    -0.107 A 
ATOM      5  C4  BZF d   1      -5.750   0.735   4.720  0.00  0.00     0.055 A 
ATOM      6  C5  BZF d   1      -5.198   0.156   3.622  0.00  0.00    -0.016 A 
ATOM      7  C6  BZF d   1      -4.363   0.856   2.775  0.00  0.00     0.022 A 
ATOM      8  C7  BZF d   1      -4.049   2.153   3.009  0.00  0.00     0.029 A 
ATOM      9  C7A BZF d   1      -4.580   2.731   4.136  0.00  0.00     0.058 A 
ENDROOT
TORSDOF 0
ENDMDL
