MODEL 1
REMARK minimizedAffinity 0.92610985
REMARK minimizedRMSD -1
REMARK  0 active torsions:
REMARK  status: ('A' for Active; 'I' for Inactive)
ROOT
ATOM      1  O1  BZF d   1      -4.312   3.010   4.899  0.00  0.00    -0.204 OA
ATOM      2  C2  BZF d   1      -5.146   3.034   6.000  0.00  0.00     0.174 A 
ATOM      3  C3  BZF d   1      -5.971   1.968   5.999  0.00  0.00    -0.012 A 
ATOM      4  C3A BZF d   1      -5.569   1.182   4.873  0.00  0.00    -0.107 A 
ATOM      5  C4  BZF d   1      -6.000  -0.006   4.354  0.00  0.00     0.055 A 
ATOM      6  C5  BZF d   1      -5.444  -0.464   3.202  0.00  0.00    -0.016 A 
ATOM      7  C6  BZF d   1      -4.460   0.240   2.540  0.00  0.00     0.022 A 
ATOM      8  C7  BZF d   1      -3.996   1.421   3.018  0.00  0.00     0.029 A 
ATOM      9  C7A BZF d   1      -4.533   1.870   4.200  0.00  0.00     0.058 A 
ENDROOT
TORSDOF 0
ENDMDL
