MODEL 1
REMARK minimizedAffinity 4.72608471
REMARK minimizedRMSD -1
REMARK  0 active torsions:
REMARK  status: ('A' for Active; 'I' for Inactive)
ROOT
ATOM      1  O1  BZF d   1      -5.994   2.526   5.993  0.00  0.00    -0.204 OA
ATOM      2  C2  BZF d   1      -5.565   3.824   5.793  0.00  0.00     0.174 A 
ATOM      3  C3  BZF d   1      -4.983   3.955   4.584  0.00  0.00    -0.012 A 
ATOM      4  C3A BZF d   1      -5.136   2.680   3.952  0.00  0.00    -0.107 A 
ATOM      5  C4  BZF d   1      -4.777   2.189   2.730  0.00  0.00     0.055 A 
ATOM      6  C5  BZF d   1      -5.008   0.879   2.451  0.00  0.00    -0.016 A 
ATOM      7  C6  BZF d   1      -5.589   0.032   3.372  0.00  0.00     0.022 A 
ATOM      8  C7  BZF d   1      -5.966   0.474   4.596  0.00  0.00     0.029 A 
ATOM      9  C7A BZF d   1      -5.765   1.806   4.868  0.00  0.00     0.058 A 
ENDROOT
TORSDOF 0
ENDMDL
