MODEL 1
REMARK minimizedAffinity 13.349021
REMARK minimizedRMSD -1
REMARK  0 active torsions:
REMARK  status: ('A' for Active; 'I' for Inactive)
ROOT
ATOM      1  O1  BZF d   1       1.180  -0.615   4.638  0.00  0.00    -0.204 OA
ATOM      2  C2  BZF d   1       0.148   0.265   4.901  0.00  0.00     0.174 A 
ATOM      3  C3  BZF d   1       0.040   1.183   3.919  0.00  0.00    -0.012 A 
ATOM      4  C3A BZF d   1       1.009   0.801   2.938  0.00  0.00    -0.107 A 
ATOM      5  C4  BZF d   1       1.370   1.313   1.725  0.00  0.00     0.055 A 
ATOM      6  C5  BZF d   1       2.404   0.747   1.050  0.00  0.00    -0.016 A 
ATOM      7  C6  BZF d   1       3.103  -0.328   1.560  0.00  0.00     0.022 A 
ATOM      8  C7  BZF d   1       2.779  -0.874   2.757  0.00  0.00     0.029 A 
ATOM      9  C7A BZF d   1       1.713  -0.325   3.427  0.00  0.00     0.058 A 
ENDROOT
TORSDOF 0
ENDMDL
