MODEL 1
REMARK minimizedAffinity 17.479023
REMARK minimizedRMSD -1
REMARK  0 active torsions:
REMARK  status: ('A' for Active; 'I' for Inactive)
ROOT
ATOM      1  O1  BZF d   1      -3.073  -2.623  -3.091  0.00  0.00    -0.204 OA
ATOM      2  C2  BZF d   1      -1.776  -2.926  -2.722  0.00  0.00     0.174 A 
ATOM      3  C3  BZF d   1      -1.719  -4.135  -2.128  0.00  0.00    -0.012 A 
ATOM      4  C3A BZF d   1      -3.048  -4.658  -2.209  0.00  0.00    -0.107 A 
ATOM      5  C4  BZF d   1      -3.622  -5.830  -1.807  0.00  0.00     0.055 A 
ATOM      6  C5  BZF d   1      -4.961  -6.000  -1.970  0.00  0.00    -0.016 A 
ATOM      7  C6  BZF d   1      -5.755  -5.018  -2.525  0.00  0.00     0.022 A 
ATOM      8  C7  BZF d   1      -5.230  -3.841  -2.943  0.00  0.00     0.029 A 
ATOM      9  C7A BZF d   1      -3.873  -3.679  -2.810  0.00  0.00     0.058 A 
ENDROOT
TORSDOF 0
ENDMDL
