MODEL 1
REMARK minimizedAffinity 13.090724
REMARK minimizedRMSD -1
REMARK  0 active torsions:
REMARK  status: ('A' for Active; 'I' for Inactive)
ROOT
ATOM      1  O1  BZF d   1      -3.744   1.655   3.359  0.00  0.00    -0.204 OA
ATOM      2  C2  BZF d   1      -4.024   2.939   3.785  0.00  0.00     0.174 A 
ATOM      3  C3  BZF d   1      -4.913   2.923   4.799  0.00  0.00    -0.012 A 
ATOM      4  C3A BZF d   1      -5.136   1.539   5.082  0.00  0.00    -0.107 A 
ATOM      5  C4  BZF d   1      -5.907   0.880   5.998  0.00  0.00     0.055 A 
ATOM      6  C5  BZF d   1      -5.958  -0.477   5.963  0.00  0.00    -0.016 A 
ATOM      7  C6  BZF d   1      -5.257  -1.207   5.025  0.00  0.00     0.022 A 
ATOM      8  C7  BZF d   1      -4.475  -0.598   4.100  0.00  0.00     0.029 A 
ATOM      9  C7A BZF d   1      -4.395   0.772   4.154  0.00  0.00     0.058 A 
ENDROOT
TORSDOF 0
ENDMDL
