MODEL 1
REMARK minimizedAffinity 15.623724
REMARK minimizedRMSD -1
REMARK  0 active torsions:
REMARK  status: ('A' for Active; 'I' for Inactive)
ROOT
ATOM      1  O1  BZF d   1      -5.516   2.959   2.704  0.00  0.00    -0.204 OA
ATOM      2  C2  BZF d   1      -4.896   1.808   3.150  0.00  0.00     0.174 A 
ATOM      3  C3  BZF d   1      -4.443   1.966   4.410  0.00  0.00    -0.012 A 
ATOM      4  C3A BZF d   1      -4.883   3.268   4.808  0.00  0.00    -0.107 A 
ATOM      5  C4  BZF d   1      -4.755   3.991   5.959  0.00  0.00     0.055 A 
ATOM      6  C5  BZF d   1      -5.236   5.262   5.998  0.00  0.00    -0.016 A 
ATOM      7  C6  BZF d   1      -5.846   5.841   4.904  0.00  0.00     0.022 A 
ATOM      8  C7  BZF d   1      -6.000   5.161   3.742  0.00  0.00     0.029 A 
ATOM      9  C7A BZF d   1      -5.544   3.866   3.710  0.00  0.00     0.058 A 
ENDROOT
TORSDOF 0
ENDMDL
