MODEL 1
REMARK minimizedAffinity 21.0290375
REMARK minimizedRMSD -1
REMARK  0 active torsions:
REMARK  status: ('A' for Active; 'I' for Inactive)
ROOT
ATOM      1  O1  BZF d   1      -2.847  -2.683  -2.805  0.00  0.00    -0.204 OA
ATOM      2  C2  BZF d   1      -1.827  -2.592  -3.733  0.00  0.00     0.174 A 
ATOM      3  C3  BZF d   1      -0.687  -2.169  -3.150  0.00  0.00    -0.012 A 
ATOM      4  C3A BZF d   1      -0.992  -2.072  -1.755  0.00  0.00    -0.107 A 
ATOM      5  C4  BZF d   1      -0.261  -1.718  -0.657  0.00  0.00     0.055 A 
ATOM      6  C5  BZF d   1      -0.875  -1.656   0.554  0.00  0.00    -0.016 A 
ATOM      7  C6  BZF d   1      -2.218  -1.936   0.702  0.00  0.00     0.022 A 
ATOM      8  C7  BZF d   1      -2.983  -2.297  -0.357  0.00  0.00     0.029 A 
ATOM      9  C7A BZF d   1      -2.357  -2.392  -1.577  0.00  0.00     0.058 A 
ENDROOT
TORSDOF 0
ENDMDL
