MODEL 1
REMARK minimizedAffinity 7.93708086
REMARK minimizedRMSD -1
REMARK  0 active torsions:
REMARK  status: ('A' for Active; 'I' for Inactive)
ROOT
ATOM      1  O1  BZF d   1      -1.092  -5.854   1.612  0.00  0.00    -0.204 OA
ATOM      2  C2  BZF d   1      -2.420  -6.000   1.963  0.00  0.00     0.174 A 
ATOM      3  C3  BZF d   1      -3.153  -4.966   1.502  0.00  0.00    -0.012 A 
ATOM      4  C3A BZF d   1      -2.241  -4.168   0.741  0.00  0.00    -0.107 A 
ATOM      5  C4  BZF d   1      -2.377  -3.015   0.022  0.00  0.00     0.055 A 
ATOM      6  C5  BZF d   1      -1.275  -2.455  -0.542  0.00  0.00    -0.016 A 
ATOM      7  C6  BZF d   1      -0.023  -3.017  -0.403  0.00  0.00     0.022 A 
ATOM      8  C7  BZF d   1       0.161  -4.163   0.297  0.00  0.00     0.029 A 
ATOM      9  C7A BZF d   1      -0.956  -4.749   0.840  0.00  0.00     0.058 A 
ENDROOT
TORSDOF 0
ENDMDL
