MODEL 1
REMARK minimizedAffinity 18.202816
REMARK minimizedRMSD -1
REMARK  0 active torsions:
REMARK  status: ('A' for Active; 'I' for Inactive)
ROOT
ATOM      1  O1  BZF d   1      -0.398  -5.787  -3.665  0.00  0.00    -0.204 OA
ATOM      2  C2  BZF d   1       0.491  -4.880  -4.209  0.00  0.00     0.174 A 
ATOM      3  C3  BZF d   1       0.025  -3.621  -4.084  0.00  0.00    -0.012 A 
ATOM      4  C3A BZF d   1      -1.190  -3.741  -3.339  0.00  0.00    -0.107 A 
ATOM      5  C4  BZF d   1      -2.105  -2.835  -2.883  0.00  0.00     0.055 A 
ATOM      6  C5  BZF d   1      -3.221  -3.285  -2.251  0.00  0.00    -0.016 A 
ATOM      7  C6  BZF d   1      -3.455  -4.632  -2.062  0.00  0.00     0.022 A 
ATOM      8  C7  BZF d   1      -2.574  -5.567  -2.492  0.00  0.00     0.029 A 
ATOM      9  C7A BZF d   1      -1.430  -5.114  -3.102  0.00  0.00     0.058 A 
ENDROOT
TORSDOF 0
ENDMDL
