MODEL 1
REMARK minimizedAffinity 12.5921764
REMARK minimizedRMSD -1
REMARK  0 active torsions:
REMARK  status: ('A' for Active; 'I' for Inactive)
ROOT
ATOM      1  O1  BZF d   1       4.605  -0.719   2.341  0.00  0.00    -0.204 OA
ATOM      2  C2  BZF d   1       5.241  -0.919   1.131  0.00  0.00     0.174 A 
ATOM      3  C3  BZF d   1       4.567  -0.316   0.130  0.00  0.00    -0.012 A 
ATOM      4  C3A BZF d   1       3.489   0.377   0.767  0.00  0.00    -0.107 A 
ATOM      5  C4  BZF d   1       2.480   1.172   0.304  0.00  0.00     0.055 A 
ATOM      6  C5  BZF d   1       1.548   1.633   1.178  0.00  0.00    -0.016 A 
ATOM      7  C6  BZF d   1       1.592   1.316   2.520  0.00  0.00     0.022 A 
ATOM      8  C7  BZF d   1       2.576   0.534   3.027  0.00  0.00     0.029 A 
ATOM      9  C7A BZF d   1       3.538   0.093   2.152  0.00  0.00     0.058 A 
ENDROOT
TORSDOF 0
ENDMDL
