MODEL 1
REMARK minimizedAffinity 18.5787048
REMARK minimizedRMSD -1
REMARK  0 active torsions:
REMARK  status: ('A' for Active; 'I' for Inactive)
ROOT
ATOM      1  O1  BZF d   1      -2.399  -2.870  -5.292  0.00  0.00    -0.204 OA
ATOM      2  C2  BZF d   1      -1.341  -2.253  -5.931  0.00  0.00     0.174 A 
ATOM      3  C3  BZF d   1      -0.624  -1.512  -5.062  0.00  0.00    -0.012 A 
ATOM      4  C3A BZF d   1      -1.220  -1.749  -3.783  0.00  0.00    -0.107 A 
ATOM      5  C4  BZF d   1      -0.942  -1.307  -2.521  0.00  0.00     0.055 A 
ATOM      6  C5  BZF d   1      -1.762  -1.669  -1.499  0.00  0.00    -0.016 A 
ATOM      7  C6  BZF d   1      -2.868  -2.468  -1.704  0.00  0.00     0.022 A 
ATOM      8  C7  BZF d   1      -3.181  -2.935  -2.937  0.00  0.00     0.029 A 
ATOM      9  C7A BZF d   1      -2.336  -2.598  -3.966  0.00  0.00     0.058 A 
ENDROOT
TORSDOF 0
ENDMDL
