MODEL 1
REMARK minimizedAffinity -5.00516796
REMARK minimizedRMSD -1
REMARK  0 active torsions:
REMARK  status: ('A' for Active; 'I' for Inactive)
ROOT
ATOM      1  C   UNL d   1       2.709   1.941   0.671  0.00  0.00     0.078 C 
ATOM      2  C1  UNL d   1       1.246   1.754   0.401  0.00  0.00    -0.077 A 
ATOM      3  C2  UNL d   1       0.395   2.855   0.242  0.00  0.00    -0.001 A 
ATOM      4  C3  UNL d   1      -0.967   2.666   0.002  0.00  0.00     0.003 A 
ATOM      5  C4  UNL d   1      -1.490   1.377  -0.081  0.00  0.00    -0.005 A 
ATOM      6  C5  UNL d   1      -0.652   0.275   0.078  0.00  0.00     0.003 A 
ATOM      7  C6  UNL d   1       0.710   0.463   0.319  0.00  0.00    -0.001 A 
ENDROOT
TORSDOF 0
ENDMDL
