MODEL 1
REMARK minimizedAffinity -4.33075571
REMARK minimizedRMSD -1
REMARK  0 active torsions:
REMARK  status: ('A' for Active; 'I' for Inactive)
ROOT
ATOM      1  C   UNL d   1       0.133  -1.044   0.192  0.00  0.00     0.078 C 
ATOM      2  C1  UNL d   1       0.387   0.433   0.243  0.00  0.00    -0.077 A 
ATOM      3  C2  UNL d   1      -0.672   1.348   0.203  0.00  0.00    -0.001 A 
ATOM      4  C3  UNL d   1      -0.421   2.720   0.241  0.00  0.00     0.003 A 
ATOM      5  C4  UNL d   1       0.888   3.190   0.318  0.00  0.00    -0.005 A 
ATOM      6  C5  UNL d   1       1.949   2.287   0.356  0.00  0.00     0.003 A 
ATOM      7  C6  UNL d   1       1.700   0.914   0.318  0.00  0.00    -0.001 A 
ENDROOT
TORSDOF 0
ENDMDL
