MODEL 1
REMARK minimizedAffinity -5.21585369
REMARK minimizedRMSD -1
REMARK  0 active torsions:
REMARK  status: ('A' for Active; 'I' for Inactive)
ROOT
ATOM      1  C   UNL d   1       0.602   3.240  -0.277  0.00  0.00     0.078 C 
ATOM      2  C1  UNL d   1       0.172   1.830  -0.005  0.00  0.00    -0.077 A 
ATOM      3  C2  UNL d   1       1.039   0.755  -0.234  0.00  0.00    -0.001 A 
ATOM      4  C3  UNL d   1       0.622  -0.554   0.015  0.00  0.00     0.003 A 
ATOM      5  C4  UNL d   1      -0.664  -0.800   0.492  0.00  0.00    -0.005 A 
ATOM      6  C5  UNL d   1      -1.535   0.264   0.720  0.00  0.00     0.003 A 
ATOM      7  C6  UNL d   1      -1.120   1.573   0.472  0.00  0.00    -0.001 A 
ENDROOT
TORSDOF 0
ENDMDL
