MODEL 1
REMARK minimizedAffinity -5.32315683
REMARK minimizedRMSD -1
REMARK  0 active torsions:
REMARK  status: ('A' for Active; 'I' for Inactive)
ROOT
ATOM      1  C   UNL d   1      -0.216  -1.449   0.148  0.00  0.00     0.078 C 
ATOM      2  C1  UNL d   1      -0.061   0.029  -0.056  0.00  0.00    -0.077 A 
ATOM      3  C2  UNL d   1      -1.070   0.920   0.329  0.00  0.00    -0.001 A 
ATOM      4  C3  UNL d   1      -0.916   2.292   0.124  0.00  0.00     0.003 A 
ATOM      5  C4  UNL d   1       0.245   2.785  -0.467  0.00  0.00    -0.005 A 
ATOM      6  C5  UNL d   1       1.254   1.906  -0.855  0.00  0.00     0.003 A 
ATOM      7  C6  UNL d   1       1.102   0.533  -0.651  0.00  0.00    -0.001 A 
ENDROOT
TORSDOF 0
ENDMDL
