MODEL 1
REMARK minimizedAffinity -5.27134037
REMARK minimizedRMSD -1
REMARK  0 active torsions:
REMARK  status: ('A' for Active; 'I' for Inactive)
ROOT
ATOM      1  C   UNL d   1       0.141  -0.987   0.069  0.00  0.00     0.078 C 
ATOM      2  C1  UNL d   1      -0.014   0.503   0.009  0.00  0.00    -0.077 A 
ATOM      3  C2  UNL d   1       1.001   1.314  -0.512  0.00  0.00    -0.001 A 
ATOM      4  C3  UNL d   1       0.846   2.701  -0.552  0.00  0.00     0.003 A 
ATOM      5  C4  UNL d   1      -0.322   3.289  -0.072  0.00  0.00    -0.005 A 
ATOM      6  C5  UNL d   1      -1.338   2.490   0.450  0.00  0.00     0.003 A 
ATOM      7  C6  UNL d   1      -1.184   1.103   0.492  0.00  0.00    -0.001 A 
ENDROOT
TORSDOF 0
ENDMDL
