MODEL 1
REMARK minimizedAffinity -2.82671094
REMARK minimizedRMSD -1
REMARK  0 active torsions:
REMARK  status: ('A' for Active; 'I' for Inactive)
ROOT
ATOM      1  C   UNL d   1      -0.011  -1.409   0.002  0.00  0.00     0.078 C 
ATOM      2  C1  UNL d   1      -0.056   0.087   0.094  0.00  0.00    -0.077 A 
ATOM      3  C2  UNL d   1      -1.141   0.741   0.690  0.00  0.00    -0.001 A 
ATOM      4  C3  UNL d   1      -1.174   2.135   0.760  0.00  0.00     0.003 A 
ATOM      5  C4  UNL d   1      -0.125   2.886   0.234  0.00  0.00    -0.005 A 
ATOM      6  C5  UNL d   1       0.958   2.244  -0.363  0.00  0.00     0.003 A 
ATOM      7  C6  UNL d   1       0.993   0.851  -0.434  0.00  0.00    -0.001 A 
ENDROOT
TORSDOF 0
ENDMDL
