MODEL 1
REMARK minimizedAffinity -5.35758543
REMARK minimizedRMSD -1
REMARK  0 active torsions:
REMARK  status: ('A' for Active; 'I' for Inactive)
ROOT
ATOM      1  C   UNL d   1      -0.378  -1.183  -0.030  0.00  0.00     0.078 C 
ATOM      2  C1  UNL d   1      -0.092   0.289  -0.012  0.00  0.00    -0.077 A 
ATOM      3  C2  UNL d   1      -1.051   1.204   0.438  0.00  0.00    -0.001 A 
ATOM      4  C3  UNL d   1      -0.775   2.572   0.440  0.00  0.00     0.003 A 
ATOM      5  C4  UNL d   1       0.461   3.037  -0.007  0.00  0.00    -0.005 A 
ATOM      6  C5  UNL d   1       1.421   2.134  -0.458  0.00  0.00     0.003 A 
ATOM      7  C6  UNL d   1       1.146   0.765  -0.461  0.00  0.00    -0.001 A 
ENDROOT
TORSDOF 0
ENDMDL
