MODEL 1
REMARK minimizedAffinity -4.26449394
REMARK minimizedRMSD -1
REMARK  0 active torsions:
REMARK  status: ('A' for Active; 'I' for Inactive)
ROOT
ATOM      1  C   UNL d   1       0.007   3.524  -0.239  0.00  0.00     0.078 C 
ATOM      2  C1  UNL d   1      -0.092   2.027  -0.235  0.00  0.00    -0.077 A 
ATOM      3  C2  UNL d   1       1.039   1.229  -0.444  0.00  0.00    -0.001 A 
ATOM      4  C3  UNL d   1       0.931  -0.162  -0.447  0.00  0.00     0.003 A 
ATOM      5  C4  UNL d   1      -0.307  -0.768  -0.243  0.00  0.00    -0.005 A 
ATOM      6  C5  UNL d   1      -1.439   0.018  -0.036  0.00  0.00     0.003 A 
ATOM      7  C6  UNL d   1      -1.333   1.410  -0.033  0.00  0.00    -0.001 A 
ENDROOT
TORSDOF 0
ENDMDL
