MODEL 1
REMARK minimizedAffinity -2.7290616
REMARK minimizedRMSD -1
REMARK  0 active torsions:
REMARK  status: ('A' for Active; 'I' for Inactive)
ROOT
ATOM      1  C   UNL d   1      -0.096  -0.849  -0.460  0.00  0.00     0.078 C 
ATOM      2  C1  UNL d   1       0.123   0.605  -0.163  0.00  0.00    -0.077 A 
ATOM      3  C2  UNL d   1       1.302   1.251  -0.553  0.00  0.00    -0.001 A 
ATOM      4  C3  UNL d   1       1.497   2.602  -0.261  0.00  0.00     0.003 A 
ATOM      5  C4  UNL d   1       0.517   3.318   0.424  0.00  0.00    -0.005 A 
ATOM      6  C5  UNL d   1      -0.658   2.683   0.819  0.00  0.00     0.003 A 
ATOM      7  C6  UNL d   1      -0.855   1.332   0.528  0.00  0.00    -0.001 A 
ENDROOT
TORSDOF 0
ENDMDL
