MODEL 1
REMARK minimizedAffinity -5.67714596
REMARK minimizedRMSD -1
REMARK  0 active torsions:
REMARK  status: ('A' for Active; 'I' for Inactive)
ROOT
ATOM      1  C   UNL d   1      -2.651   1.086   0.337  0.00  0.00     0.078 C 
ATOM      2  C1  UNL d   1      -1.152   1.100   0.300  0.00  0.00    -0.077 A 
ATOM      3  C2  UNL d   1      -0.424  -0.080   0.106  0.00  0.00    -0.001 A 
ATOM      4  C3  UNL d   1       0.971  -0.053   0.084  0.00  0.00     0.003 A 
ATOM      5  C4  UNL d   1       1.651   1.151   0.256  0.00  0.00    -0.005 A 
ATOM      6  C5  UNL d   1       0.935   2.331   0.452  0.00  0.00     0.003 A 
ATOM      7  C6  UNL d   1      -0.460   2.305   0.475  0.00  0.00    -0.001 A 
ENDROOT
TORSDOF 0
ENDMDL
