MODEL 1
REMARK minimizedAffinity -3.12838101
REMARK minimizedRMSD -1
REMARK  0 active torsions:
REMARK  status: ('A' for Active; 'I' for Inactive)
ROOT
ATOM      1  C   UNL d   1       2.623   0.465   0.306  0.00  0.00     0.078 C 
ATOM      2  C1  UNL d   1       1.127   0.476   0.406  0.00  0.00    -0.077 A 
ATOM      3  C2  UNL d   1       0.419   1.681   0.492  0.00  0.00    -0.001 A 
ATOM      4  C3  UNL d   1      -0.973   1.676   0.594  0.00  0.00     0.003 A 
ATOM      5  C4  UNL d   1      -1.669   0.468   0.614  0.00  0.00    -0.005 A 
ATOM      6  C5  UNL d   1      -0.973  -0.736   0.531  0.00  0.00     0.003 A 
ATOM      7  C6  UNL d   1       0.419  -0.733   0.428  0.00  0.00    -0.001 A 
ENDROOT
TORSDOF 0
ENDMDL
