MODEL 1
REMARK minimizedAffinity -4.45931482
REMARK minimizedRMSD -1
REMARK  0 active torsions:
REMARK  status: ('A' for Active; 'I' for Inactive)
ROOT
ATOM      1  C   UNL d   1       0.304  -1.472  -0.054  0.00  0.00     0.078 C 
ATOM      2  C1  UNL d   1       0.305   0.027  -0.004  0.00  0.00    -0.077 A 
ATOM      3  C2  UNL d   1      -0.805   0.733   0.473  0.00  0.00    -0.001 A 
ATOM      4  C3  UNL d   1      -0.794   2.129   0.505  0.00  0.00     0.003 A 
ATOM      5  C4  UNL d   1       0.324   2.830   0.059  0.00  0.00    -0.005 A 
ATOM      6  C5  UNL d   1       1.434   2.136  -0.419  0.00  0.00     0.003 A 
ATOM      7  C6  UNL d   1       1.424   0.740  -0.452  0.00  0.00    -0.001 A 
ENDROOT
TORSDOF 0
ENDMDL
