MODEL 1
REMARK minimizedAffinity -3.82543468
REMARK minimizedRMSD -1
REMARK  0 active torsions:
REMARK  status: ('A' for Active; 'I' for Inactive)
ROOT
ATOM      1  C   UNL d   1       0.029   3.363  -0.280  0.00  0.00     0.078 C 
ATOM      2  C1  UNL d   1      -0.062   1.885  -0.047  0.00  0.00    -0.077 A 
ATOM      3  C2  UNL d   1      -1.261   1.293   0.369  0.00  0.00    -0.001 A 
ATOM      4  C3  UNL d   1      -1.329  -0.084   0.590  0.00  0.00     0.003 A 
ATOM      5  C4  UNL d   1      -0.201  -0.880   0.400  0.00  0.00    -0.005 A 
ATOM      6  C5  UNL d   1       0.997  -0.299  -0.012  0.00  0.00     0.003 A 
ATOM      7  C6  UNL d   1       1.067   1.077  -0.234  0.00  0.00    -0.001 A 
ENDROOT
TORSDOF 0
ENDMDL
