MODEL 1
REMARK minimizedAffinity -2.85068774
REMARK minimizedRMSD -1
REMARK  0 active torsions:
REMARK  status: ('A' for Active; 'I' for Inactive)
ROOT
ATOM      1  C   UNL d   1       0.007   3.434   1.254  0.00  0.00     0.078 C 
ATOM      2  C1  UNL d   1       0.008   2.116   0.538  0.00  0.00    -0.077 A 
ATOM      3  C2  UNL d   1       0.682   1.957  -0.679  0.00  0.00    -0.001 A 
ATOM      4  C3  UNL d   1       0.666   0.728  -1.339  0.00  0.00     0.003 A 
ATOM      5  C4  UNL d   1      -0.023  -0.352  -0.790  0.00  0.00    -0.005 A 
ATOM      6  C5  UNL d   1      -0.699  -0.203   0.419  0.00  0.00     0.003 A 
ATOM      7  C6  UNL d   1      -0.684   1.026   1.081  0.00  0.00    -0.001 A 
ENDROOT
TORSDOF 0
ENDMDL
