MODEL 1
REMARK minimizedAffinity 10.684948
REMARK minimizedRMSD -1
REMARK  0 active torsions:
REMARK  status: ('A' for Active; 'I' for Inactive)
ROOT
ATOM      1  C   UNL d   1       3.801  -2.580  -1.443  0.00  0.00     0.078 C 
ATOM      2  C1  UNL d   1       2.852  -3.706  -1.726  0.00  0.00    -0.077 A 
ATOM      3  C2  UNL d   1       1.959  -3.644  -2.802  0.00  0.00    -0.001 A 
ATOM      4  C3  UNL d   1       1.075  -4.696  -3.048  0.00  0.00     0.003 A 
ATOM      5  C4  UNL d   1       1.074  -5.817  -2.220  0.00  0.00    -0.005 A 
ATOM      6  C5  UNL d   1       1.957  -5.887  -1.145  0.00  0.00     0.003 A 
ATOM      7  C6  UNL d   1       2.842  -4.836  -0.898  0.00  0.00    -0.001 A 
ENDROOT
TORSDOF 0
ENDMDL
