MODEL 1
REMARK minimizedAffinity -4.44047117
REMARK minimizedRMSD -1
REMARK  0 active torsions:
REMARK  status: ('A' for Active; 'I' for Inactive)
ROOT
ATOM      1  C   UNL d   1       0.046  -1.006   0.175  0.00  0.00     0.078 C 
ATOM      2  C1  UNL d   1      -0.008   0.481  -0.009  0.00  0.00    -0.077 A 
ATOM      3  C2  UNL d   1      -1.056   1.237   0.529  0.00  0.00    -0.001 A 
ATOM      4  C3  UNL d   1      -1.099   2.619   0.341  0.00  0.00     0.003 A 
ATOM      5  C4  UNL d   1      -0.096   3.258  -0.385  0.00  0.00    -0.005 A 
ATOM      6  C5  UNL d   1       0.951   2.514  -0.927  0.00  0.00     0.003 A 
ATOM      7  C6  UNL d   1       0.995   1.131  -0.740  0.00  0.00    -0.001 A 
ENDROOT
TORSDOF 0
ENDMDL
