MODEL 1
REMARK minimizedAffinity 1.41879618
REMARK minimizedRMSD -1
REMARK  0 active torsions:
REMARK  status: ('A' for Active; 'I' for Inactive)
ROOT
ATOM      1  N1  IND d   1       1.721  -0.625   1.314  0.00  0.00    -0.196 N 
ATOM      2  C2  IND d   1       1.412  -0.229   0.042  0.00  0.00     0.054 A 
ATOM      3  C3  IND d   1       0.087   0.016  -0.065  0.00  0.00    -0.031 A 
ATOM      4  C4  IND d   1      -1.744  -0.071   1.743  0.00  0.00     0.051 A 
ATOM      5  C5  IND d   1      -1.953  -0.416   3.048  0.00  0.00    -0.031 A 
ATOM      6  C6  IND d   1      -0.927  -0.855   3.860  0.00  0.00     0.015 A 
ATOM      7  C7  IND d   1       0.355  -0.954   3.397  0.00  0.00    -0.016 A 
ATOM      8  C8  IND d   1       0.569  -0.611   2.069  0.00  0.00    -0.047 A 
ATOM      9  C9  IND d   1      -0.476  -0.206   1.229  0.00  0.00    -0.096 A 
ATOM     10  HN1 IND d   1       2.503  -0.846   1.594  0.00  0.00     0.298 HD
ENDROOT
TORSDOF 0
ENDMDL
