MODEL 1
REMARK minimizedAffinity -1.49034345
REMARK minimizedRMSD -1
REMARK  0 active torsions:
REMARK  status: ('A' for Active; 'I' for Inactive)
ROOT
ATOM      1  N1  IND d   1       1.561   0.714   0.579  0.00  0.00    -0.196 N 
ATOM      2  C2  IND d   1       2.019   0.411  -0.672  0.00  0.00     0.054 A 
ATOM      3  C3  IND d   1       1.023  -0.107  -1.426  0.00  0.00    -0.031 A 
ATOM      4  C4  IND d   1      -1.461  -0.449  -0.841  0.00  0.00     0.051 A 
ATOM      5  C5  IND d   1      -2.346  -0.355   0.196  0.00  0.00    -0.031 A 
ATOM      6  C6  IND d   1      -1.968   0.113   1.437  0.00  0.00     0.015 A 
ATOM      7  C7  IND d   1      -0.686   0.516   1.687  0.00  0.00    -0.016 A 
ATOM      8  C8  IND d   1       0.217   0.415   0.638  0.00  0.00    -0.047 A 
ATOM      9  C9  IND d   1      -0.151  -0.099  -0.612  0.00  0.00    -0.096 A 
ATOM     10  HN1 IND d   1       2.032   1.037   1.222  0.00  0.00     0.298 HD
ENDROOT
TORSDOF 0
ENDMDL
