MODEL 1
REMARK minimizedAffinity -1.62572896
REMARK minimizedRMSD -1
REMARK  0 active torsions:
REMARK  status: ('A' for Active; 'I' for Inactive)
ROOT
ATOM      1  N1  IND d   1       1.164  -0.992   2.927  0.00  0.00    -0.196 N 
ATOM      2  C2  IND d   1       0.099  -1.110   3.776  0.00  0.00     0.054 A 
ATOM      3  C3  IND d   1      -1.019  -0.616   3.199  0.00  0.00    -0.031 A 
ATOM      4  C4  IND d   1      -1.352   0.341   0.833  0.00  0.00     0.051 A 
ATOM      5  C5  IND d   1      -0.664   0.686  -0.297  0.00  0.00    -0.031 A 
ATOM      6  C6  IND d   1       0.696   0.483  -0.412  0.00  0.00     0.015 A 
ATOM      7  C7  IND d   1       1.419  -0.086   0.598  0.00  0.00    -0.016 A 
ATOM      8  C8  IND d   1       0.725  -0.431   1.748  0.00  0.00    -0.047 A 
ATOM      9  C9  IND d   1      -0.648  -0.188   1.888  0.00  0.00    -0.096 A 
ATOM     10  HN1 IND d   1       1.973  -1.228   3.101  0.00  0.00     0.298 HD
ENDROOT
TORSDOF 0
ENDMDL
