MODEL 1
REMARK minimizedAffinity 2.51922178
REMARK minimizedRMSD -1
REMARK  0 active torsions:
REMARK  status: ('A' for Active; 'I' for Inactive)
ROOT
ATOM      1  N1  IND d   1       1.251  -0.842   2.215  0.00  0.00    -0.196 N 
ATOM      2  C2  IND d   1       2.172  -0.788   1.206  0.00  0.00     0.054 A 
ATOM      3  C3  IND d   1       1.567  -0.495   0.032  0.00  0.00    -0.031 A 
ATOM      4  C4  IND d   1      -0.907   0.034  -0.446  0.00  0.00     0.051 A 
ATOM      5  C5  IND d   1      -2.135   0.073   0.152  0.00  0.00    -0.031 A 
ATOM      6  C6  IND d   1      -2.301  -0.194   1.496  0.00  0.00     0.015 A 
ATOM      7  C7  IND d   1      -1.237  -0.500   2.298  0.00  0.00    -0.016 A 
ATOM      8  C8  IND d   1       0.010  -0.547   1.693  0.00  0.00    -0.047 A 
ATOM      9  C9  IND d   1       0.179  -0.319   0.321  0.00  0.00    -0.096 A 
ATOM     10  HN1 IND d   1       1.418  -1.029   3.037  0.00  0.00     0.298 HD
ENDROOT
TORSDOF 0
ENDMDL
