MODEL 1
REMARK minimizedAffinity 3.05846024
REMARK minimizedRMSD -1
REMARK  0 active torsions:
REMARK  status: ('A' for Active; 'I' for Inactive)
ROOT
ATOM      1  N1  IND d   1       1.675  -1.581   0.827  0.00  0.00    -0.196 N 
ATOM      2  C2  IND d   1       2.738  -0.837   0.398  0.00  0.00     0.054 A 
ATOM      3  C3  IND d   1       2.318   0.159  -0.414  0.00  0.00    -0.031 A 
ATOM      4  C4  IND d   1      -0.077   0.815  -1.092  0.00  0.00     0.051 A 
ATOM      5  C5  IND d   1      -1.378   0.410  -0.980  0.00  0.00    -0.031 A 
ATOM      6  C6  IND d   1      -1.734  -0.700  -0.242  0.00  0.00     0.015 A 
ATOM      7  C7  IND d   1      -0.801  -1.444   0.423  0.00  0.00    -0.016 A 
ATOM      8  C8  IND d   1       0.521  -1.039   0.305  0.00  0.00    -0.047 A 
ATOM      9  C9  IND d   1       0.894   0.061  -0.477  0.00  0.00    -0.096 A 
ATOM     10  HN1 IND d   1       1.720  -2.272   1.338  0.00  0.00     0.298 HD
ENDROOT
TORSDOF 0
ENDMDL
