MODEL 1
REMARK minimizedAffinity 1.71234381
REMARK minimizedRMSD -1
REMARK  0 active torsions:
REMARK  status: ('A' for Active; 'I' for Inactive)
ROOT
ATOM      1  N1  IND d   1       0.889  -0.609   1.892  0.00  0.00    -0.196 N 
ATOM      2  C2  IND d   1       1.476  -0.996   0.719  0.00  0.00     0.054 A 
ATOM      3  C3  IND d   1       0.569  -0.995  -0.284  0.00  0.00    -0.031 A 
ATOM      4  C4  IND d   1      -1.908  -0.293  -0.248  0.00  0.00     0.051 A 
ATOM      5  C5  IND d   1      -2.904   0.100   0.602  0.00  0.00    -0.031 A 
ATOM      6  C6  IND d   1      -2.681   0.283   1.951  0.00  0.00     0.015 A 
ATOM      7  C7  IND d   1      -1.446   0.090   2.502  0.00  0.00    -0.016 A 
ATOM      8  C8  IND d   1      -0.434  -0.316   1.644  0.00  0.00    -0.047 A 
ATOM      9  C9  IND d   1      -0.664  -0.544   0.281  0.00  0.00    -0.096 A 
ATOM     10  HN1 IND d   1       1.281  -0.557   2.655  0.00  0.00     0.298 HD
ENDROOT
TORSDOF 0
ENDMDL
