MODEL 1
REMARK minimizedAffinity 3.37434936
REMARK minimizedRMSD -1
REMARK  0 active torsions:
REMARK  status: ('A' for Active; 'I' for Inactive)
ROOT
ATOM      1  N1  IND d   1       2.908   1.682  -3.995  0.00  0.00    -0.196 N 
ATOM      2  C2  IND d   1       1.744   0.967  -4.063  0.00  0.00     0.054 A 
ATOM      3  C3  IND d   1       1.466   0.407  -2.864  0.00  0.00    -0.031 A 
ATOM      4  C4  IND d   1       2.727   0.615  -0.629  0.00  0.00     0.051 A 
ATOM      5  C5  IND d   1       3.866   1.133  -0.080  0.00  0.00    -0.031 A 
ATOM      6  C6  IND d   1       4.761   1.878  -0.821  0.00  0.00     0.015 A 
ATOM      7  C7  IND d   1       4.543   2.143  -2.143  0.00  0.00    -0.016 A 
ATOM      8  C8  IND d   1       3.391   1.613  -2.707  0.00  0.00    -0.047 A 
ATOM      9  C9  IND d   1       2.501   0.821  -1.970  0.00  0.00    -0.096 A 
ATOM     10  HN1 IND d   1       3.276   2.104  -4.648  0.00  0.00     0.298 HD
ENDROOT
TORSDOF 0
ENDMDL
