MODEL 1
REMARK minimizedAffinity -2.0568316
REMARK minimizedRMSD -1
REMARK  0 active torsions:
REMARK  status: ('A' for Active; 'I' for Inactive)
ROOT
ATOM      1  N1  IND d   1       1.178  -1.205   3.238  0.00  0.00    -0.196 N 
ATOM      2  C2  IND d   1       0.564  -1.285   4.456  0.00  0.00     0.054 A 
ATOM      3  C3  IND d   1      -0.712  -0.846   4.370  0.00  0.00    -0.031 A 
ATOM      4  C4  IND d   1      -2.030  -0.048   2.307  0.00  0.00     0.051 A 
ATOM      5  C5  IND d   1      -1.884   0.234   0.978  0.00  0.00    -0.031 A 
ATOM      6  C6  IND d   1      -0.686   0.045   0.320  0.00  0.00     0.015 A 
ATOM      7  C7  IND d   1       0.412  -0.447   0.968  0.00  0.00    -0.016 A 
ATOM      8  C8  IND d   1       0.269  -0.728   2.319  0.00  0.00    -0.047 A 
ATOM      9  C9  IND d   1      -0.932  -0.498   3.002  0.00  0.00    -0.096 A 
ATOM     10  HN1 IND d   1       1.995  -1.418   3.073  0.00  0.00     0.298 HD
ENDROOT
TORSDOF 0
ENDMDL
