MODEL 1
REMARK minimizedAffinity 4.01761436
REMARK minimizedRMSD -1
REMARK  1 active torsions:
REMARK  status: ('A' for Active; 'I' for Inactive)
REMARK    1  A    between atoms: C1_2  and  C2_3 
ROOT
ATOM      1  C2  UNL d   1       3.197   3.561  -5.271  0.00  0.00    -0.077 A 
ATOM      2  C3  UNL d   1       1.820   3.691  -5.037  0.00  0.00     0.002 A 
ATOM      3  C4  UNL d   1       1.175   4.906  -5.276  0.00  0.00     0.002 A 
ATOM      4  C5  UNL d   1       1.896   5.998  -5.753  0.00  0.00    -0.004 A 
ATOM      5  C6  UNL d   1       3.266   5.879  -5.988  0.00  0.00     0.002 A 
ATOM      6  C7  UNL d   1       3.913   4.666  -5.749  0.00  0.00     0.002 A 
ENDROOT
BRANCH   1   7
ATOM      7  C1  UNL d   1       3.885   2.238  -5.061  0.00  0.00     0.055 C 
ATOM      8  C   UNL d   1       3.321   1.168  -5.985  0.00  0.00     0.019 C 
ENDBRANCH   1   7
TORSDOF 1
ENDMDL
