MODEL 1
REMARK minimizedAffinity 2.23848462
REMARK minimizedRMSD -1
REMARK  1 active torsions:
REMARK  status: ('A' for Active; 'I' for Inactive)
REMARK    1  A    between atoms: C1_2  and  C2_3 
ROOT
ATOM      1  C2  UNL d   1       1.928   2.980   1.482  0.00  0.00    -0.077 A 
ATOM      2  C3  UNL d   1       2.179   1.967   2.419  0.00  0.00     0.002 A 
ATOM      3  C4  UNL d   1       2.935   0.849   2.065  0.00  0.00     0.002 A 
ATOM      4  C5  UNL d   1       3.450   0.734   0.775  0.00  0.00    -0.004 A 
ATOM      5  C6  UNL d   1       3.205   1.735  -0.164  0.00  0.00     0.002 A 
ATOM      6  C7  UNL d   1       2.447   2.853   0.188  0.00  0.00     0.002 A 
ENDROOT
BRANCH   1   7
ATOM      7  C1  UNL d   1       1.153   4.210   1.877  0.00  0.00     0.055 C 
ATOM      8  C   UNL d   1      -0.172   4.293   1.133  0.00  0.00     0.019 C 
ENDBRANCH   1   7
TORSDOF 1
ENDMDL
