MODEL 1
REMARK minimizedAffinity 9.14479637
REMARK minimizedRMSD -1
REMARK  1 active torsions:
REMARK  status: ('A' for Active; 'I' for Inactive)
REMARK    1  A    between atoms: C1_2  and  C2_3 
ROOT
ATOM      1  C2  UNL d   1       1.026   3.652   1.590  0.00  0.00    -0.077 A 
ATOM      2  C3  UNL d   1       0.772   2.517   2.374  0.00  0.00     0.002 A 
ATOM      3  C4  UNL d   1      -0.498   2.299   2.910  0.00  0.00     0.002 A 
ATOM      4  C5  UNL d   1      -1.525   3.208   2.666  0.00  0.00    -0.004 A 
ATOM      5  C6  UNL d   1      -1.282   4.341   1.891  0.00  0.00     0.002 A 
ATOM      6  C7  UNL d   1      -0.013   4.561   1.354  0.00  0.00     0.002 A 
ENDROOT
BRANCH   1   7
ATOM      7  C1  UNL d   1       2.382   3.863   0.970  0.00  0.00     0.055 C 
ATOM      8  C   UNL d   1       3.045   5.124   1.505  0.00  0.00     0.019 C 
ENDBRANCH   1   7
TORSDOF 1
ENDMDL
