MODEL 1
REMARK minimizedAffinity 9.66822815
REMARK minimizedRMSD -1
REMARK  1 active torsions:
REMARK  status: ('A' for Active; 'I' for Inactive)
REMARK    1  A    between atoms: C1_2  and  C2_3 
ROOT
ATOM      1  C2  UNL d   1      -1.070  -1.277   1.800  0.00  0.00    -0.077 A 
ATOM      2  C3  UNL d   1      -0.437  -0.091   2.200  0.00  0.00     0.002 A 
ATOM      3  C4  UNL d   1      -0.429   0.286   3.544  0.00  0.00     0.002 A 
ATOM      4  C5  UNL d   1      -1.048  -0.517   4.499  0.00  0.00    -0.004 A 
ATOM      5  C6  UNL d   1      -1.682  -1.697   4.112  0.00  0.00     0.002 A 
ATOM      6  C7  UNL d   1      -1.693  -2.075   2.768  0.00  0.00     0.002 A 
ENDROOT
BRANCH   1   7
ATOM      7  C1  UNL d   1      -1.038  -1.711   0.358  0.00  0.00     0.055 C 
ATOM      8  C   UNL d   1      -2.136  -1.033  -0.449  0.00  0.00     0.019 C 
ENDBRANCH   1   7
TORSDOF 1
ENDMDL
