MODEL 1
REMARK minimizedAffinity 5.31266594
REMARK minimizedRMSD -1
REMARK  1 active torsions:
REMARK  status: ('A' for Active; 'I' for Inactive)
REMARK    1  A    between atoms: C1_2  and  C2_3 
ROOT
ATOM      1  C2  UNL d   1       2.234   4.318  -3.422  0.00  0.00    -0.077 A 
ATOM      2  C3  UNL d   1       1.672   3.685  -4.539  0.00  0.00     0.002 A 
ATOM      3  C4  UNL d   1       1.868   4.206  -5.820  0.00  0.00     0.002 A 
ATOM      4  C5  UNL d   1       2.628   5.360  -5.995  0.00  0.00    -0.004 A 
ATOM      5  C6  UNL d   1       3.190   5.998  -4.890  0.00  0.00     0.002 A 
ATOM      6  C7  UNL d   1       2.994   5.480  -3.610  0.00  0.00     0.002 A 
ENDROOT
BRANCH   1   7
ATOM      7  C1  UNL d   1       2.065   3.730  -2.046  0.00  0.00     0.055 C 
ATOM      8  C   UNL d   1       3.409   3.360  -1.433  0.00  0.00     0.019 C 
ENDBRANCH   1   7
TORSDOF 1
ENDMDL
