MODEL 1
REMARK minimizedAffinity 5.65452576
REMARK minimizedRMSD -1
REMARK  1 active torsions:
REMARK  status: ('A' for Active; 'I' for Inactive)
REMARK    1  A    between atoms: C1_2  and  C2_3 
ROOT
ATOM      1  C2  UNL d   1       0.538  -0.356   1.990  0.00  0.00    -0.077 A 
ATOM      2  C3  UNL d   1      -0.195  -1.265   1.214  0.00  0.00     0.002 A 
ATOM      3  C4  UNL d   1      -1.160  -2.082   1.805  0.00  0.00     0.002 A 
ATOM      4  C5  UNL d   1      -1.404  -1.997   3.174  0.00  0.00    -0.004 A 
ATOM      5  C6  UNL d   1      -0.679  -1.098   3.956  0.00  0.00     0.002 A 
ATOM      6  C7  UNL d   1       0.287  -0.281   3.366  0.00  0.00     0.002 A 
ENDROOT
BRANCH   1   7
ATOM      7  C1  UNL d   1       1.544   0.561   1.346  0.00  0.00     0.055 C 
ATOM      8  C   UNL d   1       2.879  -0.140   1.140  0.00  0.00     0.019 C 
ENDBRANCH   1   7
TORSDOF 1
ENDMDL
