MODEL 1
REMARK minimizedAffinity 7.25421476
REMARK minimizedRMSD -1
REMARK  1 active torsions:
REMARK  status: ('A' for Active; 'I' for Inactive)
REMARK    1  A    between atoms: C1_2  and  C2_3 
ROOT
ATOM      1  C2  UNL d   1      -2.021  -2.533  -3.468  0.00  0.00    -0.077 A 
ATOM      2  C3  UNL d   1      -3.095  -3.417  -3.650  0.00  0.00     0.002 A 
ATOM      3  C4  UNL d   1      -3.320  -4.008  -4.894  0.00  0.00     0.002 A 
ATOM      4  C5  UNL d   1      -2.475  -3.726  -5.965  0.00  0.00    -0.004 A 
ATOM      5  C6  UNL d   1      -1.406  -2.847  -5.795  0.00  0.00     0.002 A 
ATOM      6  C7  UNL d   1      -1.180  -2.254  -4.553  0.00  0.00     0.002 A 
ENDROOT
BRANCH   1   7
ATOM      7  C1  UNL d   1      -1.747  -1.933  -2.114  0.00  0.00     0.055 C 
ATOM      8  C   UNL d   1      -0.735  -2.761  -1.336  0.00  0.00     0.019 C 
ENDBRANCH   1   7
TORSDOF 1
ENDMDL
