MODEL 1
REMARK minimizedAffinity 5.66289043
REMARK minimizedRMSD -1
REMARK  1 active torsions:
REMARK  status: ('A' for Active; 'I' for Inactive)
REMARK    1  A    between atoms: C1_2  and  C2_3 
ROOT
ATOM      1  C2  UNL d   1       1.373   3.616   1.609  0.00  0.00    -0.077 A 
ATOM      2  C3  UNL d   1       0.131   4.265   1.561  0.00  0.00     0.002 A 
ATOM      3  C4  UNL d   1      -0.991   3.689   2.159  0.00  0.00     0.002 A 
ATOM      4  C5  UNL d   1      -0.881   2.464   2.814  0.00  0.00    -0.004 A 
ATOM      5  C6  UNL d   1       0.349   1.809   2.866  0.00  0.00     0.002 A 
ATOM      6  C7  UNL d   1       1.471   2.383   2.267  0.00  0.00     0.002 A 
ENDROOT
BRANCH   1   7
ATOM      7  C1  UNL d   1       2.595   4.259   1.007  0.00  0.00     0.055 C 
ATOM      8  C   UNL d   1       3.242   5.235   1.978  0.00  0.00     0.019 C 
ENDBRANCH   1   7
TORSDOF 1
ENDMDL
