MODEL 1
REMARK minimizedAffinity 6.23719072
REMARK minimizedRMSD -1
REMARK  1 active torsions:
REMARK  status: ('A' for Active; 'I' for Inactive)
REMARK    1  A    between atoms: C1_2  and  C2_3 
ROOT
ATOM      1  C2  UNL d   1       1.639   3.374  -3.673  0.00  0.00    -0.077 A 
ATOM      2  C3  UNL d   1       1.846   4.761  -3.682  0.00  0.00     0.002 A 
ATOM      3  C4  UNL d   1       2.289   5.401  -4.841  0.00  0.00     0.002 A 
ATOM      4  C5  UNL d   1       2.525   4.664  -5.999  0.00  0.00    -0.004 A 
ATOM      5  C6  UNL d   1       2.324   3.284  -6.000  0.00  0.00     0.002 A 
ATOM      6  C7  UNL d   1       1.883   2.642  -4.842  0.00  0.00     0.002 A 
ENDROOT
BRANCH   1   7
ATOM      7  C1  UNL d   1       1.115   2.689  -2.438  0.00  0.00     0.055 C 
ATOM      8  C   UNL d   1       2.243   2.334  -1.480  0.00  0.00     0.019 C 
ENDBRANCH   1   7
TORSDOF 1
ENDMDL
