MODEL 1
REMARK minimizedAffinity 8.02018738
REMARK minimizedRMSD -1
REMARK  1 active torsions:
REMARK  status: ('A' for Active; 'I' for Inactive)
REMARK    1  A    between atoms: C1_2  and  C2_3 
ROOT
ATOM      1  C2  UNL d   1       3.545  -0.009  -5.029  0.00  0.00    -0.077 A 
ATOM      2  C3  UNL d   1       2.672  -0.912  -5.651  0.00  0.00     0.002 A 
ATOM      3  C4  UNL d   1       2.786  -2.283  -5.411  0.00  0.00     0.002 A 
ATOM      4  C5  UNL d   1       3.768  -2.762  -4.546  0.00  0.00    -0.004 A 
ATOM      5  C6  UNL d   1       4.641  -1.871  -3.923  0.00  0.00     0.002 A 
ATOM      6  C7  UNL d   1       4.530  -0.501  -4.163  0.00  0.00     0.002 A 
ENDROOT
BRANCH   1   7
ATOM      7  C1  UNL d   1       3.392   1.474  -5.248  0.00  0.00     0.055 C 
ATOM      8  C   UNL d   1       2.108   1.793  -6.000  0.00  0.00     0.019 C 
ENDBRANCH   1   7
TORSDOF 1
ENDMDL
