MODEL 1
REMARK minimizedAffinity 6.2532053
REMARK minimizedRMSD -1
REMARK  1 active torsions:
REMARK  status: ('A' for Active; 'I' for Inactive)
REMARK    1  A    between atoms: C1_2  and  C2_3 
ROOT
ATOM      1  C2  UNL d   1      -1.678  -2.299   1.393  0.00  0.00    -0.077 A 
ATOM      2  C3  UNL d   1      -2.790  -1.765   0.727  0.00  0.00     0.002 A 
ATOM      3  C4  UNL d   1      -2.813  -1.697  -0.667  0.00  0.00     0.002 A 
ATOM      4  C5  UNL d   1      -1.729  -2.165  -1.407  0.00  0.00    -0.004 A 
ATOM      5  C6  UNL d   1      -0.617  -2.695  -0.754  0.00  0.00     0.002 A 
ATOM      6  C7  UNL d   1      -0.592  -2.763   0.640  0.00  0.00     0.002 A 
ENDROOT
BRANCH   1   7
ATOM      7  C1  UNL d   1      -1.672  -2.418   2.895  0.00  0.00     0.055 C 
ATOM      8  C   UNL d   1      -2.198  -3.774   3.344  0.00  0.00     0.019 C 
ENDBRANCH   1   7
TORSDOF 1
ENDMDL
