MODEL 1
REMARK minimizedAffinity 2.75764871
REMARK minimizedRMSD -1
REMARK  1 active torsions:
REMARK  status: ('A' for Active; 'I' for Inactive)
REMARK    1  A    between atoms: C1_2  and  C2_3 
ROOT
ATOM      1  C2  UNL d   1       2.578   3.473  -5.383  0.00  0.00    -0.077 A 
ATOM      2  C3  UNL d   1       2.086   4.632  -6.000  0.00  0.00     0.002 A 
ATOM      3  C4  UNL d   1       2.356   5.889  -5.456  0.00  0.00     0.002 A 
ATOM      4  C5  UNL d   1       3.120   6.000  -4.297  0.00  0.00    -0.004 A 
ATOM      5  C6  UNL d   1       3.611   4.853  -3.675  0.00  0.00     0.002 A 
ATOM      6  C7  UNL d   1       3.342   3.595  -4.216  0.00  0.00     0.002 A 
ENDROOT
BRANCH   1   7
ATOM      7  C1  UNL d   1       2.330   2.119  -5.995  0.00  0.00     0.055 C 
ATOM      8  C   UNL d   1       3.588   1.263  -5.973  0.00  0.00     0.019 C 
ENDBRANCH   1   7
TORSDOF 1
ENDMDL
