MODEL 1
REMARK minimizedAffinity 3.54844642
REMARK minimizedRMSD -1
REMARK  1 active torsions:
REMARK  status: ('A' for Active; 'I' for Inactive)
REMARK    1  A    between atoms: C1_2  and  C2_3 
ROOT
ATOM      1  C2  UNL d   1      -1.724  -3.326  -3.317  0.00  0.00    -0.077 A 
ATOM      2  C3  UNL d   1      -2.234  -4.587  -3.660  0.00  0.00     0.002 A 
ATOM      3  C4  UNL d   1      -2.484  -4.909  -4.995  0.00  0.00     0.002 A 
ATOM      4  C5  UNL d   1      -2.223  -3.978  -5.998  0.00  0.00    -0.004 A 
ATOM      5  C6  UNL d   1      -1.719  -2.721  -5.668  0.00  0.00     0.002 A 
ATOM      6  C7  UNL d   1      -1.469  -2.397  -4.334  0.00  0.00     0.002 A 
ENDROOT
BRANCH   1   7
ATOM      7  C1  UNL d   1      -1.408  -2.995  -1.882  0.00  0.00     0.055 C 
ATOM      8  C   UNL d   1      -2.295  -1.872  -1.365  0.00  0.00     0.019 C 
ENDBRANCH   1   7
TORSDOF 1
ENDMDL
