MODEL 1
REMARK minimizedAffinity 2.46318746
REMARK minimizedRMSD -1
REMARK  1 active torsions:
REMARK  status: ('A' for Active; 'I' for Inactive)
REMARK    1  A    between atoms: C1_2  and  C2_3 
ROOT
ATOM      1  C2  UNL d   1       1.002   4.288   0.058  0.00  0.00    -0.077 A 
ATOM      2  C3  UNL d   1       0.564   3.908  -1.218  0.00  0.00     0.002 A 
ATOM      3  C4  UNL d   1      -0.602   4.454  -1.757  0.00  0.00     0.002 A 
ATOM      4  C5  UNL d   1      -1.338   5.387  -1.028  0.00  0.00    -0.004 A 
ATOM      5  C6  UNL d   1      -0.912   5.770   0.243  0.00  0.00     0.002 A 
ATOM      6  C7  UNL d   1       0.253   5.224   0.783  0.00  0.00     0.002 A 
ENDROOT
BRANCH   1   7
ATOM      7  C1  UNL d   1       2.286   3.737   0.621  0.00  0.00     0.055 C 
ATOM      8  C   UNL d   1       3.163   4.845   1.186  0.00  0.00     0.019 C 
ENDBRANCH   1   7
TORSDOF 1
ENDMDL
