MODEL 1
REMARK minimizedAffinity -1.53296483
REMARK minimizedRMSD -1
REMARK  0 active torsions:
REMARK  status: ('A' for Active; 'I' for Inactive)
ROOT
ATOM      1  C4' PXY d   1      -0.982   1.052  -2.108  0.00  0.00     0.077 C 
ATOM      2  C1' PXY d   1       0.341  -1.430   2.942  0.00  0.00     0.077 C 
ATOM      3  C1  PXY d   1       0.007  -0.779   1.615  0.00  0.00    -0.082 A 
ATOM      4  C2  PXY d   1      -1.117  -0.093   1.487  0.00  0.00     0.003 A 
ATOM      5  C3  PXY d   1      -1.451   0.476   0.285  0.00  0.00     0.003 A 
ATOM      6  C4  PXY d   1      -0.599   0.386  -0.784  0.00  0.00    -0.082 A 
ATOM      7  C5  PXY d   1       0.555  -0.304  -0.659  0.00  0.00     0.003 A 
ATOM      8  C6  PXY d   1       0.855  -0.908   0.559  0.00  0.00     0.003 A 
ENDROOT
TORSDOF 0
ENDMDL
