MODEL 1
REMARK minimizedAffinity -4.66305208
REMARK minimizedRMSD -1
REMARK  0 active torsions:
REMARK  status: ('A' for Active; 'I' for Inactive)
ROOT
ATOM      1  C4' PXY d   1       0.781  -1.921   3.069  0.00  0.00     0.077 C 
ATOM      2  C1' PXY d   1      -0.381   1.163  -1.681  0.00  0.00     0.077 C 
ATOM      3  C1  PXY d   1      -0.072   0.345  -0.443  0.00  0.00    -0.082 A 
ATOM      4  C2  PXY d   1      -0.728   0.584   0.681  0.00  0.00     0.003 A 
ATOM      5  C3  PXY d   1      -0.439  -0.125   1.818  0.00  0.00     0.003 A 
ATOM      6  C4  PXY d   1       0.495  -1.125   1.792  0.00  0.00    -0.082 A 
ATOM      7  C5  PXY d   1       1.162  -1.383   0.647  0.00  0.00     0.003 A 
ATOM      8  C6  PXY d   1       0.883  -0.624  -0.486  0.00  0.00     0.003 A 
ENDROOT
TORSDOF 0
ENDMDL
