MODEL 1
REMARK minimizedAffinity -3.40634489
REMARK minimizedRMSD -1
REMARK  0 active torsions:
REMARK  status: ('A' for Active; 'I' for Inactive)
ROOT
ATOM      1  C4' PXY d   1      -1.505   1.460  -1.997  0.00  0.00     0.077 C 
ATOM      2  C1' PXY d   1       1.038  -1.551   2.232  0.00  0.00     0.077 C 
ATOM      3  C1  PXY d   1       0.381  -0.764   1.116  0.00  0.00    -0.082 A 
ATOM      4  C2  PXY d   1      -0.539   0.141   1.407  0.00  0.00     0.003 A 
ATOM      5  C3  PXY d   1      -1.166   0.839   0.407  0.00  0.00     0.003 A 
ATOM      6  C4  PXY d   1      -0.809   0.648  -0.901  0.00  0.00    -0.082 A 
ATOM      7  C5  PXY d   1       0.137  -0.266  -1.205  0.00  0.00     0.003 A 
ATOM      8  C6  PXY d   1       0.732  -0.994  -0.179  0.00  0.00     0.003 A 
ENDROOT
TORSDOF 0
ENDMDL
