MODEL 1
REMARK minimizedAffinity -1.09061682
REMARK minimizedRMSD -1
REMARK  0 active torsions:
REMARK  status: ('A' for Active; 'I' for Inactive)
ROOT
ATOM      1  C4' PXY d   1      -0.534  -0.855   1.608  0.00  0.00     0.077 C 
ATOM      2  C1' PXY d   1      -0.149   3.098  -2.592  0.00  0.00     0.077 C 
ATOM      3  C1  PXY d   1      -0.260   2.056  -1.497  0.00  0.00    -0.082 A 
ATOM      4  C2  PXY d   1       0.233   2.314  -0.296  0.00  0.00     0.003 A 
ATOM      5  C3  PXY d   1       0.170   1.370   0.697  0.00  0.00     0.003 A 
ATOM      6  C4  PXY d   1      -0.453   0.171   0.475  0.00  0.00    -0.082 A 
ATOM      7  C5  PXY d   1      -0.968  -0.095  -0.744  0.00  0.00     0.003 A 
ATOM      8  C6  PXY d   1      -0.857   0.860  -1.751  0.00  0.00     0.003 A 
ENDROOT
TORSDOF 0
ENDMDL
