MODEL 1
REMARK minimizedAffinity -2.95583367
REMARK minimizedRMSD -1
REMARK  0 active torsions:
REMARK  status: ('A' for Active; 'I' for Inactive)
ROOT
ATOM      1  C4' PXY d   1      -0.579   3.092  -2.509  0.00  0.00     0.077 C 
ATOM      2  C1' PXY d   1      -0.702  -0.790   1.772  0.00  0.00     0.077 C 
ATOM      3  C1  PXY d   1      -0.665   0.219   0.641  0.00  0.00    -0.082 A 
ATOM      4  C2  PXY d   1      -0.644   1.512   0.920  0.00  0.00     0.003 A 
ATOM      5  C3  PXY d   1      -0.642   2.439  -0.091  0.00  0.00     0.003 A 
ATOM      6  C4  PXY d   1      -0.608   2.038  -1.399  0.00  0.00    -0.082 A 
ATOM      7  C5  PXY d   1      -0.618   0.720  -1.691  0.00  0.00     0.003 A 
ATOM      8  C6  PXY d   1      -0.661  -0.205  -0.652  0.00  0.00     0.003 A 
ENDROOT
TORSDOF 0
ENDMDL
