MODEL 1
REMARK minimizedAffinity -0.29622227
REMARK minimizedRMSD -1
REMARK  0 active torsions:
REMARK  status: ('A' for Active; 'I' for Inactive)
ROOT
ATOM      1  C4' PXY d   1      -2.010   0.342   2.284  0.00  0.00     0.077 C 
ATOM      2  C1' PXY d   1       2.273  -1.517  -1.124  0.00  0.00     0.077 C 
ATOM      3  C1  PXY d   1       1.153  -1.040  -0.222  0.00  0.00    -0.082 A 
ATOM      4  C2  PXY d   1       0.167  -0.318  -0.730  0.00  0.00     0.003 A 
ATOM      5  C3  PXY d   1      -0.838   0.149   0.078  0.00  0.00     0.003 A 
ATOM      6  C4  PXY d   1      -0.862  -0.170   1.409  0.00  0.00    -0.082 A 
ATOM      7  C5  PXY d   1       0.134  -0.915   1.933  0.00  0.00     0.003 A 
ATOM      8  C6  PXY d   1       1.167  -1.345   1.104  0.00  0.00     0.003 A 
ENDROOT
TORSDOF 0
ENDMDL
