MODEL 1
REMARK minimizedAffinity -4.60072327
REMARK minimizedRMSD -1
REMARK  0 active torsions:
REMARK  status: ('A' for Active; 'I' for Inactive)
ROOT
ATOM      1  C4' PXY d   1       0.176   2.252  -3.766  0.00  0.00     0.077 C 
ATOM      2  C1' PXY d   1      -1.155   0.056   1.412  0.00  0.00     0.077 C 
ATOM      3  C1  PXY d   1      -0.817   0.638   0.054  0.00  0.00    -0.082 A 
ATOM      4  C2  PXY d   1       0.039   0.007  -0.734  0.00  0.00     0.003 A 
ATOM      5  C3  PXY d   1       0.380   0.536  -1.952  0.00  0.00     0.003 A 
ATOM      6  C4  PXY d   1      -0.201   1.696  -2.391  0.00  0.00    -0.082 A 
ATOM      7  C5  PXY d   1      -1.083   2.340  -1.597  0.00  0.00     0.003 A 
ATOM      8  C6  PXY d   1      -1.385   1.808  -0.347  0.00  0.00     0.003 A 
ENDROOT
TORSDOF 0
ENDMDL
