MODEL 1
REMARK minimizedAffinity -0.958616495
REMARK minimizedRMSD -1
REMARK  0 active torsions:
REMARK  status: ('A' for Active; 'I' for Inactive)
ROOT
ATOM      1  C4' PXY d   1       2.758  -2.753   0.505  0.00  0.00     0.077 C 
ATOM      2  C1' PXY d   1      -1.826   0.608   1.556  0.00  0.00     0.077 C 
ATOM      3  C1  PXY d   1      -0.627  -0.274   1.268  0.00  0.00    -0.082 A 
ATOM      4  C2  PXY d   1      -0.107  -1.009   2.238  0.00  0.00     0.003 A 
ATOM      5  C3  PXY d   1       0.997  -1.787   2.002  0.00  0.00     0.003 A 
ATOM      6  C4  PXY d   1       1.541  -1.855   0.748  0.00  0.00    -0.082 A 
ATOM      7  C5  PXY d   1       1.010  -1.117  -0.249  0.00  0.00     0.003 A 
ATOM      8  C6  PXY d   1      -0.085  -0.302   0.020  0.00  0.00     0.003 A 
ENDROOT
TORSDOF 0
ENDMDL
