MODEL 1
REMARK minimizedAffinity -1.21242833
REMARK minimizedRMSD -1
REMARK  0 active torsions:
REMARK  status: ('A' for Active; 'I' for Inactive)
ROOT
ATOM      1  C4' PXY d   1      -1.200   1.305  -2.234  0.00  0.00     0.077 C 
ATOM      2  C1' PXY d   1       0.265  -1.662   2.506  0.00  0.00     0.077 C 
ATOM      3  C1  PXY d   1      -0.107  -0.882   1.260  0.00  0.00    -0.082 A 
ATOM      4  C2  PXY d   1      -1.282  -0.278   1.192  0.00  0.00     0.003 A 
ATOM      5  C3  PXY d   1      -1.647   0.404   0.060  0.00  0.00     0.003 A 
ATOM      6  C4  PXY d   1      -0.779   0.514  -0.992  0.00  0.00    -0.082 A 
ATOM      7  C5  PXY d   1       0.426  -0.090  -0.927  0.00  0.00     0.003 A 
ATOM      8  C6  PXY d   1       0.761  -0.813   0.215  0.00  0.00     0.003 A 
ENDROOT
TORSDOF 0
ENDMDL
