MODEL 1
REMARK minimizedAffinity -3.88119149
REMARK minimizedRMSD -1
REMARK  2 active torsions:
REMARK  status: ('A' for Active; 'I' for Inactive)
REMARK    1  A    between atoms: C1_2  and  C2_3 
REMARK    2  A    between atoms: C2_3  and  C3_4 
ROOT
ATOM      1  C3  UNL d   1      -0.213   0.501  -0.740  0.00  0.00    -0.075 A 
ATOM      2  C4  UNL d   1      -0.345   1.070   0.535  0.00  0.00     0.002 A 
ATOM      3  C5  UNL d   1      -0.245   2.450   0.708  0.00  0.00     0.002 A 
ATOM      4  C6  UNL d   1      -0.003   3.277  -0.386  0.00  0.00    -0.004 A 
ATOM      5  C7  UNL d   1       0.146   2.722  -1.655  0.00  0.00     0.002 A 
ATOM      6  C8  UNL d   1       0.042   1.341  -1.832  0.00  0.00     0.002 A 
ENDROOT
BRANCH   1   7
ATOM      7  C2  UNL d   1      -0.350  -0.990  -0.939  0.00  0.00     0.056 C 
BRANCH   7   8
ATOM      8  C1  UNL d   1      -1.413  -1.387  -1.968  0.00  0.00     0.007 C 
ATOM      9  C   UNL d   1      -1.561  -2.895  -2.127  0.00  0.00     0.009 C 
ENDBRANCH   7   8
ENDBRANCH   1   7
TORSDOF 2
ENDMDL
