MODEL 1
REMARK minimizedAffinity -4.45927811
REMARK minimizedRMSD -1
REMARK  2 active torsions:
REMARK  status: ('A' for Active; 'I' for Inactive)
REMARK    1  A    between atoms: C1_2  and  C2_3 
REMARK    2  A    between atoms: C2_3  and  C3_4 
ROOT
ATOM      1  C3  UNL d   1      -0.316  -0.250  -0.120  0.00  0.00    -0.075 A 
ATOM      2  C4  UNL d   1      -1.372   0.051   0.752  0.00  0.00     0.002 A 
ATOM      3  C5  UNL d   1      -1.689   1.377   1.050  0.00  0.00     0.002 A 
ATOM      4  C6  UNL d   1      -0.951   2.416   0.488  0.00  0.00    -0.004 A 
ATOM      5  C7  UNL d   1       0.111   2.128  -0.366  0.00  0.00     0.002 A 
ATOM      6  C8  UNL d   1       0.428   0.803  -0.670  0.00  0.00     0.002 A 
ENDROOT
BRANCH   1   7
ATOM      7  C2  UNL d   1       0.014  -1.681  -0.470  0.00  0.00     0.056 C 
BRANCH   7   8
ATOM      8  C1  UNL d   1       0.116  -1.948  -1.975  0.00  0.00     0.007 C 
ATOM      9  C   UNL d   1      -0.790  -3.077  -2.447  0.00  0.00     0.009 C 
ENDBRANCH   7   8
ENDBRANCH   1   7
TORSDOF 2
ENDMDL
