MODEL 1
REMARK minimizedAffinity -1.43555939
REMARK minimizedRMSD -1
REMARK  2 active torsions:
REMARK  status: ('A' for Active; 'I' for Inactive)
REMARK    1  A    between atoms: C1_2  and  C2_3 
REMARK    2  A    between atoms: C2_3  and  C3_4 
ROOT
ATOM      1  C3  UNL d   1      -0.179   0.184  -0.272  0.00  0.00    -0.075 A 
ATOM      2  C4  UNL d   1      -0.907   0.983   0.623  0.00  0.00     0.002 A 
ATOM      3  C5  UNL d   1      -0.611   2.339   0.764  0.00  0.00     0.002 A 
ATOM      4  C6  UNL d   1       0.421   2.911   0.023  0.00  0.00    -0.004 A 
ATOM      5  C7  UNL d   1       1.162   2.123  -0.856  0.00  0.00     0.002 A 
ATOM      6  C8  UNL d   1       0.865   0.767  -1.003  0.00  0.00     0.002 A 
ENDROOT
BRANCH   1   7
ATOM      7  C2  UNL d   1      -0.514  -1.277  -0.451  0.00  0.00     0.056 C 
BRANCH   7   8
ATOM      8  C1  UNL d   1      -0.197  -1.823  -1.847  0.00  0.00     0.007 C 
ATOM      9  C   UNL d   1      -0.911  -3.132  -2.157  0.00  0.00     0.009 C 
ENDBRANCH   7   8
ENDBRANCH   1   7
TORSDOF 2
ENDMDL
