MODEL 1
REMARK minimizedAffinity -4.50047779
REMARK minimizedRMSD -1
REMARK  2 active torsions:
REMARK  status: ('A' for Active; 'I' for Inactive)
REMARK    1  A    between atoms: C1_2  and  C2_3 
REMARK    2  A    between atoms: C2_3  and  C3_4 
ROOT
ATOM      1  C3  UNL d   1      -0.033  -1.107  -0.478  0.00  0.00    -0.075 A 
ATOM      2  C4  UNL d   1      -0.012  -0.972  -1.874  0.00  0.00     0.002 A 
ATOM      3  C5  UNL d   1      -0.275  -2.069  -2.695  0.00  0.00     0.002 A 
ATOM      4  C6  UNL d   1      -0.552  -3.313  -2.134  0.00  0.00    -0.004 A 
ATOM      5  C7  UNL d   1      -0.558  -3.462  -0.749  0.00  0.00     0.002 A 
ATOM      6  C8  UNL d   1      -0.300  -2.366   0.076  0.00  0.00     0.002 A 
ENDROOT
BRANCH   1   7
ATOM      7  C2  UNL d   1       0.222   0.083   0.417  0.00  0.00     0.056 C 
BRANCH   7   8
ATOM      8  C1  UNL d   1      -1.048   0.702   1.008  0.00  0.00     0.007 C 
ATOM      9  C   UNL d   1      -1.625   1.822   0.151  0.00  0.00     0.009 C 
ENDBRANCH   7   8
ENDBRANCH   1   7
TORSDOF 2
ENDMDL
