MODEL 1
REMARK minimizedAffinity -0.613878846
REMARK minimizedRMSD -1
REMARK  2 active torsions:
REMARK  status: ('A' for Active; 'I' for Inactive)
REMARK    1  A    between atoms: C1_2  and  C2_3 
REMARK    2  A    between atoms: C2_3  and  C3_4 
ROOT
ATOM      1  C3  UNL d   1       0.557   1.058   0.886  0.00  0.00    -0.075 A 
ATOM      2  C4  UNL d   1      -0.455   0.111   1.100  0.00  0.00     0.002 A 
ATOM      3  C5  UNL d   1      -1.793   0.445   0.889  0.00  0.00     0.002 A 
ATOM      4  C6  UNL d   1      -2.137   1.729   0.471  0.00  0.00    -0.004 A 
ATOM      5  C7  UNL d   1      -1.141   2.682   0.271  0.00  0.00     0.002 A 
ATOM      6  C8  UNL d   1       0.199   2.350   0.478  0.00  0.00     0.002 A 
ENDROOT
BRANCH   1   7
ATOM      7  C2  UNL d   1       2.009   0.695   1.084  0.00  0.00     0.056 C 
BRANCH   7   8
ATOM      8  C1  UNL d   1       2.542  -0.324   0.071  0.00  0.00     0.007 C 
ATOM      9  C   UNL d   1       1.776  -0.317  -1.246  0.00  0.00     0.009 C 
ENDBRANCH   7   8
ENDBRANCH   1   7
TORSDOF 2
ENDMDL
