MODEL 1
REMARK minimizedAffinity -4.38468409
REMARK minimizedRMSD -1
REMARK  2 active torsions:
REMARK  status: ('A' for Active; 'I' for Inactive)
REMARK    1  A    between atoms: C1_2  and  C2_3 
REMARK    2  A    between atoms: C2_3  and  C3_4 
ROOT
ATOM      1  C3  UNL d   1      -0.028   0.075  -0.125  0.00  0.00    -0.075 A 
ATOM      2  C4  UNL d   1      -0.900   0.764   0.731  0.00  0.00     0.002 A 
ATOM      3  C5  UNL d   1      -0.744   2.134   0.947  0.00  0.00     0.002 A 
ATOM      4  C6  UNL d   1       0.288   2.828   0.320  0.00  0.00    -0.004 A 
ATOM      5  C7  UNL d   1       1.170   2.150  -0.519  0.00  0.00     0.002 A 
ATOM      6  C8  UNL d   1       1.014   0.781  -0.740  0.00  0.00     0.002 A 
ENDROOT
BRANCH   1   7
ATOM      7  C2  UNL d   1      -0.209  -1.401  -0.386  0.00  0.00     0.056 C 
BRANCH   7   8
ATOM      8  C1  UNL d   1      -0.383  -1.756  -1.867  0.00  0.00     0.007 C 
ATOM      9  C   UNL d   1      -0.776  -3.209  -2.094  0.00  0.00     0.009 C 
ENDBRANCH   7   8
ENDBRANCH   1   7
TORSDOF 2
ENDMDL
