MODEL 1
REMARK minimizedAffinity -5.79168987
REMARK minimizedRMSD -1
REMARK  2 active torsions:
REMARK  status: ('A' for Active; 'I' for Inactive)
REMARK    1  A    between atoms: C1_2  and  C2_3 
REMARK    2  A    between atoms: C2_3  and  C3_4 
ROOT
ATOM      1  C3  UNL d   1       0.450   0.949  -0.709  0.00  0.00    -0.075 A 
ATOM      2  C4  UNL d   1       1.759   0.724  -0.258  0.00  0.00     0.002 A 
ATOM      3  C5  UNL d   1       2.129  -0.521   0.251  0.00  0.00     0.002 A 
ATOM      4  C6  UNL d   1       1.194  -1.552   0.325  0.00  0.00    -0.004 A 
ATOM      5  C7  UNL d   1      -0.113  -1.334  -0.105  0.00  0.00     0.002 A 
ATOM      6  C8  UNL d   1      -0.484  -0.091  -0.619  0.00  0.00     0.002 A 
ENDROOT
BRANCH   1   7
ATOM      7  C2  UNL d   1       0.052   2.286  -1.289  0.00  0.00     0.056 C 
BRANCH   7   8
ATOM      8  C1  UNL d   1       0.305   3.472  -0.353  0.00  0.00     0.007 C 
ATOM      9  C   UNL d   1      -0.405   3.341   0.988  0.00  0.00     0.009 C 
ENDBRANCH   7   8
ENDBRANCH   1   7
TORSDOF 2
ENDMDL
