MODEL 1
REMARK minimizedAffinity -4.94002342
REMARK minimizedRMSD -1
REMARK  2 active torsions:
REMARK  status: ('A' for Active; 'I' for Inactive)
REMARK    1  A    between atoms: C1_2  and  C2_3 
REMARK    2  A    between atoms: C2_3  and  C3_4 
ROOT
ATOM      1  C3  UNL d   1       0.007   0.240  -0.132  0.00  0.00    -0.075 A 
ATOM      2  C4  UNL d   1      -1.025   0.930   0.522  0.00  0.00     0.002 A 
ATOM      3  C5  UNL d   1      -1.038   2.324   0.552  0.00  0.00     0.002 A 
ATOM      4  C6  UNL d   1      -0.017   3.046  -0.062  0.00  0.00    -0.004 A 
ATOM      5  C7  UNL d   1       1.022   2.372  -0.701  0.00  0.00     0.002 A 
ATOM      6  C8  UNL d   1       1.035   0.977  -0.735  0.00  0.00     0.002 A 
ENDROOT
BRANCH   1   7
ATOM      7  C2  UNL d   1       0.011  -1.268  -0.192  0.00  0.00     0.056 C 
BRANCH   7   8
ATOM      8  C1  UNL d   1       0.144  -1.835  -1.609  0.00  0.00     0.007 C 
ATOM      9  C   UNL d   1      -0.977  -2.798  -1.979  0.00  0.00     0.009 C 
ENDBRANCH   7   8
ENDBRANCH   1   7
TORSDOF 2
ENDMDL
