MODEL 1
REMARK minimizedAffinity -4.39457464
REMARK minimizedRMSD -1
REMARK  2 active torsions:
REMARK  status: ('A' for Active; 'I' for Inactive)
REMARK    1  A    between atoms: C1_2  and  C2_3 
REMARK    2  A    between atoms: C2_3  and  C3_4 
ROOT
ATOM      1  C3  UNL d   1      -0.539  -0.904  -0.074  0.00  0.00    -0.075 A 
ATOM      2  C4  UNL d   1      -1.369  -0.014   0.623  0.00  0.00     0.002 A 
ATOM      3  C5  UNL d   1      -0.988   1.315   0.804  0.00  0.00     0.002 A 
ATOM      4  C6  UNL d   1       0.229   1.769   0.300  0.00  0.00    -0.004 A 
ATOM      5  C7  UNL d   1       1.070   0.890  -0.379  0.00  0.00     0.002 A 
ATOM      6  C8  UNL d   1       0.689  -0.441  -0.565  0.00  0.00     0.002 A 
ENDROOT
BRANCH   1   7
ATOM      7  C2  UNL d   1      -0.958  -2.337  -0.299  0.00  0.00     0.056 C 
BRANCH   7   8
ATOM      8  C1  UNL d   1      -0.641  -2.868  -1.701  0.00  0.00     0.007 C 
ATOM      9  C   UNL d   1      -1.876  -3.339  -2.458  0.00  0.00     0.009 C 
ENDBRANCH   7   8
ENDBRANCH   1   7
TORSDOF 2
ENDMDL
