MODEL 1
REMARK minimizedAffinity -5.23541737
REMARK minimizedRMSD -1
REMARK  2 active torsions:
REMARK  status: ('A' for Active; 'I' for Inactive)
REMARK    1  A    between atoms: C1_2  and  C2_3 
REMARK    2  A    between atoms: C2_3  and  C3_4 
ROOT
ATOM      1  C3  UNL d   1      -0.214  -1.841  -0.982  0.00  0.00    -0.075 A 
ATOM      2  C4  UNL d   1      -0.013  -1.283  -2.253  0.00  0.00     0.002 A 
ATOM      3  C5  UNL d   1      -0.428  -1.963  -3.399  0.00  0.00     0.002 A 
ATOM      4  C6  UNL d   1      -1.038  -3.210  -3.289  0.00  0.00    -0.004 A 
ATOM      5  C7  UNL d   1      -1.228  -3.781  -2.033  0.00  0.00     0.002 A 
ATOM      6  C8  UNL d   1      -0.818  -3.101  -0.885  0.00  0.00     0.002 A 
ENDROOT
BRANCH   1   7
ATOM      7  C2  UNL d   1       0.206  -1.097   0.263  0.00  0.00     0.056 C 
BRANCH   7   8
ATOM      8  C1  UNL d   1       0.399   0.409   0.055  0.00  0.00     0.007 C 
ATOM      9  C   UNL d   1      -0.829   1.229   0.429  0.00  0.00     0.009 C 
ENDBRANCH   7   8
ENDBRANCH   1   7
TORSDOF 2
ENDMDL
