MODEL 1
REMARK minimizedAffinity -6.69520235
REMARK minimizedRMSD -1
REMARK  2 active torsions:
REMARK  status: ('A' for Active; 'I' for Inactive)
REMARK    1  A    between atoms: C1_2  and  C2_3 
REMARK    2  A    between atoms: C2_3  and  C3_4 
ROOT
ATOM      1  C3  UNL d   1      -0.040   0.074  -0.165  0.00  0.00    -0.075 A 
ATOM      2  C4  UNL d   1      -1.119   0.830   0.316  0.00  0.00     0.002 A 
ATOM      3  C5  UNL d   1      -0.983   2.202   0.529  0.00  0.00     0.002 A 
ATOM      4  C6  UNL d   1       0.234   2.832   0.276  0.00  0.00    -0.004 A 
ATOM      5  C7  UNL d   1       1.317   2.087  -0.185  0.00  0.00     0.002 A 
ATOM      6  C8  UNL d   1       1.182   0.715  -0.404  0.00  0.00     0.002 A 
ENDROOT
BRANCH   1   7
ATOM      7  C2  UNL d   1      -0.190  -1.406  -0.426  0.00  0.00     0.056 C 
BRANCH   7   8
ATOM      8  C1  UNL d   1       0.155  -1.825  -1.859  0.00  0.00     0.007 C 
ATOM      9  C   UNL d   1      -0.954  -2.617  -2.537  0.00  0.00     0.009 C 
ENDBRANCH   7   8
ENDBRANCH   1   7
TORSDOF 2
ENDMDL
