MODEL 1
REMARK minimizedAffinity -5.6968627
REMARK minimizedRMSD -1
REMARK  2 active torsions:
REMARK  status: ('A' for Active; 'I' for Inactive)
REMARK    1  A    between atoms: C1_2  and  C2_3 
REMARK    2  A    between atoms: C2_3  and  C3_4 
ROOT
ATOM      1  C3  UNL d   1      -0.891   0.988   0.370  0.00  0.00    -0.075 A 
ATOM      2  C4  UNL d   1      -1.008   0.886  -1.024  0.00  0.00     0.002 A 
ATOM      3  C5  UNL d   1      -0.592   1.931  -1.848  0.00  0.00     0.002 A 
ATOM      4  C6  UNL d   1      -0.064   3.094  -1.292  0.00  0.00    -0.004 A 
ATOM      5  C7  UNL d   1       0.042   3.213   0.092  0.00  0.00     0.002 A 
ATOM      6  C8  UNL d   1      -0.369   2.167   0.920  0.00  0.00     0.002 A 
ENDROOT
BRANCH   1   7
ATOM      7  C2  UNL d   1      -1.312  -0.151   1.267  0.00  0.00     0.056 C 
BRANCH   7   8
ATOM      8  C1  UNL d   1      -0.435  -1.402   1.140  0.00  0.00     0.007 C 
ATOM      9  C   UNL d   1       1.026  -1.083   0.850  0.00  0.00     0.009 C 
ENDBRANCH   7   8
ENDBRANCH   1   7
TORSDOF 2
ENDMDL
