MODEL 1
REMARK minimizedAffinity -6.45576191
REMARK minimizedRMSD -1
REMARK  2 active torsions:
REMARK  status: ('A' for Active; 'I' for Inactive)
REMARK    1  A    between atoms: C1_2  and  C2_3 
REMARK    2  A    between atoms: C2_3  and  C3_4 
ROOT
ATOM      1  C3  UNL d   1       1.444   1.067   0.201  0.00  0.00    -0.075 A 
ATOM      2  C4  UNL d   1       0.180   1.633  -0.024  0.00  0.00     0.002 A 
ATOM      3  C5  UNL d   1       0.020   3.018  -0.052  0.00  0.00     0.002 A 
ATOM      4  C6  UNL d   1       1.115   3.854   0.153  0.00  0.00    -0.004 A 
ATOM      5  C7  UNL d   1       2.372   3.303   0.394  0.00  0.00     0.002 A 
ATOM      6  C8  UNL d   1       2.536   1.916   0.418  0.00  0.00     0.002 A 
ENDROOT
BRANCH   1   7
ATOM      7  C2  UNL d   1       1.630  -0.432   0.203  0.00  0.00     0.056 C 
BRANCH   7   8
ATOM      8  C1  UNL d   1       0.384  -1.216  -0.224  0.00  0.00     0.007 C 
ATOM      9  C   UNL d   1       0.506  -1.826  -1.613  0.00  0.00     0.009 C 
ENDBRANCH   7   8
ENDBRANCH   1   7
TORSDOF 2
ENDMDL
