MODEL 1
REMARK minimizedAffinity -3.63210797
REMARK minimizedRMSD -1
REMARK  0 active torsions:
REMARK  status: ('A' for Active; 'I' for Inactive)
ROOT
ATOM      1  C   UNL d   1      -0.262  -3.419  -1.539  0.00  0.00    -0.002 A 
ATOM      2  C1  UNL d   1      -0.728  -3.838  -0.301  0.00  0.00     0.010 A 
ATOM      3  C2  UNL d   1      -0.873  -2.929   0.749  0.00  0.00     0.041 A 
ATOM      4  C3  UNL d   1      -0.540  -1.578   0.531  0.00  0.00    -0.075 A 
ATOM      5  S   UNL d   1      -0.638  -0.287   1.669  0.00  0.00     0.015 SA
ATOM      6  C4  UNL d   1      -0.064   0.852   0.539  0.00  0.00     0.022 A 
ATOM      7  C5  UNL d   1       0.201   0.279  -0.682  0.00  0.00     0.026 A 
ATOM      8  C6  UNL d   1      -0.069  -1.131  -0.707  0.00  0.00    -0.082 A 
ATOM      9  C7  UNL d   1       0.068  -2.078  -1.751  0.00  0.00     0.045 A 
ENDROOT
TORSDOF 0
ENDMDL
