MODEL 1
REMARK minimizedAffinity -3.27395153
REMARK minimizedRMSD -1
REMARK  0 active torsions:
REMARK  status: ('A' for Active; 'I' for Inactive)
ROOT
ATOM      1  C   UNL d   1      -0.195  -3.478  -0.776  0.00  0.00    -0.002 A 
ATOM      2  C1  UNL d   1       0.254  -3.196  -2.059  0.00  0.00     0.010 A 
ATOM      3  C2  UNL d   1       0.518  -1.881  -2.446  0.00  0.00     0.041 A 
ATOM      4  C3  UNL d   1       0.324  -0.844  -1.513  0.00  0.00    -0.075 A 
ATOM      5  S   UNL d   1       0.584   0.842  -1.764  0.00  0.00     0.015 SA
ATOM      6  C4  UNL d   1       0.106   1.228  -0.174  0.00  0.00     0.022 A 
ATOM      7  C5  UNL d   1      -0.247   0.110   0.544  0.00  0.00     0.026 A 
ATOM      8  C6  UNL d   1      -0.126  -1.102  -0.215  0.00  0.00    -0.082 A 
ATOM      9  C7  UNL d   1      -0.386  -2.446   0.147  0.00  0.00     0.045 A 
ENDROOT
TORSDOF 0
ENDMDL
