MODEL 1
REMARK minimizedAffinity -5.34934425
REMARK minimizedRMSD -1
REMARK  0 active torsions:
REMARK  status: ('A' for Active; 'I' for Inactive)
ROOT
ATOM      1  C   UNL d   1       0.305  -3.646  -0.283  0.00  0.00    -0.002 A 
ATOM      2  C1  UNL d   1       0.069  -2.998   0.921  0.00  0.00     0.010 A 
ATOM      3  C2  UNL d   1       0.015  -1.604   0.979  0.00  0.00     0.041 A 
ATOM      4  C3  UNL d   1       0.201  -0.865  -0.206  0.00  0.00    -0.075 A 
ATOM      5  S   UNL d   1       0.175   0.850  -0.375  0.00  0.00     0.015 SA
ATOM      6  C4  UNL d   1       0.476   0.764  -2.051  0.00  0.00     0.022 A 
ATOM      7  C5  UNL d   1       0.596  -0.535  -2.487  0.00  0.00     0.026 A 
ATOM      8  C6  UNL d   1       0.439  -1.495  -1.431  0.00  0.00    -0.082 A 
ATOM      9  C7  UNL d   1       0.489  -2.909  -1.456  0.00  0.00     0.045 A 
ENDROOT
TORSDOF 0
ENDMDL
