MODEL 1
REMARK minimizedAffinity -4.66825247
REMARK minimizedRMSD -1
REMARK  0 active torsions:
REMARK  status: ('A' for Active; 'I' for Inactive)
ROOT
ATOM      1  C   UNL d   1      -0.602  -3.738  -0.086  0.00  0.00    -0.002 A 
ATOM      2  C1  UNL d   1      -0.765  -2.783   0.907  0.00  0.00     0.010 A 
ATOM      3  C2  UNL d   1      -0.544  -1.431   0.637  0.00  0.00     0.041 A 
ATOM      4  C3  UNL d   1      -0.153  -1.051  -0.662  0.00  0.00    -0.075 A 
ATOM      5  S   UNL d   1       0.172   0.546  -1.224  0.00  0.00     0.015 SA
ATOM      6  C4  UNL d   1       0.536  -0.002  -2.797  0.00  0.00     0.022 A 
ATOM      7  C5  UNL d   1       0.417  -1.367  -2.908  0.00  0.00     0.026 A 
ATOM      8  C6  UNL d   1       0.017  -1.994  -1.680  0.00  0.00    -0.082 A 
ATOM      9  C7  UNL d   1      -0.214  -3.357  -1.374  0.00  0.00     0.045 A 
ENDROOT
TORSDOF 0
ENDMDL
