MODEL 1
REMARK minimizedAffinity -4.97099829
REMARK minimizedRMSD -1
REMARK  0 active torsions:
REMARK  status: ('A' for Active; 'I' for Inactive)
ROOT
ATOM      1  C   UNL d   1      -0.098  -3.395   0.003  0.00  0.00    -0.002 A 
ATOM      2  C1  UNL d   1       0.427  -3.306  -1.278  0.00  0.00     0.010 A 
ATOM      3  C2  UNL d   1       0.640  -2.061  -1.873  0.00  0.00     0.041 A 
ATOM      4  C3  UNL d   1       0.315  -0.895  -1.151  0.00  0.00    -0.075 A 
ATOM      5  S   UNL d   1       0.491   0.737  -1.677  0.00  0.00     0.015 SA
ATOM      6  C4  UNL d   1      -0.126   1.354  -0.214  0.00  0.00     0.022 A 
ATOM      7  C5  UNL d   1      -0.464   0.353   0.666  0.00  0.00     0.026 A 
ATOM      8  C6  UNL d   1      -0.215  -0.960   0.141  0.00  0.00    -0.082 A 
ATOM      9  C7  UNL d   1      -0.420  -2.237   0.716  0.00  0.00     0.045 A 
ENDROOT
TORSDOF 0
ENDMDL
