MODEL 1
REMARK minimizedAffinity 0.568666816
REMARK minimizedRMSD -1
REMARK  0 active torsions:
REMARK  status: ('A' for Active; 'I' for Inactive)
ROOT
ATOM      1  C   UNL d   1      -0.834  -1.145   1.222  0.00  0.00    -0.002 A 
ATOM      2  C1  UNL d   1      -0.208  -1.545   0.049  0.00  0.00     0.010 A 
ATOM      3  C2  UNL d   1       0.545  -0.637  -0.699  0.00  0.00     0.041 A 
ATOM      4  C3  UNL d   1       0.661   0.691  -0.243  0.00  0.00    -0.075 A 
ATOM      5  S   UNL d   1       1.532   1.975  -0.995  0.00  0.00     0.015 SA
ATOM      6  C4  UNL d   1       1.095   3.084   0.224  0.00  0.00     0.022 A 
ATOM      7  C5  UNL d   1       0.304   2.505   1.188  0.00  0.00     0.026 A 
ATOM      8  C6  UNL d   1       0.041   1.116   0.935  0.00  0.00    -0.082 A 
ATOM      9  C7  UNL d   1      -0.716   0.173   1.670  0.00  0.00     0.045 A 
ENDROOT
TORSDOF 0
ENDMDL
