MODEL 1
REMARK minimizedAffinity -1.40267479
REMARK minimizedRMSD -1
REMARK  0 active torsions:
REMARK  status: ('A' for Active; 'I' for Inactive)
ROOT
ATOM      1  C   UNL d   1      -1.075  -1.954   1.236  0.00  0.00    -0.002 A 
ATOM      2  C1  UNL d   1      -0.188  -2.304   0.228  0.00  0.00     0.010 A 
ATOM      3  C2  UNL d   1       0.654  -1.346  -0.340  0.00  0.00     0.041 A 
ATOM      4  C3  UNL d   1       0.590  -0.018   0.127  0.00  0.00    -0.075 A 
ATOM      5  S   UNL d   1       1.525   1.323  -0.420  0.00  0.00     0.015 SA
ATOM      6  C4  UNL d   1       0.769   2.391   0.672  0.00  0.00     0.022 A 
ATOM      7  C5  UNL d   1      -0.176   1.757   1.443  0.00  0.00     0.026 A 
ATOM      8  C6  UNL d   1      -0.295   0.358   1.142  0.00  0.00    -0.082 A 
ATOM      9  C7  UNL d   1      -1.136  -0.636   1.697  0.00  0.00     0.045 A 
ENDROOT
TORSDOF 0
ENDMDL
