MODEL 1
REMARK minimizedAffinity -3.48234081
REMARK minimizedRMSD -1
REMARK  0 active torsions:
REMARK  status: ('A' for Active; 'I' for Inactive)
ROOT
ATOM      1  C   UNL d   1       0.257  -3.677  -1.952  0.00  0.00    -0.002 A 
ATOM      2  C1  UNL d   1       0.436  -2.509  -2.679  0.00  0.00     0.010 A 
ATOM      3  C2  UNL d   1       0.322  -1.262  -2.060  0.00  0.00     0.041 A 
ATOM      4  C3  UNL d   1       0.023  -1.210  -0.684  0.00  0.00    -0.075 A 
ATOM      5  S   UNL d   1      -0.164   0.203   0.286  0.00  0.00     0.015 SA
ATOM      6  C4  UNL d   1      -0.486  -0.711   1.688  0.00  0.00     0.022 A 
ATOM      7  C5  UNL d   1      -0.455  -2.063   1.440  0.00  0.00     0.026 A 
ATOM      8  C6  UNL d   1      -0.161  -2.373   0.069  0.00  0.00    -0.082 A 
ATOM      9  C7  UNL d   1      -0.039  -3.621  -0.588  0.00  0.00     0.045 A 
ENDROOT
TORSDOF 0
ENDMDL
