MODEL 1
REMARK minimizedAffinity -2.47928143
REMARK minimizedRMSD -1
REMARK  0 active torsions:
REMARK  status: ('A' for Active; 'I' for Inactive)
ROOT
ATOM      1  C   UNL d   1      -0.734  -2.650   0.985  0.00  0.00    -0.002 A 
ATOM      2  C1  UNL d   1       0.050  -2.938  -0.122  0.00  0.00     0.010 A 
ATOM      3  C2  UNL d   1       0.601  -1.910  -0.889  0.00  0.00     0.041 A 
ATOM      4  C3  UNL d   1       0.349  -0.574  -0.519  0.00  0.00    -0.075 A 
ATOM      5  S   UNL d   1       0.920   0.848  -1.309  0.00  0.00     0.015 SA
ATOM      6  C4  UNL d   1       0.137   1.872  -0.194  0.00  0.00     0.022 A 
ATOM      7  C5  UNL d   1      -0.549   1.163   0.764  0.00  0.00     0.026 A 
ATOM      8  C6  UNL d   1      -0.437  -0.259   0.592  0.00  0.00    -0.082 A 
ATOM      9  C7  UNL d   1      -0.982  -1.324   1.349  0.00  0.00     0.045 A 
ENDROOT
TORSDOF 0
ENDMDL
