MODEL 1
REMARK minimizedAffinity 21.1755066
REMARK minimizedRMSD -1
REMARK  0 active torsions:
REMARK  status: ('A' for Active; 'I' for Inactive)
ROOT
ATOM      1  C   UNL d   1       4.072   1.681   1.126  0.00  0.00     0.124 A 
ATOM      2  C1  UNL d   1       5.015   2.587   0.662  0.00  0.00     0.062 A 
ATOM      3  C2  UNL d   1       4.947   3.060  -0.646  0.00  0.00     0.162 A 
ATOM      4  C3  UNL d   1       3.932   2.629  -1.498  0.00  0.00    -0.034 A 
ATOM      5  C4  UNL d   1       2.987   1.717  -1.025  0.00  0.00     0.162 A 
ATOM      6  C5  UNL d   1       3.059   1.247   0.283  0.00  0.00     0.062 A 
ATOM      7  F   UNL d   1       2.146   0.371   0.729  0.00  0.00    -0.097 F 
ATOM      8  F1  UNL d   1       1.997   1.281  -1.818  0.00  0.00    -0.096 F 
ATOM      9  I   UNL d   1       3.827   3.334  -3.454  0.00  0.00    -0.060 I 
ATOM     10  F2  UNL d   1       5.873   3.935  -1.067  0.00  0.00    -0.096 F 
ATOM     11  F3  UNL d   1       5.995   3.008   1.474  0.00  0.00    -0.097 F 
ATOM     12  F4  UNL d   1       4.140   1.227   2.384  0.00  0.00    -0.092 F 
ENDROOT
TORSDOF 0
ENDMDL
