MODEL 1
REMARK minimizedAffinity 19.6801109
REMARK minimizedRMSD -1
REMARK  0 active torsions:
REMARK  status: ('A' for Active; 'I' for Inactive)
ROOT
ATOM      1  C   UNL d   1       0.029  -1.660   3.776  0.00  0.00     0.124 A 
ATOM      2  C1  UNL d   1      -0.142  -2.079   2.464  0.00  0.00     0.062 A 
ATOM      3  C2  UNL d   1      -1.116  -1.490   1.663  0.00  0.00     0.162 A 
ATOM      4  C3  UNL d   1      -1.926  -0.475   2.171  0.00  0.00    -0.034 A 
ATOM      5  C4  UNL d   1      -1.748  -0.060   3.492  0.00  0.00     0.162 A 
ATOM      6  C5  UNL d   1      -0.774  -0.651   4.289  0.00  0.00     0.062 A 
ATOM      7  F   UNL d   1      -0.609  -0.245   5.556  0.00  0.00    -0.097 F 
ATOM      8  F1  UNL d   1      -2.510   0.914   4.013  0.00  0.00    -0.096 F 
ATOM      9  I   UNL d   1      -3.384   0.408   0.977  0.00  0.00    -0.060 I 
ATOM     10  F2  UNL d   1      -1.260  -1.915   0.399  0.00  0.00    -0.096 F 
ATOM     11  F3  UNL d   1       0.631  -3.055   1.966  0.00  0.00    -0.097 F 
ATOM     12  F4  UNL d   1       0.967  -2.229   4.545  0.00  0.00    -0.092 F 
ENDROOT
TORSDOF 0
ENDMDL
