MODEL 1
REMARK minimizedAffinity 21.3120136
REMARK minimizedRMSD -1
REMARK  0 active torsions:
REMARK  status: ('A' for Active; 'I' for Inactive)
ROOT
ATOM      1  C   UNL d   1       2.209   3.677  -3.330  0.00  0.00     0.124 A 
ATOM      2  C1  UNL d   1       2.909   4.840  -3.041  0.00  0.00     0.062 A 
ATOM      3  C2  UNL d   1       3.991   4.806  -2.165  0.00  0.00     0.162 A 
ATOM      4  C3  UNL d   1       4.380   3.605  -1.573  0.00  0.00    -0.034 A 
ATOM      5  C4  UNL d   1       3.671   2.439  -1.868  0.00  0.00     0.162 A 
ATOM      6  C5  UNL d   1       2.590   2.478  -2.744  0.00  0.00     0.062 A 
ATOM      7  F   UNL d   1       1.915   1.353  -3.022  0.00  0.00    -0.097 F 
ATOM      8  F1  UNL d   1       4.018   1.267  -1.317  0.00  0.00    -0.096 F 
ATOM      9  I   UNL d   1       5.997   3.551  -0.264  0.00  0.00    -0.060 I 
ATOM     10  F2  UNL d   1       4.649   5.945  -1.904  0.00  0.00    -0.096 F 
ATOM     11  F3  UNL d   1       2.542   5.999  -3.605  0.00  0.00    -0.097 F 
ATOM     12  F4  UNL d   1       1.168   3.712  -4.172  0.00  0.00    -0.092 F 
ENDROOT
TORSDOF 0
ENDMDL
