MODEL 1
REMARK minimizedAffinity 21.4921856
REMARK minimizedRMSD -1
REMARK  0 active torsions:
REMARK  status: ('A' for Active; 'I' for Inactive)
ROOT
ATOM      1  C   UNL d   1      -0.793  -1.320   1.514  0.00  0.00     0.124 A 
ATOM      2  C1  UNL d   1      -1.820  -0.668   2.182  0.00  0.00     0.062 A 
ATOM      3  C2  UNL d   1      -3.034  -1.314   2.400  0.00  0.00     0.162 A 
ATOM      4  C3  UNL d   1      -3.227  -2.620   1.950  0.00  0.00    -0.034 A 
ATOM      5  C4  UNL d   1      -2.190  -3.269   1.278  0.00  0.00     0.162 A 
ATOM      6  C5  UNL d   1      -0.978  -2.620   1.063  0.00  0.00     0.062 A 
ATOM      7  F   UNL d   1       0.013  -3.251   0.418  0.00  0.00    -0.097 F 
ATOM      8  F1  UNL d   1      -2.341  -4.525   0.833  0.00  0.00    -0.096 F 
ATOM      9  I   UNL d   1      -5.041  -3.588   2.274  0.00  0.00    -0.060 I 
ATOM     10  F2  UNL d   1      -4.009  -0.659   3.048  0.00  0.00    -0.096 F 
ATOM     11  F3  UNL d   1      -1.644   0.587   2.618  0.00  0.00    -0.097 F 
ATOM     12  F4  UNL d   1       0.374  -0.697   1.305  0.00  0.00    -0.092 F 
ENDROOT
TORSDOF 0
ENDMDL
