MODEL 1
REMARK minimizedAffinity 26.256588
REMARK minimizedRMSD -1
REMARK  0 active torsions:
REMARK  status: ('A' for Active; 'I' for Inactive)
ROOT
ATOM      1  C   UNL d   1      -3.083   0.409   3.070  0.00  0.00     0.124 A 
ATOM      2  C1  UNL d   1      -2.299   0.356   4.214  0.00  0.00     0.062 A 
ATOM      3  C2  UNL d   1      -1.032  -0.219   4.168  0.00  0.00     0.162 A 
ATOM      4  C3  UNL d   1      -0.540  -0.743   2.973  0.00  0.00    -0.034 A 
ATOM      5  C4  UNL d   1      -1.334  -0.686   1.827  0.00  0.00     0.162 A 
ATOM      6  C5  UNL d   1      -2.600  -0.111   1.878  0.00  0.00     0.062 A 
ATOM      7  F   UNL d   1      -3.355  -0.060   0.771  0.00  0.00    -0.097 F 
ATOM      8  F1  UNL d   1      -0.892  -1.181   0.661  0.00  0.00    -0.096 F 
ATOM      9  I   UNL d   1       1.354  -1.603   2.901  0.00  0.00    -0.060 I 
ATOM     10  F2  UNL d   1      -0.296  -0.257   5.289  0.00  0.00    -0.096 F 
ATOM     11  F3  UNL d   1      -2.763   0.857   5.367  0.00  0.00    -0.097 F 
ATOM     12  F4  UNL d   1      -4.302   0.962   3.117  0.00  0.00    -0.092 F 
ENDROOT
TORSDOF 0
ENDMDL
