MODEL 1
REMARK minimizedAffinity 17.4039669
REMARK minimizedRMSD -1
REMARK  0 active torsions:
REMARK  status: ('A' for Active; 'I' for Inactive)
ROOT
ATOM      1  C   UNL d   1      -2.217  -0.417   1.815  0.00  0.00     0.124 A 
ATOM      2  C1  UNL d   1      -1.758   0.016   3.051  0.00  0.00     0.062 A 
ATOM      3  C2  UNL d   1      -0.616  -0.550   3.611  0.00  0.00     0.162 A 
ATOM      4  C3  UNL d   1       0.075  -1.554   2.935  0.00  0.00    -0.034 A 
ATOM      5  C4  UNL d   1      -0.393  -1.985   1.692  0.00  0.00     0.162 A 
ATOM      6  C5  UNL d   1      -1.534  -1.417   1.137  0.00  0.00     0.062 A 
ATOM      7  F   UNL d   1      -1.977  -1.836  -0.058  0.00  0.00    -0.097 F 
ATOM      8  F1  UNL d   1       0.248  -2.949   1.014  0.00  0.00    -0.096 F 
ATOM      9  I   UNL d   1       1.783  -2.403   3.768  0.00  0.00    -0.060 I 
ATOM     10  F2  UNL d   1      -0.196  -0.112   4.807  0.00  0.00    -0.096 F 
ATOM     11  F3  UNL d   1      -2.417   0.981   3.709  0.00  0.00    -0.097 F 
ATOM     12  F4  UNL d   1      -3.317   0.129   1.279  0.00  0.00    -0.092 F 
ENDROOT
TORSDOF 0
ENDMDL
