MODEL 1
REMARK minimizedAffinity 17.3428288
REMARK minimizedRMSD -1
REMARK  0 active torsions:
REMARK  status: ('A' for Active; 'I' for Inactive)
ROOT
ATOM      1  C   UNL d   1       4.148   1.491   1.354  0.00  0.00     0.124 A 
ATOM      2  C1  UNL d   1       5.033   2.401   0.792  0.00  0.00     0.062 A 
ATOM      3  C2  UNL d   1       4.922   2.748  -0.551  0.00  0.00     0.162 A 
ATOM      4  C3  UNL d   1       3.920   2.187  -1.342  0.00  0.00    -0.034 A 
ATOM      5  C4  UNL d   1       3.033   1.272  -0.771  0.00  0.00     0.162 A 
ATOM      6  C5  UNL d   1       3.149   0.928   0.572  0.00  0.00     0.062 A 
ATOM      7  F   UNL d   1       2.293   0.049   1.112  0.00  0.00    -0.097 F 
ATOM      8  F1  UNL d   1       2.059   0.713  -1.503  0.00  0.00    -0.096 F 
ATOM      9  I   UNL d   1       3.750   2.704  -3.351  0.00  0.00    -0.060 I 
ATOM     10  F2  UNL d   1       5.791   3.630  -1.067  0.00  0.00    -0.096 F 
ATOM     11  F3  UNL d   1       5.999   2.946   1.546  0.00  0.00    -0.097 F 
ATOM     12  F4  UNL d   1       4.258   1.158   2.646  0.00  0.00    -0.092 F 
ENDROOT
TORSDOF 0
ENDMDL
