MODEL 1
REMARK minimizedAffinity 24.7837334
REMARK minimizedRMSD -1
REMARK  0 active torsions:
REMARK  status: ('A' for Active; 'I' for Inactive)
ROOT
ATOM      1  C   UNL d   1       0.414  -4.380  -2.649  0.00  0.00     0.124 A 
ATOM      2  C1  UNL d   1       0.880  -4.970  -3.816  0.00  0.00     0.062 A 
ATOM      3  C2  UNL d   1      -0.018  -5.431  -4.774  0.00  0.00     0.162 A 
ATOM      4  C3  UNL d   1      -1.392  -5.304  -4.570  0.00  0.00    -0.034 A 
ATOM      5  C4  UNL d   1      -1.853  -4.710  -3.393  0.00  0.00     0.162 A 
ATOM      6  C5  UNL d   1      -0.952  -4.251  -2.439  0.00  0.00     0.062 A 
ATOM      7  F   UNL d   1      -1.404  -3.681  -1.312  0.00  0.00    -0.097 F 
ATOM      8  F1  UNL d   1      -3.168  -4.572  -3.165  0.00  0.00    -0.096 F 
ATOM      9  I   UNL d   1      -2.739  -5.993  -5.999  0.00  0.00    -0.060 I 
ATOM     10  F2  UNL d   1       0.460  -5.997  -5.892  0.00  0.00    -0.096 F 
ATOM     11  F3  UNL d   1       2.199  -5.096  -4.021  0.00  0.00    -0.097 F 
ATOM     12  F4  UNL d   1       1.280  -3.937  -1.729  0.00  0.00    -0.092 F 
ENDROOT
TORSDOF 0
ENDMDL
