MODEL 1
REMARK minimizedAffinity 8.45299435
REMARK minimizedRMSD -1
REMARK  0 active torsions:
REMARK  status: ('A' for Active; 'I' for Inactive)
ROOT
ATOM      1  C   UNL d   1       1.927   1.757  -1.489  0.00  0.00     0.124 A 
ATOM      2  C1  UNL d   1       2.826   2.514  -2.226  0.00  0.00     0.062 A 
ATOM      3  C2  UNL d   1       3.985   3.004  -1.629  0.00  0.00     0.162 A 
ATOM      4  C3  UNL d   1       4.251   2.736  -0.286  0.00  0.00    -0.034 A 
ATOM      5  C4  UNL d   1       3.342   1.974   0.449  0.00  0.00     0.162 A 
ATOM      6  C5  UNL d   1       2.186   1.488  -0.152  0.00  0.00     0.062 A 
ATOM      7  F   UNL d   1       1.318   0.756   0.563  0.00  0.00    -0.097 F 
ATOM      8  F1  UNL d   1       3.567   1.699   1.742  0.00  0.00    -0.096 F 
ATOM      9  I   UNL d   1       5.982   3.466   0.610  0.00  0.00    -0.060 I 
ATOM     10  F2  UNL d   1       4.836   3.733  -2.366  0.00  0.00    -0.096 F 
ATOM     11  F3  UNL d   1       2.579   2.776  -3.518  0.00  0.00    -0.097 F 
ATOM     12  F4  UNL d   1       0.813   1.288  -2.065  0.00  0.00    -0.092 F 
ENDROOT
TORSDOF 0
ENDMDL
