MODEL 1
REMARK minimizedAffinity 28.0681477
REMARK minimizedRMSD -1
REMARK  0 active torsions:
REMARK  status: ('A' for Active; 'I' for Inactive)
ROOT
ATOM      1  C   UNL d   1       1.566   0.049   0.780  0.00  0.00     0.124 A 
ATOM      2  C1  UNL d   1       1.287  -1.121   1.473  0.00  0.00     0.062 A 
ATOM      3  C2  UNL d   1       2.059  -2.260   1.262  0.00  0.00     0.162 A 
ATOM      4  C3  UNL d   1       3.119  -2.234   0.355  0.00  0.00    -0.034 A 
ATOM      5  C4  UNL d   1       3.392  -1.054  -0.339  0.00  0.00     0.162 A 
ATOM      6  C5  UNL d   1       2.618   0.081  -0.125  0.00  0.00     0.062 A 
ATOM      7  F   UNL d   1       2.888   1.211  -0.795  0.00  0.00    -0.097 F 
ATOM      8  F1  UNL d   1       4.403  -0.995  -1.218  0.00  0.00    -0.096 F 
ATOM      9  I   UNL d   1       4.275  -3.935   0.038  0.00  0.00    -0.060 I 
ATOM     10  F2  UNL d   1       1.767  -3.377   1.946  0.00  0.00    -0.096 F 
ATOM     11  F3  UNL d   1       0.271  -1.155   2.347  0.00  0.00    -0.097 F 
ATOM     12  F4  UNL d   1       0.821   1.143   0.983  0.00  0.00    -0.092 F 
ENDROOT
TORSDOF 0
ENDMDL
