MODEL 1
REMARK minimizedAffinity 14.6342869
REMARK minimizedRMSD -1
REMARK  0 active torsions:
REMARK  status: ('A' for Active; 'I' for Inactive)
ROOT
ATOM      1  C   UNL d   1      -4.456  -2.724   0.086  0.00  0.00     0.124 A 
ATOM      2  C1  UNL d   1      -5.061  -3.917  -0.287  0.00  0.00     0.062 A 
ATOM      3  C2  UNL d   1      -5.417  -4.853   0.680  0.00  0.00     0.162 A 
ATOM      4  C3  UNL d   1      -5.169  -4.602   2.029  0.00  0.00    -0.034 A 
ATOM      5  C4  UNL d   1      -4.559  -3.401   2.396  0.00  0.00     0.162 A 
ATOM      6  C5  UNL d   1      -4.206  -2.467   1.427  0.00  0.00     0.062 A 
ATOM      7  F   UNL d   1      -3.622  -1.316   1.789  0.00  0.00    -0.097 F 
ATOM      8  F1  UNL d   1      -4.307  -3.126   3.685  0.00  0.00    -0.096 F 
ATOM      9  I   UNL d   1      -5.699  -6.000   3.477  0.00  0.00    -0.060 I 
ATOM     10  F2  UNL d   1      -6.000  -5.997   0.290  0.00  0.00    -0.096 F 
ATOM     11  F3  UNL d   1      -5.303  -4.168  -1.581  0.00  0.00    -0.097 F 
ATOM     12  F4  UNL d   1      -4.115  -1.825  -0.845  0.00  0.00    -0.092 F 
ENDROOT
TORSDOF 0
ENDMDL
