MODEL 1
REMARK minimizedAffinity 13.3421116
REMARK minimizedRMSD -1
REMARK  0 active torsions:
REMARK  status: ('A' for Active; 'I' for Inactive)
ROOT
ATOM      1  C   UNL d   1       0.980  -1.816   1.176  0.00  0.00     0.124 A 
ATOM      2  C1  UNL d   1       0.885  -3.073   0.594  0.00  0.00     0.062 A 
ATOM      3  C2  UNL d   1       2.024  -3.709   0.111  0.00  0.00     0.162 A 
ATOM      4  C3  UNL d   1       3.270  -3.089   0.208  0.00  0.00    -0.034 A 
ATOM      5  C4  UNL d   1       3.358  -1.824   0.793  0.00  0.00     0.162 A 
ATOM      6  C5  UNL d   1       2.216  -1.193   1.275  0.00  0.00     0.062 A 
ATOM      7  F   UNL d   1       2.310   0.021   1.836  0.00  0.00    -0.097 F 
ATOM      8  F1  UNL d   1       4.540  -1.200   0.902  0.00  0.00    -0.096 F 
ATOM      9  I   UNL d   1       4.977  -4.036  -0.514  0.00  0.00    -0.060 I 
ATOM     10  F2  UNL d   1       1.903  -4.923  -0.446  0.00  0.00    -0.096 F 
ATOM     11  F3  UNL d   1      -0.309  -3.676   0.497  0.00  0.00    -0.097 F 
ATOM     12  F4  UNL d   1      -0.119  -1.206   1.639  0.00  0.00    -0.092 F 
ENDROOT
TORSDOF 0
ENDMDL
