MODEL 1
REMARK minimizedAffinity 9.98072529
REMARK minimizedRMSD -1
REMARK  0 active torsions:
REMARK  status: ('A' for Active; 'I' for Inactive)
ROOT
ATOM      1  C   UNL d   1       2.343  -3.584   0.051  0.00  0.00     0.124 A 
ATOM      2  C1  UNL d   1       3.012  -2.493   0.589  0.00  0.00     0.062 A 
ATOM      3  C2  UNL d   1       2.383  -1.677   1.524  0.00  0.00     0.162 A 
ATOM      4  C3  UNL d   1       1.076  -1.949   1.930  0.00  0.00    -0.034 A 
ATOM      5  C4  UNL d   1       0.409  -3.047   1.384  0.00  0.00     0.162 A 
ATOM      6  C5  UNL d   1       1.042  -3.860   0.450  0.00  0.00     0.062 A 
ATOM      7  F   UNL d   1       0.394  -4.913  -0.068  0.00  0.00    -0.097 F 
ATOM      8  F1  UNL d   1      -0.848  -3.337   1.752  0.00  0.00    -0.096 F 
ATOM      9  I   UNL d   1       0.132  -0.731   3.328  0.00  0.00    -0.060 I 
ATOM     10  F2  UNL d   1       3.054  -0.630   2.027  0.00  0.00    -0.096 F 
ATOM     11  F3  UNL d   1       4.268  -2.224   0.205  0.00  0.00    -0.097 F 
ATOM     12  F4  UNL d   1       2.950  -4.367  -0.849  0.00  0.00    -0.092 F 
ENDROOT
TORSDOF 0
ENDMDL
