MODEL 1
REMARK minimizedAffinity 10.1407433
REMARK minimizedRMSD -1
REMARK  0 active torsions:
REMARK  status: ('A' for Active; 'I' for Inactive)
ROOT
ATOM      1  C   UNL d   1       1.719   2.404  -4.288  0.00  0.00     0.124 A 
ATOM      2  C1  UNL d   1       2.114   3.714  -4.524  0.00  0.00     0.062 A 
ATOM      3  C2  UNL d   1       3.079   4.310  -3.717  0.00  0.00     0.162 A 
ATOM      4  C3  UNL d   1       3.656   3.596  -2.666  0.00  0.00    -0.034 A 
ATOM      5  C4  UNL d   1       3.252   2.280  -2.434  0.00  0.00     0.162 A 
ATOM      6  C5  UNL d   1       2.288   1.689  -3.244  0.00  0.00     0.062 A 
ATOM      7  F   UNL d   1       1.907   0.424  -3.014  0.00  0.00    -0.097 F 
ATOM      8  F1  UNL d   1       3.787   1.566  -1.433  0.00  0.00    -0.096 F 
ATOM      9  I   UNL d   1       5.099   4.484  -1.457  0.00  0.00    -0.060 I 
ATOM     10  F2  UNL d   1       3.442   5.576  -3.968  0.00  0.00    -0.096 F 
ATOM     11  F3  UNL d   1       1.565   4.407  -5.531  0.00  0.00    -0.097 F 
ATOM     12  F4  UNL d   1       0.789   1.833  -5.065  0.00  0.00    -0.092 F 
ENDROOT
TORSDOF 0
ENDMDL
