MODEL 1
REMARK minimizedAffinity 7.40834093
REMARK minimizedRMSD -1
REMARK  0 active torsions:
REMARK  status: ('A' for Active; 'I' for Inactive)
ROOT
ATOM      1  C   UNL d   1       1.529   5.014   0.412  0.00  0.00     0.124 A 
ATOM      2  C1  UNL d   1       0.545   4.036   0.455  0.00  0.00     0.062 A 
ATOM      3  C2  UNL d   1       0.619   3.011   1.394  0.00  0.00     0.162 A 
ATOM      4  C3  UNL d   1       1.680   2.960   2.299  0.00  0.00    -0.034 A 
ATOM      5  C4  UNL d   1       2.666   3.947   2.248  0.00  0.00     0.162 A 
ATOM      6  C5  UNL d   1       2.587   4.970   1.308  0.00  0.00     0.062 A 
ATOM      7  F   UNL d   1       3.538   5.914   1.267  0.00  0.00    -0.097 F 
ATOM      8  F1  UNL d   1       3.699   3.929   3.102  0.00  0.00    -0.096 F 
ATOM      9  I   UNL d   1       1.794   1.429   3.704  0.00  0.00    -0.060 I 
ATOM     10  F2  UNL d   1      -0.345   2.078   1.414  0.00  0.00    -0.096 F 
ATOM     11  F3  UNL d   1      -0.478   4.076  -0.410  0.00  0.00    -0.097 F 
ATOM     12  F4  UNL d   1       1.455   5.999  -0.493  0.00  0.00    -0.092 F 
ENDROOT
TORSDOF 0
ENDMDL
