MODEL 1
REMARK minimizedAffinity 25.799221
REMARK minimizedRMSD -1
REMARK  0 active torsions:
REMARK  status: ('A' for Active; 'I' for Inactive)
ROOT
ATOM      1  C   UNL d   1       2.448   4.658   1.437  0.00  0.00     0.124 A 
ATOM      2  C1  UNL d   1       2.398   3.538   2.255  0.00  0.00     0.062 A 
ATOM      3  C2  UNL d   1       1.309   2.674   2.193  0.00  0.00     0.162 A 
ATOM      4  C3  UNL d   1       0.260   2.925   1.308  0.00  0.00    -0.034 A 
ATOM      5  C4  UNL d   1       0.318   4.054   0.489  0.00  0.00     0.162 A 
ATOM      6  C5  UNL d   1       1.408   4.915   0.555  0.00  0.00     0.062 A 
ATOM      7  F   UNL d   1       1.455   5.997  -0.236  0.00  0.00    -0.097 F 
ATOM      8  F1  UNL d   1      -0.673   4.326  -0.374  0.00  0.00    -0.096 F 
ATOM      9  I   UNL d   1      -1.370   1.635   1.211  0.00  0.00    -0.060 I 
ATOM     10  F2  UNL d   1       1.287   1.599   2.995  0.00  0.00    -0.096 F 
ATOM     11  F3  UNL d   1       3.401   3.288   3.109  0.00  0.00    -0.097 F 
ATOM     12  F4  UNL d   1       3.497   5.489   1.500  0.00  0.00    -0.092 F 
ENDROOT
TORSDOF 0
ENDMDL
