MODEL 1
REMARK minimizedAffinity 21.6391239
REMARK minimizedRMSD -1
REMARK  0 active torsions:
REMARK  status: ('A' for Active; 'I' for Inactive)
ROOT
ATOM      1  C   UNL d   1      -1.320   0.605  -1.159  0.00  0.00     0.124 A 
ATOM      2  C1  UNL d   1      -0.506   1.146  -0.174  0.00  0.00     0.062 A 
ATOM      3  C2  UNL d   1       0.712   0.548   0.135  0.00  0.00     0.162 A 
ATOM      4  C3  UNL d   1       1.124  -0.600  -0.543  0.00  0.00    -0.034 A 
ATOM      5  C4  UNL d   1       0.299  -1.139  -1.532  0.00  0.00     0.162 A 
ATOM      6  C5  UNL d   1      -0.917  -0.537  -1.837  0.00  0.00     0.062 A 
ATOM      7  F   UNL d   1      -1.703  -1.062  -2.788  0.00  0.00    -0.097 F 
ATOM      8  F1  UNL d   1       0.665  -2.241  -2.204  0.00  0.00    -0.096 F 
ATOM      9  I   UNL d   1       2.945  -1.498  -0.085  0.00  0.00    -0.060 I 
ATOM     10  F2  UNL d   1       1.479   1.093   1.091  0.00  0.00    -0.096 F 
ATOM     11  F3  UNL d   1      -0.893   2.249   0.483  0.00  0.00    -0.097 F 
ATOM     12  F4  UNL d   1      -2.492   1.182  -1.453  0.00  0.00    -0.092 F 
ENDROOT
TORSDOF 0
ENDMDL
