MODEL 1
REMARK minimizedAffinity 32.0122719
REMARK minimizedRMSD -1
REMARK  0 active torsions:
REMARK  status: ('A' for Active; 'I' for Inactive)
ROOT
ATOM      1  C   UNL d   1       5.542  -3.848  -0.951  0.00  0.00     0.124 A 
ATOM      2  C1  UNL d   1       5.308  -4.667  -2.048  0.00  0.00     0.062 A 
ATOM      3  C2  UNL d   1       5.305  -4.132  -3.333  0.00  0.00     0.162 A 
ATOM      4  C3  UNL d   1       5.538  -2.771  -3.529  0.00  0.00    -0.034 A 
ATOM      5  C4  UNL d   1       5.772  -1.954  -2.422  0.00  0.00     0.162 A 
ATOM      6  C5  UNL d   1       5.774  -2.493  -1.139  0.00  0.00     0.062 A 
ATOM      7  F   UNL d   1       6.000  -1.700  -0.081  0.00  0.00    -0.097 F 
ATOM      8  F1  UNL d   1       5.999  -0.641  -2.575  0.00  0.00    -0.096 F 
ATOM      9  I   UNL d   1       5.535  -1.967  -5.449  0.00  0.00    -0.060 I 
ATOM     10  F2  UNL d   1       5.076  -4.947  -4.373  0.00  0.00    -0.096 F 
ATOM     11  F3  UNL d   1       5.083  -5.976  -1.869  0.00  0.00    -0.097 F 
ATOM     12  F4  UNL d   1       5.543  -4.365   0.284  0.00  0.00    -0.092 F 
ENDROOT
TORSDOF 0
ENDMDL
