MODEL 1
REMARK minimizedAffinity 19.4867058
REMARK minimizedRMSD -1
REMARK  0 active torsions:
REMARK  status: ('A' for Active; 'I' for Inactive)
ROOT
ATOM      1  C   UNL d   1       2.118   4.777   0.747  0.00  0.00     0.124 A 
ATOM      2  C1  UNL d   1       1.014   4.914  -0.083  0.00  0.00     0.062 A 
ATOM      3  C2  UNL d   1       0.033   3.926  -0.112  0.00  0.00     0.162 A 
ATOM      4  C3  UNL d   1       0.151   2.793   0.693  0.00  0.00    -0.034 A 
ATOM      5  C4  UNL d   1       1.265   2.662   1.524  0.00  0.00     0.162 A 
ATOM      6  C5  UNL d   1       2.242   3.652   1.550  0.00  0.00     0.062 A 
ATOM      7  F   UNL d   1       3.308   3.518   2.352  0.00  0.00    -0.097 F 
ATOM      8  F1  UNL d   1       1.410   1.585   2.311  0.00  0.00    -0.096 F 
ATOM      9  I   UNL d   1      -1.313   1.314   0.652  0.00  0.00    -0.060 I 
ATOM     10  F2  UNL d   1      -1.023   4.085  -0.924  0.00  0.00    -0.096 F 
ATOM     11  F3  UNL d   1       0.891   5.999  -0.860  0.00  0.00    -0.097 F 
ATOM     12  F4  UNL d   1       3.060   5.728   0.772  0.00  0.00    -0.092 F 
ENDROOT
TORSDOF 0
ENDMDL
