MODEL 1
REMARK minimizedAffinity 29.1646385
REMARK minimizedRMSD -1
REMARK  0 active torsions:
REMARK  status: ('A' for Active; 'I' for Inactive)
ROOT
ATOM      1  C   UNL d   1       0.368   4.514  -0.280  0.00  0.00     0.124 A 
ATOM      2  C1  UNL d   1       1.061   3.829   0.709  0.00  0.00     0.062 A 
ATOM      3  C2  UNL d   1       0.380   2.995   1.591  0.00  0.00     0.162 A 
ATOM      4  C3  UNL d   1      -1.002   2.840   1.488  0.00  0.00    -0.034 A 
ATOM      5  C4  UNL d   1      -1.692   3.533   0.492  0.00  0.00     0.162 A 
ATOM      6  C5  UNL d   1      -1.007   4.366  -0.388  0.00  0.00     0.062 A 
ATOM      7  F   UNL d   1      -1.678   5.027  -1.342  0.00  0.00    -0.097 F 
ATOM      8  F1  UNL d   1      -3.022   3.408   0.364  0.00  0.00    -0.096 F 
ATOM      9  I   UNL d   1      -2.024   1.594   2.805  0.00  0.00    -0.060 I 
ATOM     10  F2  UNL d   1       1.075   2.345   2.536  0.00  0.00    -0.096 F 
ATOM     11  F3  UNL d   1       2.390   3.971   0.815  0.00  0.00    -0.097 F 
ATOM     12  F4  UNL d   1       1.026   5.317  -1.127  0.00  0.00    -0.092 F 
ENDROOT
TORSDOF 0
ENDMDL
