MODEL 1
REMARK minimizedAffinity 16.5549545
REMARK minimizedRMSD -1
REMARK  0 active torsions:
REMARK  status: ('A' for Active; 'I' for Inactive)
ROOT
ATOM      1  C   UNL d   1       1.359   4.961   0.423  0.00  0.00     0.124 A 
ATOM      2  C1  UNL d   1       0.326   4.037   0.347  0.00  0.00     0.062 A 
ATOM      3  C2  UNL d   1       0.287   2.957   1.223  0.00  0.00     0.162 A 
ATOM      4  C3  UNL d   1       1.285   2.795   2.185  0.00  0.00    -0.034 A 
ATOM      5  C4  UNL d   1       2.321   3.727   2.255  0.00  0.00     0.162 A 
ATOM      6  C5  UNL d   1       2.355   4.806   1.377  0.00  0.00     0.062 A 
ATOM      7  F   UNL d   1       3.354   5.697   1.452  0.00  0.00    -0.097 F 
ATOM      8  F1  UNL d   1       3.296   3.602   3.167  0.00  0.00    -0.096 F 
ATOM      9  I   UNL d   1       1.230   1.180   3.497  0.00  0.00    -0.060 I 
ATOM     10  F2  UNL d   1      -0.723   2.080   1.127  0.00  0.00    -0.096 F 
ATOM     11  F3  UNL d   1      -0.637   4.185  -0.574  0.00  0.00    -0.097 F 
ATOM     12  F4  UNL d   1       1.394   6.000  -0.422  0.00  0.00    -0.092 F 
ENDROOT
TORSDOF 0
ENDMDL
