MODEL 1
REMARK minimizedAffinity 29.6968479
REMARK minimizedRMSD -1
REMARK  0 active torsions:
REMARK  status: ('A' for Active; 'I' for Inactive)
ROOT
ATOM      1  C   UNL d   1       2.310   0.732   5.020  0.00  0.00     0.124 A 
ATOM      2  C1  UNL d   1       1.498  -0.394   5.048  0.00  0.00     0.062 A 
ATOM      3  C2  UNL d   1       1.653  -1.392   4.091  0.00  0.00     0.162 A 
ATOM      4  C3  UNL d   1       2.624  -1.270   3.097  0.00  0.00    -0.034 A 
ATOM      5  C4  UNL d   1       3.436  -0.134   3.075  0.00  0.00     0.162 A 
ATOM      6  C5  UNL d   1       3.278   0.861   4.034  0.00  0.00     0.062 A 
ATOM      7  F   UNL d   1       4.063   1.947   4.005  0.00  0.00    -0.097 F 
ATOM      8  F1  UNL d   1       4.379   0.015   2.133  0.00  0.00    -0.096 F 
ATOM      9  I   UNL d   1       2.858  -2.760   1.664  0.00  0.00    -0.060 I 
ATOM     10  F2  UNL d   1       0.854  -2.469   4.142  0.00  0.00    -0.096 F 
ATOM     11  F3  UNL d   1       0.562  -0.520   6.000  0.00  0.00    -0.097 F 
ATOM     12  F4  UNL d   1       2.159   1.691   5.942  0.00  0.00    -0.092 F 
ENDROOT
TORSDOF 0
ENDMDL
