MODEL 1
REMARK minimizedAffinity 32.3350334
REMARK minimizedRMSD -1
REMARK  0 active torsions:
REMARK  status: ('A' for Active; 'I' for Inactive)
ROOT
ATOM      1  C   UNL d   1      -2.678   1.476  -3.928  0.00  0.00     0.124 A 
ATOM      2  C1  UNL d   1      -1.698   0.736  -3.281  0.00  0.00     0.062 A 
ATOM      3  C2  UNL d   1      -1.841   0.412  -1.935  0.00  0.00     0.162 A 
ATOM      4  C3  UNL d   1      -2.968   0.827  -1.226  0.00  0.00    -0.034 A 
ATOM      5  C4  UNL d   1      -3.949   1.572  -1.883  0.00  0.00     0.162 A 
ATOM      6  C5  UNL d   1      -3.802   1.893  -3.229  0.00  0.00     0.062 A 
ATOM      7  F   UNL d   1      -4.750   2.608  -3.852  0.00  0.00    -0.097 F 
ATOM      8  F1  UNL d   1      -5.046   1.987  -1.232  0.00  0.00    -0.096 F 
ATOM      9  I   UNL d   1      -3.185   0.344   0.787  0.00  0.00    -0.060 I 
ATOM     10  F2  UNL d   1      -0.878  -0.305  -1.335  0.00  0.00    -0.096 F 
ATOM     11  F3  UNL d   1      -0.611   0.333  -3.954  0.00  0.00    -0.097 F 
ATOM     12  F4  UNL d   1      -2.538   1.788  -5.223  0.00  0.00    -0.092 F 
ENDROOT
TORSDOF 0
ENDMDL
