MODEL 1
REMARK minimizedAffinity 29.0039825
REMARK minimizedRMSD -1
REMARK  0 active torsions:
REMARK  status: ('A' for Active; 'I' for Inactive)
ROOT
ATOM      1  C   UNL d   1      -3.106   0.433   0.748  0.00  0.00     0.124 A 
ATOM      2  C1  UNL d   1      -2.165   0.447  -0.272  0.00  0.00     0.062 A 
ATOM      3  C2  UNL d   1      -1.069   1.302  -0.202  0.00  0.00     0.162 A 
ATOM      4  C3  UNL d   1      -0.907   2.150   0.894  0.00  0.00    -0.034 A 
ATOM      5  C4  UNL d   1      -1.859   2.131   1.915  0.00  0.00     0.162 A 
ATOM      6  C5  UNL d   1      -2.952   1.275   1.840  0.00  0.00     0.062 A 
ATOM      7  F   UNL d   1      -3.860   1.262   2.827  0.00  0.00    -0.097 F 
ATOM      8  F1  UNL d   1      -1.734   2.933   2.983  0.00  0.00    -0.096 F 
ATOM      9  I   UNL d   1       0.730   3.430   1.003  0.00  0.00    -0.060 I 
ATOM     10  F2  UNL d   1      -0.175   1.294  -1.202  0.00  0.00    -0.096 F 
ATOM     11  F3  UNL d   1      -2.312  -0.365  -1.329  0.00  0.00    -0.097 F 
ATOM     12  F4  UNL d   1      -4.160  -0.390   0.677  0.00  0.00    -0.092 F 
ENDROOT
TORSDOF 0
ENDMDL
