MODEL 1
REMARK minimizedAffinity 6.17290306
REMARK minimizedRMSD -1
REMARK  0 active torsions:
REMARK  status: ('A' for Active; 'I' for Inactive)
ROOT
ATOM      1  C   UNL d   1      -1.238  -2.613  -2.222  0.00  0.00     0.078 C 
ATOM      2  C1  UNL d   1      -1.555  -3.681  -3.226  0.00  0.00    -0.077 A 
ATOM      3  C2  UNL d   1      -1.742  -5.011  -2.830  0.00  0.00    -0.001 A 
ATOM      4  C3  UNL d   1      -2.026  -5.996  -3.776  0.00  0.00     0.003 A 
ATOM      5  C4  UNL d   1      -2.125  -5.663  -5.126  0.00  0.00    -0.005 A 
ATOM      6  C5  UNL d   1      -1.938  -4.342  -5.530  0.00  0.00     0.003 A 
ATOM      7  C6  UNL d   1      -1.653  -3.356  -4.585  0.00  0.00    -0.001 A 
ENDROOT
TORSDOF 0
ENDMDL
