MODEL 1
REMARK minimizedAffinity 9.90097523
REMARK minimizedRMSD -1
REMARK  0 active torsions:
REMARK  status: ('A' for Active; 'I' for Inactive)
ROOT
ATOM      1  C   UNL d   1       3.371   4.544   1.151  0.00  0.00     0.078 C 
ATOM      2  C1  UNL d   1       4.294   3.375   1.323  0.00  0.00    -0.077 A 
ATOM      3  C2  UNL d   1       5.151   2.975   0.290  0.00  0.00    -0.001 A 
ATOM      4  C3  UNL d   1       5.999   1.879   0.461  0.00  0.00     0.003 A 
ATOM      5  C4  UNL d   1       5.997   1.174   1.663  0.00  0.00    -0.005 A 
ATOM      6  C5  UNL d   1       5.146   1.563   2.695  0.00  0.00     0.003 A 
ATOM      7  C6  UNL d   1       4.298   2.659   2.526  0.00  0.00    -0.001 A 
ENDROOT
TORSDOF 0
ENDMDL
