MODEL 1
REMARK minimizedAffinity 5.76371145
REMARK minimizedRMSD -1
REMARK  0 active torsions:
REMARK  status: ('A' for Active; 'I' for Inactive)
ROOT
ATOM      1  C   UNL d   1       0.968  -0.425   2.972  0.00  0.00     0.078 C 
ATOM      2  C1  UNL d   1      -0.333   0.215   2.588  0.00  0.00    -0.077 A 
ATOM      3  C2  UNL d   1      -1.433  -0.562   2.204  0.00  0.00    -0.001 A 
ATOM      4  C3  UNL d   1      -2.634   0.047   1.839  0.00  0.00     0.003 A 
ATOM      5  C4  UNL d   1      -2.747   1.436   1.854  0.00  0.00    -0.005 A 
ATOM      6  C5  UNL d   1      -1.657   2.217   2.232  0.00  0.00     0.003 A 
ATOM      7  C6  UNL d   1      -0.455   1.610   2.597  0.00  0.00    -0.001 A 
ENDROOT
TORSDOF 0
ENDMDL
