MODEL 1
REMARK minimizedAffinity 2.15707779
REMARK minimizedRMSD -1
REMARK  0 active torsions:
REMARK  status: ('A' for Active; 'I' for Inactive)
ROOT
ATOM      1  C   UNL d   1       1.862  -3.263   4.540  0.00  0.00     0.078 C 
ATOM      2  C1  UNL d   1       1.430  -2.015   3.829  0.00  0.00    -0.077 A 
ATOM      3  C2  UNL d   1       1.957  -0.766   4.179  0.00  0.00    -0.001 A 
ATOM      4  C3  UNL d   1       1.538   0.388   3.515  0.00  0.00     0.003 A 
ATOM      5  C4  UNL d   1       0.590   0.305   2.498  0.00  0.00    -0.005 A 
ATOM      6  C5  UNL d   1       0.058  -0.934   2.144  0.00  0.00     0.003 A 
ATOM      7  C6  UNL d   1       0.475  -2.089   2.807  0.00  0.00    -0.001 A 
ENDROOT
TORSDOF 0
ENDMDL
