MODEL 1
REMARK minimizedAffinity 1.66314912
REMARK minimizedRMSD -1
REMARK  0 active torsions:
REMARK  status: ('A' for Active; 'I' for Inactive)
ROOT
ATOM      1  C   UNL d   1       4.623  -5.195   5.658  0.00  0.00     0.078 C 
ATOM      2  C1  UNL d   1       3.187  -4.888   5.354  0.00  0.00    -0.077 A 
ATOM      3  C2  UNL d   1       2.151  -5.575   5.998  0.00  0.00    -0.001 A 
ATOM      4  C3  UNL d   1       0.819  -5.285   5.698  0.00  0.00     0.003 A 
ATOM      5  C4  UNL d   1       0.511  -4.310   4.752  0.00  0.00    -0.005 A 
ATOM      6  C5  UNL d   1       1.536  -3.623   4.104  0.00  0.00     0.003 A 
ATOM      7  C6  UNL d   1       2.868  -3.911   4.403  0.00  0.00    -0.001 A 
ENDROOT
TORSDOF 0
ENDMDL
