MODEL 1
REMARK minimizedAffinity 3.87508011
REMARK minimizedRMSD -1
REMARK  0 active torsions:
REMARK  status: ('A' for Active; 'I' for Inactive)
ROOT
ATOM      1  C   UNL d   1       1.092  -2.248   2.909  0.00  0.00     0.078 C 
ATOM      2  C1  UNL d   1       2.140  -2.609   3.919  0.00  0.00    -0.077 A 
ATOM      3  C2  UNL d   1       3.301  -1.838   4.060  0.00  0.00    -0.001 A 
ATOM      4  C3  UNL d   1       4.273  -2.192   4.997  0.00  0.00     0.003 A 
ATOM      5  C4  UNL d   1       4.094  -3.317   5.800  0.00  0.00    -0.005 A 
ATOM      6  C5  UNL d   1       2.944  -4.091   5.665  0.00  0.00     0.003 A 
ATOM      7  C6  UNL d   1       1.971  -3.739   4.728  0.00  0.00    -0.001 A 
ENDROOT
TORSDOF 0
ENDMDL
