MODEL 1
REMARK minimizedAffinity 14.3365021
REMARK minimizedRMSD -1
REMARK  0 active torsions:
REMARK  status: ('A' for Active; 'I' for Inactive)
ROOT
ATOM      1  C   UNL d   1       2.825  -0.286  -3.961  0.00  0.00     0.078 C 
ATOM      2  C1  UNL d   1       1.376  -0.661  -4.062  0.00  0.00    -0.077 A 
ATOM      3  C2  UNL d   1       0.783  -0.919  -5.304  0.00  0.00    -0.001 A 
ATOM      4  C3  UNL d   1      -0.568  -1.258  -5.384  0.00  0.00     0.003 A 
ATOM      5  C4  UNL d   1      -1.339  -1.341  -4.226  0.00  0.00    -0.005 A 
ATOM      6  C5  UNL d   1      -0.758  -1.084  -2.986  0.00  0.00     0.003 A 
ATOM      7  C6  UNL d   1       0.594  -0.745  -2.904  0.00  0.00    -0.001 A 
ENDROOT
TORSDOF 0
ENDMDL
