MODEL 1
REMARK minimizedAffinity 7.40378046
REMARK minimizedRMSD -1
REMARK  0 active torsions:
REMARK  status: ('A' for Active; 'I' for Inactive)
ROOT
ATOM      1  C   UNL d   1       4.880  -3.013   5.979  0.00  0.00     0.078 C 
ATOM      2  C1  UNL d   1       3.824  -2.370   5.132  0.00  0.00    -0.077 A 
ATOM      3  C2  UNL d   1       2.878  -3.143   4.447  0.00  0.00    -0.001 A 
ATOM      4  C3  UNL d   1       1.907  -2.530   3.654  0.00  0.00     0.003 A 
ATOM      5  C4  UNL d   1       1.872  -1.142   3.537  0.00  0.00    -0.005 A 
ATOM      6  C5  UNL d   1       2.810  -0.365   4.213  0.00  0.00     0.003 A 
ATOM      7  C6  UNL d   1       3.782  -0.975   5.006  0.00  0.00    -0.001 A 
ENDROOT
TORSDOF 0
ENDMDL
