MODEL 1
REMARK minimizedAffinity -0.746502221
REMARK minimizedRMSD -1
REMARK  0 active torsions:
REMARK  status: ('A' for Active; 'I' for Inactive)
ROOT
ATOM      1  C   UNL d   1       1.001   1.339  -0.554  0.00  0.00     0.124 A 
ATOM      2  C1  UNL d   1       0.625   0.459  -1.559  0.00  0.00     0.062 A 
ATOM      3  C2  UNL d   1       0.230  -0.838  -1.242  0.00  0.00     0.162 A 
ATOM      4  C3  UNL d   1       0.209  -1.262   0.087  0.00  0.00    -0.034 A 
ATOM      5  C4  UNL d   1       0.590  -0.371   1.092  0.00  0.00     0.162 A 
ATOM      6  C5  UNL d   1       0.983   0.924   0.770  0.00  0.00     0.062 A 
ATOM      7  F   UNL d   1       1.347   1.773   1.742  0.00  0.00    -0.097 F 
ATOM      8  F1  UNL d   1       0.581  -0.746   2.380  0.00  0.00    -0.096 F 
ATOM      9  I   UNL d   1      -0.380  -3.200   0.565  0.00  0.00    -0.060 I 
ATOM     10  F2  UNL d   1      -0.128  -1.667  -2.233  0.00  0.00    -0.096 F 
ATOM     11  F3  UNL d   1       0.642   0.858  -2.839  0.00  0.00    -0.097 F 
ATOM     12  F4  UNL d   1       1.381   2.586  -0.862  0.00  0.00    -0.092 F 
ENDROOT
TORSDOF 0
ENDMDL
