MODEL 1
REMARK minimizedAffinity -0.386557907
REMARK minimizedRMSD -1
REMARK  0 active torsions:
REMARK  status: ('A' for Active; 'I' for Inactive)
ROOT
ATOM      1  C   UNL d   1      -0.548  -2.729   0.177  0.00  0.00     0.124 A 
ATOM      2  C1  UNL d   1      -1.392  -1.926   0.932  0.00  0.00     0.062 A 
ATOM      3  C2  UNL d   1      -1.102  -0.576   1.107  0.00  0.00     0.162 A 
ATOM      4  C3  UNL d   1       0.037  -0.019   0.524  0.00  0.00    -0.034 A 
ATOM      5  C4  UNL d   1       0.881  -0.834  -0.233  0.00  0.00     0.162 A 
ATOM      6  C5  UNL d   1       0.587  -2.182  -0.404  0.00  0.00     0.062 A 
ATOM      7  F   UNL d   1       1.403  -2.957  -1.134  0.00  0.00    -0.097 F 
ATOM      8  F1  UNL d   1       1.984  -0.331  -0.807  0.00  0.00    -0.096 F 
ATOM      9  I   UNL d   1       0.474   1.999   0.783  0.00  0.00    -0.060 I 
ATOM     10  F2  UNL d   1      -1.935   0.176   1.841  0.00  0.00    -0.096 F 
ATOM     11  F3  UNL d   1      -2.489  -2.452   1.496  0.00  0.00    -0.097 F 
ATOM     12  F4  UNL d   1      -0.829  -4.028   0.011  0.00  0.00    -0.092 F 
ENDROOT
TORSDOF 0
ENDMDL
