MODEL 1
REMARK minimizedAffinity -2.90069723
REMARK minimizedRMSD -1
REMARK  0 active torsions:
REMARK  status: ('A' for Active; 'I' for Inactive)
ROOT
ATOM      1  C   UNL d   1      -0.645  -2.662   0.233  0.00  0.00     0.124 A 
ATOM      2  C1  UNL d   1       0.395  -2.103  -0.497  0.00  0.00     0.062 A 
ATOM      3  C2  UNL d   1       0.625  -0.731  -0.449  0.00  0.00     0.162 A 
ATOM      4  C3  UNL d   1      -0.186   0.092   0.333  0.00  0.00    -0.034 A 
ATOM      5  C4  UNL d   1      -1.231  -0.478   1.063  0.00  0.00     0.162 A 
ATOM      6  C5  UNL d   1      -1.457  -1.849   1.012  0.00  0.00     0.062 A 
ATOM      7  F   UNL d   1      -2.462  -2.388   1.717  0.00  0.00    -0.097 F 
ATOM      8  F1  UNL d   1      -2.030   0.284   1.824  0.00  0.00    -0.096 F 
ATOM      9  I   UNL d   1       0.155   2.144   0.407  0.00  0.00    -0.060 I 
ATOM     10  F2  UNL d   1       1.637  -0.218  -1.164  0.00  0.00    -0.096 F 
ATOM     11  F3  UNL d   1       1.180  -2.886  -1.251  0.00  0.00    -0.097 F 
ATOM     12  F4  UNL d   1      -0.865  -3.982   0.184  0.00  0.00    -0.092 F 
ENDROOT
TORSDOF 0
ENDMDL
