MODEL 1
REMARK minimizedAffinity -0.891077816
REMARK minimizedRMSD -1
REMARK  0 active torsions:
REMARK  status: ('A' for Active; 'I' for Inactive)
ROOT
ATOM      1  C   UNL d   1       0.390  -0.889  -1.022  0.00  0.00     0.124 A 
ATOM      2  C1  UNL d   1       0.368  -0.789   0.363  0.00  0.00     0.062 A 
ATOM      3  C2  UNL d   1       0.652   0.425   0.981  0.00  0.00     0.162 A 
ATOM      4  C3  UNL d   1       0.958   1.550   0.216  0.00  0.00    -0.034 A 
ATOM      5  C4  UNL d   1       0.978   1.441  -1.176  0.00  0.00     0.162 A 
ATOM      6  C5  UNL d   1       0.694   0.226  -1.789  0.00  0.00     0.062 A 
ATOM      7  F   UNL d   1       0.715   0.131  -3.127  0.00  0.00    -0.097 F 
ATOM      8  F1  UNL d   1       1.268   2.503  -1.942  0.00  0.00    -0.096 F 
ATOM      9  I   UNL d   1       1.382   3.367   1.137  0.00  0.00    -0.060 I 
ATOM     10  F2  UNL d   1       0.624   0.492   2.320  0.00  0.00    -0.096 F 
ATOM     11  F3  UNL d   1       0.075  -1.866   1.107  0.00  0.00    -0.097 F 
ATOM     12  F4  UNL d   1       0.117  -2.059  -1.614  0.00  0.00    -0.092 F 
ENDROOT
TORSDOF 0
ENDMDL
