MODEL 1
REMARK minimizedAffinity 1.18851388
REMARK minimizedRMSD -1
REMARK  0 active torsions:
REMARK  status: ('A' for Active; 'I' for Inactive)
ROOT
ATOM      1  C   UNL d   1       0.839   4.178   1.441  0.00  0.00     0.124 A 
ATOM      2  C1  UNL d   1       1.950   3.842   0.680  0.00  0.00     0.062 A 
ATOM      3  C2  UNL d   1       1.899   2.761  -0.195  0.00  0.00     0.162 A 
ATOM      4  C3  UNL d   1       0.731   2.008  -0.315  0.00  0.00    -0.034 A 
ATOM      5  C4  UNL d   1      -0.383   2.351   0.455  0.00  0.00     0.162 A 
ATOM      6  C5  UNL d   1      -0.326   3.432   1.328  0.00  0.00     0.062 A 
ATOM      7  F   UNL d   1      -1.401   3.755   2.062  0.00  0.00    -0.097 F 
ATOM      8  F1  UNL d   1      -1.521   1.648   0.364  0.00  0.00    -0.096 F 
ATOM      9  I   UNL d   1       0.650   0.390  -1.622  0.00  0.00    -0.060 I 
ATOM     10  F2  UNL d   1       2.987   2.459  -0.918  0.00  0.00    -0.096 F 
ATOM     11  F3  UNL d   1       3.077   4.561   0.789  0.00  0.00    -0.097 F 
ATOM     12  F4  UNL d   1       0.891   5.218   2.283  0.00  0.00    -0.092 F 
ENDROOT
TORSDOF 0
ENDMDL
