MODEL 1
REMARK minimizedAffinity 2.05592346
REMARK minimizedRMSD -1
REMARK  0 active torsions:
REMARK  status: ('A' for Active; 'I' for Inactive)
ROOT
ATOM      1  C   UNL d   1       1.450   3.998   1.129  0.00  0.00     0.124 A 
ATOM      2  C1  UNL d   1       0.205   3.533   0.729  0.00  0.00     0.062 A 
ATOM      3  C2  UNL d   1       0.082   2.275   0.146  0.00  0.00     0.162 A 
ATOM      4  C3  UNL d   1       1.208   1.472  -0.039  0.00  0.00    -0.034 A 
ATOM      5  C4  UNL d   1       2.457   1.947   0.366  0.00  0.00     0.162 A 
ATOM      6  C5  UNL d   1       2.574   3.205   0.947  0.00  0.00     0.062 A 
ATOM      7  F   UNL d   1       3.778   3.653   1.333  0.00  0.00    -0.097 F 
ATOM      8  F1  UNL d   1       3.560   1.201   0.203  0.00  0.00    -0.096 F 
ATOM      9  I   UNL d   1       1.028  -0.410  -0.910  0.00  0.00    -0.060 I 
ATOM     10  F2  UNL d   1      -1.133   1.851  -0.231  0.00  0.00    -0.096 F 
ATOM     11  F3  UNL d   1      -0.882   4.297   0.902  0.00  0.00    -0.097 F 
ATOM     12  F4  UNL d   1       1.566   5.209   1.688  0.00  0.00    -0.092 F 
ENDROOT
TORSDOF 0
ENDMDL
