MODEL 1
REMARK minimizedAffinity -0.474477798
REMARK minimizedRMSD -1
REMARK  0 active torsions:
REMARK  status: ('A' for Active; 'I' for Inactive)
ROOT
ATOM      1  C   UNL d   1      -0.712  -2.826   0.753  0.00  0.00     0.124 A 
ATOM      2  C1  UNL d   1       0.325  -2.359  -0.043  0.00  0.00     0.062 A 
ATOM      3  C2  UNL d   1       0.564  -0.992  -0.150  0.00  0.00     0.162 A 
ATOM      4  C3  UNL d   1      -0.236  -0.081   0.541  0.00  0.00    -0.034 A 
ATOM      5  C4  UNL d   1      -1.277  -0.559   1.339  0.00  0.00     0.162 A 
ATOM      6  C5  UNL d   1      -1.512  -1.926   1.443  0.00  0.00     0.062 A 
ATOM      7  F   UNL d   1      -2.515  -2.375   2.212  0.00  0.00    -0.097 F 
ATOM      8  F1  UNL d   1      -2.065   0.289   2.017  0.00  0.00    -0.096 F 
ATOM      9  I   UNL d   1       0.119   1.963   0.383  0.00  0.00    -0.060 I 
ATOM     10  F2  UNL d   1       1.573  -0.569  -0.926  0.00  0.00    -0.096 F 
ATOM     11  F3  UNL d   1       1.098  -3.227  -0.711  0.00  0.00    -0.097 F 
ATOM     12  F4  UNL d   1      -0.941  -4.142   0.854  0.00  0.00    -0.092 F 
ENDROOT
TORSDOF 0
ENDMDL
