MODEL 1
REMARK minimizedAffinity 2.86140418
REMARK minimizedRMSD -1
REMARK  0 active torsions:
REMARK  status: ('A' for Active; 'I' for Inactive)
ROOT
ATOM      1  C   UNL d   1      -0.965  -2.125   0.207  0.00  0.00     0.124 A 
ATOM      2  C1  UNL d   1       0.287  -2.215  -0.386  0.00  0.00     0.062 A 
ATOM      3  C2  UNL d   1       1.056  -1.071  -0.575  0.00  0.00     0.162 A 
ATOM      4  C3  UNL d   1       0.576   0.174  -0.169  0.00  0.00    -0.034 A 
ATOM      5  C4  UNL d   1      -0.684   0.257   0.425  0.00  0.00     0.162 A 
ATOM      6  C5  UNL d   1      -1.449  -0.889   0.612  0.00  0.00     0.062 A 
ATOM      7  F   UNL d   1      -2.658  -0.800   1.185  0.00  0.00    -0.097 F 
ATOM      8  F1  UNL d   1      -1.176   1.439   0.827  0.00  0.00    -0.096 F 
ATOM      9  I   UNL d   1       1.724   1.888  -0.450  0.00  0.00    -0.060 I 
ATOM     10  F2  UNL d   1       2.262  -1.188  -1.150  0.00  0.00    -0.096 F 
ATOM     11  F3  UNL d   1       0.757  -3.408  -0.779  0.00  0.00    -0.097 F 
ATOM     12  F4  UNL d   1      -1.703  -3.228   0.387  0.00  0.00    -0.092 F 
ENDROOT
TORSDOF 0
ENDMDL
