MODEL 1
REMARK minimizedAffinity -1.41268265
REMARK minimizedRMSD -1
REMARK  0 active torsions:
REMARK  status: ('A' for Active; 'I' for Inactive)
ROOT
ATOM      1  C   UNL d   1      -1.352  -2.888  -0.213  0.00  0.00     0.124 A 
ATOM      2  C1  UNL d   1      -1.551  -2.147   0.943  0.00  0.00     0.062 A 
ATOM      3  C2  UNL d   1      -1.150  -0.815   0.998  0.00  0.00     0.162 A 
ATOM      4  C3  UNL d   1      -0.547  -0.215  -0.107  0.00  0.00    -0.034 A 
ATOM      5  C4  UNL d   1      -0.349  -0.968  -1.266  0.00  0.00     0.162 A 
ATOM      6  C5  UNL d   1      -0.751  -2.298  -1.316  0.00  0.00     0.062 A 
ATOM      7  F   UNL d   1      -0.558  -3.013  -2.435  0.00  0.00    -0.097 F 
ATOM      8  F1  UNL d   1       0.228  -0.422  -2.347  0.00  0.00    -0.096 F 
ATOM      9  I   UNL d   1       0.054   1.776  -0.028  0.00  0.00    -0.060 I 
ATOM     10  F2  UNL d   1      -1.355  -0.123   2.129  0.00  0.00    -0.096 F 
ATOM     11  F3  UNL d   1      -2.130  -2.715   2.011  0.00  0.00    -0.097 F 
ATOM     12  F4  UNL d   1      -1.738  -4.170  -0.263  0.00  0.00    -0.092 F 
ENDROOT
TORSDOF 0
ENDMDL
