MODEL 1
REMARK minimizedAffinity -0.96274507
REMARK minimizedRMSD -1
REMARK  0 active torsions:
REMARK  status: ('A' for Active; 'I' for Inactive)
ROOT
ATOM      1  C   UNL d   1       0.496  -2.180  -1.729  0.00  0.00     0.124 A 
ATOM      2  C1  UNL d   1       0.336  -0.805  -1.629  0.00  0.00     0.062 A 
ATOM      3  C2  UNL d   1      -0.187  -0.243  -0.468  0.00  0.00     0.162 A 
ATOM      4  C3  UNL d   1      -0.554  -1.057   0.604  0.00  0.00    -0.034 A 
ATOM      5  C4  UNL d   1      -0.392  -2.439   0.496  0.00  0.00     0.162 A 
ATOM      6  C5  UNL d   1       0.132  -2.995  -0.667  0.00  0.00     0.062 A 
ATOM      7  F   UNL d   1       0.285  -4.324  -0.761  0.00  0.00    -0.097 F 
ATOM      8  F1  UNL d   1      -0.734  -3.251   1.507  0.00  0.00    -0.096 F 
ATOM      9  I   UNL d   1      -1.337  -0.221   2.342  0.00  0.00    -0.060 I 
ATOM     10  F2  UNL d   1      -0.330   1.089  -0.399  0.00  0.00    -0.096 F 
ATOM     11  F3  UNL d   1       0.686  -0.014  -2.654  0.00  0.00    -0.097 F 
ATOM     12  F4  UNL d   1       0.998  -2.717  -2.847  0.00  0.00    -0.092 F 
ENDROOT
TORSDOF 0
ENDMDL
