MODEL 1
REMARK minimizedAffinity -2.19006085
REMARK minimizedRMSD -1
REMARK  0 active torsions:
REMARK  status: ('A' for Active; 'I' for Inactive)
ROOT
ATOM      1  C   UNL d   1       0.797   2.066  -0.810  0.00  0.00     0.124 A 
ATOM      2  C1  UNL d   1       0.857   1.663   0.517  0.00  0.00     0.062 A 
ATOM      3  C2  UNL d   1       0.443   0.385   0.881  0.00  0.00     0.162 A 
ATOM      4  C3  UNL d   1      -0.035  -0.501  -0.085  0.00  0.00    -0.034 A 
ATOM      5  C4  UNL d   1      -0.093  -0.089  -1.418  0.00  0.00     0.162 A 
ATOM      6  C5  UNL d   1       0.323   1.190  -1.776  0.00  0.00     0.062 A 
ATOM      7  F   UNL d   1       0.264   1.577  -3.058  0.00  0.00    -0.097 F 
ATOM      8  F1  UNL d   1      -0.546  -0.915  -2.372  0.00  0.00    -0.096 F 
ATOM      9  I   UNL d   1      -0.655  -2.413   0.454  0.00  0.00    -0.060 I 
ATOM     10  F2  UNL d   1       0.512   0.023   2.170  0.00  0.00    -0.096 F 
ATOM     11  F3  UNL d   1       1.315   2.508   1.453  0.00  0.00    -0.097 F 
ATOM     12  F4  UNL d   1       1.196   3.296  -1.156  0.00  0.00    -0.092 F 
ENDROOT
TORSDOF 0
ENDMDL
