MODEL 1
REMARK minimizedAffinity -2.8625381
REMARK minimizedRMSD -1
REMARK  0 active torsions:
REMARK  status: ('A' for Active; 'I' for Inactive)
ROOT
ATOM      1  C   UNL d   1       0.322  -1.944  -0.502  0.00  0.00     0.124 A 
ATOM      2  C1  UNL d   1      -0.801  -2.694  -0.180  0.00  0.00     0.062 A 
ATOM      3  C2  UNL d   1      -1.513  -2.424   0.985  0.00  0.00     0.162 A 
ATOM      4  C3  UNL d   1      -1.105  -1.397   1.836  0.00  0.00    -0.034 A 
ATOM      5  C4  UNL d   1       0.026  -0.648   1.506  0.00  0.00     0.162 A 
ATOM      6  C5  UNL d   1       0.734  -0.922   0.341  0.00  0.00     0.062 A 
ATOM      7  F   UNL d   1       1.818  -0.197   0.032  0.00  0.00    -0.097 F 
ATOM      8  F1  UNL d   1       0.446   0.346   2.303  0.00  0.00    -0.096 F 
ATOM      9  I   UNL d   1      -2.167  -0.990   3.579  0.00  0.00    -0.060 I 
ATOM     10  F2  UNL d   1      -2.594  -3.164   1.271  0.00  0.00    -0.096 F 
ATOM     11  F3  UNL d   1      -1.201  -3.683  -0.993  0.00  0.00    -0.097 F 
ATOM     12  F4  UNL d   1       1.005  -2.208  -1.623  0.00  0.00    -0.092 F 
ENDROOT
TORSDOF 0
ENDMDL
