MODEL 1
REMARK minimizedAffinity -4.60167408
REMARK minimizedRMSD -1
REMARK  0 active torsions:
REMARK  status: ('A' for Active; 'I' for Inactive)
ROOT
ATOM      1  C   UNL d   1      -1.662  -1.894   0.996  0.00  0.00     0.124 A 
ATOM      2  C1  UNL d   1      -2.000  -0.551   1.096  0.00  0.00     0.062 A 
ATOM      3  C2  UNL d   1      -1.070   0.431   0.768  0.00  0.00     0.162 A 
ATOM      4  C3  UNL d   1       0.207   0.075   0.336  0.00  0.00    -0.034 A 
ATOM      5  C4  UNL d   1       0.540  -1.278   0.239  0.00  0.00     0.162 A 
ATOM      6  C5  UNL d   1      -0.393  -2.255   0.569  0.00  0.00     0.062 A 
ATOM      7  F   UNL d   1      -0.064  -3.552   0.472  0.00  0.00    -0.097 F 
ATOM      8  F1  UNL d   1       1.760  -1.655  -0.172  0.00  0.00    -0.096 F 
ATOM      9  I   UNL d   1       1.600   1.541  -0.156  0.00  0.00    -0.060 I 
ATOM     10  F2  UNL d   1      -1.425   1.721   0.873  0.00  0.00    -0.096 F 
ATOM     11  F3  UNL d   1      -3.226  -0.199   1.510  0.00  0.00    -0.097 F 
ATOM     12  F4  UNL d   1      -2.558  -2.837   1.314  0.00  0.00    -0.092 F 
ENDROOT
TORSDOF 0
ENDMDL
