MODEL 1
REMARK minimizedAffinity 0.137059346
REMARK minimizedRMSD -1
REMARK  0 active torsions:
REMARK  status: ('A' for Active; 'I' for Inactive)
ROOT
ATOM      1  C   UNL d   1      -0.334  -2.861   0.864  0.00  0.00     0.124 A 
ATOM      2  C1  UNL d   1      -1.179  -1.863   1.330  0.00  0.00     0.062 A 
ATOM      3  C2  UNL d   1      -1.059  -0.563   0.848  0.00  0.00     0.162 A 
ATOM      4  C3  UNL d   1      -0.091  -0.253  -0.107  0.00  0.00    -0.034 A 
ATOM      5  C4  UNL d   1       0.756  -1.261  -0.570  0.00  0.00     0.162 A 
ATOM      6  C5  UNL d   1       0.632  -2.559  -0.085  0.00  0.00     0.062 A 
ATOM      7  F   UNL d   1       1.450  -3.522  -0.536  0.00  0.00    -0.097 F 
ATOM      8  F1  UNL d   1       1.698  -0.998  -1.488  0.00  0.00    -0.096 F 
ATOM      9  I   UNL d   1       0.092   1.690  -0.830  0.00  0.00    -0.060 I 
ATOM     10  F2  UNL d   1      -1.889   0.381   1.316  0.00  0.00    -0.096 F 
ATOM     11  F3  UNL d   1      -2.113  -2.152   2.248  0.00  0.00    -0.097 F 
ATOM     12  F4  UNL d   1      -0.451  -4.111   1.330  0.00  0.00    -0.092 F 
ENDROOT
TORSDOF 0
ENDMDL
