MODEL 1
REMARK minimizedAffinity 0.819704771
REMARK minimizedRMSD -1
REMARK  0 active torsions:
REMARK  status: ('A' for Active; 'I' for Inactive)
ROOT
ATOM      1  C   UNL d   1      -0.669  -2.899   0.312  0.00  0.00     0.124 A 
ATOM      2  C1  UNL d   1      -1.468  -1.998   1.002  0.00  0.00     0.062 A 
ATOM      3  C2  UNL d   1      -1.075  -0.668   1.128  0.00  0.00     0.162 A 
ATOM      4  C3  UNL d   1       0.122  -0.231   0.561  0.00  0.00    -0.034 A 
ATOM      5  C4  UNL d   1       0.921  -1.144  -0.131  0.00  0.00     0.162 A 
ATOM      6  C5  UNL d   1       0.524  -2.472  -0.253  0.00  0.00     0.062 A 
ATOM      7  F   UNL d   1       1.297  -3.341  -0.920  0.00  0.00    -0.097 F 
ATOM      8  F1  UNL d   1       2.078  -0.758  -0.688  0.00  0.00    -0.096 F 
ATOM      9  I   UNL d   1       0.713   1.756   0.746  0.00  0.00    -0.060 I 
ATOM     10  F2  UNL d   1      -1.867   0.181   1.800  0.00  0.00    -0.096 F 
ATOM     11  F3  UNL d   1      -2.620  -2.408   1.550  0.00  0.00    -0.097 F 
ATOM     12  F4  UNL d   1      -1.049  -4.178   0.194  0.00  0.00    -0.092 F 
ENDROOT
TORSDOF 0
ENDMDL
