MODEL 1
REMARK minimizedAffinity -2.25424457
REMARK minimizedRMSD -1
REMARK  0 active torsions:
REMARK  status: ('A' for Active; 'I' for Inactive)
ROOT
ATOM      1  C   UNL d   1      -0.101  -1.939  -1.757  0.00  0.00     0.124 A 
ATOM      2  C1  UNL d   1      -0.276  -0.566  -1.659  0.00  0.00     0.062 A 
ATOM      3  C2  UNL d   1      -0.928  -0.020  -0.557  0.00  0.00     0.162 A 
ATOM      4  C3  UNL d   1      -1.409  -0.848   0.457  0.00  0.00    -0.034 A 
ATOM      5  C4  UNL d   1      -1.231  -2.228   0.351  0.00  0.00     0.162 A 
ATOM      6  C5  UNL d   1      -0.579  -2.769  -0.753  0.00  0.00     0.062 A 
ATOM      7  F   UNL d   1      -0.411  -4.096  -0.845  0.00  0.00    -0.097 F 
ATOM      8  F1  UNL d   1      -1.682  -3.053   1.308  0.00  0.00    -0.096 F 
ATOM      9  I   UNL d   1      -2.384  -0.035   2.106  0.00  0.00    -0.060 I 
ATOM     10  F2  UNL d   1      -1.082   1.311  -0.489  0.00  0.00    -0.096 F 
ATOM     11  F3  UNL d   1       0.184   0.238  -2.629  0.00  0.00    -0.097 F 
ATOM     12  F4  UNL d   1       0.525  -2.462  -2.819  0.00  0.00    -0.092 F 
ENDROOT
TORSDOF 0
ENDMDL
