MODEL 1
REMARK minimizedAffinity 1.8594116
REMARK minimizedRMSD -1
REMARK  0 active torsions:
REMARK  status: ('A' for Active; 'I' for Inactive)
ROOT
ATOM      1  C   UNL d   1       0.737  -1.964   0.426  0.00  0.00     0.124 A 
ATOM      2  C1  UNL d   1      -0.312  -2.749   0.882  0.00  0.00     0.062 A 
ATOM      3  C2  UNL d   1      -1.579  -2.196   1.048  0.00  0.00     0.162 A 
ATOM      4  C3  UNL d   1      -1.804  -0.851   0.755  0.00  0.00    -0.034 A 
ATOM      5  C4  UNL d   1      -0.743  -0.068   0.297  0.00  0.00     0.162 A 
ATOM      6  C5  UNL d   1       0.521  -0.624   0.133  0.00  0.00     0.062 A 
ATOM      7  F   UNL d   1       1.534   0.136  -0.308  0.00  0.00    -0.097 F 
ATOM      8  F1  UNL d   1      -0.925   1.229   0.006  0.00  0.00    -0.096 F 
ATOM      9  I   UNL d   1      -3.697  -0.022   1.000  0.00  0.00    -0.060 I 
ATOM     10  F2  UNL d   1      -2.575  -2.979   1.490  0.00  0.00    -0.096 F 
ATOM     11  F3  UNL d   1      -0.105  -4.043   1.166  0.00  0.00    -0.097 F 
ATOM     12  F4  UNL d   1       1.956  -2.497   0.269  0.00  0.00    -0.092 F 
ENDROOT
TORSDOF 0
ENDMDL
