MODEL 1
REMARK minimizedAffinity -0.631801009
REMARK minimizedRMSD -1
REMARK  0 active torsions:
REMARK  status: ('A' for Active; 'I' for Inactive)
ROOT
ATOM      1  C   UNL d   1       1.221   1.965  -0.730  0.00  0.00     0.124 A 
ATOM      2  C1  UNL d   1       1.275   1.732   0.637  0.00  0.00     0.062 A 
ATOM      3  C2  UNL d   1       0.581   0.662   1.193  0.00  0.00     0.162 A 
ATOM      4  C3  UNL d   1      -0.173  -0.186   0.381  0.00  0.00    -0.034 A 
ATOM      5  C4  UNL d   1      -0.224   0.055  -0.993  0.00  0.00     0.162 A 
ATOM      6  C5  UNL d   1       0.472   1.127  -1.544  0.00  0.00     0.062 A 
ATOM      7  F   UNL d   1       0.418   1.350  -2.865  0.00  0.00    -0.097 F 
ATOM      8  F1  UNL d   1      -0.939  -0.740  -1.803  0.00  0.00    -0.096 F 
ATOM      9  I   UNL d   1      -1.212  -1.788   1.208  0.00  0.00    -0.060 I 
ATOM     10  F2  UNL d   1       0.651   0.460   2.517  0.00  0.00    -0.096 F 
ATOM     11  F3  UNL d   1       1.997   2.542   1.426  0.00  0.00    -0.097 F 
ATOM     12  F4  UNL d   1       1.888   2.997  -1.262  0.00  0.00    -0.092 F 
ENDROOT
TORSDOF 0
ENDMDL
