MODEL 1
REMARK minimizedAffinity -0.835882664
REMARK minimizedRMSD -1
REMARK  0 active torsions:
REMARK  status: ('A' for Active; 'I' for Inactive)
ROOT
ATOM      1  C   UNL d   1       0.222  -0.054  -5.698  0.00  0.00     0.020 A 
ATOM      2  C1  UNL d   1      -0.780  -0.709  -4.984  0.00  0.00     0.020 A 
ATOM      3  C2  UNL d   1      -0.708  -0.788  -3.592  0.00  0.00     0.034 A 
ATOM      4  C3  UNL d   1       0.368  -0.211  -2.909  0.00  0.00     0.017 A 
ATOM      5  C4  UNL d   1       1.374   0.447  -3.626  0.00  0.00     0.017 A 
ATOM      6  C5  UNL d   1       1.297   0.524  -5.020  0.00  0.00     0.034 A 
ATOM      7 Cl   UNL d   1       2.733   1.184  -2.853  0.00  0.00    -0.070 Cl
ATOM      8 Cl1  UNL d   1       0.393  -0.347  -1.186  0.00  0.00    -0.070 Cl
ENDROOT
TORSDOF 0
ENDMDL
