MODEL 1
REMARK minimizedAffinity -4.53024912
REMARK minimizedRMSD -1
REMARK  0 active torsions:
REMARK  status: ('A' for Active; 'I' for Inactive)
ROOT
ATOM      1  C   UNL d   1      -0.745   0.962   3.889  0.00  0.00     0.020 A 
ATOM      2  C1  UNL d   1      -1.529   1.059   2.740  0.00  0.00     0.020 A 
ATOM      3  C2  UNL d   1      -0.976   0.770   1.491  0.00  0.00     0.034 A 
ATOM      4  C3  UNL d   1       0.365   0.383   1.387  0.00  0.00     0.017 A 
ATOM      5  C4  UNL d   1       1.151   0.286   2.541  0.00  0.00     0.017 A 
ATOM      6  C5  UNL d   1       0.593   0.576   3.789  0.00  0.00     0.034 A 
ATOM      7 Cl   UNL d   1       2.813  -0.186   2.492  0.00  0.00    -0.070 Cl
ATOM      8 Cl1  UNL d   1       0.982   0.040  -0.190  0.00  0.00    -0.070 Cl
ENDROOT
TORSDOF 0
ENDMDL
