MODEL 1
REMARK minimizedAffinity -4.80247259
REMARK minimizedRMSD -1
REMARK  0 active torsions:
REMARK  status: ('A' for Active; 'I' for Inactive)
ROOT
ATOM      1  C   UNL d   1      -0.906  -0.389  -0.183  0.00  0.00     0.020 A 
ATOM      2  C1  UNL d   1       0.384  -0.899  -0.328  0.00  0.00     0.020 A 
ATOM      3  C2  UNL d   1       1.334  -0.691   0.674  0.00  0.00     0.034 A 
ATOM      4  C3  UNL d   1       0.996   0.030   1.826  0.00  0.00     0.017 A 
ATOM      5  C4  UNL d   1      -0.299   0.541   1.970  0.00  0.00     0.017 A 
ATOM      6  C5  UNL d   1      -1.246   0.330   0.964  0.00  0.00     0.034 A 
ATOM      7 Cl   UNL d   1      -0.790   1.440   3.363  0.00  0.00    -0.070 Cl
ATOM      8 Cl1  UNL d   1       2.221   0.249   3.024  0.00  0.00    -0.070 Cl
ENDROOT
TORSDOF 0
ENDMDL
