MODEL 1
REMARK minimizedAffinity -3.25163174
REMARK minimizedRMSD -1
REMARK  0 active torsions:
REMARK  status: ('A' for Active; 'I' for Inactive)
ROOT
ATOM      1  C   UNL d   1      -0.636  -0.535  -1.082  0.00  0.00     0.020 A 
ATOM      2  C1  UNL d   1       0.598  -1.156  -1.270  0.00  0.00     0.020 A 
ATOM      3  C2  UNL d   1       1.598  -1.031  -0.302  0.00  0.00     0.034 A 
ATOM      4  C3  UNL d   1       1.365  -0.282   0.857  0.00  0.00     0.017 A 
ATOM      5  C4  UNL d   1       0.126   0.342   1.044  0.00  0.00     0.017 A 
ATOM      6  C5  UNL d   1      -0.871   0.212   0.072  0.00  0.00     0.034 A 
ATOM      7 Cl   UNL d   1      -0.235   1.282   2.449  0.00  0.00    -0.070 Cl
ATOM      8 Cl1  UNL d   1       2.646  -0.169   2.011  0.00  0.00    -0.070 Cl
ENDROOT
TORSDOF 0
ENDMDL
