MODEL 1
REMARK minimizedAffinity -4.53953457
REMARK minimizedRMSD -1
REMARK  0 active torsions:
REMARK  status: ('A' for Active; 'I' for Inactive)
ROOT
ATOM      1  C   UNL d   1       0.490  -0.975  -1.035  0.00  0.00     0.020 A 
ATOM      2  C1  UNL d   1      -0.745  -0.338  -0.917  0.00  0.00     0.020 A 
ATOM      3  C2  UNL d   1      -1.083   0.317   0.269  0.00  0.00     0.034 A 
ATOM      4  C3  UNL d   1      -0.184   0.337   1.342  0.00  0.00     0.017 A 
ATOM      5  C4  UNL d   1       1.055  -0.302   1.223  0.00  0.00     0.017 A 
ATOM      6  C5  UNL d   1       1.388  -0.957   0.033  0.00  0.00     0.034 A 
ATOM      7 Cl   UNL d   1       2.215  -0.321   2.504  0.00  0.00    -0.070 Cl
ATOM      8 Cl1  UNL d   1      -0.667   1.166   2.779  0.00  0.00    -0.070 Cl
ENDROOT
TORSDOF 0
ENDMDL
