MODEL 1
REMARK minimizedAffinity -2.80111647
REMARK minimizedRMSD -1
REMARK  0 active torsions:
REMARK  status: ('A' for Active; 'I' for Inactive)
ROOT
ATOM      1  C   UNL d   1       0.474   0.979   2.581  0.00  0.00     0.020 A 
ATOM      2  C1  UNL d   1      -0.875   0.999   2.932  0.00  0.00     0.020 A 
ATOM      3  C2  UNL d   1      -1.824   0.419   2.088  0.00  0.00     0.034 A 
ATOM      4  C3  UNL d   1      -1.425  -0.183   0.889  0.00  0.00     0.017 A 
ATOM      5  C4  UNL d   1      -0.071  -0.203   0.538  0.00  0.00     0.017 A 
ATOM      6  C5  UNL d   1       0.876   0.379   1.387  0.00  0.00     0.034 A 
ATOM      7 Cl   UNL d   1       0.498  -0.928  -0.925  0.00  0.00    -0.070 Cl
ATOM      8 Cl1  UNL d   1      -2.653  -0.882  -0.107  0.00  0.00    -0.070 Cl
ENDROOT
TORSDOF 0
ENDMDL
