MODEL 1
REMARK minimizedAffinity -1.35090029
REMARK minimizedRMSD -1
REMARK  0 active torsions:
REMARK  status: ('A' for Active; 'I' for Inactive)
ROOT
ATOM      1  C   UNL d   1       1.391   0.255   0.257  0.00  0.00     0.020 A 
ATOM      2  C1  UNL d   1       0.881  -0.238  -0.943  0.00  0.00     0.020 A 
ATOM      3  C2  UNL d   1      -0.490  -0.469  -1.077  0.00  0.00     0.034 A 
ATOM      4  C3  UNL d   1      -1.355  -0.206  -0.009  0.00  0.00     0.017 A 
ATOM      5  C4  UNL d   1      -0.843   0.289   1.196  0.00  0.00     0.017 A 
ATOM      6  C5  UNL d   1       0.531   0.518   1.324  0.00  0.00     0.034 A 
ATOM      7 Cl   UNL d   1      -1.848   0.638   2.558  0.00  0.00    -0.070 Cl
ATOM      8 Cl1  UNL d   1      -3.039  -0.514  -0.245  0.00  0.00    -0.070 Cl
ENDROOT
TORSDOF 0
ENDMDL
