MODEL 1
REMARK minimizedAffinity -5.31705999
REMARK minimizedRMSD -1
REMARK  0 active torsions:
REMARK  status: ('A' for Active; 'I' for Inactive)
ROOT
ATOM      1  C   UNL d   1      -0.597   1.249   2.599  0.00  0.00     0.020 A 
ATOM      2  C1  UNL d   1       0.751   1.045   2.310  0.00  0.00     0.020 A 
ATOM      3  C2  UNL d   1       1.120   0.353   1.154  0.00  0.00     0.034 A 
ATOM      4  C3  UNL d   1       0.140  -0.137   0.283  0.00  0.00     0.017 A 
ATOM      5  C4  UNL d   1      -1.213   0.069   0.574  0.00  0.00     0.017 A 
ATOM      6  C5  UNL d   1      -1.578   0.762   1.733  0.00  0.00     0.034 A 
ATOM      7 Cl   UNL d   1      -2.480  -0.505  -0.452  0.00  0.00    -0.070 Cl
ATOM      8 Cl1  UNL d   1       0.668  -0.983  -1.128  0.00  0.00    -0.070 Cl
ENDROOT
TORSDOF 0
ENDMDL
