MODEL 1
REMARK minimizedAffinity -5.70756769
REMARK minimizedRMSD -1
REMARK  0 active torsions:
REMARK  status: ('A' for Active; 'I' for Inactive)
ROOT
ATOM      1  C   UNL d   1      -0.967   1.344   2.759  0.00  0.00     0.020 A 
ATOM      2  C1  UNL d   1       0.363   1.198   2.368  0.00  0.00     0.020 A 
ATOM      3  C2  UNL d   1       0.669   0.617   1.135  0.00  0.00     0.034 A 
ATOM      4  C3  UNL d   1      -0.357   0.181   0.289  0.00  0.00     0.017 A 
ATOM      5  C4  UNL d   1      -1.692   0.328   0.682  0.00  0.00     0.017 A 
ATOM      6  C5  UNL d   1      -1.992   0.910   1.917  0.00  0.00     0.034 A 
ATOM      7 Cl   UNL d   1      -3.012  -0.186  -0.308  0.00  0.00    -0.070 Cl
ATOM      8 Cl1  UNL d   1       0.094  -0.527  -1.222  0.00  0.00    -0.070 Cl
ENDROOT
TORSDOF 0
ENDMDL
