MODEL 1
REMARK minimizedAffinity -3.52480435
REMARK minimizedRMSD -1
REMARK  0 active torsions:
REMARK  status: ('A' for Active; 'I' for Inactive)
ROOT
ATOM      1  C   UNL d   1      -0.619   0.650   3.472  0.00  0.00     0.020 A 
ATOM      2  C1  UNL d   1       0.700   0.245   3.271  0.00  0.00     0.020 A 
ATOM      3  C2  UNL d   1       1.113  -0.186   2.008  0.00  0.00     0.034 A 
ATOM      4  C3  UNL d   1       0.206  -0.212   0.942  0.00  0.00     0.017 A 
ATOM      5  C4  UNL d   1      -1.117   0.195   1.145  0.00  0.00     0.017 A 
ATOM      6  C5  UNL d   1      -1.525   0.625   2.412  0.00  0.00     0.034 A 
ATOM      7 Cl   UNL d   1      -2.293   0.191  -0.121  0.00  0.00    -0.070 Cl
ATOM      8 Cl1  UNL d   1       0.786  -0.755  -0.593  0.00  0.00    -0.070 Cl
ENDROOT
TORSDOF 0
ENDMDL
