MODEL 1
REMARK minimizedAffinity -4.3206954
REMARK minimizedRMSD -1
REMARK  0 active torsions:
REMARK  status: ('A' for Active; 'I' for Inactive)
ROOT
ATOM      1  C   UNL d   1      -1.434   1.270   2.007  0.00  0.00     0.020 A 
ATOM      2  C1  UNL d   1      -2.000   0.691   0.872  0.00  0.00     0.020 A 
ATOM      3  C2  UNL d   1      -1.209  -0.073   0.010  0.00  0.00     0.034 A 
ATOM      4  C3  UNL d   1       0.151  -0.260   0.282  0.00  0.00     0.017 A 
ATOM      5  C4  UNL d   1       0.718   0.321   1.422  0.00  0.00     0.017 A 
ATOM      6  C5  UNL d   1      -0.078   1.085   2.282  0.00  0.00     0.034 A 
ATOM      7 Cl   UNL d   1       2.388   0.135   1.825  0.00  0.00    -0.070 Cl
ATOM      8 Cl1  UNL d   1       1.068  -1.217  -0.826  0.00  0.00    -0.070 Cl
ENDROOT
TORSDOF 0
ENDMDL
