MODEL 1
REMARK minimizedAffinity -1.78100801
REMARK minimizedRMSD -1
REMARK  0 active torsions:
REMARK  status: ('A' for Active; 'I' for Inactive)
ROOT
ATOM      1  C   UNL d   1      -0.499  -0.933  -0.853  0.00  0.00     0.020 A 
ATOM      2  C1  UNL d   1      -1.708  -0.371  -0.442  0.00  0.00     0.020 A 
ATOM      3  C2  UNL d   1      -1.777   0.333   0.761  0.00  0.00     0.034 A 
ATOM      4  C3  UNL d   1      -0.636   0.478   1.559  0.00  0.00     0.017 A 
ATOM      5  C4  UNL d   1       0.576  -0.086   1.146  0.00  0.00     0.017 A 
ATOM      6  C5  UNL d   1       0.640  -0.790  -0.060  0.00  0.00     0.034 A 
ATOM      7 Cl   UNL d   1       2.026   0.051   2.077  0.00  0.00    -0.070 Cl
ATOM      8 Cl1  UNL d   1      -0.795   1.363   3.035  0.00  0.00    -0.070 Cl
ENDROOT
TORSDOF 0
ENDMDL
