MODEL 1
REMARK minimizedAffinity -4.18008804
REMARK minimizedRMSD -1
REMARK  0 active torsions:
REMARK  status: ('A' for Active; 'I' for Inactive)
ROOT
ATOM      1  C1  BNZ d   1      -1.275  -0.817   0.233  0.00  0.00     0.000 A 
ATOM      2  C2  BNZ d   1      -0.377   0.168  -0.079  0.00  0.00     0.000 A 
ATOM      3  C3  BNZ d   1       0.932   0.068   0.302  0.00  0.00     0.000 A 
ATOM      4  C4  BNZ d   1       1.332  -0.997   1.028  0.00  0.00     0.000 A 
ATOM      5  C5  BNZ d   1       0.436  -1.994   1.359  0.00  0.00     0.000 A 
ATOM      6  C6  BNZ d   1      -0.872  -1.908   0.940  0.00  0.00     0.000 A 
ENDROOT
TORSDOF 0
ENDMDL
