MODEL 1
REMARK minimizedAffinity -4.10810566
REMARK minimizedRMSD -1
REMARK  0 active torsions:
REMARK  status: ('A' for Active; 'I' for Inactive)
ROOT
ATOM      1  C1  BNZ d   1      -1.342  -0.950  -0.309  0.00  0.00     0.000 A 
ATOM      2  C2  BNZ d   1      -0.878  -2.157   0.142  0.00  0.00     0.000 A 
ATOM      3  C3  BNZ d   1       0.370  -2.266   0.689  0.00  0.00     0.000 A 
ATOM      4  C4  BNZ d   1       1.166  -1.179   0.749  0.00  0.00     0.000 A 
ATOM      5  C5  BNZ d   1       0.715   0.043   0.290  0.00  0.00     0.000 A 
ATOM      6  C6  BNZ d   1      -0.556   0.157  -0.225  0.00  0.00     0.000 A 
ENDROOT
TORSDOF 0
ENDMDL
