MODEL 1
REMARK minimizedAffinity -5.19444036
REMARK minimizedRMSD -1
REMARK  0 active torsions:
REMARK  status: ('A' for Active; 'I' for Inactive)
ROOT
ATOM      1  C1  BNZ d   1      -1.925  -2.333   1.592  0.00  0.00     0.000 A 
ATOM      2  C2  BNZ d   1      -0.891  -2.688   0.767  0.00  0.00     0.000 A 
ATOM      3  C3  BNZ d   1      -0.220  -1.744   0.041  0.00  0.00     0.000 A 
ATOM      4  C4  BNZ d   1      -0.608  -0.455   0.109  0.00  0.00     0.000 A 
ATOM      5  C5  BNZ d   1      -1.655  -0.082   0.928  0.00  0.00     0.000 A 
ATOM      6  C6  BNZ d   1      -2.303  -1.029   1.688  0.00  0.00     0.000 A 
ENDROOT
TORSDOF 0
ENDMDL
