MODEL 1
REMARK minimizedAffinity -2.50505471
REMARK minimizedRMSD -1
REMARK  0 active torsions:
REMARK  status: ('A' for Active; 'I' for Inactive)
ROOT
ATOM      1  C1  BNZ d   1      -0.581  -0.095   0.401  0.00  0.00     0.000 A 
ATOM      2  C2  BNZ d   1      -1.564  -0.788   1.056  0.00  0.00     0.000 A 
ATOM      3  C3  BNZ d   1      -1.478  -2.143   1.215  0.00  0.00     0.000 A 
ATOM      4  C4  BNZ d   1      -0.431  -2.808   0.685  0.00  0.00     0.000 A 
ATOM      5  C5  BNZ d   1       0.563  -2.125   0.014  0.00  0.00     0.000 A 
ATOM      6  C6  BNZ d   1       0.493  -0.756  -0.111  0.00  0.00     0.000 A 
ENDROOT
TORSDOF 0
ENDMDL
