MODEL 1
REMARK minimizedAffinity -2.93817568
REMARK minimizedRMSD -1
REMARK  0 active torsions:
REMARK  status: ('A' for Active; 'I' for Inactive)
ROOT
ATOM      1  C1  BNZ d   1       1.486   1.592  -4.117  0.00  0.00     0.000 A 
ATOM      2  C2  BNZ d   1       0.386   1.698  -3.308  0.00  0.00     0.000 A 
ATOM      3  C3  BNZ d   1       0.473   2.299  -2.084  0.00  0.00     0.000 A 
ATOM      4  C4  BNZ d   1       1.666   2.756  -1.652  0.00  0.00     0.000 A 
ATOM      5  C5  BNZ d   1       2.786   2.648  -2.452  0.00  0.00     0.000 A 
ATOM      6  C6  BNZ d   1       2.687   2.078  -3.701  0.00  0.00     0.000 A 
ENDROOT
TORSDOF 0
ENDMDL
