MODEL 1
REMARK minimizedAffinity -2.77418828
REMARK minimizedRMSD -1
REMARK  0 active torsions:
REMARK  status: ('A' for Active; 'I' for Inactive)
ROOT
ATOM      1  C1  BNZ d   1       0.975  -1.065   0.044  0.00  0.00     0.000 A 
ATOM      2  C2  BNZ d   1       1.610   0.028  -0.482  0.00  0.00     0.000 A 
ATOM      3  C3  BNZ d   1       0.918   1.174  -0.758  0.00  0.00     0.000 A 
ATOM      4  C4  BNZ d   1      -0.413   1.212  -0.546  0.00  0.00     0.000 A 
ATOM      5  C5  BNZ d   1      -1.070   0.115  -0.025  0.00  0.00     0.000 A 
ATOM      6  C6  BNZ d   1      -0.363  -1.023   0.289  0.00  0.00     0.000 A 
ENDROOT
TORSDOF 0
ENDMDL
