MODEL 1
REMARK minimizedAffinity -3.54080296
REMARK minimizedRMSD -1
REMARK  0 active torsions:
REMARK  status: ('A' for Active; 'I' for Inactive)
ROOT
ATOM      1  C1  BNZ d   1       0.447  -1.123   0.399  0.00  0.00     0.000 A 
ATOM      2  C2  BNZ d   1      -0.007  -2.108   1.235  0.00  0.00     0.000 A 
ATOM      3  C3  BNZ d   1      -1.344  -2.377   1.339  0.00  0.00     0.000 A 
ATOM      4  C4  BNZ d   1      -2.226  -1.635   0.639  0.00  0.00     0.000 A 
ATOM      5  C5  BNZ d   1      -1.784  -0.631  -0.200  0.00  0.00     0.000 A 
ATOM      6  C6  BNZ d   1      -0.436  -0.389  -0.332  0.00  0.00     0.000 A 
ENDROOT
TORSDOF 0
ENDMDL
