MODEL 1
REMARK minimizedAffinity -4.27433491
REMARK minimizedRMSD -1
REMARK  0 active torsions:
REMARK  status: ('A' for Active; 'I' for Inactive)
ROOT
ATOM      1  C1  BNZ d   1      -0.713   0.902   0.407  0.00  0.00     0.000 A 
ATOM      2  C2  BNZ d   1      -1.807   0.125   0.679  0.00  0.00     0.000 A 
ATOM      3  C3  BNZ d   1      -1.717  -1.239   0.671  0.00  0.00     0.000 A 
ATOM      4  C4  BNZ d   1      -0.545  -1.824   0.352  0.00  0.00     0.000 A 
ATOM      5  C5  BNZ d   1       0.566  -1.055   0.066  0.00  0.00     0.000 A 
ATOM      6  C6  BNZ d   1       0.481   0.318   0.113  0.00  0.00     0.000 A 
ENDROOT
TORSDOF 0
ENDMDL
