MODEL 1
REMARK minimizedAffinity -4.76301575
REMARK minimizedRMSD -1
REMARK  0 active torsions:
REMARK  status: ('A' for Active; 'I' for Inactive)
ROOT
ATOM      1  C1  BNZ d   1      -0.151  -0.144   0.268  0.00  0.00     0.000 A 
ATOM      2  C2  BNZ d   1      -1.339   0.074   0.913  0.00  0.00     0.000 A 
ATOM      3  C3  BNZ d   1      -2.139  -0.972   1.280  0.00  0.00     0.000 A 
ATOM      4  C4  BNZ d   1      -1.771  -2.230   0.965  0.00  0.00     0.000 A 
ATOM      5  C5  BNZ d   1      -0.580  -2.466   0.306  0.00  0.00     0.000 A 
ATOM      6  C6  BNZ d   1       0.241  -1.414  -0.026  0.00  0.00     0.000 A 
ENDROOT
TORSDOF 0
ENDMDL
