MODEL 1
REMARK minimizedAffinity -3.26965785
REMARK minimizedRMSD -1
REMARK  0 active torsions:
REMARK  status: ('A' for Active; 'I' for Inactive)
ROOT
ATOM      1  C1  BNZ d   1       0.627   1.363   0.308  0.00  0.00     0.000 A 
ATOM      2  C2  BNZ d   1       1.069   0.070   0.224  0.00  0.00     0.000 A 
ATOM      3  C3  BNZ d   1       0.208  -0.977   0.399  0.00  0.00     0.000 A 
ATOM      4  C4  BNZ d   1      -1.084  -0.730   0.698  0.00  0.00     0.000 A 
ATOM      5  C5  BNZ d   1      -1.543   0.568   0.795  0.00  0.00     0.000 A 
ATOM      6  C6  BNZ d   1      -0.681   1.619   0.580  0.00  0.00     0.000 A 
ENDROOT
TORSDOF 0
ENDMDL
