MODEL 1
REMARK minimizedAffinity -4.56336737
REMARK minimizedRMSD -1
REMARK  0 active torsions:
REMARK  status: ('A' for Active; 'I' for Inactive)
ROOT
ATOM      1  C1  BNZ d   1       0.011  -2.327   0.365  0.00  0.00     0.000 A 
ATOM      2  C2  BNZ d   1       0.997  -1.458  -0.021  0.00  0.00     0.000 A 
ATOM      3  C3  BNZ d   1       0.769  -0.111  -0.056  0.00  0.00     0.000 A 
ATOM      4  C4  BNZ d   1      -0.455   0.362   0.255  0.00  0.00     0.000 A 
ATOM      5  C5  BNZ d   1      -1.462  -0.501   0.636  0.00  0.00     0.000 A 
ATOM      6  C6  BNZ d   1      -1.217  -1.853   0.709  0.00  0.00     0.000 A 
ENDROOT
TORSDOF 0
ENDMDL
