MODEL 1
REMARK minimizedAffinity -3.66632175
REMARK minimizedRMSD -1
REMARK  0 active torsions:
REMARK  status: ('A' for Active; 'I' for Inactive)
ROOT
ATOM      1  C1  BNZ d   1      -1.318  -0.921   0.122  0.00  0.00     0.000 A 
ATOM      2  C2  BNZ d   1      -0.380  -0.151  -0.512  0.00  0.00     0.000 A 
ATOM      3  C3  BNZ d   1       0.955  -0.377  -0.323  0.00  0.00     0.000 A 
ATOM      4  C4  BNZ d   1       1.349  -1.345   0.529  0.00  0.00     0.000 A 
ATOM      5  C5  BNZ d   1       0.415  -2.124   1.183  0.00  0.00     0.000 A 
ATOM      6  C6  BNZ d   1      -0.927  -1.919   0.961  0.00  0.00     0.000 A 
ENDROOT
TORSDOF 0
ENDMDL
