MODEL 1
REMARK minimizedAffinity -4.33268929
REMARK minimizedRMSD -1
REMARK  0 active torsions:
REMARK  status: ('A' for Active; 'I' for Inactive)
ROOT
ATOM      1  C1  BNZ d   1       1.071  -1.216   0.428  0.00  0.00     0.000 A 
ATOM      2  C2  BNZ d   1       0.713   0.066   0.108  0.00  0.00     0.000 A 
ATOM      3  C3  BNZ d   1      -0.593   0.464   0.167  0.00  0.00     0.000 A 
ATOM      4  C4  BNZ d   1      -1.544  -0.430   0.508  0.00  0.00     0.000 A 
ATOM      5  C5  BNZ d   1      -1.200  -1.729   0.825  0.00  0.00     0.000 A 
ATOM      6  C6  BNZ d   1       0.120  -2.116   0.802  0.00  0.00     0.000 A 
ENDROOT
TORSDOF 0
ENDMDL
