MODEL 1
REMARK minimizedAffinity -5.08987379
REMARK minimizedRMSD -1
REMARK  0 active torsions:
REMARK  status: ('A' for Active; 'I' for Inactive)
ROOT
ATOM      1  C1  BNZ d   1       0.002  -2.303   1.244  0.00  0.00     0.000 A 
ATOM      2  C2  BNZ d   1      -1.365  -2.267   1.319  0.00  0.00     0.000 A 
ATOM      3  C3  BNZ d   1      -2.061  -1.174   0.886  0.00  0.00     0.000 A 
ATOM      4  C4  BNZ d   1      -1.389  -0.103   0.416  0.00  0.00     0.000 A 
ATOM      5  C5  BNZ d   1      -0.011  -0.120   0.342  0.00  0.00     0.000 A 
ATOM      6  C6  BNZ d   1       0.685  -1.237   0.743  0.00  0.00     0.000 A 
ENDROOT
TORSDOF 0
ENDMDL
