MODEL 1
REMARK minimizedAffinity -5.13940954
REMARK minimizedRMSD -1
REMARK  0 active torsions:
REMARK  status: ('A' for Active; 'I' for Inactive)
ROOT
ATOM      1  C1  BNZ d   1      -1.500  -0.754   0.974  0.00  0.00     0.000 A 
ATOM      2  C2  BNZ d   1      -0.258  -1.062   0.488  0.00  0.00     0.000 A 
ATOM      3  C3  BNZ d   1       0.658  -0.079   0.235  0.00  0.00     0.000 A 
ATOM      4  C4  BNZ d   1       0.318   1.211   0.430  0.00  0.00     0.000 A 
ATOM      5  C5  BNZ d   1      -0.935   1.538   0.910  0.00  0.00     0.000 A 
ATOM      6  C6  BNZ d   1      -1.841   0.544   1.201  0.00  0.00     0.000 A 
ENDROOT
TORSDOF 0
ENDMDL
