MODEL 1
REMARK minimizedAffinity -1.3738656
REMARK minimizedRMSD -1
REMARK  0 active torsions:
REMARK  status: ('A' for Active; 'I' for Inactive)
ROOT
ATOM      1  C   UNL d   1       1.722  -0.178  -1.065  0.00  0.00     0.124 A 
ATOM      2  C1  UNL d   1       1.072  -0.833  -0.028  0.00  0.00     0.062 A 
ATOM      3  C2  UNL d   1      -0.019  -0.240   0.600  0.00  0.00     0.162 A 
ATOM      4  C3  UNL d   1      -0.468   1.016   0.192  0.00  0.00    -0.034 A 
ATOM      5  C4  UNL d   1       0.191   1.669  -0.851  0.00  0.00     0.162 A 
ATOM      6  C5  UNL d   1       1.281   1.072  -1.475  0.00  0.00     0.062 A 
ATOM      7  F   UNL d   1       1.908   1.706  -2.476  0.00  0.00    -0.097 F 
ATOM      8  F1  UNL d   1      -0.215   2.878  -1.268  0.00  0.00    -0.096 F 
ATOM      9  I   UNL d   1      -2.100   1.907   1.128  0.00  0.00    -0.060 I 
ATOM     10  F2  UNL d   1      -0.628  -0.896   1.599  0.00  0.00    -0.096 F 
ATOM     11  F3  UNL d   1       1.497  -2.041   0.371  0.00  0.00    -0.097 F 
ATOM     12  F4  UNL d   1       2.773  -0.751  -1.666  0.00  0.00    -0.092 F 
ENDROOT
TORSDOF 0
ENDMDL
