MODEL 1
REMARK minimizedAffinity 2.22947049
REMARK minimizedRMSD -1
REMARK  0 active torsions:
REMARK  status: ('A' for Active; 'I' for Inactive)
ROOT
ATOM      1  C   UNL d   1      -1.858   0.732  -1.652  0.00  0.00     0.124 A 
ATOM      2  C1  UNL d   1      -0.577   0.237  -1.448  0.00  0.00     0.062 A 
ATOM      3  C2  UNL d   1      -0.000   0.291  -0.182  0.00  0.00     0.162 A 
ATOM      4  C3  UNL d   1      -0.704   0.840   0.890  0.00  0.00    -0.034 A 
ATOM      5  C4  UNL d   1      -1.991   1.336   0.676  0.00  0.00     0.162 A 
ATOM      6  C5  UNL d   1      -2.563   1.281  -0.591  0.00  0.00     0.062 A 
ATOM      7  F   UNL d   1      -3.801   1.759  -0.786  0.00  0.00    -0.097 F 
ATOM      8  F1  UNL d   1      -2.695   1.871   1.684  0.00  0.00    -0.096 F 
ATOM      9  I   UNL d   1       0.156   0.921   2.783  0.00  0.00    -0.060 I 
ATOM     10  F2  UNL d   1       1.239  -0.195  -0.014  0.00  0.00    -0.096 F 
ATOM     11  F3  UNL d   1       0.107  -0.292  -2.472  0.00  0.00    -0.097 F 
ATOM     12  F4  UNL d   1      -2.410   0.680  -2.871  0.00  0.00    -0.092 F 
ENDROOT
TORSDOF 0
ENDMDL
