MODEL 1
REMARK minimizedAffinity 0.0896881148
REMARK minimizedRMSD -1
REMARK  0 active torsions:
REMARK  status: ('A' for Active; 'I' for Inactive)
ROOT
ATOM      1  C   UNL d   1      -1.415   2.297   0.786  0.00  0.00     0.124 A 
ATOM      2  C1  UNL d   1      -0.604   2.350  -0.339  0.00  0.00     0.062 A 
ATOM      3  C2  UNL d   1       0.180   1.254  -0.689  0.00  0.00     0.162 A 
ATOM      4  C3  UNL d   1       0.156   0.095   0.087  0.00  0.00    -0.034 A 
ATOM      5  C4  UNL d   1      -0.662   0.050   1.217  0.00  0.00     0.162 A 
ATOM      6  C5  UNL d   1      -1.444   1.148   1.563  0.00  0.00     0.062 A 
ATOM      7  F   UNL d   1      -2.227   1.095   2.650  0.00  0.00    -0.097 F 
ATOM      8  F1  UNL d   1      -0.709  -1.048   1.986  0.00  0.00    -0.096 F 
ATOM      9  I   UNL d   1       1.326  -1.545  -0.433  0.00  0.00    -0.060 I 
ATOM     10  F2  UNL d   1       0.955   1.333  -1.781  0.00  0.00    -0.096 F 
ATOM     11  F3  UNL d   1      -0.574   3.460  -1.091  0.00  0.00    -0.097 F 
ATOM     12  F4  UNL d   1      -2.167   3.354   1.120  0.00  0.00    -0.092 F 
ENDROOT
TORSDOF 0
ENDMDL
