MODEL 1
REMARK minimizedAffinity -0.799587011
REMARK minimizedRMSD -1
REMARK  0 active torsions:
REMARK  status: ('A' for Active; 'I' for Inactive)
ROOT
ATOM      1  C   UNL d   1      -1.561   2.000   1.052  0.00  0.00     0.124 A 
ATOM      2  C1  UNL d   1      -1.263   0.825   1.727  0.00  0.00     0.062 A 
ATOM      3  C2  UNL d   1      -0.400  -0.108   1.161  0.00  0.00     0.162 A 
ATOM      4  C3  UNL d   1       0.174   0.130  -0.088  0.00  0.00    -0.034 A 
ATOM      5  C4  UNL d   1      -0.131   1.314  -0.762  0.00  0.00     0.162 A 
ATOM      6  C5  UNL d   1      -0.995   2.244  -0.192  0.00  0.00     0.062 A 
ATOM      7  F   UNL d   1      -1.281   3.379  -0.846  0.00  0.00    -0.097 F 
ATOM      8  F1  UNL d   1       0.402   1.575  -1.964  0.00  0.00    -0.096 F 
ATOM      9  I   UNL d   1       1.465  -1.263  -0.938  0.00  0.00    -0.060 I 
ATOM     10  F2  UNL d   1      -0.130  -1.236   1.836  0.00  0.00    -0.096 F 
ATOM     11  F3  UNL d   1      -1.810   0.587   2.928  0.00  0.00    -0.097 F 
ATOM     12  F4  UNL d   1      -2.393   2.896   1.598  0.00  0.00    -0.092 F 
ENDROOT
TORSDOF 0
ENDMDL
