MODEL 1
REMARK minimizedAffinity 2.24942994
REMARK minimizedRMSD -1
REMARK  0 active torsions:
REMARK  status: ('A' for Active; 'I' for Inactive)
ROOT
ATOM      1  C   UNL d   1      -1.040   1.794   1.444  0.00  0.00     0.124 A 
ATOM      2  C1  UNL d   1      -1.066   1.871   0.058  0.00  0.00     0.062 A 
ATOM      3  C2  UNL d   1      -0.490   0.862  -0.709  0.00  0.00     0.162 A 
ATOM      4  C3  UNL d   1       0.117  -0.232  -0.093  0.00  0.00    -0.034 A 
ATOM      5  C4  UNL d   1       0.140  -0.301   1.301  0.00  0.00     0.162 A 
ATOM      6  C5  UNL d   1      -0.437   0.709   2.064  0.00  0.00     0.062 A 
ATOM      7  F   UNL d   1      -0.411   0.634   3.403  0.00  0.00    -0.097 F 
ATOM      8  F1  UNL d   1       0.715  -1.339   1.927  0.00  0.00    -0.096 F 
ATOM      9  I   UNL d   1       0.980  -1.741  -1.237  0.00  0.00    -0.060 I 
ATOM     10  F2  UNL d   1      -0.530   0.962  -2.046  0.00  0.00    -0.096 F 
ATOM     11  F3  UNL d   1      -1.647   2.919  -0.544  0.00  0.00    -0.097 F 
ATOM     12  F4  UNL d   1      -1.594   2.766   2.180  0.00  0.00    -0.092 F 
ENDROOT
TORSDOF 0
ENDMDL
