MODEL 1
REMARK minimizedAffinity 2.98922586
REMARK minimizedRMSD -1
REMARK  0 active torsions:
REMARK  status: ('A' for Active; 'I' for Inactive)
ROOT
ATOM      1  C   UNL d   1      -0.341   1.361   1.270  0.00  0.00     0.124 A 
ATOM      2  C1  UNL d   1      -0.864   0.155   1.716  0.00  0.00     0.062 A 
ATOM      3  C2  UNL d   1      -0.745  -0.991   0.934  0.00  0.00     0.162 A 
ATOM      4  C3  UNL d   1      -0.101  -0.936  -0.302  0.00  0.00    -0.034 A 
ATOM      5  C4  UNL d   1       0.421   0.281  -0.744  0.00  0.00     0.162 A 
ATOM      6  C5  UNL d   1       0.301   1.423   0.041  0.00  0.00     0.062 A 
ATOM      7  F   UNL d   1       0.806   2.587  -0.392  0.00  0.00    -0.097 F 
ATOM      8  F1  UNL d   1       1.047   0.368  -1.927  0.00  0.00    -0.096 F 
ATOM      9  I   UNL d   1       0.078  -2.647  -1.473  0.00  0.00    -0.060 I 
ATOM     10  F2  UNL d   1      -1.260  -2.143   1.390  0.00  0.00    -0.096 F 
ATOM     11  F3  UNL d   1      -1.485   0.093   2.902  0.00  0.00    -0.097 F 
ATOM     12  F4  UNL d   1      -0.457   2.462   2.023  0.00  0.00    -0.092 F 
ENDROOT
TORSDOF 0
ENDMDL
