MODEL 1
REMARK minimizedAffinity -1.18768716
REMARK minimizedRMSD -1
REMARK  0 active torsions:
REMARK  status: ('A' for Active; 'I' for Inactive)
ROOT
ATOM      1  C   UNL d   1      -1.125   1.968   1.065  0.00  0.00     0.124 A 
ATOM      2  C1  UNL d   1      -1.038   0.802   1.813  0.00  0.00     0.062 A 
ATOM      3  C2  UNL d   1      -0.435  -0.331   1.275  0.00  0.00     0.162 A 
ATOM      4  C3  UNL d   1       0.089  -0.304  -0.017  0.00  0.00    -0.034 A 
ATOM      5  C4  UNL d   1      -0.003   0.872  -0.764  0.00  0.00     0.162 A 
ATOM      6  C5  UNL d   1      -0.607   2.002  -0.222  0.00  0.00     0.062 A 
ATOM      7  F   UNL d   1      -0.689   3.128  -0.946  0.00  0.00    -0.097 F 
ATOM      8  F1  UNL d   1       0.490   0.933  -2.010  0.00  0.00    -0.096 F 
ATOM      9  I   UNL d   1       0.992  -1.996  -0.825  0.00  0.00    -0.060 I 
ATOM     10  F2  UNL d   1      -0.365  -1.444   2.021  0.00  0.00    -0.096 F 
ATOM     11  F3  UNL d   1      -1.538   0.766   3.056  0.00  0.00    -0.097 F 
ATOM     12  F4  UNL d   1      -1.707   3.057   1.584  0.00  0.00    -0.092 F 
ENDROOT
TORSDOF 0
ENDMDL
