MODEL 1
REMARK minimizedAffinity -3.05623865
REMARK minimizedRMSD -1
REMARK  0 active torsions:
REMARK  status: ('A' for Active; 'I' for Inactive)
ROOT
ATOM      1  C   UNL d   1      -1.542   2.316   1.145  0.00  0.00     0.124 A 
ATOM      2  C1  UNL d   1      -0.978   2.444  -0.117  0.00  0.00     0.062 A 
ATOM      3  C2  UNL d   1      -0.278   1.382  -0.682  0.00  0.00     0.162 A 
ATOM      4  C3  UNL d   1      -0.140   0.181   0.014  0.00  0.00    -0.034 A 
ATOM      5  C4  UNL d   1      -0.709   0.059   1.283  0.00  0.00     0.162 A 
ATOM      6  C5  UNL d   1      -1.408   1.124   1.843  0.00  0.00     0.062 A 
ATOM      7  F   UNL d   1      -1.952   0.998   3.062  0.00  0.00    -0.097 F 
ATOM      8  F1  UNL d   1      -0.595  -1.081   1.979  0.00  0.00    -0.096 F 
ATOM      9  I   UNL d   1       0.905  -1.410  -0.828  0.00  0.00    -0.060 I 
ATOM     10  F2  UNL d   1       0.257   1.534  -1.902  0.00  0.00    -0.096 F 
ATOM     11  F3  UNL d   1      -1.106   3.595  -0.793  0.00  0.00    -0.097 F 
ATOM     12  F4  UNL d   1      -2.214   3.340   1.687  0.00  0.00    -0.092 F 
ENDROOT
TORSDOF 0
ENDMDL
