MODEL 1
REMARK minimizedAffinity -2.64752078
REMARK minimizedRMSD -1
REMARK  0 active torsions:
REMARK  status: ('A' for Active; 'I' for Inactive)
ROOT
ATOM      1  C   UNL d   1       1.496  -0.093  -1.221  0.00  0.00     0.124 A 
ATOM      2  C1  UNL d   1       0.775  -0.892  -0.345  0.00  0.00     0.062 A 
ATOM      3  C2  UNL d   1      -0.255  -0.346   0.416  0.00  0.00     0.162 A 
ATOM      4  C3  UNL d   1      -0.570   1.008   0.303  0.00  0.00    -0.034 A 
ATOM      5  C4  UNL d   1       0.160   1.806  -0.579  0.00  0.00     0.162 A 
ATOM      6  C5  UNL d   1       1.188   1.255  -1.337  0.00  0.00     0.062 A 
ATOM      7  F   UNL d   1       1.883   2.029  -2.183  0.00  0.00    -0.097 F 
ATOM      8  F1  UNL d   1      -0.117   3.112  -0.712  0.00  0.00    -0.096 F 
ATOM      9  I   UNL d   1      -2.109   1.829   1.439  0.00  0.00    -0.060 I 
ATOM     10  F2  UNL d   1      -0.935  -1.142   1.254  0.00  0.00    -0.096 F 
ATOM     11  F3  UNL d   1       1.071  -2.195  -0.231  0.00  0.00    -0.097 F 
ATOM     12  F4  UNL d   1       2.486  -0.621  -1.951  0.00  0.00    -0.092 F 
ENDROOT
TORSDOF 0
ENDMDL
