MODEL 1
REMARK minimizedAffinity -0.993707478
REMARK minimizedRMSD -1
REMARK  0 active torsions:
REMARK  status: ('A' for Active; 'I' for Inactive)
ROOT
ATOM      1  C   UNL d   1      -1.352   2.024   0.459  0.00  0.00     0.124 A 
ATOM      2  C1  UNL d   1      -0.656   1.895  -0.736  0.00  0.00     0.062 A 
ATOM      3  C2  UNL d   1       0.052   0.729  -1.011  0.00  0.00     0.162 A 
ATOM      4  C3  UNL d   1       0.067  -0.319  -0.091  0.00  0.00    -0.034 A 
ATOM      5  C4  UNL d   1      -0.635  -0.182   1.108  0.00  0.00     0.162 A 
ATOM      6  C5  UNL d   1      -1.341   0.986   1.379  0.00  0.00     0.062 A 
ATOM      7  F   UNL d   1      -2.012   1.108   2.533  0.00  0.00    -0.097 F 
ATOM      8  F1  UNL d   1      -0.642  -1.170   2.015  0.00  0.00    -0.096 F 
ATOM      9  I   UNL d   1       1.124  -2.065  -0.499  0.00  0.00    -0.060 I 
ATOM     10  F2  UNL d   1       0.715   0.632  -2.173  0.00  0.00    -0.096 F 
ATOM     11  F3  UNL d   1      -0.664   2.898  -1.626  0.00  0.00    -0.097 F 
ATOM     12  F4  UNL d   1      -2.031   3.148   0.722  0.00  0.00    -0.092 F 
ENDROOT
TORSDOF 0
ENDMDL
