MODEL 1
REMARK minimizedAffinity 2.92508888
REMARK minimizedRMSD -1
REMARK  0 active torsions:
REMARK  status: ('A' for Active; 'I' for Inactive)
ROOT
ATOM      1  C   UNL d   1       0.791   1.700  -1.688  0.00  0.00     0.124 A 
ATOM      2  C1  UNL d   1       1.387   0.603  -1.082  0.00  0.00     0.062 A 
ATOM      3  C2  UNL d   1       0.804   0.019   0.039  0.00  0.00     0.162 A 
ATOM      4  C3  UNL d   1      -0.385   0.531   0.560  0.00  0.00    -0.034 A 
ATOM      5  C4  UNL d   1      -0.978   1.635  -0.055  0.00  0.00     0.162 A 
ATOM      6  C5  UNL d   1      -0.391   2.214  -1.175  0.00  0.00     0.062 A 
ATOM      7  F   UNL d   1      -0.969   3.274  -1.759  0.00  0.00    -0.097 F 
ATOM      8  F1  UNL d   1      -2.121   2.152   0.420  0.00  0.00    -0.096 F 
ATOM      9  I   UNL d   1      -1.261  -0.339   2.235  0.00  0.00    -0.060 I 
ATOM     10  F2  UNL d   1       1.402  -1.040   0.604  0.00  0.00    -0.096 F 
ATOM     11  F3  UNL d   1       2.530   0.104  -1.576  0.00  0.00    -0.097 F 
ATOM     12  F4  UNL d   1       1.355   2.260  -2.766  0.00  0.00    -0.092 F 
ENDROOT
TORSDOF 0
ENDMDL
