MODEL 1
REMARK minimizedAffinity 2.72969913
REMARK minimizedRMSD -1
REMARK  0 active torsions:
REMARK  status: ('A' for Active; 'I' for Inactive)
ROOT
ATOM      1  C   UNL d   1      -1.455   1.498   1.208  0.00  0.00     0.124 A 
ATOM      2  C1  UNL d   1      -0.940   0.595   2.129  0.00  0.00     0.062 A 
ATOM      3  C2  UNL d   1      -0.214  -0.510   1.695  0.00  0.00     0.162 A 
ATOM      4  C3  UNL d   1       0.003  -0.719   0.332  0.00  0.00    -0.034 A 
ATOM      5  C4  UNL d   1      -0.519   0.193  -0.587  0.00  0.00     0.162 A 
ATOM      6  C5  UNL d   1      -1.244   1.296  -0.148  0.00  0.00     0.062 A 
ATOM      7  F   UNL d   1      -1.740   2.167  -1.039  0.00  0.00    -0.097 F 
ATOM      8  F1  UNL d   1      -0.329   0.022  -1.904  0.00  0.00    -0.096 F 
ATOM      9  I   UNL d   1       1.088  -2.370  -0.321  0.00  0.00    -0.060 I 
ATOM     10  F2  UNL d   1       0.272  -1.365   2.606  0.00  0.00    -0.096 F 
ATOM     11  F3  UNL d   1      -1.143   0.788   3.440  0.00  0.00    -0.097 F 
ATOM     12  F4  UNL d   1      -2.154   2.560   1.629  0.00  0.00    -0.092 F 
ENDROOT
TORSDOF 0
ENDMDL
