MODEL 1
REMARK minimizedAffinity 0.507175505
REMARK minimizedRMSD -1
REMARK  0 active torsions:
REMARK  status: ('A' for Active; 'I' for Inactive)
ROOT
ATOM      1  C   UNL d   1       1.347   0.607  -0.634  0.00  0.00     0.124 A 
ATOM      2  C1  UNL d   1       0.800   1.701  -1.291  0.00  0.00     0.062 A 
ATOM      3  C2  UNL d   1      -0.545   2.018  -1.123  0.00  0.00     0.162 A 
ATOM      4  C3  UNL d   1      -1.353   1.240  -0.294  0.00  0.00    -0.034 A 
ATOM      5  C4  UNL d   1      -0.796   0.140   0.362  0.00  0.00     0.162 A 
ATOM      6  C5  UNL d   1       0.549  -0.172   0.191  0.00  0.00     0.062 A 
ATOM      7  F   UNL d   1       1.075  -1.229   0.827  0.00  0.00    -0.097 F 
ATOM      8  F1  UNL d   1      -1.545  -0.629   1.167  0.00  0.00    -0.096 F 
ATOM      9  I   UNL d   1      -3.365   1.710  -0.041  0.00  0.00    -0.060 I 
ATOM     10  F2  UNL d   1      -1.046   3.080  -1.770  0.00  0.00    -0.096 F 
ATOM     11  F3  UNL d   1       1.569   2.455  -2.090  0.00  0.00    -0.097 F 
ATOM     12  F4  UNL d   1       2.641   0.304  -0.798  0.00  0.00    -0.092 F 
ENDROOT
TORSDOF 0
ENDMDL
