MODEL 1
REMARK minimizedAffinity 1.17178488
REMARK minimizedRMSD -1
REMARK  0 active torsions:
REMARK  status: ('A' for Active; 'I' for Inactive)
ROOT
ATOM      1  C   UNL d   1      -1.486   1.574   1.424  0.00  0.00     0.124 A 
ATOM      2  C1  UNL d   1      -0.851   0.630   2.218  0.00  0.00     0.062 A 
ATOM      3  C2  UNL d   1      -0.065  -0.360   1.636  0.00  0.00     0.162 A 
ATOM      4  C3  UNL d   1       0.092  -0.410   0.251  0.00  0.00    -0.034 A 
ATOM      5  C4  UNL d   1      -0.550   0.543  -0.542  0.00  0.00     0.162 A 
ATOM      6  C5  UNL d   1      -1.335   1.530   0.045  0.00  0.00     0.062 A 
ATOM      7  F   UNL d   1      -1.948   2.442  -0.724  0.00  0.00    -0.097 F 
ATOM      8  F1  UNL d   1      -0.421   0.524  -1.876  0.00  0.00    -0.096 F 
ATOM      9  I   UNL d   1       1.267  -1.888  -0.624  0.00  0.00    -0.060 I 
ATOM     10  F2  UNL d   1       0.537  -1.260   2.428  0.00  0.00    -0.096 F 
ATOM     11  F3  UNL d   1      -0.996   0.670   3.551  0.00  0.00    -0.097 F 
ATOM     12  F4  UNL d   1      -2.243   2.525   1.987  0.00  0.00    -0.092 F 
ENDROOT
TORSDOF 0
ENDMDL
