MODEL 1
REMARK minimizedAffinity -0.0699398145
REMARK minimizedRMSD -1
REMARK  0 active torsions:
REMARK  status: ('A' for Active; 'I' for Inactive)
ROOT
ATOM      1  C   UNL d   1      -1.046   1.615   0.838  0.00  0.00     0.124 A 
ATOM      2  C1  UNL d   1      -1.368   0.433   1.492  0.00  0.00     0.062 A 
ATOM      3  C2  UNL d   1      -0.867  -0.781   1.031  0.00  0.00     0.162 A 
ATOM      4  C3  UNL d   1      -0.037  -0.820  -0.090  0.00  0.00    -0.034 A 
ATOM      5  C4  UNL d   1       0.281   0.372  -0.743  0.00  0.00     0.162 A 
ATOM      6  C5  UNL d   1      -0.222   1.583  -0.278  0.00  0.00     0.062 A 
ATOM      7  F   UNL d   1       0.090   2.723  -0.911  0.00  0.00    -0.097 F 
ATOM      8  F1  UNL d   1       1.076   0.371  -1.823  0.00  0.00    -0.096 F 
ATOM      9  I   UNL d   1       0.714  -2.633  -0.782  0.00  0.00    -0.060 I 
ATOM     10  F2  UNL d   1      -1.194  -1.907   1.682  0.00  0.00    -0.096 F 
ATOM     11  F3  UNL d   1      -2.164   0.461   2.570  0.00  0.00    -0.097 F 
ATOM     12  F4  UNL d   1      -1.530   2.781   1.283  0.00  0.00    -0.092 F 
ENDROOT
TORSDOF 0
ENDMDL
