MODEL 1
REMARK minimizedAffinity 7.97449255
REMARK minimizedRMSD -1
REMARK  0 active torsions:
REMARK  status: ('A' for Active; 'I' for Inactive)
ROOT
ATOM      1  C   UNL d   1       0.595   0.599   2.584  0.00  0.00     0.020 A 
ATOM      2  C1  UNL d   1       1.468  -0.311   3.178  0.00  0.00     0.020 A 
ATOM      3  C2  UNL d   1       0.974  -1.499   3.722  0.00  0.00     0.034 A 
ATOM      4  C3  UNL d   1      -0.396  -1.779   3.673  0.00  0.00     0.017 A 
ATOM      5  C4  UNL d   1      -1.272  -0.865   3.076  0.00  0.00     0.017 A 
ATOM      6  C5  UNL d   1      -0.772   0.323   2.533  0.00  0.00     0.034 A 
ATOM      7 Cl   UNL d   1      -2.975  -1.141   2.977  0.00  0.00    -0.070 Cl
ATOM      8 Cl1  UNL d   1      -0.938  -3.267   4.365  0.00  0.00    -0.070 Cl
ENDROOT
TORSDOF 0
ENDMDL
