MODEL 1
REMARK minimizedAffinity 8.35650444
REMARK minimizedRMSD -1
REMARK  0 active torsions:
REMARK  status: ('A' for Active; 'I' for Inactive)
ROOT
ATOM      1  C   UNL d   1       1.795  -0.860   3.431  0.00  0.00     0.020 A 
ATOM      2  C1  UNL d   1       2.329   0.188   4.180  0.00  0.00     0.020 A 
ATOM      3  C2  UNL d   1       1.515   1.255   4.568  0.00  0.00     0.034 A 
ATOM      4  C3  UNL d   1       0.163   1.276   4.207  0.00  0.00     0.017 A 
ATOM      5  C4  UNL d   1      -0.372   0.223   3.456  0.00  0.00     0.017 A 
ATOM      6  C5  UNL d   1       0.447  -0.842   3.070  0.00  0.00     0.034 A 
ATOM      7 Cl   UNL d   1      -2.032   0.179   2.973  0.00  0.00    -0.070 Cl
ATOM      8 Cl1  UNL d   1      -0.785   2.626   4.721  0.00  0.00    -0.070 Cl
ENDROOT
TORSDOF 0
ENDMDL
