MODEL 1
REMARK minimizedAffinity 15.7739658
REMARK minimizedRMSD -1
REMARK  0 active torsions:
REMARK  status: ('A' for Active; 'I' for Inactive)
ROOT
ATOM      1  C   UNL d   1       0.825   0.474   2.021  0.00  0.00     0.020 A 
ATOM      2  C1  UNL d   1       1.834  -0.134   2.766  0.00  0.00     0.020 A 
ATOM      3  C2  UNL d   1       1.539  -1.238   3.569  0.00  0.00     0.034 A 
ATOM      4  C3  UNL d   1       0.232  -1.736   3.629  0.00  0.00     0.017 A 
ATOM      5  C4  UNL d   1      -0.779  -1.124   2.881  0.00  0.00     0.017 A 
ATOM      6  C5  UNL d   1      -0.479  -0.019   2.078  0.00  0.00     0.034 A 
ATOM      7 Cl   UNL d   1      -2.415  -1.682   2.903  0.00  0.00    -0.070 Cl
ATOM      8 Cl1  UNL d   1      -0.060  -3.104   4.643  0.00  0.00    -0.070 Cl
ENDROOT
TORSDOF 0
ENDMDL
