MODEL 1
REMARK minimizedAffinity 8.29207325
REMARK minimizedRMSD -1
REMARK  0 active torsions:
REMARK  status: ('A' for Active; 'I' for Inactive)
ROOT
ATOM      1  C   UNL d   1       0.437  -1.212   2.666  0.00  0.00     0.020 A 
ATOM      2  C1  UNL d   1       1.057  -1.437   3.895  0.00  0.00     0.020 A 
ATOM      3  C2  UNL d   1       1.075  -0.430   4.862  0.00  0.00     0.034 A 
ATOM      4  C3  UNL d   1       0.472   0.806   4.603  0.00  0.00     0.017 A 
ATOM      5  C4  UNL d   1      -0.150   1.030   3.370  0.00  0.00     0.017 A 
ATOM      6  C5  UNL d   1      -0.165   0.019   2.404  0.00  0.00     0.034 A 
ATOM      7 Cl   UNL d   1      -0.915   2.530   2.977  0.00  0.00    -0.070 Cl
ATOM      8 Cl1  UNL d   1       0.531   2.005   5.845  0.00  0.00    -0.070 Cl
ENDROOT
TORSDOF 0
ENDMDL
