MODEL 1
REMARK minimizedAffinity 19.8400669
REMARK minimizedRMSD -1
REMARK  0 active torsions:
REMARK  status: ('A' for Active; 'I' for Inactive)
ROOT
ATOM      1  C   UNL d   1      -1.235  -6.000  -5.999  0.00  0.00     0.020 A 
ATOM      2  C1  UNL d   1      -2.228  -5.031  -5.864  0.00  0.00     0.020 A 
ATOM      3  C2  UNL d   1      -1.881  -3.716  -5.543  0.00  0.00     0.034 A 
ATOM      4  C3  UNL d   1      -0.538  -3.368  -5.357  0.00  0.00     0.017 A 
ATOM      5  C4  UNL d   1       0.458  -4.341  -5.494  0.00  0.00     0.017 A 
ATOM      6  C5  UNL d   1       0.105  -5.656  -5.815  0.00  0.00     0.034 A 
ATOM      7 Cl   UNL d   1       2.136  -3.987  -5.280  0.00  0.00    -0.070 Cl
ATOM      8 Cl1  UNL d   1      -0.182  -1.723  -4.963  0.00  0.00    -0.070 Cl
ENDROOT
TORSDOF 0
ENDMDL
