MODEL 1
REMARK minimizedAffinity -5.43499804
REMARK minimizedRMSD -1
REMARK  0 active torsions:
REMARK  status: ('A' for Active; 'I' for Inactive)
ROOT
ATOM      1  C2' OXE d   1       0.994  -0.110  -0.764  0.00  0.00     0.078 C 
ATOM      2  C1' OXE d   1       0.237  -0.865   1.832  0.00  0.00     0.078 C 
ATOM      3  C1  OXE d   1      -0.401   0.369   1.244  0.00  0.00    -0.078 A 
ATOM      4  C2  OXE d   1       0.010   0.758  -0.008  0.00  0.00    -0.078 A 
ATOM      5  C3  OXE d   1      -0.586   1.857  -0.619  0.00  0.00     0.003 A 
ATOM      6  C4  OXE d   1      -1.488   2.660   0.091  0.00  0.00    -0.002 A 
ATOM      7  C5  OXE d   1      -1.890   2.304   1.383  0.00  0.00    -0.002 A 
ATOM      8  C6  OXE d   1      -1.389   1.141   1.956  0.00  0.00     0.003 A 
ENDROOT
TORSDOF 0
ENDMDL
