MODEL 1
REMARK minimizedAffinity -3.66991329
REMARK minimizedRMSD -1
REMARK  0 active torsions:
REMARK  status: ('A' for Active; 'I' for Inactive)
ROOT
ATOM      1  C2' OXE d   1       0.876   0.485  -0.789  0.00  0.00     0.078 C 
ATOM      2  C1' OXE d   1       0.034   3.118  -0.302  0.00  0.00     0.078 C 
ATOM      3  C1  OXE d   1      -0.491   2.033   0.605  0.00  0.00    -0.078 A 
ATOM      4  C2  OXE d   1      -0.111   0.741   0.330  0.00  0.00    -0.078 A 
ATOM      5  C3  OXE d   1      -0.522  -0.292   1.167  0.00  0.00     0.003 A 
ATOM      6  C4  OXE d   1      -1.443  -0.048   2.194  0.00  0.00    -0.002 A 
ATOM      7  C5  OXE d   1      -1.874   1.255   2.466  0.00  0.00    -0.002 A 
ATOM      8  C6  OXE d   1      -1.375   2.310   1.709  0.00  0.00     0.003 A 
ENDROOT
TORSDOF 0
ENDMDL
