MODEL 1
REMARK minimizedAffinity -6.16684723
REMARK minimizedRMSD -1
REMARK  0 active torsions:
REMARK  status: ('A' for Active; 'I' for Inactive)
ROOT
ATOM      1  C2' OXE d   1      -0.229  -0.128   1.879  0.00  0.00     0.078 C 
ATOM      2  C1' OXE d   1       0.944   0.402  -0.616  0.00  0.00     0.078 C 
ATOM      3  C1  OXE d   1      -0.050   1.401  -0.080  0.00  0.00    -0.078 A 
ATOM      4  C2  OXE d   1      -0.654   1.111   1.120  0.00  0.00    -0.078 A 
ATOM      5  C3  OXE d   1      -1.538   2.025   1.686  0.00  0.00     0.003 A 
ATOM      6  C4  OXE d   1      -1.934   3.163   0.973  0.00  0.00    -0.002 A 
ATOM      7  C5  OXE d   1      -1.361   3.458  -0.269  0.00  0.00    -0.002 A 
ATOM      8  C6  OXE d   1      -0.388   2.611  -0.789  0.00  0.00     0.003 A 
ENDROOT
TORSDOF 0
ENDMDL
