MODEL 1
REMARK minimizedAffinity -5.00852203
REMARK minimizedRMSD -1
REMARK  0 active torsions:
REMARK  status: ('A' for Active; 'I' for Inactive)
ROOT
ATOM      1  C2' OXE d   1       0.560  -0.812  -0.786  0.00  0.00     0.078 C 
ATOM      2  C1' OXE d   1       0.747  -1.076   2.003  0.00  0.00     0.078 C 
ATOM      3  C1  OXE d   1      -0.236  -0.071   1.455  0.00  0.00    -0.078 A 
ATOM      4  C2  OXE d   1      -0.288   0.084   0.091  0.00  0.00    -0.078 A 
ATOM      5  C3  OXE d   1      -1.216   0.957  -0.469  0.00  0.00     0.003 A 
ATOM      6  C4  OXE d   1      -1.989   1.790   0.350  0.00  0.00    -0.002 A 
ATOM      7  C5  OXE d   1      -1.923   1.676   1.742  0.00  0.00    -0.002 A 
ATOM      8  C6  OXE d   1      -1.085   0.722   2.309  0.00  0.00     0.003 A 
ENDROOT
TORSDOF 0
ENDMDL
