MODEL 1
REMARK minimizedAffinity -2.93948388
REMARK minimizedRMSD -1
REMARK  0 active torsions:
REMARK  status: ('A' for Active; 'I' for Inactive)
ROOT
ATOM      1  C2' OXE d   1      -1.541   1.489   1.565  0.00  0.00     0.078 C 
ATOM      2  C1' OXE d   1      -0.404  -0.965   2.318  0.00  0.00     0.078 C 
ATOM      3  C1  OXE d   1       0.068  -0.336   1.031  0.00  0.00    -0.078 A 
ATOM      4  C2  OXE d   1      -0.527   0.841   0.647  0.00  0.00    -0.078 A 
ATOM      5  C3  OXE d   1      -0.091   1.492  -0.504  0.00  0.00     0.003 A 
ATOM      6  C4  OXE d   1       0.840   0.881  -1.353  0.00  0.00    -0.002 A 
ATOM      7  C5  OXE d   1       1.430  -0.337  -1.000  0.00  0.00    -0.002 A 
ATOM      8  C6  OXE d   1       1.087  -0.937   0.206  0.00  0.00     0.003 A 
ENDROOT
TORSDOF 0
ENDMDL
