MODEL 1
REMARK minimizedAffinity -2.57256627
REMARK minimizedRMSD -1
REMARK  0 active torsions:
REMARK  status: ('A' for Active; 'I' for Inactive)
ROOT
ATOM      1  C2' OXE d   1      -0.726  -1.010   2.026  0.00  0.00     0.078 C 
ATOM      2  C1' OXE d   1       0.548  -0.722  -0.459  0.00  0.00     0.078 C 
ATOM      3  C1  OXE d   1      -0.114   0.495   0.138  0.00  0.00    -0.078 A 
ATOM      4  C2  OXE d   1      -0.775   0.334   1.331  0.00  0.00    -0.078 A 
ATOM      5  C3  OXE d   1      -1.356   1.436   1.952  0.00  0.00     0.003 A 
ATOM      6  C4  OXE d   1      -1.405   2.673   1.298  0.00  0.00    -0.002 A 
ATOM      7  C5  OXE d   1      -0.772   2.849   0.063  0.00  0.00    -0.002 A 
ATOM      8  C6  OXE d   1      -0.087   1.783  -0.509  0.00  0.00     0.003 A 
ENDROOT
TORSDOF 0
ENDMDL
