MODEL 1
REMARK minimizedAffinity -5.86780357
REMARK minimizedRMSD -1
REMARK  0 active torsions:
REMARK  status: ('A' for Active; 'I' for Inactive)
ROOT
ATOM      1  C2' OXE d   1      -0.690  -0.633   2.105  0.00  0.00     0.078 C 
ATOM      2  C1' OXE d   1       0.807  -0.317  -0.249  0.00  0.00     0.078 C 
ATOM      3  C1  OXE d   1      -0.037   0.846   0.210  0.00  0.00    -0.078 A 
ATOM      4  C2  OXE d   1      -0.802   0.666   1.337  0.00  0.00    -0.078 A 
ATOM      5  C3  OXE d   1      -1.556   1.725   1.834  0.00  0.00     0.003 A 
ATOM      6  C4  OXE d   1      -1.663   2.920   1.112  0.00  0.00    -0.002 A 
ATOM      7  C5  OXE d   1      -0.923   3.109  -0.059  0.00  0.00    -0.002 A 
ATOM      8  C6  OXE d   1      -0.074   2.100  -0.500  0.00  0.00     0.003 A 
ENDROOT
TORSDOF 0
ENDMDL
