MODEL 1
REMARK minimizedAffinity 0.55134064
REMARK minimizedRMSD -1
REMARK  0 active torsions:
REMARK  status: ('A' for Active; 'I' for Inactive)
ROOT
ATOM      1  C2' OXE d   1      -1.470   1.474   1.622  0.00  0.00     0.078 C 
ATOM      2  C1' OXE d   1      -0.909  -1.111   2.561  0.00  0.00     0.078 C 
ATOM      3  C1  OXE d   1      -0.335  -0.707   1.225  0.00  0.00    -0.078 A 
ATOM      4  C2  OXE d   1      -0.654   0.543   0.752  0.00  0.00    -0.078 A 
ATOM      5  C3  OXE d   1      -0.107   0.986  -0.448  0.00  0.00     0.003 A 
ATOM      6  C4  OXE d   1       0.639   0.115  -1.251  0.00  0.00    -0.002 A 
ATOM      7  C5  OXE d   1       0.942  -1.177  -0.807  0.00  0.00    -0.002 A 
ATOM      8  C6  OXE d   1       0.499  -1.588   0.446  0.00  0.00     0.003 A 
ENDROOT
TORSDOF 0
ENDMDL
