MODEL 1
REMARK minimizedAffinity -5.09859467
REMARK minimizedRMSD -1
REMARK  0 active torsions:
REMARK  status: ('A' for Active; 'I' for Inactive)
ROOT
ATOM      1  C2' OXE d   1      -0.150  -0.372   0.264  0.00  0.00     0.078 C 
ATOM      2  C1' OXE d   1       1.054   1.252  -1.684  0.00  0.00     0.078 C 
ATOM      3  C1  OXE d   1      -0.067   1.846  -0.868  0.00  0.00    -0.078 A 
ATOM      4  C2  OXE d   1      -0.682   1.029   0.050  0.00  0.00    -0.078 A 
ATOM      5  C3  OXE d   1      -1.685   1.543   0.867  0.00  0.00     0.003 A 
ATOM      6  C4  OXE d   1      -2.178   2.836   0.657  0.00  0.00    -0.002 A 
ATOM      7  C5  OXE d   1      -1.593   3.672  -0.301  0.00  0.00    -0.002 A 
ATOM      8  C6  OXE d   1      -0.511   3.207  -1.041  0.00  0.00     0.003 A 
ENDROOT
TORSDOF 0
ENDMDL
