MODEL 1
REMARK minimizedAffinity -3.0712688
REMARK minimizedRMSD -1
REMARK  0 active torsions:
REMARK  status: ('A' for Active; 'I' for Inactive)
ROOT
ATOM      1  C2' OXE d   1      -0.654   1.155   2.845  0.00  0.00     0.078 C 
ATOM      2  C1' OXE d   1      -2.550   1.488   0.802  0.00  0.00     0.078 C 
ATOM      3  C1  OXE d   1      -1.317   0.677   0.492  0.00  0.00    -0.078 A 
ATOM      4  C2  OXE d   1      -0.372   0.558   1.483  0.00  0.00    -0.078 A 
ATOM      5  C3  OXE d   1       0.758  -0.225   1.267  0.00  0.00     0.003 A 
ATOM      6  C4  OXE d   1       1.015  -0.765   0.002  0.00  0.00    -0.002 A 
ATOM      7  C5  OXE d   1       0.085  -0.623  -1.034  0.00  0.00    -0.002 A 
ATOM      8  C6  OXE d   1      -1.103   0.058  -0.793  0.00  0.00     0.003 A 
ENDROOT
TORSDOF 0
ENDMDL
