MODEL 1
REMARK minimizedAffinity -3.80924344
REMARK minimizedRMSD -1
REMARK  0 active torsions:
REMARK  status: ('A' for Active; 'I' for Inactive)
ROOT
ATOM      1  C2' OXE d   1       0.758  -0.705  -0.582  0.00  0.00     0.078 C 
ATOM      2  C1' OXE d   1       0.449  -0.953   2.197  0.00  0.00     0.078 C 
ATOM      3  C1  OXE d   1      -0.394   0.075   1.485  0.00  0.00    -0.078 A 
ATOM      4  C2  OXE d   1      -0.202   0.222   0.132  0.00  0.00    -0.078 A 
ATOM      5  C3  OXE d   1      -0.992   1.118  -0.583  0.00  0.00     0.003 A 
ATOM      6  C4  OXE d   1      -1.871   1.979   0.086  0.00  0.00    -0.002 A 
ATOM      7  C5  OXE d   1      -2.052   1.873   1.469  0.00  0.00    -0.002 A 
ATOM      8  C6  OXE d   1      -1.354   0.900   2.176  0.00  0.00     0.003 A 
ENDROOT
TORSDOF 0
ENDMDL
