MODEL 1
REMARK minimizedAffinity -2.5534761
REMARK minimizedRMSD -1
REMARK  0 active torsions:
REMARK  status: ('A' for Active; 'I' for Inactive)
ROOT
ATOM      1  C2' OXE d   1      -0.097  -3.736  -2.704  0.00  0.00     0.078 C 
ATOM      2  C1' OXE d   1       2.169  -3.494  -1.066  0.00  0.00     0.078 C 
ATOM      3  C1  OXE d   1       1.238  -2.312  -1.156  0.00  0.00    -0.078 A 
ATOM      4  C2  OXE d   1       0.156  -2.422  -1.996  0.00  0.00    -0.078 A 
ATOM      5  C3  OXE d   1      -0.765  -1.381  -2.075  0.00  0.00     0.003 A 
ATOM      6  C4  OXE d   1      -0.518  -0.166  -1.425  0.00  0.00    -0.002 A 
ATOM      7  C5  OXE d   1       0.599  -0.018  -0.595  0.00  0.00    -0.002 A 
ATOM      8  C6  OXE d   1       1.462  -1.094  -0.417  0.00  0.00     0.003 A 
ENDROOT
TORSDOF 0
ENDMDL
