MODEL 1
REMARK minimizedAffinity -3.56299424
REMARK minimizedRMSD -1
REMARK  0 active torsions:
REMARK  status: ('A' for Active; 'I' for Inactive)
ROOT
ATOM      1  C2' OXE d   1      -0.340   2.041  -1.218  0.00  0.00     0.078 C 
ATOM      2  C1' OXE d   1       0.657  -0.583  -1.236  0.00  0.00     0.078 C 
ATOM      3  C1  OXE d   1       0.020  -0.081   0.036  0.00  0.00    -0.078 A 
ATOM      4  C2  OXE d   1      -0.422   1.220   0.051  0.00  0.00    -0.078 A 
ATOM      5  C3  OXE d   1      -1.067   1.716   1.180  0.00  0.00     0.003 A 
ATOM      6  C4  OXE d   1      -1.130   0.953   2.353  0.00  0.00    -0.002 A 
ATOM      7  C5  OXE d   1      -0.649  -0.360   2.372  0.00  0.00    -0.002 A 
ATOM      8  C6  OXE d   1      -0.111  -0.906   1.212  0.00  0.00     0.003 A 
ENDROOT
TORSDOF 0
ENDMDL
