MODEL 1
REMARK minimizedAffinity -2.21607852
REMARK minimizedRMSD -1
REMARK  0 active torsions:
REMARK  status: ('A' for Active; 'I' for Inactive)
ROOT
ATOM      1  C2' OXE d   1       0.614  -0.872  -0.643  0.00  0.00     0.078 C 
ATOM      2  C1' OXE d   1      -0.180  -1.592   1.952  0.00  0.00     0.078 C 
ATOM      3  C1  OXE d   1      -0.607  -0.241   1.434  0.00  0.00    -0.078 A 
ATOM      4  C2  OXE d   1      -0.175   0.122   0.182  0.00  0.00    -0.078 A 
ATOM      5  C3  OXE d   1      -0.586   1.334  -0.365  0.00  0.00     0.003 A 
ATOM      6  C4  OXE d   1      -1.307   2.252   0.408  0.00  0.00    -0.002 A 
ATOM      7  C5  OXE d   1      -1.724   1.919   1.701  0.00  0.00    -0.002 A 
ATOM      8  C6  OXE d   1      -1.419   0.662   2.212  0.00  0.00     0.003 A 
ENDROOT
TORSDOF 0
ENDMDL
