MODEL 1
REMARK minimizedAffinity -5.77542591
REMARK minimizedRMSD -1
REMARK  0 active torsions:
REMARK  status: ('A' for Active; 'I' for Inactive)
ROOT
ATOM      1  C2' OXE d   1       0.919   0.204  -0.625  0.00  0.00     0.078 C 
ATOM      2  C1' OXE d   1      -0.375  -0.572   1.743  0.00  0.00     0.078 C 
ATOM      3  C1  OXE d   1      -0.698   0.789   1.178  0.00  0.00    -0.078 A 
ATOM      4  C2  OXE d   1      -0.026   1.179   0.045  0.00  0.00    -0.078 A 
ATOM      5  C3  OXE d   1      -0.327   2.401  -0.549  0.00  0.00     0.003 A 
ATOM      6  C4  OXE d   1      -1.194   3.301   0.082  0.00  0.00    -0.002 A 
ATOM      7  C5  OXE d   1      -1.860   2.940   1.258  0.00  0.00    -0.002 A 
ATOM      8  C6  OXE d   1      -1.656   1.673   1.795  0.00  0.00     0.003 A 
ENDROOT
TORSDOF 0
ENDMDL
