MODEL 1
REMARK minimizedAffinity -4.79859972
REMARK minimizedRMSD -1
REMARK  0 active torsions:
REMARK  status: ('A' for Active; 'I' for Inactive)
ROOT
ATOM      1  C2' OXE d   1       0.695  -0.706  -0.422  0.00  0.00     0.078 C 
ATOM      2  C1' OXE d   1      -0.763  -0.694   1.977  0.00  0.00     0.078 C 
ATOM      3  C1  OXE d   1      -0.812   0.545   1.118  0.00  0.00    -0.078 A 
ATOM      4  C2  OXE d   1      -0.058   0.547  -0.032  0.00  0.00    -0.078 A 
ATOM      5  C3  OXE d   1      -0.110   1.643  -0.888  0.00  0.00     0.003 A 
ATOM      6  C4  OXE d   1      -0.801   2.802  -0.514  0.00  0.00    -0.002 A 
ATOM      7  C5  OXE d   1      -1.543   2.836   0.672  0.00  0.00    -0.002 A 
ATOM      8  C6  OXE d   1      -1.593   1.702   1.476  0.00  0.00     0.003 A 
ENDROOT
TORSDOF 0
ENDMDL
