MODEL 1
REMARK minimizedAffinity -5.08195543
REMARK minimizedRMSD -1
REMARK  0 active torsions:
REMARK  status: ('A' for Active; 'I' for Inactive)
ROOT
ATOM      1  C2' OXE d   1      -0.654  -0.981   1.936  0.00  0.00     0.078 C 
ATOM      2  C1' OXE d   1       0.306  -0.773  -0.694  0.00  0.00     0.078 C 
ATOM      3  C1  OXE d   1      -0.266   0.467  -0.054  0.00  0.00    -0.078 A 
ATOM      4  C2  OXE d   1      -0.776   0.345   1.216  0.00  0.00    -0.078 A 
ATOM      5  C3  OXE d   1      -1.266   1.470   1.874  0.00  0.00     0.003 A 
ATOM      6  C4  OXE d   1      -1.384   2.690   1.198  0.00  0.00    -0.002 A 
ATOM      7  C5  OXE d   1      -0.907   2.827  -0.110  0.00  0.00    -0.002 A 
ATOM      8  C6  OXE d   1      -0.307   1.738  -0.734  0.00  0.00     0.003 A 
ENDROOT
TORSDOF 0
ENDMDL
