MODEL 1
REMARK minimizedAffinity -1.04788315
REMARK minimizedRMSD -1
REMARK  0 active torsions:
REMARK  status: ('A' for Active; 'I' for Inactive)
ROOT
ATOM      1  C4' PXY d   1       2.217  -2.072  -1.201  0.00  0.00     0.077 C 
ATOM      2  C1' PXY d   1      -1.784   1.532   0.901  0.00  0.00     0.077 C 
ATOM      3  C1  PXY d   1      -0.726   0.593   0.357  0.00  0.00    -0.082 A 
ATOM      4  C2  PXY d   1      -0.899   0.028  -0.827  0.00  0.00     0.003 A 
ATOM      5  C3  PXY d   1       0.033  -0.849  -1.319  0.00  0.00     0.003 A 
ATOM      6  C4  PXY d   1       1.179  -1.109  -0.617  0.00  0.00    -0.082 A 
ATOM      7  C5  PXY d   1       1.368  -0.528   0.587  0.00  0.00     0.003 A 
ATOM      8  C6  PXY d   1       0.390   0.327   1.088  0.00  0.00     0.003 A 
ENDROOT
TORSDOF 0
ENDMDL
