MODEL 1
REMARK minimizedAffinity -3.5360651
REMARK minimizedRMSD -1
REMARK  0 active torsions:
REMARK  status: ('A' for Active; 'I' for Inactive)
ROOT
ATOM      1  C4' PXY d   1      -1.712   1.151  -0.449  0.00  0.00     0.077 C 
ATOM      2  C1' PXY d   1       3.244  -1.330   1.194  0.00  0.00     0.077 C 
ATOM      3  C1  PXY d   1       1.945  -0.671   0.773  0.00  0.00    -0.082 A 
ATOM      4  C2  PXY d   1       1.044  -1.369   0.101  0.00  0.00     0.003 A 
ATOM      5  C3  PXY d   1      -0.121  -0.780  -0.315  0.00  0.00     0.003 A 
ATOM      6  C4  PXY d   1      -0.391   0.524   0.005  0.00  0.00    -0.082 A 
ATOM      7  C5  PXY d   1       0.519   1.241   0.699  0.00  0.00     0.003 A 
ATOM      8  C6  PXY d   1       1.714   0.635   1.076  0.00  0.00     0.003 A 
ENDROOT
TORSDOF 0
ENDMDL
