MODEL 1
REMARK minimizedAffinity -4.191082
REMARK minimizedRMSD -1
REMARK  0 active torsions:
REMARK  status: ('A' for Active; 'I' for Inactive)
ROOT
ATOM      1  C4' PXY d   1       3.271  -1.088   0.528  0.00  0.00     0.077 C 
ATOM      2  C1' PXY d   1      -2.130   0.678  -0.534  0.00  0.00     0.077 C 
ATOM      3  C1  PXY d   1      -0.718   0.202  -0.254  0.00  0.00    -0.082 A 
ATOM      4  C2  PXY d   1       0.180   1.056   0.210  0.00  0.00     0.003 A 
ATOM      5  C3  PXY d   1       1.470   0.651   0.438  0.00  0.00     0.003 A 
ATOM      6  C4  PXY d   1       1.831  -0.654   0.240  0.00  0.00    -0.082 A 
ATOM      7  C5  PXY d   1       0.918  -1.534  -0.224  0.00  0.00     0.003 A 
ATOM      8  C6  PXY d   1      -0.375  -1.093  -0.488  0.00  0.00     0.003 A 
ENDROOT
TORSDOF 0
ENDMDL
