MODEL 1
REMARK minimizedAffinity -0.768049419
REMARK minimizedRMSD -1
REMARK  0 active torsions:
REMARK  status: ('A' for Active; 'I' for Inactive)
ROOT
ATOM      1  C4' PXY d   1      -2.153   1.037   0.227  0.00  0.00     0.077 C 
ATOM      2  C1' PXY d   1       2.914  -1.555  -0.782  0.00  0.00     0.077 C 
ATOM      3  C1  PXY d   1       1.589  -0.872  -0.505  0.00  0.00    -0.082 A 
ATOM      4  C2  PXY d   1       0.502  -1.270  -1.145  0.00  0.00     0.003 A 
ATOM      5  C3  PXY d   1      -0.698  -0.641  -0.931  0.00  0.00     0.003 A 
ATOM      6  C4  PXY d   1      -0.796   0.370  -0.013  0.00  0.00    -0.082 A 
ATOM      7  C5  PXY d   1       0.307   0.774   0.652  0.00  0.00     0.003 A 
ATOM      8  C6  PXY d   1       1.523   0.151   0.390  0.00  0.00     0.003 A 
ENDROOT
TORSDOF 0
ENDMDL
