MODEL 1
REMARK minimizedAffinity -0.808990836
REMARK minimizedRMSD -1
REMARK  0 active torsions:
REMARK  status: ('A' for Active; 'I' for Inactive)
ROOT
ATOM      1  C4' PXY d   1      -1.743   1.285   0.205  0.00  0.00     0.077 C 
ATOM      2  C1' PXY d   1       3.650  -0.724  -0.343  0.00  0.00     0.077 C 
ATOM      3  C1  PXY d   1       2.240  -0.187  -0.193  0.00  0.00    -0.082 A 
ATOM      4  C2  PXY d   1       1.217  -1.025  -0.195  0.00  0.00     0.003 A 
ATOM      5  C3  PXY d   1      -0.067  -0.553  -0.093  0.00  0.00     0.003 A 
ATOM      6  C4  PXY d   1      -0.302   0.786   0.066  0.00  0.00    -0.082 A 
ATOM      7  C5  PXY d   1       0.738   1.647   0.079  0.00  0.00     0.003 A 
ATOM      8  C6  PXY d   1       2.030   1.152  -0.067  0.00  0.00     0.003 A 
ENDROOT
TORSDOF 0
ENDMDL
