MODEL 1
REMARK minimizedAffinity -2.7959621
REMARK minimizedRMSD -1
REMARK  0 active torsions:
REMARK  status: ('A' for Active; 'I' for Inactive)
ROOT
ATOM      1  C4' PXY d   1      -2.400   0.902  -0.602  0.00  0.00     0.077 C 
ATOM      2  C1' PXY d   1       2.684  -1.529   0.689  0.00  0.00     0.077 C 
ATOM      3  C1  PXY d   1       1.354  -0.881   0.358  0.00  0.00    -0.082 A 
ATOM      4  C2  PXY d   1       0.338  -1.635  -0.030  0.00  0.00     0.003 A 
ATOM      5  C3  PXY d   1      -0.863  -1.063  -0.364  0.00  0.00     0.003 A 
ATOM      6  C4  PXY d   1      -1.041   0.290  -0.249  0.00  0.00    -0.082 A 
ATOM      7  C5  PXY d   1      -0.013   1.065   0.156  0.00  0.00     0.003 A 
ATOM      8  C6  PXY d   1       1.210   0.469   0.451  0.00  0.00     0.003 A 
ENDROOT
TORSDOF 0
ENDMDL
