MODEL 1
REMARK minimizedAffinity -5.45098352
REMARK minimizedRMSD -1
REMARK  0 active torsions:
REMARK  status: ('A' for Active; 'I' for Inactive)
ROOT
ATOM      1  C4' PXY d   1      -2.036   0.518  -0.069  0.00  0.00     0.077 C 
ATOM      2  C1' PXY d   1       3.275  -1.472   1.050  0.00  0.00     0.077 C 
ATOM      3  C1  PXY d   1       1.884  -0.940   0.764  0.00  0.00    -0.082 A 
ATOM      4  C2  PXY d   1       0.921  -1.779   0.421  0.00  0.00     0.003 A 
ATOM      5  C3  PXY d   1      -0.334  -1.311   0.127  0.00  0.00     0.003 A 
ATOM      6  C4  PXY d   1      -0.619   0.024   0.238  0.00  0.00    -0.082 A 
ATOM      7  C5  PXY d   1       0.356   0.885   0.598  0.00  0.00     0.003 A 
ATOM      8  C6  PXY d   1       1.634   0.395   0.852  0.00  0.00     0.003 A 
ENDROOT
TORSDOF 0
ENDMDL
