MODEL 1
REMARK minimizedAffinity -1.60066962
REMARK minimizedRMSD -1
REMARK  0 active torsions:
REMARK  status: ('A' for Active; 'I' for Inactive)
ROOT
ATOM      1  C4' PXY d   1       2.368   1.837   1.571  0.00  0.00     0.077 C 
ATOM      2  C1' PXY d   1      -0.326  -2.509  -1.126  0.00  0.00     0.077 C 
ATOM      3  C1  PXY d   1       0.387  -1.378  -0.411  0.00  0.00    -0.082 A 
ATOM      4  C2  PXY d   1      -0.181  -0.185  -0.346  0.00  0.00     0.003 A 
ATOM      5  C3  PXY d   1       0.465   0.858   0.269  0.00  0.00     0.003 A 
ATOM      6  C4  PXY d   1       1.680   0.663   0.868  0.00  0.00    -0.082 A 
ATOM      7  C5  PXY d   1       2.261  -0.554   0.814  0.00  0.00     0.003 A 
ATOM      8  C6  PXY d   1       1.609  -1.589   0.150  0.00  0.00     0.003 A 
ENDROOT
TORSDOF 0
ENDMDL
