MODEL 1
REMARK minimizedAffinity 0.618811011
REMARK minimizedRMSD -1
REMARK  1 active torsions:
REMARK  status: ('A' for Active; 'I' for Inactive)
REMARK    1  A    between atoms: C1_2  and  C2_3 
ROOT
ATOM      1  C2  UNL d   1      -1.149   1.407   1.870  0.00  0.00    -0.076 A 
ATOM      2  C3  UNL d   1      -1.673   0.128   2.126  0.00  0.00     0.004 A 
ATOM      3  C4  UNL d   1      -0.951  -1.020   1.807  0.00  0.00    -0.003 A 
ATOM      4  C5  UNL d   1       0.308  -0.908   1.227  0.00  0.00     0.000 A 
ATOM      5  C6  UNL d   1       0.851   0.353   0.982  0.00  0.00     0.000 A 
ATOM      6  C7  UNL d   1       0.142   1.521   1.313  0.00  0.00    -0.073 A 
ATOM      7  C8  UNL d   1       0.773   2.855   1.021  0.00  0.00     0.078 C 
ENDROOT
BRANCH   1   8
ATOM      8  C1  UNL d   1      -1.990   2.616   2.212  0.00  0.00     0.053 C 
ATOM      9  C   UNL d   1      -3.102   2.293   3.198  0.00  0.00     0.018 C 
ENDBRANCH   1   8
TORSDOF 1
ENDMDL
