MODEL 1
REMARK minimizedAffinity 4.82265711
REMARK minimizedRMSD -1
REMARK  1 active torsions:
REMARK  status: ('A' for Active; 'I' for Inactive)
REMARK    1  A    between atoms: C1_2  and  C2_3 
ROOT
ATOM      1  C2  UNL d   1      -2.144   1.328   2.465  0.00  0.00    -0.076 A 
ATOM      2  C3  UNL d   1      -3.051   2.325   2.863  0.00  0.00     0.004 A 
ATOM      3  C4  UNL d   1      -4.226   1.998   3.538  0.00  0.00    -0.003 A 
ATOM      4  C5  UNL d   1      -4.512   0.668   3.827  0.00  0.00     0.000 A 
ATOM      5  C6  UNL d   1      -3.615  -0.333   3.455  0.00  0.00     0.000 A 
ATOM      6  C7  UNL d   1      -2.418  -0.018   2.789  0.00  0.00    -0.073 A 
ATOM      7  C8  UNL d   1      -1.489  -1.138   2.406  0.00  0.00     0.078 C 
ENDROOT
BRANCH   1   8
ATOM      8  C1  UNL d   1      -0.899   1.740   1.712  0.00  0.00     0.053 C 
ATOM      9  C   UNL d   1      -1.155   2.888   0.748  0.00  0.00     0.018 C 
ENDBRANCH   1   8
TORSDOF 1
ENDMDL
