MODEL 1
REMARK minimizedAffinity 2.45299506
REMARK minimizedRMSD -1
REMARK  1 active torsions:
REMARK  status: ('A' for Active; 'I' for Inactive)
REMARK    1  A    between atoms: C1_2  and  C2_3 
ROOT
ATOM      1  C2  UNL d   1      -1.955   1.128   2.063  0.00  0.00    -0.076 A 
ATOM      2  C3  UNL d   1      -1.461   2.444   2.013  0.00  0.00     0.004 A 
ATOM      3  C4  UNL d   1      -0.216   2.721   1.451  0.00  0.00    -0.003 A 
ATOM      4  C5  UNL d   1       0.556   1.688   0.931  0.00  0.00     0.000 A 
ATOM      5  C6  UNL d   1       0.074   0.379   0.957  0.00  0.00     0.000 A 
ATOM      6  C7  UNL d   1      -1.187   0.085   1.505  0.00  0.00    -0.073 A 
ATOM      7  C8  UNL d   1      -1.654  -1.345   1.512  0.00  0.00     0.078 C 
ENDROOT
BRANCH   1   8
ATOM      8  C1  UNL d   1      -3.301   0.885   2.709  0.00  0.00     0.053 C 
ATOM      9  C   UNL d   1      -3.824   2.109   3.444  0.00  0.00     0.018 C 
ENDBRANCH   1   8
TORSDOF 1
ENDMDL
