MODEL 1
REMARK minimizedAffinity 7.31968737
REMARK minimizedRMSD -1
REMARK  1 active torsions:
REMARK  status: ('A' for Active; 'I' for Inactive)
REMARK    1  A    between atoms: C1_2  and  C2_3 
ROOT
ATOM      1  C2  UNL d   1      -1.256   0.448   1.833  0.00  0.00    -0.076 A 
ATOM      2  C3  UNL d   1      -2.474   0.613   2.516  0.00  0.00     0.004 A 
ATOM      3  C4  UNL d   1      -2.981   1.884   2.782  0.00  0.00    -0.003 A 
ATOM      4  C5  UNL d   1      -2.280   3.011   2.368  0.00  0.00     0.000 A 
ATOM      5  C6  UNL d   1      -1.079   2.866   1.673  0.00  0.00     0.000 A 
ATOM      6  C7  UNL d   1      -0.562   1.591   1.383  0.00  0.00    -0.073 A 
ATOM      7  C8  UNL d   1       0.740   1.494   0.637  0.00  0.00     0.078 C 
ENDROOT
BRANCH   1   8
ATOM      8  C1  UNL d   1      -0.742  -0.954   1.598  0.00  0.00     0.053 C 
ATOM      9  C   UNL d   1       0.415  -1.312   2.517  0.00  0.00     0.018 C 
ENDBRANCH   1   8
TORSDOF 1
ENDMDL
