MODEL 1
REMARK minimizedAffinity -4.66314888
REMARK minimizedRMSD -1
REMARK  1 active torsions:
REMARK  status: ('A' for Active; 'I' for Inactive)
REMARK    1  A    between atoms: C1_2  and  C2_3 
ROOT
ATOM      1  C2  UNL d   1      -0.513   0.468   1.249  0.00  0.00    -0.076 A 
ATOM      2  C3  UNL d   1       0.722   0.706   0.623  0.00  0.00     0.004 A 
ATOM      3  C4  UNL d   1       1.262   1.990   0.565  0.00  0.00    -0.003 A 
ATOM      4  C5  UNL d   1       0.575   3.057   1.133  0.00  0.00     0.000 A 
ATOM      5  C6  UNL d   1      -0.644   2.836   1.774  0.00  0.00     0.000 A 
ATOM      6  C7  UNL d   1      -1.194   1.546   1.856  0.00  0.00    -0.073 A 
ATOM      7  C8  UNL d   1      -2.514   1.366   2.554  0.00  0.00     0.078 C 
ENDROOT
BRANCH   1   8
ATOM      8  C1  UNL d   1      -1.062  -0.941   1.258  0.00  0.00     0.053 C 
ATOM      9  C   UNL d   1      -0.644  -1.722   2.494  0.00  0.00     0.018 C 
ENDBRANCH   1   8
TORSDOF 1
ENDMDL
