MODEL 1
REMARK minimizedAffinity 4.20594168
REMARK minimizedRMSD -1
REMARK  1 active torsions:
REMARK  status: ('A' for Active; 'I' for Inactive)
REMARK    1  A    between atoms: C1_2  and  C2_3 
ROOT
ATOM      1  C2  UNL d   1      -0.653   0.499   1.644  0.00  0.00    -0.076 A 
ATOM      2  C3  UNL d   1      -1.623   0.637   2.653  0.00  0.00     0.004 A 
ATOM      3  C4  UNL d   1      -2.241   1.864   2.890  0.00  0.00    -0.003 A 
ATOM      4  C5  UNL d   1      -1.900   2.972   2.122  0.00  0.00     0.000 A 
ATOM      5  C6  UNL d   1      -0.953   2.849   1.106  0.00  0.00     0.000 A 
ATOM      6  C7  UNL d   1      -0.332   1.615   0.843  0.00  0.00    -0.073 A 
ATOM      7  C8  UNL d   1       0.686   1.541  -0.261  0.00  0.00     0.078 C 
ENDROOT
BRANCH   1   8
ATOM      8  C1  UNL d   1       0.003  -0.849   1.451  0.00  0.00     0.053 C 
ATOM      9  C   UNL d   1       0.590  -1.402   2.741  0.00  0.00     0.018 C 
ENDBRANCH   1   8
TORSDOF 1
ENDMDL
