MODEL 1
REMARK minimizedAffinity -5.419065
REMARK minimizedRMSD -1
REMARK  1 active torsions:
REMARK  status: ('A' for Active; 'I' for Inactive)
REMARK    1  A    between atoms: C1_2  and  C2_3 
ROOT
ATOM      1  C2  UNL d   1      -0.276   0.852   1.068  0.00  0.00    -0.076 A 
ATOM      2  C3  UNL d   1      -0.693  -0.490   1.026  0.00  0.00     0.004 A 
ATOM      3  C4  UNL d   1      -1.951  -0.866   1.495  0.00  0.00    -0.003 A 
ATOM      4  C5  UNL d   1      -2.813   0.094   2.012  0.00  0.00     0.000 A 
ATOM      5  C6  UNL d   1      -2.423   1.433   2.045  0.00  0.00     0.000 A 
ATOM      6  C7  UNL d   1      -1.165   1.831   1.562  0.00  0.00    -0.073 A 
ATOM      7  C8  UNL d   1      -0.794   3.287   1.627  0.00  0.00     0.078 C 
ENDROOT
BRANCH   1   8
ATOM      8  C1  UNL d   1       1.109   1.196   0.571  0.00  0.00     0.053 C 
ATOM      9  C   UNL d   1       2.147   0.159   0.974  0.00  0.00     0.018 C 
ENDBRANCH   1   8
TORSDOF 1
ENDMDL
