MODEL 1
REMARK minimizedAffinity -1.32312
REMARK minimizedRMSD -1
REMARK  1 active torsions:
REMARK  status: ('A' for Active; 'I' for Inactive)
REMARK    1  A    between atoms: C1_2  and  C2_3 
ROOT
ATOM      1  C2  UNL d   1      -0.723   1.474   1.578  0.00  0.00    -0.076 A 
ATOM      2  C3  UNL d   1       0.454   2.209   1.354  0.00  0.00     0.004 A 
ATOM      3  C4  UNL d   1       1.620   1.582   0.920  0.00  0.00    -0.003 A 
ATOM      4  C5  UNL d   1       1.628   0.208   0.702  0.00  0.00     0.000 A 
ATOM      5  C6  UNL d   1       0.465  -0.534   0.902  0.00  0.00     0.000 A 
ATOM      6  C7  UNL d   1      -0.724   0.086   1.324  0.00  0.00    -0.073 A 
ATOM      7  C8  UNL d   1      -1.948  -0.764   1.529  0.00  0.00     0.078 C 
ENDROOT
BRANCH   1   8
ATOM      8  C1  UNL d   1      -1.950   2.205   2.074  0.00  0.00     0.053 C 
ATOM      9  C   UNL d   1      -2.014   2.272   3.592  0.00  0.00     0.018 C 
ENDBRANCH   1   8
TORSDOF 1
ENDMDL
