MODEL 1
REMARK minimizedAffinity 0.0636687204
REMARK minimizedRMSD -1
REMARK  1 active torsions:
REMARK  status: ('A' for Active; 'I' for Inactive)
REMARK    1  A    between atoms: C1_2  and  C2_3 
ROOT
ATOM      1  C2  UNL d   1      -1.823   0.937   2.012  0.00  0.00    -0.076 A 
ATOM      2  C3  UNL d   1      -1.730   2.306   2.319  0.00  0.00     0.004 A 
ATOM      3  C4  UNL d   1      -0.619   3.054   1.932  0.00  0.00    -0.003 A 
ATOM      4  C5  UNL d   1       0.417   2.445   1.232  0.00  0.00     0.000 A 
ATOM      5  C6  UNL d   1       0.333   1.092   0.905  0.00  0.00     0.000 A 
ATOM      6  C7  UNL d   1      -0.787   0.328   1.273  0.00  0.00    -0.073 A 
ATOM      7  C8  UNL d   1      -0.822  -1.129   0.898  0.00  0.00     0.078 C 
ENDROOT
BRANCH   1   8
ATOM      8  C1  UNL d   1      -3.040   0.171   2.481  0.00  0.00     0.053 C 
ATOM      9  C   UNL d   1      -4.027   1.050   3.233  0.00  0.00     0.018 C 
ENDBRANCH   1   8
TORSDOF 1
ENDMDL
