MODEL 1
REMARK minimizedAffinity 5.96913576
REMARK minimizedRMSD -1
REMARK  1 active torsions:
REMARK  status: ('A' for Active; 'I' for Inactive)
REMARK    1  A    between atoms: C1_2  and  C2_3 
ROOT
ATOM      1  C2  UNL d   1      -3.428  -3.514  -1.912  0.00  0.00    -0.076 A 
ATOM      2  C3  UNL d   1      -3.481  -4.716  -2.638  0.00  0.00     0.004 A 
ATOM      3  C4  UNL d   1      -3.507  -5.948  -1.985  0.00  0.00    -0.003 A 
ATOM      4  C5  UNL d   1      -3.482  -5.997  -0.596  0.00  0.00     0.000 A 
ATOM      5  C6  UNL d   1      -3.447  -4.813   0.141  0.00  0.00     0.000 A 
ATOM      6  C7  UNL d   1      -3.436  -3.563  -0.501  0.00  0.00    -0.073 A 
ATOM      7  C8  UNL d   1      -3.392  -2.319   0.343  0.00  0.00     0.078 C 
ENDROOT
BRANCH   1   8
ATOM      8  C1  UNL d   1      -3.373  -2.209  -2.674  0.00  0.00     0.053 C 
ATOM      9  C   UNL d   1      -2.593  -2.326  -3.974  0.00  0.00     0.018 C 
ENDBRANCH   1   8
TORSDOF 1
ENDMDL
