MODEL 1
REMARK minimizedAffinity 0.548814535
REMARK minimizedRMSD -1
REMARK  1 active torsions:
REMARK  status: ('A' for Active; 'I' for Inactive)
REMARK    1  A    between atoms: C1_2  and  C2_3 
ROOT
ATOM      1  C2  UNL d   1      -1.309  -0.052   1.725  0.00  0.00    -0.076 A 
ATOM      2  C3  UNL d   1      -0.117  -0.323   1.031  0.00  0.00     0.004 A 
ATOM      3  C4  UNL d   1       0.713   0.710   0.600  0.00  0.00    -0.003 A 
ATOM      4  C5  UNL d   1       0.365   2.032   0.856  0.00  0.00     0.000 A 
ATOM      5  C6  UNL d   1      -0.805   2.319   1.559  0.00  0.00     0.000 A 
ATOM      6  C7  UNL d   1      -1.645   1.288   2.015  0.00  0.00    -0.073 A 
ATOM      7  C8  UNL d   1      -2.897   1.655   2.763  0.00  0.00     0.078 C 
ENDROOT
BRANCH   1   8
ATOM      8  C1  UNL d   1      -2.183  -1.212   2.144  0.00  0.00     0.053 C 
ATOM      9  C   UNL d   1      -1.814  -1.754   3.516  0.00  0.00     0.018 C 
ENDBRANCH   1   8
TORSDOF 1
ENDMDL
