MODEL 1
REMARK minimizedAffinity -1.27382076
REMARK minimizedRMSD -1
REMARK  1 active torsions:
REMARK  status: ('A' for Active; 'I' for Inactive)
REMARK    1  A    between atoms: C1_2  and  C2_3 
ROOT
ATOM      1  C2  UNL d   1      -1.755   1.258   1.669  0.00  0.00    -0.076 A 
ATOM      2  C3  UNL d   1      -1.801  -0.141   1.537  0.00  0.00     0.004 A 
ATOM      3  C4  UNL d   1      -0.661  -0.867   1.194  0.00  0.00    -0.003 A 
ATOM      4  C5  UNL d   1       0.542  -0.205   0.977  0.00  0.00     0.000 A 
ATOM      5  C6  UNL d   1       0.610   1.180   1.120  0.00  0.00     0.000 A 
ATOM      6  C7  UNL d   1      -0.526   1.925   1.482  0.00  0.00    -0.073 A 
ATOM      7  C8  UNL d   1      -0.398   3.418   1.616  0.00  0.00     0.078 C 
ENDROOT
BRANCH   1   8
ATOM      8  C1  UNL d   1      -3.029   1.994   2.017  0.00  0.00     0.053 C 
ATOM      9  C   UNL d   1      -3.750   1.381   3.208  0.00  0.00     0.018 C 
ENDBRANCH   1   8
TORSDOF 1
ENDMDL
