MODEL 1
REMARK minimizedAffinity 4.49867868
REMARK minimizedRMSD -1
REMARK  1 active torsions:
REMARK  status: ('A' for Active; 'I' for Inactive)
REMARK    1  A    between atoms: C1_2  and  C2_3 
ROOT
ATOM      1  C2  UNL d   1       1.328   4.934  -5.404  0.00  0.00    -0.077 A 
ATOM      2  C3  UNL d   1       2.045   3.868  -4.844  0.00  0.00     0.002 A 
ATOM      3  C4  UNL d   1       3.441   3.868  -4.864  0.00  0.00     0.002 A 
ATOM      4  C5  UNL d   1       4.131   4.934  -5.438  0.00  0.00    -0.004 A 
ATOM      5  C6  UNL d   1       3.427   5.998  -5.999  0.00  0.00     0.002 A 
ATOM      6  C7  UNL d   1       2.031   5.999  -5.981  0.00  0.00     0.002 A 
ENDROOT
BRANCH   1   7
ATOM      7  C1  UNL d   1      -0.177   4.959  -5.340  0.00  0.00     0.055 C 
ATOM      8  C   UNL d   1      -0.728   3.661  -4.768  0.00  0.00     0.019 C 
ENDBRANCH   1   7
TORSDOF 1
ENDMDL
