MODEL 1
REMARK minimizedAffinity 7.78206062
REMARK minimizedRMSD -1
REMARK  1 active torsions:
REMARK  status: ('A' for Active; 'I' for Inactive)
REMARK    1  A    between atoms: C1_2  and  C2_3 
ROOT
ATOM      1  C2  UNL d   1      -2.997   2.440  -3.419  0.00  0.00    -0.077 A 
ATOM      2  C3  UNL d   1      -3.642   1.581  -2.517  0.00  0.00     0.002 A 
ATOM      3  C4  UNL d   1      -2.907   0.653  -1.777  0.00  0.00     0.002 A 
ATOM      4  C5  UNL d   1      -1.524   0.577  -1.928  0.00  0.00    -0.004 A 
ATOM      5  C6  UNL d   1      -0.874   1.425  -2.824  0.00  0.00     0.002 A 
ATOM      6  C7  UNL d   1      -1.607   2.353  -3.565  0.00  0.00     0.002 A 
ENDROOT
BRANCH   1   7
ATOM      7  C1  UNL d   1      -3.782   3.475  -4.181  0.00  0.00     0.055 C 
ATOM      8  C   UNL d   1      -4.645   2.834  -5.258  0.00  0.00     0.019 C 
ENDBRANCH   1   7
TORSDOF 1
ENDMDL
