MODEL 1
REMARK minimizedAffinity 5.19055128
REMARK minimizedRMSD -1
REMARK  1 active torsions:
REMARK  status: ('A' for Active; 'I' for Inactive)
REMARK    1  A    between atoms: C1_2  and  C2_3 
ROOT
ATOM      1  C2  UNL d   1       4.386  -4.612   0.377  0.00  0.00    -0.077 A 
ATOM      2  C3  UNL d   1       5.029  -3.423   0.747  0.00  0.00     0.002 A 
ATOM      3  C4  UNL d   1       4.294  -2.249   0.926  0.00  0.00     0.002 A 
ATOM      4  C5  UNL d   1       2.913  -2.255   0.742  0.00  0.00    -0.004 A 
ATOM      5  C6  UNL d   1       2.264  -3.432   0.372  0.00  0.00     0.002 A 
ATOM      6  C7  UNL d   1       2.997  -4.606   0.191  0.00  0.00     0.002 A 
ENDROOT
BRANCH   1   7
ATOM      7  C1  UNL d   1       5.169  -5.890   0.231  0.00  0.00     0.055 C 
ATOM      8  C   UNL d   1       6.000  -5.888  -1.044  0.00  0.00     0.019 C 
ENDBRANCH   1   7
TORSDOF 1
ENDMDL
