MODEL 1
REMARK minimizedAffinity 11.4132586
REMARK minimizedRMSD -1
REMARK  1 active torsions:
REMARK  status: ('A' for Active; 'I' for Inactive)
REMARK    1  A    between atoms: C1_2  and  C2_3 
ROOT
ATOM      1  C2  UNL d   1       4.437  -3.218   5.697  0.00  0.00    -0.077 A 
ATOM      2  C3  UNL d   1       3.290  -4.022   5.752  0.00  0.00     0.002 A 
ATOM      3  C4  UNL d   1       3.404  -5.406   5.895  0.00  0.00     0.002 A 
ATOM      4  C5  UNL d   1       4.662  -5.998   5.988  0.00  0.00    -0.004 A 
ATOM      5  C6  UNL d   1       5.809  -5.207   5.932  0.00  0.00     0.002 A 
ATOM      6  C7  UNL d   1       5.697  -3.823   5.788  0.00  0.00     0.002 A 
ENDROOT
BRANCH   1   7
ATOM      7  C1  UNL d   1       4.315  -1.720   5.592  0.00  0.00     0.055 C 
ATOM      8  C   UNL d   1       3.680  -1.308   4.272  0.00  0.00     0.019 C 
ENDBRANCH   1   7
TORSDOF 1
ENDMDL
