MODEL 1
REMARK minimizedAffinity 0.964459181
REMARK minimizedRMSD -1
REMARK  1 active torsions:
REMARK  status: ('A' for Active; 'I' for Inactive)
REMARK    1  A    between atoms: C1_2  and  C2_3 
ROOT
ATOM      1  C2  UNL d   1      -4.120   0.237  -2.630  0.00  0.00    -0.077 A 
ATOM      2  C3  UNL d   1      -5.044   0.189  -3.683  0.00  0.00     0.002 A 
ATOM      3  C4  UNL d   1      -5.168  -0.963  -4.462  0.00  0.00     0.002 A 
ATOM      4  C5  UNL d   1      -4.373  -2.076  -4.194  0.00  0.00    -0.004 A 
ATOM      5  C6  UNL d   1      -3.450  -2.037  -3.150  0.00  0.00     0.002 A 
ATOM      6  C7  UNL d   1      -3.324  -0.886  -2.371  0.00  0.00     0.002 A 
ENDROOT
BRANCH   1   7
ATOM      7  C1  UNL d   1      -4.020   1.460  -1.757  0.00  0.00     0.055 C 
ATOM      8  C   UNL d   1      -3.007   2.453  -2.308  0.00  0.00     0.019 C 
ENDBRANCH   1   7
TORSDOF 1
ENDMDL
