MODEL 1
REMARK minimizedAffinity 10.4469824
REMARK minimizedRMSD -1
REMARK  1 active torsions:
REMARK  status: ('A' for Active; 'I' for Inactive)
REMARK    1  A    between atoms: C1_2  and  C2_3 
ROOT
ATOM      1  C2  UNL d   1       1.530  -3.093   0.438  0.00  0.00    -0.077 A 
ATOM      2  C3  UNL d   1       2.539  -2.232   0.893  0.00  0.00     0.002 A 
ATOM      3  C4  UNL d   1       2.211  -1.044   1.550  0.00  0.00     0.002 A 
ATOM      4  C5  UNL d   1       0.875  -0.709   1.762  0.00  0.00    -0.004 A 
ATOM      5  C6  UNL d   1      -0.136  -1.558   1.311  0.00  0.00     0.002 A 
ATOM      6  C7  UNL d   1       0.191  -2.745   0.653  0.00  0.00     0.002 A 
ENDROOT
BRANCH   1   7
ATOM      7  C1  UNL d   1       1.883  -4.398  -0.227  0.00  0.00     0.055 C 
ATOM      8  C   UNL d   1       2.996  -5.117   0.521  0.00  0.00     0.019 C 
ENDBRANCH   1   7
TORSDOF 1
ENDMDL
