MODEL 1
REMARK minimizedAffinity 9.74752903
REMARK minimizedRMSD -1
REMARK  1 active torsions:
REMARK  status: ('A' for Active; 'I' for Inactive)
REMARK    1  A    between atoms: C1_2  and  C2_3 
ROOT
ATOM      1  C2  UNL d   1      -5.596  -1.071  -3.587  0.00  0.00    -0.077 A 
ATOM      2  C3  UNL d   1      -5.665  -1.772  -4.800  0.00  0.00     0.002 A 
ATOM      3  C4  UNL d   1      -5.868  -1.088  -6.000  0.00  0.00     0.002 A 
ATOM      4  C5  UNL d   1      -6.000   0.299  -6.000  0.00  0.00    -0.004 A 
ATOM      5  C6  UNL d   1      -5.935   1.005  -4.799  0.00  0.00     0.002 A 
ATOM      6  C7  UNL d   1      -5.733   0.323  -3.598  0.00  0.00     0.002 A 
ENDROOT
BRANCH   1   7
ATOM      7  C1  UNL d   1      -5.327  -1.802  -2.297  0.00  0.00     0.055 C 
ATOM      8  C   UNL d   1      -4.154  -1.188  -1.548  0.00  0.00     0.019 C 
ENDBRANCH   1   7
TORSDOF 1
ENDMDL
