MODEL 1
REMARK minimizedAffinity 6.8537631
REMARK minimizedRMSD -1
REMARK  1 active torsions:
REMARK  status: ('A' for Active; 'I' for Inactive)
REMARK    1  A    between atoms: C1_2  and  C2_3 
ROOT
ATOM      1  C2  UNL d   1      -3.761   2.133  -4.630  0.00  0.00    -0.077 A 
ATOM      2  C3  UNL d   1      -3.285   2.586  -3.392  0.00  0.00     0.002 A 
ATOM      3  C4  UNL d   1      -1.912   2.675  -3.152  0.00  0.00     0.002 A 
ATOM      4  C5  UNL d   1      -1.005   2.317  -4.147  0.00  0.00    -0.004 A 
ATOM      5  C6  UNL d   1      -1.468   1.863  -5.381  0.00  0.00     0.002 A 
ATOM      6  C7  UNL d   1      -2.840   1.773  -5.622  0.00  0.00     0.002 A 
ENDROOT
BRANCH   1   7
ATOM      7  C1  UNL d   1      -5.240   2.083  -4.908  0.00  0.00     0.055 C 
ATOM      8  C   UNL d   1      -5.785   3.461  -5.255  0.00  0.00     0.019 C 
ENDBRANCH   1   7
TORSDOF 1
ENDMDL
