MODEL 1
REMARK minimizedAffinity -2.70684648
REMARK minimizedRMSD -1
REMARK  1 active torsions:
REMARK  status: ('A' for Active; 'I' for Inactive)
REMARK    1  A    between atoms: C3_4  and  O_7 
ROOT
ATOM      1  C   UNL d   1      -4.516  -5.218  -5.998  0.00  0.00    -0.033 A 
ATOM      2  C1  UNL d   1      -3.845  -5.999  -5.056  0.00  0.00     0.039 A 
ATOM      3  C2  UNL d   1      -4.184  -5.913  -3.704  0.00  0.00    -0.080 A 
ATOM      4  C3  UNL d   1      -5.196  -5.042  -3.309  0.00  0.00     0.150 A 
ATOM      5  C4  UNL d   1      -5.872  -4.263  -4.242  0.00  0.00    -0.007 A 
ATOM      6  C5  UNL d   1      -5.531  -4.351  -5.591  0.00  0.00     0.039 A 
ENDROOT
BRANCH   4   7
ATOM      7  O   UNL d   1      -5.559  -4.920  -2.000  0.00  0.00    -0.526 OA
ATOM      8  H5  UNL d   1      -4.988  -5.496  -1.467  0.00  0.00     0.418 HD
ENDBRANCH   4   7
TORSDOF 1
ENDMDL
