MODEL 1
REMARK minimizedAffinity -2.06942487
REMARK minimizedRMSD -1
REMARK  1 active torsions:
REMARK  status: ('A' for Active; 'I' for Inactive)
REMARK    1  A    between atoms: C3_4  and  O_7 
ROOT
ATOM      1  C   UNL d   1      -4.154  -4.751  -6.000  0.00  0.00    -0.033 A 
ATOM      2  C1  UNL d   1      -5.147  -3.799  -5.761  0.00  0.00     0.039 A 
ATOM      3  C2  UNL d   1      -5.746  -3.713  -4.502  0.00  0.00    -0.080 A 
ATOM      4  C3  UNL d   1      -5.342  -4.582  -3.493  0.00  0.00     0.150 A 
ATOM      5  C4  UNL d   1      -4.350  -5.530  -3.723  0.00  0.00    -0.007 A 
ATOM      6  C5  UNL d   1      -3.754  -5.615  -4.980  0.00  0.00     0.039 A 
ENDROOT
BRANCH   4   7
ATOM      7  O   UNL d   1      -5.900  -4.539  -2.250  0.00  0.00    -0.526 OA
ATOM      8  H5  UNL d   1      -6.590  -3.855  -2.246  0.00  0.00     0.418 HD
ENDBRANCH   4   7
TORSDOF 1
ENDMDL
