MODEL 1
REMARK minimizedAffinity -3.8434546
REMARK minimizedRMSD -1
REMARK  1 active torsions:
REMARK  status: ('A' for Active; 'I' for Inactive)
REMARK    1  A    between atoms: C3_4  and  O_7 
ROOT
ATOM      1  C   UNL d   1      -4.608  -5.716  -5.923  0.00  0.00    -0.033 A 
ATOM      2  C1  UNL d   1      -5.770  -4.973  -5.701  0.00  0.00     0.039 A 
ATOM      3  C2  UNL d   1      -5.999  -4.389  -4.454  0.00  0.00    -0.080 A 
ATOM      4  C3  UNL d   1      -5.061  -4.554  -3.439  0.00  0.00     0.150 A 
ATOM      5  C4  UNL d   1      -3.900  -5.289  -3.655  0.00  0.00    -0.007 A 
ATOM      6  C5  UNL d   1      -3.672  -5.872  -4.901  0.00  0.00     0.039 A 
ENDROOT
BRANCH   4   7
ATOM      7  O   UNL d   1      -5.243  -4.007  -2.204  0.00  0.00    -0.526 OA
ATOM      8  H5  UNL d   1      -6.102  -3.552  -2.193  0.00  0.00     0.418 HD
ENDBRANCH   4   7
TORSDOF 1
ENDMDL
