MODEL 1
REMARK minimizedAffinity -3.29362035
REMARK minimizedRMSD -1
REMARK  1 active torsions:
REMARK  status: ('A' for Active; 'I' for Inactive)
REMARK    1  A    between atoms: C3_4  and  O_7 
ROOT
ATOM      1  C   UNL d   1      -5.026  -5.414  -1.823  0.00  0.00    -0.033 A 
ATOM      2  C1  UNL d   1      -3.899  -6.000  -2.403  0.00  0.00     0.039 A 
ATOM      3  C2  UNL d   1      -3.746  -5.999  -3.791  0.00  0.00    -0.080 A 
ATOM      4  C3  UNL d   1      -4.725  -5.410  -4.586  0.00  0.00     0.150 A 
ATOM      5  C4  UNL d   1      -5.848  -4.821  -4.015  0.00  0.00    -0.007 A 
ATOM      6  C5  UNL d   1      -6.000  -4.824  -2.629  0.00  0.00     0.039 A 
ENDROOT
BRANCH   4   7
ATOM      7  O   UNL d   1      -4.622  -5.389  -5.945  0.00  0.00    -0.526 OA
ATOM      8  H5  UNL d   1      -3.809  -5.857  -6.200  0.00  0.00     0.418 HD
ENDBRANCH   4   7
TORSDOF 1
ENDMDL
