MODEL 1
REMARK minimizedAffinity -1.30811071
REMARK minimizedRMSD -1
REMARK  1 active torsions:
REMARK  status: ('A' for Active; 'I' for Inactive)
REMARK    1  A    between atoms: C3_4  and  O_7 
ROOT
ATOM      1  C   UNL d   1      -4.912  -4.849  -5.999  0.00  0.00    -0.033 A 
ATOM      2  C1  UNL d   1      -4.959  -3.578  -5.423  0.00  0.00     0.039 A 
ATOM      3  C2  UNL d   1      -5.009  -3.440  -4.034  0.00  0.00    -0.080 A 
ATOM      4  C3  UNL d   1      -5.009  -4.580  -3.234  0.00  0.00     0.150 A 
ATOM      5  C4  UNL d   1      -4.957  -5.849  -3.801  0.00  0.00    -0.007 A 
ATOM      6  C5  UNL d   1      -4.909  -5.985  -5.188  0.00  0.00     0.039 A 
ENDROOT
BRANCH   4   7
ATOM      7  O   UNL d   1      -5.060  -4.495  -1.875  0.00  0.00    -0.526 OA
ATOM      8  H5  UNL d   1      -5.121  -3.558  -1.626  0.00  0.00     0.418 HD
ENDBRANCH   4   7
TORSDOF 1
ENDMDL
