MODEL 1
REMARK minimizedAffinity -3.18637562
REMARK minimizedRMSD -1
REMARK  1 active torsions:
REMARK  status: ('A' for Active; 'I' for Inactive)
REMARK    1  A    between atoms: C3_4  and  O_7 
ROOT
ATOM      1  C   UNL d   1      -5.036  -5.562  -5.602  0.00  0.00    -0.033 A 
ATOM      2  C1  UNL d   1      -4.205  -6.000  -4.568  0.00  0.00     0.039 A 
ATOM      3  C2  UNL d   1      -4.269  -5.390  -3.314  0.00  0.00    -0.080 A 
ATOM      4  C3  UNL d   1      -5.166  -4.346  -3.106  0.00  0.00     0.150 A 
ATOM      5  C4  UNL d   1      -5.999  -3.908  -4.130  0.00  0.00    -0.007 A 
ATOM      6  C5  UNL d   1      -5.934  -4.517  -5.382  0.00  0.00     0.039 A 
ENDROOT
BRANCH   4   7
ATOM      7  O   UNL d   1      -5.260  -3.718  -1.900  0.00  0.00    -0.526 OA
ATOM      8  H5  UNL d   1      -4.605  -4.107  -1.297  0.00  0.00     0.418 HD
ENDBRANCH   4   7
TORSDOF 1
ENDMDL
