MODEL 1
REMARK minimizedAffinity 10.6691856
REMARK minimizedRMSD -1
REMARK  1 active torsions:
REMARK  status: ('A' for Active; 'I' for Inactive)
REMARK    1  A    between atoms: C3_4  and  O_7 
ROOT
ATOM      1  C   UNL d   1      -6.000   3.601   0.697  0.00  0.00    -0.033 A 
ATOM      2  C1  UNL d   1      -5.338   3.197  -0.464  0.00  0.00     0.039 A 
ATOM      3  C2  UNL d   1      -4.115   2.529  -0.376  0.00  0.00    -0.080 A 
ATOM      4  C3  UNL d   1      -3.567   2.270   0.877  0.00  0.00     0.150 A 
ATOM      5  C4  UNL d   1      -4.223   2.665   2.038  0.00  0.00    -0.007 A 
ATOM      6  C5  UNL d   1      -5.444   3.334   1.948  0.00  0.00     0.039 A 
ENDROOT
BRANCH   4   7
ATOM      7  O   UNL d   1      -2.374   1.624   1.013  0.00  0.00    -0.526 OA
ATOM      8  H5  UNL d   1      -2.022   1.437   0.127  0.00  0.00     0.418 HD
ENDBRANCH   4   7
TORSDOF 1
ENDMDL
