MODEL 1
REMARK minimizedAffinity -1.42686462
REMARK minimizedRMSD -1
REMARK  1 active torsions:
REMARK  status: ('A' for Active; 'I' for Inactive)
REMARK    1  A    between atoms: C1_2  and  C2_3 
ROOT
ATOM      1  C2  UNL d   1      -0.621   0.298  -0.891  0.00  0.00    -0.073 A 
ATOM      2  C3  UNL d   1       0.532  -0.299  -1.414  0.00  0.00    -0.002 A 
ATOM      3  C4  UNL d   1       1.374  -1.048  -0.592  0.00  0.00     0.004 A 
ATOM      4  C5  UNL d   1       1.069  -1.215   0.759  0.00  0.00    -0.004 A 
ATOM      5  C6  UNL d   1      -0.085  -0.637   1.299  0.00  0.00    -0.075 A 
ATOM      6  C7  UNL d   1      -0.426  -0.805   2.750  0.00  0.00     0.076 C 
ATOM      7  C8  UNL d   1      -0.924   0.117   0.466  0.00  0.00     0.001 A 
ENDROOT
BRANCH   1   8
ATOM      8  C1  UNL d   1      -1.536   1.103  -1.777  0.00  0.00     0.053 C 
ATOM      9  C   UNL d   1      -0.823   2.289  -2.406  0.00  0.00     0.018 C 
ENDBRANCH   1   8
TORSDOF 1
ENDMDL
