MODEL 1
REMARK minimizedAffinity -4.96572256
REMARK minimizedRMSD -1
REMARK  1 active torsions:
REMARK  status: ('A' for Active; 'I' for Inactive)
REMARK    1  A    between atoms: C1_2  and  C2_3 
ROOT
ATOM      1  C2  UNL d   1       0.190  -0.792   1.684  0.00  0.00    -0.073 A 
ATOM      2  C3  UNL d   1      -0.760   0.107   1.185  0.00  0.00    -0.002 A 
ATOM      3  C4  UNL d   1      -0.740   0.480  -0.159  0.00  0.00     0.004 A 
ATOM      4  C5  UNL d   1       0.223  -0.046  -1.019  0.00  0.00    -0.004 A 
ATOM      5  C6  UNL d   1       1.174  -0.954  -0.543  0.00  0.00    -0.075 A 
ATOM      6  C7  UNL d   1       2.219  -1.527  -1.455  0.00  0.00     0.076 C 
ATOM      7  C8  UNL d   1       1.149  -1.322   0.809  0.00  0.00     0.001 A 
ENDROOT
BRANCH   1   8
ATOM      8  C1  UNL d   1       0.169  -1.203   3.133  0.00  0.00     0.053 C 
ATOM      9  C   UNL d   1       1.465  -1.878   3.553  0.00  0.00     0.018 C 
ENDBRANCH   1   8
TORSDOF 1
ENDMDL
