MODEL 1
REMARK minimizedAffinity -4.81650496
REMARK minimizedRMSD -1
REMARK  1 active torsions:
REMARK  status: ('A' for Active; 'I' for Inactive)
REMARK    1  A    between atoms: C1_2  and  C2_3 
ROOT
ATOM      1  C2  UNL d   1       0.296  -0.405   0.759  0.00  0.00    -0.073 A 
ATOM      2  C3  UNL d   1       0.138  -0.678   2.122  0.00  0.00    -0.002 A 
ATOM      3  C4  UNL d   1       1.023  -1.537   2.776  0.00  0.00     0.004 A 
ATOM      4  C5  UNL d   1       2.077  -2.124   2.076  0.00  0.00    -0.004 A 
ATOM      5  C6  UNL d   1       2.258  -1.854   0.716  0.00  0.00    -0.075 A 
ATOM      6  C7  UNL d   1       3.385  -2.480  -0.051  0.00  0.00     0.076 C 
ATOM      7  C8  UNL d   1       1.363  -0.993   0.066  0.00  0.00     0.001 A 
ENDROOT
BRANCH   1   8
ATOM      8  C1  UNL d   1      -0.654   0.526   0.050  0.00  0.00     0.053 C 
ATOM      9  C   UNL d   1      -0.281   0.716  -1.411  0.00  0.00     0.018 C 
ENDBRANCH   1   8
TORSDOF 1
ENDMDL
