MODEL 1
REMARK minimizedAffinity -3.31841922
REMARK minimizedRMSD -1
REMARK  1 active torsions:
REMARK  status: ('A' for Active; 'I' for Inactive)
REMARK    1  A    between atoms: C1_2  and  C2_3 
ROOT
ATOM      1  C2  UNL d   1      -0.184  -0.299  -0.116  0.00  0.00    -0.073 A 
ATOM      2  C3  UNL d   1      -0.893  -0.049   1.065  0.00  0.00    -0.002 A 
ATOM      3  C4  UNL d   1      -0.582  -0.745   2.234  0.00  0.00     0.004 A 
ATOM      4  C5  UNL d   1       0.443  -1.691   2.236  0.00  0.00    -0.004 A 
ATOM      5  C6  UNL d   1       1.170  -1.946   1.068  0.00  0.00    -0.075 A 
ATOM      6  C7  UNL d   1       2.274  -2.962   1.054  0.00  0.00     0.076 C 
ATOM      7  C8  UNL d   1       0.850  -1.245  -0.102  0.00  0.00     0.001 A 
ENDROOT
BRANCH   1   8
ATOM      8  C1  UNL d   1      -0.512   0.455  -1.379  0.00  0.00     0.053 C 
ATOM      9  C   UNL d   1      -0.248   1.946  -1.238  0.00  0.00     0.018 C 
ENDBRANCH   1   8
TORSDOF 1
ENDMDL
