MODEL 1
REMARK minimizedAffinity -1.50763869
REMARK minimizedRMSD -1
REMARK  1 active torsions:
REMARK  status: ('A' for Active; 'I' for Inactive)
REMARK    1  A    between atoms: C1_2  and  C2_3 
ROOT
ATOM      1  C2  UNL d   1      -0.632   0.528   0.546  0.00  0.00    -0.073 A 
ATOM      2  C3  UNL d   1      -0.916  -0.482  -0.381  0.00  0.00    -0.002 A 
ATOM      3  C4  UNL d   1      -1.020  -0.181  -1.740  0.00  0.00     0.004 A 
ATOM      4  C5  UNL d   1      -0.836   1.127  -2.186  0.00  0.00    -0.004 A 
ATOM      5  C6  UNL d   1      -0.541   2.148  -1.276  0.00  0.00    -0.075 A 
ATOM      6  C7  UNL d   1      -0.343   3.561  -1.740  0.00  0.00     0.076 C 
ATOM      7  C8  UNL d   1      -0.440   1.839   0.087  0.00  0.00     0.001 A 
ENDROOT
BRANCH   1   8
ATOM      8  C1  UNL d   1      -0.512   0.207   2.013  0.00  0.00     0.053 C 
ATOM      9  C   UNL d   1       0.077  -1.174   2.249  0.00  0.00     0.018 C 
ENDBRANCH   1   8
TORSDOF 1
ENDMDL
