MODEL 1
REMARK minimizedAffinity -3.32572699
REMARK minimizedRMSD -1
REMARK  1 active torsions:
REMARK  status: ('A' for Active; 'I' for Inactive)
REMARK    1  A    between atoms: C1_2  and  C2_3 
ROOT
ATOM      1  C2  UNL d   1       1.009  -1.634   1.188  0.00  0.00    -0.073 A 
ATOM      2  C3  UNL d   1       0.183  -1.516   2.312  0.00  0.00    -0.002 A 
ATOM      3  C4  UNL d   1      -0.871  -0.601   2.319  0.00  0.00     0.004 A 
ATOM      4  C5  UNL d   1      -1.113   0.200   1.202  0.00  0.00    -0.004 A 
ATOM      5  C6  UNL d   1      -0.306   0.088   0.066  0.00  0.00    -0.075 A 
ATOM      6  C7  UNL d   1      -0.552   0.943  -1.143  0.00  0.00     0.076 C 
ATOM      7  C8  UNL d   1       0.752  -0.831   0.067  0.00  0.00     0.001 A 
ENDROOT
BRANCH   1   8
ATOM      8  C1  UNL d   1       2.144  -2.625   1.173  0.00  0.00     0.053 C 
ATOM      9  C   UNL d   1       2.910  -2.595  -0.140  0.00  0.00     0.018 C 
ENDBRANCH   1   8
TORSDOF 1
ENDMDL
