MODEL 1
REMARK minimizedAffinity -2.78394842
REMARK minimizedRMSD -1
REMARK  1 active torsions:
REMARK  status: ('A' for Active; 'I' for Inactive)
REMARK    1  A    between atoms: C1_2  and  C2_3 
ROOT
ATOM      1  C2  UNL d   1      -0.965   0.757  -0.845  0.00  0.00    -0.073 A 
ATOM      2  C3  UNL d   1      -1.697   0.763   0.348  0.00  0.00    -0.002 A 
ATOM      3  C4  UNL d   1      -1.327  -0.070   1.406  0.00  0.00     0.004 A 
ATOM      4  C5  UNL d   1      -0.220  -0.909   1.284  0.00  0.00    -0.004 A 
ATOM      5  C6  UNL d   1       0.531  -0.920   0.104  0.00  0.00    -0.075 A 
ATOM      6  C7  UNL d   1       1.723  -1.819  -0.043  0.00  0.00     0.076 C 
ATOM      7  C8  UNL d   1       0.152  -0.084  -0.954  0.00  0.00     0.001 A 
ENDROOT
BRANCH   1   8
ATOM      8  C1  UNL d   1      -1.357   1.659  -1.987  0.00  0.00     0.053 C 
ATOM      9  C   UNL d   1      -0.270   2.671  -2.313  0.00  0.00     0.018 C 
ENDBRANCH   1   8
TORSDOF 1
ENDMDL
