MODEL 1
REMARK minimizedAffinity 17.103899
REMARK minimizedRMSD -1
REMARK  0 active torsions:
REMARK  status: ('A' for Active; 'I' for Inactive)
ROOT
ATOM      1  C   UNL d   1       1.579   1.162  -1.234  0.00  0.00     0.124 A 
ATOM      2  C1  UNL d   1       1.936   1.281   0.102  0.00  0.00     0.062 A 
ATOM      3  C2  UNL d   1       1.912   2.526   0.724  0.00  0.00     0.162 A 
ATOM      4  C3  UNL d   1       1.529   3.662   0.011  0.00  0.00    -0.034 A 
ATOM      5  C4  UNL d   1       1.173   3.534  -1.332  0.00  0.00     0.162 A 
ATOM      6  C5  UNL d   1       1.198   2.288  -1.950  0.00  0.00     0.062 A 
ATOM      7  F   UNL d   1       0.854   2.174  -3.241  0.00  0.00    -0.097 F 
ATOM      8  F1  UNL d   1       0.799   4.606  -2.048  0.00  0.00    -0.096 F 
ATOM      9  I   UNL d   1       1.492   5.525   0.938  0.00  0.00    -0.060 I 
ATOM     10  F2  UNL d   1       2.261   2.612   2.017  0.00  0.00    -0.096 F 
ATOM     11  F3  UNL d   1       2.306   0.195   0.796  0.00  0.00    -0.097 F 
ATOM     12  F4  UNL d   1       1.604  -0.037  -1.830  0.00  0.00    -0.092 F 
ENDROOT
TORSDOF 0
ENDMDL
