MODEL 1
REMARK minimizedAffinity 6.12657499
REMARK minimizedRMSD -1
REMARK  0 active torsions:
REMARK  status: ('A' for Active; 'I' for Inactive)
ROOT
ATOM      1  C   UNL d   1       1.661   0.694  -0.419  0.00  0.00     0.124 A 
ATOM      2  C1  UNL d   1       1.359   1.128  -1.702  0.00  0.00     0.062 A 
ATOM      3  C2  UNL d   1       1.248   2.489  -1.972  0.00  0.00     0.162 A 
ATOM      4  C3  UNL d   1       1.440   3.426  -0.957  0.00  0.00    -0.034 A 
ATOM      5  C4  UNL d   1       1.743   2.981   0.332  0.00  0.00     0.162 A 
ATOM      6  C5  UNL d   1       1.852   1.620   0.597  0.00  0.00     0.062 A 
ATOM      7  F   UNL d   1       2.144   1.202   1.837  0.00  0.00    -0.097 F 
ATOM      8  F1  UNL d   1       1.934   3.855   1.331  0.00  0.00    -0.096 F 
ATOM      9  I   UNL d   1       1.276   5.462  -1.357  0.00  0.00    -0.060 I 
ATOM     10  F2  UNL d   1       0.956   2.881  -3.221  0.00  0.00    -0.096 F 
ATOM     11  F3  UNL d   1       1.173   0.235  -2.684  0.00  0.00    -0.097 F 
ATOM     12  F4  UNL d   1       1.766  -0.616  -0.161  0.00  0.00    -0.092 F 
ENDROOT
TORSDOF 0
ENDMDL
