MODEL 1
REMARK minimizedAffinity 9.99986744
REMARK minimizedRMSD -1
REMARK  0 active torsions:
REMARK  status: ('A' for Active; 'I' for Inactive)
ROOT
ATOM      1  C   UNL d   1      -0.829  -2.940   2.686  0.00  0.00     0.124 A 
ATOM      2  C1  UNL d   1      -1.734  -3.959   2.424  0.00  0.00     0.062 A 
ATOM      3  C2  UNL d   1      -2.699  -4.298   3.369  0.00  0.00     0.162 A 
ATOM      4  C3  UNL d   1      -2.764  -3.617   4.585  0.00  0.00    -0.034 A 
ATOM      5  C4  UNL d   1      -1.849  -2.594   4.841  0.00  0.00     0.162 A 
ATOM      6  C5  UNL d   1      -0.887  -2.259   3.894  0.00  0.00     0.062 A 
ATOM      7  F   UNL d   1      -0.013  -1.274   4.149  0.00  0.00    -0.097 F 
ATOM      8  F1  UNL d   1      -1.883  -1.919   6.000  0.00  0.00    -0.096 F 
ATOM      9  I   UNL d   1      -4.204  -4.122   5.999  0.00  0.00    -0.060 I 
ATOM     10  F2  UNL d   1      -3.561  -5.287   3.089  0.00  0.00    -0.096 F 
ATOM     11  F3  UNL d   1      -1.680  -4.619   1.259  0.00  0.00    -0.097 F 
ATOM     12  F4  UNL d   1       0.099  -2.616   1.776  0.00  0.00    -0.092 F 
ENDROOT
TORSDOF 0
ENDMDL
