MODEL 1
REMARK minimizedAffinity 2.56114221
REMARK minimizedRMSD -1
REMARK  0 active torsions:
REMARK  status: ('A' for Active; 'I' for Inactive)
ROOT
ATOM      1  C   UNL d   1       1.460   0.644  -1.695  0.00  0.00     0.124 A 
ATOM      2  C1  UNL d   1       1.058   1.849  -2.254  0.00  0.00     0.062 A 
ATOM      3  C2  UNL d   1       1.005   3.000  -1.474  0.00  0.00     0.162 A 
ATOM      4  C3  UNL d   1       1.358   2.952  -0.125  0.00  0.00    -0.034 A 
ATOM      5  C4  UNL d   1       1.761   1.736   0.431  0.00  0.00     0.162 A 
ATOM      6  C5  UNL d   1       1.811   0.589  -0.354  0.00  0.00     0.062 A 
ATOM      7  F   UNL d   1       2.201  -0.574   0.188  0.00  0.00    -0.097 F 
ATOM      8  F1  UNL d   1       2.106   1.655   1.724  0.00  0.00    -0.096 F 
ATOM      9  I   UNL d   1       1.281   4.671   1.046  0.00  0.00    -0.060 I 
ATOM     10  F2  UNL d   1       0.613   4.150  -2.040  0.00  0.00    -0.096 F 
ATOM     11  F3  UNL d   1       0.717   1.904  -3.550  0.00  0.00    -0.097 F 
ATOM     12  F4  UNL d   1       1.509  -0.462  -2.449  0.00  0.00    -0.092 F 
ENDROOT
TORSDOF 0
ENDMDL
