MODEL 1
REMARK minimizedAffinity 12.3547068
REMARK minimizedRMSD -1
REMARK  0 active torsions:
REMARK  status: ('A' for Active; 'I' for Inactive)
ROOT
ATOM      1  C   UNL d   1      -3.002   1.850   3.227  0.00  0.00     0.124 A 
ATOM      2  C1  UNL d   1      -2.239   1.834   4.387  0.00  0.00     0.062 A 
ATOM      3  C2  UNL d   1      -1.737   0.632   4.877  0.00  0.00     0.162 A 
ATOM      4  C3  UNL d   1      -1.994  -0.564   4.207  0.00  0.00    -0.034 A 
ATOM      5  C4  UNL d   1      -2.763  -0.540   3.042  0.00  0.00     0.162 A 
ATOM      6  C5  UNL d   1      -3.263   0.664   2.556  0.00  0.00     0.062 A 
ATOM      7  F   UNL d   1      -3.999   0.678   1.436  0.00  0.00    -0.097 F 
ATOM      8  F1  UNL d   1      -3.029  -1.671   2.373  0.00  0.00    -0.096 F 
ATOM      9  I   UNL d   1      -1.244  -2.363   4.937  0.00  0.00    -0.060 I 
ATOM     10  F2  UNL d   1      -1.003   0.646   6.000  0.00  0.00    -0.096 F 
ATOM     11  F3  UNL d   1      -1.987   2.979   5.038  0.00  0.00    -0.097 F 
ATOM     12  F4  UNL d   1      -3.485   3.008   2.758  0.00  0.00    -0.092 F 
ENDROOT
TORSDOF 0
ENDMDL
