MODEL 1
REMARK minimizedAffinity 8.54540062
REMARK minimizedRMSD -1
REMARK  0 active torsions:
REMARK  status: ('A' for Active; 'I' for Inactive)
ROOT
ATOM      1  C   UNL d   1       1.142  -0.390  -0.109  0.00  0.00     0.124 A 
ATOM      2  C1  UNL d   1       1.203   0.661   0.795  0.00  0.00     0.062 A 
ATOM      3  C2  UNL d   1       1.454   1.955   0.349  0.00  0.00     0.162 A 
ATOM      4  C3  UNL d   1       1.645   2.206  -1.010  0.00  0.00    -0.034 A 
ATOM      5  C4  UNL d   1       1.583   1.144  -1.914  0.00  0.00     0.162 A 
ATOM      6  C5  UNL d   1       1.332  -0.148  -1.462  0.00  0.00     0.062 A 
ATOM      7  F   UNL d   1       1.274  -1.162  -2.338  0.00  0.00    -0.097 F 
ATOM      8  F1  UNL d   1       1.763   1.350  -3.227  0.00  0.00    -0.096 F 
ATOM      9  I   UNL d   1       2.021   4.140  -1.682  0.00  0.00    -0.060 I 
ATOM     10  F2  UNL d   1       1.507   2.952   1.245  0.00  0.00    -0.096 F 
ATOM     11  F3  UNL d   1       1.020   0.430   2.103  0.00  0.00    -0.097 F 
ATOM     12  F4  UNL d   1       0.901  -1.634   0.323  0.00  0.00    -0.092 F 
ENDROOT
TORSDOF 0
ENDMDL
