MODEL 1
REMARK minimizedAffinity -0.290495276
REMARK minimizedRMSD -1
REMARK  0 active torsions:
REMARK  status: ('A' for Active; 'I' for Inactive)
ROOT
ATOM      1  C   UNL d   1       1.279   1.862  -1.017  0.00  0.00     0.124 A 
ATOM      2  C1  UNL d   1       1.601   1.103   0.101  0.00  0.00     0.062 A 
ATOM      3  C2  UNL d   1       1.840   1.725   1.323  0.00  0.00     0.162 A 
ATOM      4  C3  UNL d   1       1.758   3.113   1.435  0.00  0.00    -0.034 A 
ATOM      5  C4  UNL d   1       1.434   3.869   0.307  0.00  0.00     0.162 A 
ATOM      6  C5  UNL d   1       1.196   3.243  -0.913  0.00  0.00     0.062 A 
ATOM      7  F   UNL d   1       0.885   3.977  -1.991  0.00  0.00    -0.097 F 
ATOM      8  F1  UNL d   1       1.346   5.205   0.379  0.00  0.00    -0.096 F 
ATOM      9  I   UNL d   1       2.114   4.046   3.261  0.00  0.00    -0.060 I 
ATOM     10  F2  UNL d   1       2.149   0.967   2.386  0.00  0.00    -0.096 F 
ATOM     11  F3  UNL d   1       1.683  -0.231   0.003  0.00  0.00    -0.097 F 
ATOM     12  F4  UNL d   1       1.051   1.261  -2.192  0.00  0.00    -0.092 F 
ENDROOT
TORSDOF 0
ENDMDL
