MODEL 1
REMARK minimizedAffinity 11.7388573
REMARK minimizedRMSD -1
REMARK  0 active torsions:
REMARK  status: ('A' for Active; 'I' for Inactive)
ROOT
ATOM      1  C   UNL d   1       0.327   1.793  -2.302  0.00  0.00     0.124 A 
ATOM      2  C1  UNL d   1       1.630   1.839  -1.827  0.00  0.00     0.062 A 
ATOM      3  C2  UNL d   1       2.165   3.038  -1.365  0.00  0.00     0.162 A 
ATOM      4  C3  UNL d   1       1.395   4.202  -1.374  0.00  0.00    -0.034 A 
ATOM      5  C4  UNL d   1       0.086   4.148  -1.855  0.00  0.00     0.162 A 
ATOM      6  C5  UNL d   1      -0.444   2.947  -2.316  0.00  0.00     0.062 A 
ATOM      7  F   UNL d   1      -1.703   2.904  -2.775  0.00  0.00    -0.097 F 
ATOM      8  F1  UNL d   1      -0.682   5.248  -1.879  0.00  0.00    -0.096 F 
ATOM      9  I   UNL d   1       2.191   5.997  -0.684  0.00  0.00    -0.060 I 
ATOM     10  F2  UNL d   1       3.427   3.054  -0.911  0.00  0.00    -0.096 F 
ATOM     11  F3  UNL d   1       2.377   0.726  -1.813  0.00  0.00    -0.097 F 
ATOM     12  F4  UNL d   1      -0.185   0.638  -2.747  0.00  0.00    -0.092 F 
ENDROOT
TORSDOF 0
ENDMDL
