MODEL 1
REMARK minimizedAffinity 0.373503327
REMARK minimizedRMSD -1
REMARK  0 active torsions:
REMARK  status: ('A' for Active; 'I' for Inactive)
ROOT
ATOM      1  C   UNL d   1       1.283   3.074  -0.526  0.00  0.00     0.124 A 
ATOM      2  C1  UNL d   1       1.247   2.483   0.730  0.00  0.00     0.062 A 
ATOM      3  C2  UNL d   1       1.297   1.098   0.854  0.00  0.00     0.162 A 
ATOM      4  C3  UNL d   1       1.385   0.293  -0.282  0.00  0.00    -0.034 A 
ATOM      5  C4  UNL d   1       1.419   0.894  -1.541  0.00  0.00     0.162 A 
ATOM      6  C5  UNL d   1       1.369   2.279  -1.660  0.00  0.00     0.062 A 
ATOM      7  F   UNL d   1       1.403   2.847  -2.874  0.00  0.00    -0.097 F 
ATOM      8  F1  UNL d   1       1.503   0.149  -2.654  0.00  0.00    -0.096 F 
ATOM      9  I   UNL d   1       1.460  -1.779  -0.101  0.00  0.00    -0.060 I 
ATOM     10  F2  UNL d   1       1.261   0.555   2.080  0.00  0.00    -0.096 F 
ATOM     11  F3  UNL d   1       1.163   3.249   1.827  0.00  0.00    -0.097 F 
ATOM     12  F4  UNL d   1       1.233   4.407  -0.642  0.00  0.00    -0.092 F 
ENDROOT
TORSDOF 0
ENDMDL
