MODEL 1
REMARK minimizedAffinity 1.72776806
REMARK minimizedRMSD -1
REMARK  0 active torsions:
REMARK  status: ('A' for Active; 'I' for Inactive)
ROOT
ATOM      1  C   UNL d   1       1.448   4.733  -0.046  0.00  0.00     0.124 A 
ATOM      2  C1  UNL d   1       1.228   4.464  -1.390  0.00  0.00     0.062 A 
ATOM      3  C2  UNL d   1       1.114   3.149  -1.832  0.00  0.00     0.162 A 
ATOM      4  C3  UNL d   1       1.219   2.092  -0.928  0.00  0.00    -0.034 A 
ATOM      5  C4  UNL d   1       1.440   2.370   0.422  0.00  0.00     0.162 A 
ATOM      6  C5  UNL d   1       1.554   3.686   0.858  0.00  0.00     0.062 A 
ATOM      7  F   UNL d   1       1.766   3.943   2.157  0.00  0.00    -0.097 F 
ATOM      8  F1  UNL d   1       1.546   1.377   1.318  0.00  0.00    -0.096 F 
ATOM      9  I   UNL d   1       1.049   0.124  -1.585  0.00  0.00    -0.060 I 
ATOM     10  F2  UNL d   1       0.902   2.919  -3.136  0.00  0.00    -0.096 F 
ATOM     11  F3  UNL d   1       1.126   5.474  -2.266  0.00  0.00    -0.097 F 
ATOM     12  F4  UNL d   1       1.558   5.999   0.376  0.00  0.00    -0.092 F 
ENDROOT
TORSDOF 0
ENDMDL
