MODEL 1
REMARK minimizedAffinity 1.388183
REMARK minimizedRMSD -1
REMARK  0 active torsions:
REMARK  status: ('A' for Active; 'I' for Inactive)
ROOT
ATOM      1  C   UNL d   1      -2.854   1.785   4.689  0.00  0.00     0.124 A 
ATOM      2  C1  UNL d   1      -1.496   1.519   4.793  0.00  0.00     0.062 A 
ATOM      3  C2  UNL d   1      -0.705   1.453   3.650  0.00  0.00     0.162 A 
ATOM      4  C3  UNL d   1      -1.271   1.655   2.391  0.00  0.00    -0.034 A 
ATOM      5  C4  UNL d   1      -2.638   1.922   2.293  0.00  0.00     0.162 A 
ATOM      6  C5  UNL d   1      -3.424   1.986   3.439  0.00  0.00     0.062 A 
ATOM      7  F   UNL d   1      -4.736   2.244   3.336  0.00  0.00    -0.097 F 
ATOM      8  F1  UNL d   1      -3.214   2.121   1.099  0.00  0.00    -0.096 F 
ATOM      9  I   UNL d   1      -0.092   1.558   0.678  0.00  0.00    -0.060 I 
ATOM     10  F2  UNL d   1       0.604   1.195   3.781  0.00  0.00    -0.096 F 
ATOM     11  F3  UNL d   1      -0.943   1.324   5.999  0.00  0.00    -0.097 F 
ATOM     12  F4  UNL d   1      -3.612   1.847   5.791  0.00  0.00    -0.092 F 
ENDROOT
TORSDOF 0
ENDMDL
