MODEL 1
REMARK minimizedAffinity 6.18530464
REMARK minimizedRMSD -1
REMARK  0 active torsions:
REMARK  status: ('A' for Active; 'I' for Inactive)
ROOT
ATOM      1  C   UNL d   1       1.140   0.346  -0.160  0.00  0.00     0.124 A 
ATOM      2  C1  UNL d   1       1.353   1.226   0.891  0.00  0.00     0.062 A 
ATOM      3  C2  UNL d   1       1.494   2.589   0.645  0.00  0.00     0.162 A 
ATOM      4  C3  UNL d   1       1.422   3.080  -0.658  0.00  0.00    -0.034 A 
ATOM      5  C4  UNL d   1       1.209   2.188  -1.711  0.00  0.00     0.162 A 
ATOM      6  C5  UNL d   1       1.069   0.827  -1.460  0.00  0.00     0.062 A 
ATOM      7  F   UNL d   1       0.864  -0.023  -2.477  0.00  0.00    -0.097 F 
ATOM      8  F1  UNL d   1       1.135   2.626  -2.976  0.00  0.00    -0.096 F 
ATOM      9  I   UNL d   1       1.632   5.117  -1.030  0.00  0.00    -0.060 I 
ATOM     10  F2  UNL d   1       1.698   3.417   1.680  0.00  0.00    -0.096 F 
ATOM     11  F3  UNL d   1       1.423   0.764   2.148  0.00  0.00    -0.097 F 
ATOM     12  F4  UNL d   1       1.006  -0.965   0.079  0.00  0.00    -0.092 F 
ENDROOT
TORSDOF 0
ENDMDL
