MODEL 1
REMARK minimizedAffinity 10.6292181
REMARK minimizedRMSD -1
REMARK  0 active torsions:
REMARK  status: ('A' for Active; 'I' for Inactive)
ROOT
ATOM      1  C   UNL d   1       1.531   3.502  -0.737  0.00  0.00     0.124 A 
ATOM      2  C1  UNL d   1       1.470   2.885   0.505  0.00  0.00     0.062 A 
ATOM      3  C2  UNL d   1       1.432   1.497   0.596  0.00  0.00     0.162 A 
ATOM      4  C3  UNL d   1       1.456   0.715  -0.559  0.00  0.00    -0.034 A 
ATOM      5  C4  UNL d   1       1.517   1.343  -1.805  0.00  0.00     0.162 A 
ATOM      6  C5  UNL d   1       1.554   2.731  -1.890  0.00  0.00     0.062 A 
ATOM      7  F   UNL d   1       1.613   3.325  -3.091  0.00  0.00    -0.097 F 
ATOM      8  F1  UNL d   1       1.541   0.622  -2.936  0.00  0.00    -0.096 F 
ATOM      9  I   UNL d   1       1.400  -1.361  -0.428  0.00  0.00    -0.060 I 
ATOM     10  F2  UNL d   1       1.374   0.928   1.809  0.00  0.00    -0.096 F 
ATOM     11  F3  UNL d   1       1.447   3.628   1.621  0.00  0.00    -0.097 F 
ATOM     12  F4  UNL d   1       1.567   4.838  -0.821  0.00  0.00    -0.092 F 
ENDROOT
TORSDOF 0
ENDMDL
