MODEL 1
REMARK minimizedAffinity -1.21084189
REMARK minimizedRMSD -1
REMARK  0 active torsions:
REMARK  status: ('A' for Active; 'I' for Inactive)
ROOT
ATOM      1  C   UNL d   1       1.409   0.323   0.024  0.00  0.00     0.124 A 
ATOM      2  C1  UNL d   1       1.346   0.770  -1.289  0.00  0.00     0.062 A 
ATOM      3  C2  UNL d   1       1.428   2.131  -1.569  0.00  0.00     0.162 A 
ATOM      4  C3  UNL d   1       1.574   3.055  -0.535  0.00  0.00    -0.034 A 
ATOM      5  C4  UNL d   1       1.635   2.598   0.783  0.00  0.00     0.162 A 
ATOM      6  C5  UNL d   1       1.553   1.237   1.058  0.00  0.00     0.062 A 
ATOM      7  F   UNL d   1       1.613   0.807   2.327  0.00  0.00    -0.097 F 
ATOM      8  F1  UNL d   1       1.775   3.459   1.801  0.00  0.00    -0.096 F 
ATOM      9  I   UNL d   1       1.696   5.091  -0.950  0.00  0.00    -0.060 I 
ATOM     10  F2  UNL d   1       1.365   2.534  -2.847  0.00  0.00    -0.096 F 
ATOM     11  F3  UNL d   1       1.206  -0.111  -2.290  0.00  0.00    -0.097 F 
ATOM     12  F4  UNL d   1       1.329  -0.987   0.291  0.00  0.00    -0.092 F 
ENDROOT
TORSDOF 0
ENDMDL
