MODEL 1
REMARK minimizedAffinity -0.969877303
REMARK minimizedRMSD -1
REMARK  0 active torsions:
REMARK  status: ('A' for Active; 'I' for Inactive)
ROOT
ATOM      1  C   UNL d   1       1.020   0.262  -0.190  0.00  0.00     0.124 A 
ATOM      2  C1  UNL d   1       1.118   0.713  -1.499  0.00  0.00     0.062 A 
ATOM      3  C2  UNL d   1       1.300   2.067  -1.761  0.00  0.00     0.162 A 
ATOM      4  C3  UNL d   1       1.386   2.982  -0.711  0.00  0.00    -0.034 A 
ATOM      5  C4  UNL d   1       1.285   2.521   0.602  0.00  0.00     0.162 A 
ATOM      6  C5  UNL d   1       1.104   1.166   0.859  0.00  0.00     0.062 A 
ATOM      7  F   UNL d   1       1.009   0.732   2.124  0.00  0.00    -0.097 F 
ATOM      8  F1  UNL d   1       1.363   3.373   1.635  0.00  0.00    -0.096 F 
ATOM      9  I   UNL d   1       1.657   5.009  -1.099  0.00  0.00    -0.060 I 
ATOM     10  F2  UNL d   1       1.392   2.475  -3.036  0.00  0.00    -0.096 F 
ATOM     11  F3  UNL d   1       1.037  -0.159  -2.515  0.00  0.00    -0.097 F 
ATOM     12  F4  UNL d   1       0.845  -1.042   0.059  0.00  0.00    -0.092 F 
ENDROOT
TORSDOF 0
ENDMDL
