MODEL 1
REMARK minimizedAffinity 5.92951727
REMARK minimizedRMSD -1
REMARK  0 active torsions:
REMARK  status: ('A' for Active; 'I' for Inactive)
ROOT
ATOM      1  C   UNL d   1       2.069   0.365  -0.566  0.00  0.00     0.124 A 
ATOM      2  C1  UNL d   1       1.718   0.808  -1.834  0.00  0.00     0.062 A 
ATOM      3  C2  UNL d   1       1.466   2.158  -2.059  0.00  0.00     0.162 A 
ATOM      4  C3  UNL d   1       1.565   3.076  -1.014  0.00  0.00    -0.034 A 
ATOM      5  C4  UNL d   1       1.917   2.623   0.259  0.00  0.00     0.162 A 
ATOM      6  C5  UNL d   1       2.168   1.273   0.479  0.00  0.00     0.062 A 
ATOM      7  F   UNL d   1       2.507   0.847   1.704  0.00  0.00    -0.097 F 
ATOM      8  F1  UNL d   1       2.021   3.479   1.286  0.00  0.00    -0.096 F 
ATOM      9  I   UNL d   1       1.189   5.096  -1.347  0.00  0.00    -0.060 I 
ATOM     10  F2  UNL d   1       1.129   2.557  -3.295  0.00  0.00    -0.096 F 
ATOM     11  F3  UNL d   1       1.620  -0.068  -2.845  0.00  0.00    -0.097 F 
ATOM     12  F4  UNL d   1       2.309  -0.935  -0.352  0.00  0.00    -0.092 F 
ENDROOT
TORSDOF 0
ENDMDL
