MODEL 1
REMARK minimizedAffinity 6.41050625
REMARK minimizedRMSD -1
REMARK  0 active torsions:
REMARK  status: ('A' for Active; 'I' for Inactive)
ROOT
ATOM      1  C   UNL d   1       1.408   2.465  -0.779  0.00  0.00     0.124 A 
ATOM      2  C1  UNL d   1       1.286   1.538  -1.805  0.00  0.00     0.062 A 
ATOM      3  C2  UNL d   1       1.351   0.176  -1.530  0.00  0.00     0.162 A 
ATOM      4  C3  UNL d   1       1.540  -0.270  -0.221  0.00  0.00    -0.034 A 
ATOM      5  C4  UNL d   1       1.663   0.668   0.805  0.00  0.00     0.162 A 
ATOM      6  C5  UNL d   1       1.597   2.029   0.525  0.00  0.00     0.062 A 
ATOM      7  F   UNL d   1       1.716   2.923   1.518  0.00  0.00    -0.097 F 
ATOM      8  F1  UNL d   1       1.845   0.275   2.075  0.00  0.00    -0.096 F 
ATOM      9  I   UNL d   1       1.638  -2.306   0.195  0.00  0.00    -0.060 I 
ATOM     10  F2  UNL d   1       1.229  -0.697  -2.541  0.00  0.00    -0.096 F 
ATOM     11  F3  UNL d   1       1.105   1.957  -3.066  0.00  0.00    -0.097 F 
ATOM     12  F4  UNL d   1       1.346   3.775  -1.047  0.00  0.00    -0.092 F 
ENDROOT
TORSDOF 0
ENDMDL
