MODEL 1
REMARK minimizedAffinity 18.8403721
REMARK minimizedRMSD -1
REMARK  0 active torsions:
REMARK  status: ('A' for Active; 'I' for Inactive)
ROOT
ATOM      1  C   UNL d   1       1.333   3.062  -1.697  0.00  0.00     0.124 A 
ATOM      2  C1  UNL d   1       1.372   2.058  -0.739  0.00  0.00     0.062 A 
ATOM      3  C2  UNL d   1       1.574   2.377   0.601  0.00  0.00     0.162 A 
ATOM      4  C3  UNL d   1       1.737   3.706   0.991  0.00  0.00    -0.034 A 
ATOM      5  C4  UNL d   1       1.696   4.710   0.022  0.00  0.00     0.162 A 
ATOM      6  C5  UNL d   1       1.495   4.386  -1.316  0.00  0.00     0.062 A 
ATOM      7  F   UNL d   1       1.457   5.357  -2.240  0.00  0.00    -0.097 F 
ATOM      8  F1  UNL d   1       1.849   5.998   0.363  0.00  0.00    -0.096 F 
ATOM      9  I   UNL d   1       2.038   4.187   2.994  0.00  0.00    -0.060 I 
ATOM     10  F2  UNL d   1       1.608   1.387   1.505  0.00  0.00    -0.096 F 
ATOM     11  F3  UNL d   1       1.217   0.778  -1.105  0.00  0.00    -0.097 F 
ATOM     12  F4  UNL d   1       1.140   2.752  -2.986  0.00  0.00    -0.092 F 
ENDROOT
TORSDOF 0
ENDMDL
