MODEL 1
REMARK minimizedAffinity -1.97721565
REMARK minimizedRMSD -1
REMARK  0 active torsions:
REMARK  status: ('A' for Active; 'I' for Inactive)
ROOT
ATOM      1  C   UNL d   1      -0.585   2.395   0.747  0.00  0.00     0.124 A 
ATOM      2  C1  UNL d   1      -0.755   1.320   1.609  0.00  0.00     0.062 A 
ATOM      3  C2  UNL d   1      -0.481   0.026   1.176  0.00  0.00     0.162 A 
ATOM      4  C3  UNL d   1      -0.033  -0.200  -0.126  0.00  0.00    -0.034 A 
ATOM      5  C4  UNL d   1       0.135   0.886  -0.987  0.00  0.00     0.162 A 
ATOM      6  C5  UNL d   1      -0.141   2.177  -0.549  0.00  0.00     0.062 A 
ATOM      7  F   UNL d   1       0.024   3.214  -1.383  0.00  0.00    -0.097 F 
ATOM      8  F1  UNL d   1       0.564   0.704  -2.244  0.00  0.00    -0.096 F 
ATOM      9  I   UNL d   1       0.378  -2.134  -0.777  0.00  0.00    -0.060 I 
ATOM     10  F2  UNL d   1      -0.654  -0.994   2.030  0.00  0.00    -0.096 F 
ATOM     11  F3  UNL d   1      -1.185   1.528   2.861  0.00  0.00    -0.097 F 
ATOM     12  F4  UNL d   1      -0.851   3.639   1.166  0.00  0.00    -0.092 F 
ENDROOT
TORSDOF 0
ENDMDL
