MODEL 1
REMARK minimizedAffinity 1.45710158
REMARK minimizedRMSD -1
REMARK  0 active torsions:
REMARK  status: ('A' for Active; 'I' for Inactive)
ROOT
ATOM      1  C   UNL d   1      -0.263   2.038   0.377  0.00  0.00     0.124 A 
ATOM      2  C1  UNL d   1      -0.275   1.107   1.406  0.00  0.00     0.062 A 
ATOM      3  C2  UNL d   1      -0.056  -0.240   1.134  0.00  0.00     0.162 A 
ATOM      4  C3  UNL d   1       0.177  -0.665  -0.174  0.00  0.00    -0.034 A 
ATOM      5  C4  UNL d   1       0.186   0.277  -1.204  0.00  0.00     0.162 A 
ATOM      6  C5  UNL d   1      -0.033   1.622  -0.927  0.00  0.00     0.062 A 
ATOM      7  F   UNL d   1      -0.022   2.520  -1.923  0.00  0.00    -0.097 F 
ATOM      8  F1  UNL d   1       0.407  -0.098  -2.473  0.00  0.00    -0.096 F 
ATOM      9  I   UNL d   1       0.504  -2.679  -0.585  0.00  0.00    -0.060 I 
ATOM     10  F2  UNL d   1      -0.073  -1.118   2.149  0.00  0.00    -0.096 F 
ATOM     11  F3  UNL d   1      -0.498   1.506   2.667  0.00  0.00    -0.097 F 
ATOM     12  F4  UNL d   1      -0.475   3.334   0.641  0.00  0.00    -0.092 F 
ENDROOT
TORSDOF 0
ENDMDL
