MODEL 1
REMARK minimizedAffinity -1.56152403
REMARK minimizedRMSD -1
REMARK  0 active torsions:
REMARK  status: ('A' for Active; 'I' for Inactive)
ROOT
ATOM      1  C   UNL d   1      -0.143   2.608   0.515  0.00  0.00     0.124 A 
ATOM      2  C1  UNL d   1      -0.225   1.523   1.377  0.00  0.00     0.062 A 
ATOM      3  C2  UNL d   1       0.084   0.244   0.923  0.00  0.00     0.162 A 
ATOM      4  C3  UNL d   1       0.479   0.042  -0.399  0.00  0.00    -0.034 A 
ATOM      5  C4  UNL d   1       0.558   1.138  -1.261  0.00  0.00     0.162 A 
ATOM      6  C5  UNL d   1       0.248   2.415  -0.803  0.00  0.00     0.062 A 
ATOM      7  F   UNL d   1       0.327   3.462  -1.637  0.00  0.00    -0.097 F 
ATOM      8  F1  UNL d   1       0.934   0.980  -2.538  0.00  0.00    -0.096 F 
ATOM      9  I   UNL d   1       0.942  -1.869  -1.081  0.00  0.00    -0.060 I 
ATOM     10  F2  UNL d   1      -0.003  -0.786   1.778  0.00  0.00    -0.096 F 
ATOM     11  F3  UNL d   1      -0.603   1.707   2.650  0.00  0.00    -0.097 F 
ATOM     12  F4  UNL d   1      -0.442   3.837   0.954  0.00  0.00    -0.092 F 
ENDROOT
TORSDOF 0
ENDMDL
