MODEL 1
REMARK minimizedAffinity 0.371507645
REMARK minimizedRMSD -1
REMARK  0 active torsions:
REMARK  status: ('A' for Active; 'I' for Inactive)
ROOT
ATOM      1  C   UNL d   1       0.081   2.320   0.432  0.00  0.00     0.124 A 
ATOM      2  C1  UNL d   1       0.278   1.359   1.414  0.00  0.00     0.062 A 
ATOM      3  C2  UNL d   1       0.443   0.023   1.063  0.00  0.00     0.162 A 
ATOM      4  C3  UNL d   1       0.415  -0.361  -0.278  0.00  0.00    -0.034 A 
ATOM      5  C4  UNL d   1       0.216   0.611  -1.260  0.00  0.00     0.162 A 
ATOM      6  C5  UNL d   1       0.051   1.946  -0.904  0.00  0.00     0.062 A 
ATOM      7  F   UNL d   1      -0.139   2.873  -1.854  0.00  0.00    -0.097 F 
ATOM      8  F1  UNL d   1       0.183   0.277  -2.559  0.00  0.00    -0.096 F 
ATOM      9  I   UNL d   1       0.662  -2.358  -0.808  0.00  0.00    -0.060 I 
ATOM     10  F2  UNL d   1       0.631  -0.885   2.033  0.00  0.00    -0.096 F 
ATOM     11  F3  UNL d   1       0.307   1.718   2.706  0.00  0.00    -0.097 F 
ATOM     12  F4  UNL d   1      -0.079   3.605   0.774  0.00  0.00    -0.092 F 
ENDROOT
TORSDOF 0
ENDMDL
