MODEL 1
REMARK minimizedAffinity 8.04148006
REMARK minimizedRMSD -1
REMARK  0 active torsions:
REMARK  status: ('A' for Active; 'I' for Inactive)
ROOT
ATOM      1  C   UNL d   1       0.152   1.763   0.298  0.00  0.00     0.124 A 
ATOM      2  C1  UNL d   1       0.398   3.129   0.322  0.00  0.00     0.062 A 
ATOM      3  C2  UNL d   1       1.053   3.704   1.407  0.00  0.00     0.162 A 
ATOM      4  C3  UNL d   1       1.467   2.912   2.479  0.00  0.00    -0.034 A 
ATOM      5  C4  UNL d   1       1.214   1.539   2.449  0.00  0.00     0.162 A 
ATOM      6  C5  UNL d   1       0.560   0.970   1.361  0.00  0.00     0.062 A 
ATOM      7  F   UNL d   1       0.323  -0.350   1.340  0.00  0.00    -0.097 F 
ATOM      8  F1  UNL d   1       1.599   0.749   3.462  0.00  0.00    -0.096 F 
ATOM      9  I   UNL d   1       2.445   3.768   4.104  0.00  0.00    -0.060 I 
ATOM     10  F2  UNL d   1       1.278   5.026   1.403  0.00  0.00    -0.096 F 
ATOM     11  F3  UNL d   1       0.004   3.898  -0.704  0.00  0.00    -0.097 F 
ATOM     12  F4  UNL d   1      -0.479   1.213  -0.747  0.00  0.00    -0.092 F 
ENDROOT
TORSDOF 0
ENDMDL
