MODEL 1
REMARK minimizedAffinity 3.16912293
REMARK minimizedRMSD -1
REMARK  0 active torsions:
REMARK  status: ('A' for Active; 'I' for Inactive)
ROOT
ATOM      1  C1  DEN d   1       0.160  -3.381   2.982  0.00  0.00     0.130 A 
ATOM      2  C2  DEN d   1       1.456  -3.833   2.486  0.00  0.00    -0.031 A 
ATOM      3  C3  DEN d   1       1.864  -2.934   1.388  0.00  0.00     0.027 A 
ATOM      4  C4  DEN d   1       0.623  -0.893   0.416  0.00  0.00     0.027 A 
ATOM      5  C5  DEN d   1      -0.519  -0.127   0.503  0.00  0.00    -0.003 A 
ATOM      6  C6  DEN d   1      -1.521  -0.410   1.393  0.00  0.00     0.001 A 
ATOM      7  C7  DEN d   1      -1.381  -1.460   2.262  0.00  0.00     0.017 A 
ATOM      8  C8  DEN d   1      -0.237  -2.241   2.175  0.00  0.00    -0.094 A 
ATOM      9  C9  DEN d   1       0.771  -1.932   1.277  0.00  0.00    -0.072 A 
ENDROOT
TORSDOF 0
ENDMDL
