MODEL 1
REMARK minimizedAffinity -1.47319126
REMARK minimizedRMSD -1
REMARK  0 active torsions:
REMARK  status: ('A' for Active; 'I' for Inactive)
ROOT
ATOM      1  C1  DEN d   1       0.001  -1.901   1.082  0.00  0.00     0.130 A 
ATOM      2  C2  DEN d   1       1.401  -1.969   0.673  0.00  0.00    -0.031 A 
ATOM      3  C3  DEN d   1       2.019  -3.126   1.351  0.00  0.00     0.027 A 
ATOM      4  C4  DEN d   1       0.949  -4.812   2.984  0.00  0.00     0.027 A 
ATOM      5  C5  DEN d   1      -0.211  -5.155   3.643  0.00  0.00    -0.003 A 
ATOM      6  C6  DEN d   1      -1.363  -4.424   3.522  0.00  0.00     0.001 A 
ATOM      7  C7  DEN d   1      -1.393  -3.337   2.688  0.00  0.00     0.017 A 
ATOM      8  C8  DEN d   1      -0.225  -2.981   2.026  0.00  0.00    -0.094 A 
ATOM      9  C9  DEN d   1       0.926  -3.740   2.152  0.00  0.00    -0.072 A 
ENDROOT
TORSDOF 0
ENDMDL
