MODEL 1
REMARK minimizedAffinity 6.08594322
REMARK minimizedRMSD -1
REMARK  0 active torsions:
REMARK  status: ('A' for Active; 'I' for Inactive)
ROOT
ATOM      1  C1  DEN d   1       1.010  -3.555   2.611  0.00  0.00     0.130 A 
ATOM      2  C2  DEN d   1       1.923  -3.968   1.549  0.00  0.00    -0.031 A 
ATOM      3  C3  DEN d   1       1.804  -2.997   0.442  0.00  0.00     0.027 A 
ATOM      4  C4  DEN d   1       0.307  -0.903   0.274  0.00  0.00     0.027 A 
ATOM      5  C5  DEN d   1      -0.647  -0.150   0.922  0.00  0.00    -0.003 A 
ATOM      6  C6  DEN d   1      -1.137  -0.496   2.154  0.00  0.00     0.001 A 
ATOM      7  C7  DEN d   1      -0.640  -1.599   2.797  0.00  0.00     0.017 A 
ATOM      8  C8  DEN d   1       0.316  -2.367   2.146  0.00  0.00    -0.094 A 
ATOM      9  C9  DEN d   1       0.808  -1.995   0.907  0.00  0.00    -0.072 A 
ENDROOT
TORSDOF 0
ENDMDL
