MODEL 1
REMARK minimizedAffinity -1.37006748
REMARK minimizedRMSD -1
REMARK  0 active torsions:
REMARK  status: ('A' for Active; 'I' for Inactive)
ROOT
ATOM      1  C1  DEN d   1       2.348  -3.170   0.894  0.00  0.00     0.130 A 
ATOM      2  C2  DEN d   1       2.561  -3.704   2.237  0.00  0.00    -0.031 A 
ATOM      3  C3  DEN d   1       1.605  -3.042   3.148  0.00  0.00     0.027 A 
ATOM      4  C4  DEN d   1      -0.176  -1.256   2.612  0.00  0.00     0.027 A 
ATOM      5  C5  DEN d   1      -0.724  -0.481   1.614  0.00  0.00    -0.003 A 
ATOM      6  C6  DEN d   1      -0.267  -0.523   0.323  0.00  0.00     0.001 A 
ATOM      7  C7  DEN d   1       0.738  -1.390  -0.013  0.00  0.00     0.017 A 
ATOM      8  C8  DEN d   1       1.300  -2.170   0.989  0.00  0.00    -0.094 A 
ATOM      9  C9  DEN d   1       0.816  -2.122   2.286  0.00  0.00    -0.072 A 
ENDROOT
TORSDOF 0
ENDMDL
