MODEL 1
REMARK minimizedAffinity -0.159605727
REMARK minimizedRMSD -1
REMARK  0 active torsions:
REMARK  status: ('A' for Active; 'I' for Inactive)
ROOT
ATOM      1  C1  DEN d   1      -1.371   0.631  -0.666  0.00  0.00     0.130 A 
ATOM      2  C2  DEN d   1      -0.733  -0.597  -0.198  0.00  0.00    -0.031 A 
ATOM      3  C3  DEN d   1       0.658  -0.605  -0.692  0.00  0.00     0.027 A 
ATOM      4  C4  DEN d   1       1.884   1.157  -2.122  0.00  0.00     0.027 A 
ATOM      5  C5  DEN d   1       1.752   2.365  -2.771  0.00  0.00    -0.003 A 
ATOM      6  C6  DEN d   1       0.570   3.057  -2.793  0.00  0.00     0.001 A 
ATOM      7  C7  DEN d   1      -0.515   2.569  -2.114  0.00  0.00     0.017 A 
ATOM      8  C8  DEN d   1      -0.392   1.348  -1.463  0.00  0.00    -0.094 A 
ATOM      9  C9  DEN d   1       0.815   0.669  -1.443  0.00  0.00    -0.072 A 
ENDROOT
TORSDOF 0
ENDMDL
