MODEL 1
REMARK minimizedAffinity 7.52762222
REMARK minimizedRMSD -1
REMARK  1 active torsions:
REMARK  status: ('A' for Active; 'I' for Inactive)
REMARK    1  A    between atoms: N_2  and  C1_3 
ROOT
ATOM      1  C1  UNL d   1       4.563  -4.356  -2.032  0.00  0.00     0.143 A 
ATOM      2  C2  UNL d   1       3.487  -4.124  -2.895  0.00  0.00    -0.057 A 
ATOM      3  C3  UNL d   1       3.665  -3.456  -4.113  0.00  0.00     0.033 A 
ATOM      4  C4  UNL d   1       4.921  -2.982  -4.477  0.00  0.00    -0.042 A 
ATOM      5  C5  UNL d   1       6.000  -3.180  -3.623  0.00  0.00     0.033 A 
ATOM      6  C6  UNL d   1       5.818  -3.853  -2.411  0.00  0.00    -0.057 A 
ENDROOT
BRANCH   1   7
ATOM      7  N   UNL d   1       4.433  -4.926  -0.763  0.00  0.00    -0.732 N 
ATOM      8  C   UNL d   1       5.235  -4.451   0.344  0.00  0.00     0.284 C 
ATOM      9  H3  UNL d   1       3.464  -5.119  -0.521  0.00  0.00     0.395 HD
ENDBRANCH   1   7
TORSDOF 1
ENDMDL
