MODEL 1
REMARK minimizedAffinity 1.3220011
REMARK minimizedRMSD -1
REMARK  1 active torsions:
REMARK  status: ('A' for Active; 'I' for Inactive)
REMARK    1  A    between atoms: N_2  and  C1_3 
ROOT
ATOM      1  C1  UNL d   1      -0.393   1.582  -1.683  0.00  0.00     0.143 A 
ATOM      2  C2  UNL d   1       0.806   1.373  -2.373  0.00  0.00    -0.057 A 
ATOM      3  C3  UNL d   1       0.866   0.521  -3.483  0.00  0.00     0.033 A 
ATOM      4  C4  UNL d   1      -0.270  -0.161  -3.906  0.00  0.00    -0.042 A 
ATOM      5  C5  UNL d   1      -1.467   0.012  -3.219  0.00  0.00     0.033 A 
ATOM      6  C6  UNL d   1      -1.522   0.869  -2.116  0.00  0.00    -0.057 A 
ENDROOT
BRANCH   1   7
ATOM      7  N   UNL d   1      -0.495   2.339  -0.514  0.00  0.00    -0.732 N 
ATOM      8  C   UNL d   1      -1.260   1.854   0.614  0.00  0.00     0.284 C 
ATOM      9  H3  UNL d   1       0.386   2.782  -0.259  0.00  0.00     0.395 HD
ENDBRANCH   1   7
TORSDOF 1
ENDMDL
