MODEL 1
REMARK minimizedAffinity 11.0205479
REMARK minimizedRMSD -1
REMARK  1 active torsions:
REMARK  status: ('A' for Active; 'I' for Inactive)
REMARK    1  A    between atoms: N_2  and  C1_3 
ROOT
ATOM      1  C1  UNL d   1       1.568  -3.402  -3.299  0.00  0.00     0.143 A 
ATOM      2  C2  UNL d   1       2.638  -4.125  -3.838  0.00  0.00    -0.057 A 
ATOM      3  C3  UNL d   1       2.638  -4.531  -5.178  0.00  0.00     0.033 A 
ATOM      4  C4  UNL d   1       1.552  -4.244  -5.998  0.00  0.00    -0.042 A 
ATOM      5  C5  UNL d   1       0.467  -3.549  -5.477  0.00  0.00     0.033 A 
ATOM      6  C6  UNL d   1       0.475  -3.141  -4.140  0.00  0.00    -0.057 A 
ENDROOT
BRANCH   1   7
ATOM      7  N   UNL d   1       1.465  -3.056  -1.949  0.00  0.00    -0.732 N 
ATOM      8  C   UNL d   1       1.505  -4.075  -0.922  0.00  0.00     0.284 C 
ATOM      9  H3  UNL d   1       1.991  -2.216  -1.722  0.00  0.00     0.395 HD
ENDBRANCH   1   7
TORSDOF 1
ENDMDL
