MODEL 1
REMARK minimizedAffinity 5.93978071
REMARK minimizedRMSD -1
REMARK  1 active torsions:
REMARK  status: ('A' for Active; 'I' for Inactive)
REMARK    1  A    between atoms: N_2  and  C1_3 
ROOT
ATOM      1  C1  UNL d   1      -0.231   2.690   1.149  0.00  0.00     0.143 A 
ATOM      2  C2  UNL d   1       0.505   2.269   2.262  0.00  0.00    -0.057 A 
ATOM      3  C3  UNL d   1      -0.114   1.625   3.340  0.00  0.00     0.033 A 
ATOM      4  C4  UNL d   1      -1.489   1.415   3.336  0.00  0.00    -0.042 A 
ATOM      5  C5  UNL d   1      -2.244   1.848   2.252  0.00  0.00     0.033 A 
ATOM      6  C6  UNL d   1      -1.619   2.485   1.175  0.00  0.00    -0.057 A 
ENDROOT
BRANCH   1   7
ATOM      7  N   UNL d   1       0.311   3.424   0.091  0.00  0.00    -0.732 N 
ATOM      8  C   UNL d   1      -0.331   3.432  -1.206  0.00  0.00     0.284 C 
ATOM      9  H3  UNL d   1       0.660   4.333   0.387  0.00  0.00     0.395 HD
ENDBRANCH   1   7
TORSDOF 1
ENDMDL
