MODEL 1
REMARK minimizedAffinity 15.6294622
REMARK minimizedRMSD -1
REMARK  1 active torsions:
REMARK  status: ('A' for Active; 'I' for Inactive)
REMARK    1  A    between atoms: N_2  and  C1_3 
ROOT
ATOM      1  C1  UNL d   1       4.842  -3.601   1.847  0.00  0.00     0.143 A 
ATOM      2  C2  UNL d   1       5.249  -2.271   1.998  0.00  0.00    -0.057 A 
ATOM      3  C3  UNL d   1       4.346  -1.212   1.842  0.00  0.00     0.033 A 
ATOM      4  C4  UNL d   1       3.021  -1.465   1.503  0.00  0.00    -0.042 A 
ATOM      5  C5  UNL d   1       2.599  -2.778   1.324  0.00  0.00     0.033 A 
ATOM      6  C6  UNL d   1       3.505  -3.831   1.487  0.00  0.00    -0.057 A 
ENDROOT
BRANCH   1   7
ATOM      7  N   UNL d   1       5.714  -4.691   1.892  0.00  0.00    -0.732 N 
ATOM      8  C   UNL d   1       5.237  -6.000   2.287  0.00  0.00     0.284 C 
ATOM      9  H3  UNL d   1       6.361  -4.703   1.108  0.00  0.00     0.395 HD
ENDBRANCH   1   7
TORSDOF 1
ENDMDL
