MODEL 1
REMARK minimizedAffinity 14.0707932
REMARK minimizedRMSD -1
REMARK  1 active torsions:
REMARK  status: ('A' for Active; 'I' for Inactive)
REMARK    1  A    between atoms: N_2  and  C1_3 
ROOT
ATOM      1  C1  UNL d   1       1.861  -3.969  -1.363  0.00  0.00     0.143 A 
ATOM      2  C2  UNL d   1       0.749  -3.787  -0.534  0.00  0.00    -0.057 A 
ATOM      3  C3  UNL d   1       0.748  -2.816   0.475  0.00  0.00     0.033 A 
ATOM      4  C4  UNL d   1       1.873  -2.027   0.692  0.00  0.00    -0.042 A 
ATOM      5  C5  UNL d   1       2.999  -2.209  -0.105  0.00  0.00     0.033 A 
ATOM      6  C6  UNL d   1       2.991  -3.175  -1.115  0.00  0.00    -0.057 A 
ENDROOT
BRANCH   1   7
ATOM      7  N   UNL d   1       1.960  -4.984  -2.319  0.00  0.00    -0.732 N 
ATOM      8  C   UNL d   1       2.985  -5.999  -2.212  0.00  0.00     0.284 C 
ATOM      9  H3  UNL d   1       1.050  -5.340  -2.602  0.00  0.00     0.395 HD
ENDBRANCH   1   7
TORSDOF 1
ENDMDL
