MODEL 1
REMARK minimizedAffinity 6.39436483
REMARK minimizedRMSD -1
REMARK  1 active torsions:
REMARK  status: ('A' for Active; 'I' for Inactive)
REMARK    1  A    between atoms: N_2  and  C1_3 
ROOT
ATOM      1  C1  UNL d   1      -1.256   2.864  -2.150  0.00  0.00     0.143 A 
ATOM      2  C2  UNL d   1      -1.577   2.472  -0.846  0.00  0.00    -0.057 A 
ATOM      3  C3  UNL d   1      -0.667   2.633   0.206  0.00  0.00     0.033 A 
ATOM      4  C4  UNL d   1       0.597   3.163  -0.035  0.00  0.00    -0.042 A 
ATOM      5  C5  UNL d   1       0.947   3.537  -1.327  0.00  0.00     0.033 A 
ATOM      6  C6  UNL d   1       0.031   3.380  -2.372  0.00  0.00    -0.057 A 
ENDROOT
BRANCH   1   7
ATOM      7  N   UNL d   1      -2.080   2.640  -3.255  0.00  0.00    -0.732 N 
ATOM      8  C   UNL d   1      -3.019   1.539  -3.263  0.00  0.00     0.284 C 
ATOM      9  H3  UNL d   1      -2.449   3.504  -3.646  0.00  0.00     0.395 HD
ENDBRANCH   1   7
TORSDOF 1
ENDMDL
