MODEL 1
REMARK minimizedAffinity -1.61708426
REMARK minimizedRMSD -1
REMARK  0 active torsions:
REMARK  status: ('A' for Active; 'I' for Inactive)
ROOT
ATOM      1  C   UNL d   1       1.122  -0.383  -0.109  0.00  0.00     0.124 A 
ATOM      2  C1  UNL d   1       0.737  -1.625  -0.595  0.00  0.00     0.062 A 
ATOM      3  C2  UNL d   1      -0.531  -1.801  -1.141  0.00  0.00     0.162 A 
ATOM      4  C3  UNL d   1      -1.424  -0.732  -1.204  0.00  0.00    -0.034 A 
ATOM      5  C4  UNL d   1      -1.031   0.514  -0.712  0.00  0.00     0.162 A 
ATOM      6  C5  UNL d   1       0.238   0.685  -0.168  0.00  0.00     0.062 A 
ATOM      7  F   UNL d   1       0.608   1.886   0.301  0.00  0.00    -0.097 F 
ATOM      8  F1  UNL d   1      -1.865   1.564  -0.758  0.00  0.00    -0.096 F 
ATOM      9  I   UNL d   1      -3.321  -0.991  -2.020  0.00  0.00    -0.060 I 
ATOM     10  F2  UNL d   1      -0.875  -3.012  -1.603  0.00  0.00    -0.096 F 
ATOM     11  F3  UNL d   1       1.589  -2.659  -0.538  0.00  0.00    -0.097 F 
ATOM     12  F4  UNL d   1       2.342  -0.217   0.417  0.00  0.00    -0.092 F 
ENDROOT
TORSDOF 0
ENDMDL
