MODEL 1
REMARK minimizedAffinity -1.72558618
REMARK minimizedRMSD -1
REMARK  0 active torsions:
REMARK  status: ('A' for Active; 'I' for Inactive)
ROOT
ATOM      1  C   UNL d   1       1.996   1.912   1.064  0.00  0.00     0.124 A 
ATOM      2  C1  UNL d   1       2.428   0.867   0.259  0.00  0.00     0.062 A 
ATOM      3  C2  UNL d   1       1.523  -0.088  -0.195  0.00  0.00     0.162 A 
ATOM      4  C3  UNL d   1       0.176  -0.003   0.155  0.00  0.00    -0.034 A 
ATOM      5  C4  UNL d   1      -0.252   1.050   0.966  0.00  0.00     0.162 A 
ATOM      6  C5  UNL d   1       0.657   2.002   1.416  0.00  0.00     0.062 A 
ATOM      7  F   UNL d   1       0.237   3.011   2.194  0.00  0.00    -0.097 F 
ATOM      8  F1  UNL d   1      -1.540   1.162   1.321  0.00  0.00    -0.096 F 
ATOM      9  I   UNL d   1      -1.180  -1.429  -0.522  0.00  0.00    -0.060 I 
ATOM     10  F2  UNL d   1       1.969  -1.087  -0.972  0.00  0.00    -0.096 F 
ATOM     11  F3  UNL d   1       3.722   0.777  -0.083  0.00  0.00    -0.097 F 
ATOM     12  F4  UNL d   1       2.869   2.829   1.500  0.00  0.00    -0.092 F 
ENDROOT
TORSDOF 0
ENDMDL
