MODEL 1
REMARK minimizedAffinity -1.04307485
REMARK minimizedRMSD -1
REMARK  0 active torsions:
REMARK  status: ('A' for Active; 'I' for Inactive)
ROOT
ATOM      1  C   UNL d   1       1.379   2.142   1.626  0.00  0.00     0.124 A 
ATOM      2  C1  UNL d   1       1.552   2.079   0.251  0.00  0.00     0.062 A 
ATOM      3  C2  UNL d   1       0.838   1.152  -0.503  0.00  0.00     0.162 A 
ATOM      4  C3  UNL d   1      -0.057   0.280   0.118  0.00  0.00    -0.034 A 
ATOM      5  C4  UNL d   1      -0.224   0.349   1.502  0.00  0.00     0.162 A 
ATOM      6  C5  UNL d   1       0.492   1.277   2.251  0.00  0.00     0.062 A 
ATOM      7  F   UNL d   1       0.323   1.336   3.580  0.00  0.00    -0.097 F 
ATOM      8  F1  UNL d   1      -1.076  -0.475   2.131  0.00  0.00    -0.096 F 
ATOM      9  I   UNL d   1      -1.126  -1.108  -1.005  0.00  0.00    -0.060 I 
ATOM     10  F2  UNL d   1       1.025   1.114  -1.831  0.00  0.00    -0.096 F 
ATOM     11  F3  UNL d   1       2.410   2.913  -0.355  0.00  0.00    -0.097 F 
ATOM     12  F4  UNL d   1       2.069   3.034   2.349  0.00  0.00    -0.092 F 
ENDROOT
TORSDOF 0
ENDMDL
