MODEL 1
REMARK minimizedAffinity -2.77934217
REMARK minimizedRMSD -1
REMARK  0 active torsions:
REMARK  status: ('A' for Active; 'I' for Inactive)
ROOT
ATOM      1  C   UNL d   1       1.853   1.145   3.932  0.00  0.00     0.124 A 
ATOM      2  C1  UNL d   1       0.871   1.726   3.141  0.00  0.00     0.062 A 
ATOM      3  C2  UNL d   1       1.025   1.778   1.759  0.00  0.00     0.162 A 
ATOM      4  C3  UNL d   1       2.167   1.247   1.158  0.00  0.00    -0.034 A 
ATOM      5  C4  UNL d   1       3.150   0.666   1.960  0.00  0.00     0.162 A 
ATOM      6  C5  UNL d   1       2.991   0.616   3.341  0.00  0.00     0.062 A 
ATOM      7  F   UNL d   1       3.941   0.055   4.103  0.00  0.00    -0.097 F 
ATOM      8  F1  UNL d   1       4.260   0.146   1.415  0.00  0.00    -0.096 F 
ATOM      9  I   UNL d   1       2.401   1.323  -0.909  0.00  0.00    -0.060 I 
ATOM     10  F2  UNL d   1       0.060   2.345   1.020  0.00  0.00    -0.096 F 
ATOM     11  F3  UNL d   1      -0.230   2.239   3.710  0.00  0.00    -0.097 F 
ATOM     12  F4  UNL d   1       1.702   1.097   5.262  0.00  0.00    -0.092 F 
ENDROOT
TORSDOF 0
ENDMDL
