MODEL 1
REMARK minimizedAffinity -2.26514053
REMARK minimizedRMSD -1
REMARK  0 active torsions:
REMARK  status: ('A' for Active; 'I' for Inactive)
ROOT
ATOM      1  C   UNL d   1       1.257   2.448   1.223  0.00  0.00     0.124 A 
ATOM      2  C1  UNL d   1       1.760   1.882   0.060  0.00  0.00     0.062 A 
ATOM      3  C2  UNL d   1       1.070   0.853  -0.573  0.00  0.00     0.162 A 
ATOM      4  C3  UNL d   1      -0.132   0.382  -0.045  0.00  0.00    -0.034 A 
ATOM      5  C4  UNL d   1      -0.632   0.956   1.126  0.00  0.00     0.162 A 
ATOM      6  C5  UNL d   1       0.062   1.984   1.755  0.00  0.00     0.062 A 
ATOM      7  F   UNL d   1      -0.426   2.530   2.879  0.00  0.00    -0.097 F 
ATOM      8  F1  UNL d   1      -1.785   0.528   1.661  0.00  0.00    -0.096 F 
ATOM      9  I   UNL d   1      -1.168  -1.157  -0.989  0.00  0.00    -0.060 I 
ATOM     10  F2  UNL d   1       1.579   0.325  -1.696  0.00  0.00    -0.096 F 
ATOM     11  F3  UNL d   1       2.915   2.328  -0.456  0.00  0.00    -0.097 F 
ATOM     12  F4  UNL d   1       1.924   3.438   1.831  0.00  0.00    -0.092 F 
ENDROOT
TORSDOF 0
ENDMDL
