MODEL 1
REMARK minimizedAffinity 1.87959576
REMARK minimizedRMSD -1
REMARK  0 active torsions:
REMARK  status: ('A' for Active; 'I' for Inactive)
ROOT
ATOM      1  C   UNL d   1       1.581   1.187  -0.016  0.00  0.00     0.124 A 
ATOM      2  C1  UNL d   1       0.901   1.855   0.992  0.00  0.00     0.062 A 
ATOM      3  C2  UNL d   1      -0.018   1.176   1.787  0.00  0.00     0.162 A 
ATOM      4  C3  UNL d   1      -0.261  -0.182   1.577  0.00  0.00    -0.034 A 
ATOM      5  C4  UNL d   1       0.426  -0.847   0.560  0.00  0.00     0.162 A 
ATOM      6  C5  UNL d   1       1.343  -0.163  -0.231  0.00  0.00     0.062 A 
ATOM      7  F   UNL d   1       1.999  -0.811  -1.205  0.00  0.00    -0.097 F 
ATOM      8  F1  UNL d   1       0.216  -2.152   0.332  0.00  0.00    -0.096 F 
ATOM      9  I   UNL d   1      -1.634  -1.202   2.763  0.00  0.00    -0.060 I 
ATOM     10  F2  UNL d   1      -0.660   1.847   2.754  0.00  0.00    -0.096 F 
ATOM     11  F3  UNL d   1       1.128   3.160   1.201  0.00  0.00    -0.097 F 
ATOM     12  F4  UNL d   1       2.463   1.844  -0.780  0.00  0.00    -0.092 F 
ENDROOT
TORSDOF 0
ENDMDL
