MODEL 1
REMARK minimizedAffinity 3.63564324
REMARK minimizedRMSD -1
REMARK  0 active torsions:
REMARK  status: ('A' for Active; 'I' for Inactive)
ROOT
ATOM      1  C   UNL d   1       0.099  -0.505   1.200  0.00  0.00     0.124 A 
ATOM      2  C1  UNL d   1       0.659  -1.255   0.175  0.00  0.00     0.062 A 
ATOM      3  C2  UNL d   1       1.586  -0.678  -0.689  0.00  0.00     0.162 A 
ATOM      4  C3  UNL d   1       1.960   0.657  -0.531  0.00  0.00    -0.034 A 
ATOM      5  C4  UNL d   1       1.392   1.405   0.502  0.00  0.00     0.162 A 
ATOM      6  C5  UNL d   1       0.466   0.824   1.363  0.00  0.00     0.062 A 
ATOM      7  F   UNL d   1      -0.074   1.549   2.353  0.00  0.00    -0.097 F 
ATOM      8  F1  UNL d   1       1.728   2.690   0.683  0.00  0.00    -0.096 F 
ATOM      9  I   UNL d   1       3.345   1.523  -1.820  0.00  0.00    -0.060 I 
ATOM     10  F2  UNL d   1       2.111  -1.426  -1.671  0.00  0.00    -0.096 F 
ATOM     11  F3  UNL d   1       0.306  -2.538   0.014  0.00  0.00    -0.097 F 
ATOM     12  F4  UNL d   1      -0.793  -1.062   2.029  0.00  0.00    -0.092 F 
ENDROOT
TORSDOF 0
ENDMDL
