MODEL 1
REMARK minimizedAffinity -2.91127157
REMARK minimizedRMSD -1
REMARK  0 active torsions:
REMARK  status: ('A' for Active; 'I' for Inactive)
ROOT
ATOM      1  C   UNL d   1       0.295  -1.895  -0.567  0.00  0.00     0.124 A 
ATOM      2  C1  UNL d   1      -0.751  -1.072  -0.172  0.00  0.00     0.062 A 
ATOM      3  C2  UNL d   1      -0.505   0.254   0.174  0.00  0.00     0.162 A 
ATOM      4  C3  UNL d   1       0.792   0.765   0.128  0.00  0.00    -0.034 A 
ATOM      5  C4  UNL d   1       1.838  -0.070  -0.269  0.00  0.00     0.162 A 
ATOM      6  C5  UNL d   1       1.588  -1.394  -0.615  0.00  0.00     0.062 A 
ATOM      7  F   UNL d   1       2.599  -2.188  -0.995  0.00  0.00    -0.097 F 
ATOM      8  F1  UNL d   1       3.097   0.389  -0.325  0.00  0.00    -0.096 F 
ATOM      9  I   UNL d   1       1.163   2.746   0.646  0.00  0.00    -0.060 I 
ATOM     10  F2  UNL d   1      -1.535   1.027   0.552  0.00  0.00    -0.096 F 
ATOM     11  F3  UNL d   1      -2.001  -1.554  -0.125  0.00  0.00    -0.097 F 
ATOM     12  F4  UNL d   1       0.056  -3.170  -0.899  0.00  0.00    -0.092 F 
ENDROOT
TORSDOF 0
ENDMDL
