MODEL 1
REMARK minimizedAffinity 1.18173206
REMARK minimizedRMSD -1
REMARK  0 active torsions:
REMARK  status: ('A' for Active; 'I' for Inactive)
ROOT
ATOM      1  C   UNL d   1       1.206   1.245   1.095  0.00  0.00     0.124 A 
ATOM      2  C1  UNL d   1       1.628   0.184   0.306  0.00  0.00     0.062 A 
ATOM      3  C2  UNL d   1       0.707  -0.537  -0.448  0.00  0.00     0.162 A 
ATOM      4  C3  UNL d   1      -0.646  -0.200  -0.419  0.00  0.00    -0.034 A 
ATOM      5  C4  UNL d   1      -1.063   0.868   0.378  0.00  0.00     0.162 A 
ATOM      6  C5  UNL d   1      -0.139   1.586   1.130  0.00  0.00     0.062 A 
ATOM      7  F   UNL d   1      -0.549   2.611   1.891  0.00  0.00    -0.097 F 
ATOM      8  F1  UNL d   1      -2.356   1.220   0.429  0.00  0.00    -0.096 F 
ATOM      9  I   UNL d   1      -2.025  -1.276  -1.546  0.00  0.00    -0.060 I 
ATOM     10  F2  UNL d   1       1.144  -1.558  -1.202  0.00  0.00    -0.096 F 
ATOM     11  F3  UNL d   1       2.927  -0.148   0.271  0.00  0.00    -0.097 F 
ATOM     12  F4  UNL d   1       2.093   1.937   1.821  0.00  0.00    -0.092 F 
ENDROOT
TORSDOF 0
ENDMDL
