MODEL 1
REMARK minimizedAffinity -0.628159702
REMARK minimizedRMSD -1
REMARK  0 active torsions:
REMARK  status: ('A' for Active; 'I' for Inactive)
ROOT
ATOM      1  C   UNL d   1       1.510   1.394   1.055  0.00  0.00     0.124 A 
ATOM      2  C1  UNL d   1       0.140   1.493   1.255  0.00  0.00     0.062 A 
ATOM      3  C2  UNL d   1      -0.731   0.655   0.565  0.00  0.00     0.162 A 
ATOM      4  C3  UNL d   1      -0.234  -0.292  -0.331  0.00  0.00    -0.034 A 
ATOM      5  C4  UNL d   1       1.145  -0.385  -0.528  0.00  0.00     0.162 A 
ATOM      6  C5  UNL d   1       2.011   0.455   0.164  0.00  0.00     0.062 A 
ATOM      7  F   UNL d   1       3.334   0.358  -0.031  0.00  0.00    -0.097 F 
ATOM      8  F1  UNL d   1       1.656  -1.284  -1.383  0.00  0.00    -0.096 F 
ATOM      9  I   UNL d   1      -1.533  -1.547  -1.364  0.00  0.00    -0.060 I 
ATOM     10  F2  UNL d   1      -2.050   0.773   0.779  0.00  0.00    -0.096 F 
ATOM     11  F3  UNL d   1      -0.346   2.400   2.115  0.00  0.00    -0.097 F 
ATOM     12  F4  UNL d   1       2.346   2.203   1.719  0.00  0.00    -0.092 F 
ENDROOT
TORSDOF 0
ENDMDL
