MODEL 1
REMARK minimizedAffinity -4.16381502
REMARK minimizedRMSD -1
REMARK  0 active torsions:
REMARK  status: ('A' for Active; 'I' for Inactive)
ROOT
ATOM      1  C   UNL d   1       0.097  -1.858  -0.153  0.00  0.00     0.124 A 
ATOM      2  C1  UNL d   1       1.245  -1.178  -0.534  0.00  0.00     0.062 A 
ATOM      3  C2  UNL d   1       1.422   0.155  -0.172  0.00  0.00     0.162 A 
ATOM      4  C3  UNL d   1       0.448   0.816   0.577  0.00  0.00    -0.034 A 
ATOM      5  C4  UNL d   1      -0.705   0.125   0.955  0.00  0.00     0.162 A 
ATOM      6  C5  UNL d   1      -0.877  -1.206   0.590  0.00  0.00     0.062 A 
ATOM      7  F   UNL d   1      -1.987  -1.862   0.959  0.00  0.00    -0.097 F 
ATOM      8  F1  UNL d   1      -1.661   0.731   1.674  0.00  0.00    -0.096 F 
ATOM      9  I   UNL d   1       0.709   2.808   1.120  0.00  0.00    -0.060 I 
ATOM     10  F2  UNL d   1       2.542   0.787  -0.553  0.00  0.00    -0.096 F 
ATOM     11  F3  UNL d   1       2.187  -1.805  -1.253  0.00  0.00    -0.097 F 
ATOM     12  F4  UNL d   1      -0.071  -3.139  -0.504  0.00  0.00    -0.092 F 
ENDROOT
TORSDOF 0
ENDMDL
