MODEL 1
REMARK minimizedAffinity -2.08450007
REMARK minimizedRMSD -1
REMARK  0 active torsions:
REMARK  status: ('A' for Active; 'I' for Inactive)
ROOT
ATOM      1  C   UNL d   1       1.342   0.634   1.055  0.00  0.00     0.124 A 
ATOM      2  C1  UNL d   1       1.766  -0.403   0.236  0.00  0.00     0.062 A 
ATOM      3  C2  UNL d   1       0.870  -1.018  -0.634  0.00  0.00     0.162 A 
ATOM      4  C3  UNL d   1      -0.459  -0.598  -0.690  0.00  0.00    -0.034 A 
ATOM      5  C4  UNL d   1      -0.878   0.445   0.138  0.00  0.00     0.162 A 
ATOM      6  C5  UNL d   1       0.021   1.057   1.006  0.00  0.00     0.062 A 
ATOM      7  F   UNL d   1      -0.390   2.059   1.797  0.00  0.00    -0.097 F 
ATOM      8  F1  UNL d   1      -2.148   0.875   0.110  0.00  0.00    -0.096 F 
ATOM      9  I   UNL d   1      -1.801  -1.515  -1.989  0.00  0.00    -0.060 I 
ATOM     10  F2  UNL d   1       1.307  -2.018  -1.414  0.00  0.00    -0.096 F 
ATOM     11  F3  UNL d   1       3.041  -0.814   0.282  0.00  0.00    -0.097 F 
ATOM     12  F4  UNL d   1       2.205   1.224   1.892  0.00  0.00    -0.092 F 
ENDROOT
TORSDOF 0
ENDMDL
