MODEL 1
REMARK minimizedAffinity -1.49060643
REMARK minimizedRMSD -1
REMARK  0 active torsions:
REMARK  status: ('A' for Active; 'I' for Inactive)
ROOT
ATOM      1  C   UNL d   1      -3.527  -2.143  -1.598  0.00  0.00     0.124 A 
ATOM      2  C1  UNL d   1      -2.843  -1.404  -2.553  0.00  0.00     0.062 A 
ATOM      3  C2  UNL d   1      -1.560  -0.935  -2.289  0.00  0.00     0.162 A 
ATOM      4  C3  UNL d   1      -0.951  -1.204  -1.063  0.00  0.00    -0.034 A 
ATOM      5  C4  UNL d   1      -1.645  -1.946  -0.106  0.00  0.00     0.162 A 
ATOM      6  C5  UNL d   1      -2.928  -2.413  -0.376  0.00  0.00     0.062 A 
ATOM      7  F   UNL d   1      -3.587  -3.127   0.549  0.00  0.00    -0.097 F 
ATOM      8  F1  UNL d   1      -1.090  -2.223   1.082  0.00  0.00    -0.096 F 
ATOM      9  I   UNL d   1       0.968  -0.504  -0.663  0.00  0.00    -0.060 I 
ATOM     10  F2  UNL d   1      -0.922  -0.223  -3.230  0.00  0.00    -0.096 F 
ATOM     11  F3  UNL d   1      -3.420  -1.140  -3.734  0.00  0.00    -0.097 F 
ATOM     12  F4  UNL d   1      -4.762  -2.592  -1.855  0.00  0.00    -0.092 F 
ENDROOT
TORSDOF 0
ENDMDL
