MODEL 1
REMARK minimizedAffinity -3.73477697
REMARK minimizedRMSD -1
REMARK  0 active torsions:
REMARK  status: ('A' for Active; 'I' for Inactive)
ROOT
ATOM      1  C   UNL d   1       0.565  -1.719  -0.296  0.00  0.00     0.124 A 
ATOM      2  C1  UNL d   1      -0.506  -1.078   0.312  0.00  0.00     0.062 A 
ATOM      3  C2  UNL d   1      -0.404   0.260   0.679  0.00  0.00     0.162 A 
ATOM      4  C3  UNL d   1       0.773   0.969   0.439  0.00  0.00    -0.034 A 
ATOM      5  C4  UNL d   1       1.847   0.318  -0.173  0.00  0.00     0.162 A 
ATOM      6  C5  UNL d   1       1.740  -1.020  -0.538  0.00  0.00     0.062 A 
ATOM      7  F   UNL d   1       2.776  -1.637  -1.125  0.00  0.00    -0.097 F 
ATOM      8  F1  UNL d   1       2.993   0.969  -0.419  0.00  0.00    -0.096 F 
ATOM      9  I   UNL d   1       0.930   2.970   0.986  0.00  0.00    -0.060 I 
ATOM     10  F2  UNL d   1      -1.454   0.854   1.265  0.00  0.00    -0.096 F 
ATOM     11  F3  UNL d   1      -1.641  -1.751   0.547  0.00  0.00    -0.097 F 
ATOM     12  F4  UNL d   1       0.465  -3.007  -0.648  0.00  0.00    -0.092 F 
ENDROOT
TORSDOF 0
ENDMDL
