MODEL 1
REMARK minimizedAffinity -1.14825153
REMARK minimizedRMSD -1
REMARK  0 active torsions:
REMARK  status: ('A' for Active; 'I' for Inactive)
ROOT
ATOM      1  C   UNL d   1      -0.508   1.195   1.751  0.00  0.00     0.124 A 
ATOM      2  C1  UNL d   1       0.350   2.032   1.052  0.00  0.00     0.062 A 
ATOM      3  C2  UNL d   1       1.388   1.497   0.295  0.00  0.00     0.162 A 
ATOM      4  C3  UNL d   1       1.573   0.116   0.232  0.00  0.00    -0.034 A 
ATOM      5  C4  UNL d   1       0.707  -0.720   0.939  0.00  0.00     0.162 A 
ATOM      6  C5  UNL d   1      -0.329  -0.180   1.695  0.00  0.00     0.062 A 
ATOM      7  F   UNL d   1      -1.157  -0.990   2.370  0.00  0.00    -0.097 F 
ATOM      8  F1  UNL d   1       0.856  -2.052   0.901  0.00  0.00    -0.096 F 
ATOM      9  I   UNL d   1       3.124  -0.689  -0.899  0.00  0.00    -0.060 I 
ATOM     10  F2  UNL d   1       2.201   2.330  -0.371  0.00  0.00    -0.096 F 
ATOM     11  F3  UNL d   1       0.179   3.361   1.106  0.00  0.00    -0.097 F 
ATOM     12  F4  UNL d   1      -1.505   1.713   2.480  0.00  0.00    -0.092 F 
ENDROOT
TORSDOF 0
ENDMDL
