MODEL 1
REMARK minimizedAffinity -0.532788932
REMARK minimizedRMSD -1
REMARK  1 active torsions:
REMARK  status: ('A' for Active; 'I' for Inactive)
REMARK    1  A    between atoms: C1_2  and  C2_3 
ROOT
ATOM      1  C2  UNL d   1      -0.054  -1.297   2.018  0.00  0.00    -0.081 A 
ATOM      2  C3  UNL d   1       1.026  -0.511   1.598  0.00  0.00     0.006 A 
ATOM      3  C4  UNL d   1       0.878   0.386   0.538  0.00  0.00     0.002 A 
ATOM      4  C5  UNL d   1      -0.353   0.518  -0.114  0.00  0.00    -0.080 A 
ATOM      5  C6  UNL d   1      -0.533   1.500  -1.234  0.00  0.00     0.076 C 
ATOM      6  C7  UNL d   1      -1.427  -0.280   0.295  0.00  0.00     0.002 A 
ATOM      7  C8  UNL d   1      -1.279  -1.178   1.354  0.00  0.00     0.006 A 
ENDROOT
BRANCH   1   8
ATOM      8  C1  UNL d   1       0.085  -2.219   3.203  0.00  0.00     0.054 C 
ATOM      9  C   UNL d   1      -0.946  -3.337   3.158  0.00  0.00     0.018 C 
ENDBRANCH   1   8
TORSDOF 1
ENDMDL
