MODEL 1
REMARK minimizedAffinity -2.3969593
REMARK minimizedRMSD -1
REMARK  1 active torsions:
REMARK  status: ('A' for Active; 'I' for Inactive)
REMARK    1  A    between atoms: C1_2  and  C2_3 
ROOT
ATOM      1  C2  UNL d   1      -0.689   0.056  -0.214  0.00  0.00    -0.081 A 
ATOM      2  C3  UNL d   1      -1.115   0.080   1.120  0.00  0.00     0.006 A 
ATOM      3  C4  UNL d   1      -0.237  -0.267   2.149  0.00  0.00     0.002 A 
ATOM      4  C5  UNL d   1       1.082  -0.636   1.863  0.00  0.00    -0.080 A 
ATOM      5  C6  UNL d   1       2.043  -0.982   2.961  0.00  0.00     0.076 C 
ATOM      6  C7  UNL d   1       1.502  -0.677   0.529  0.00  0.00     0.002 A 
ATOM      7  C8  UNL d   1       0.625  -0.330  -0.500  0.00  0.00     0.006 A 
ENDROOT
BRANCH   1   8
ATOM      8  C1  UNL d   1      -1.614   0.493  -1.322  0.00  0.00     0.054 C 
ATOM      9  C   UNL d   1      -1.086   1.734  -2.027  0.00  0.00     0.018 C 
ENDBRANCH   1   8
TORSDOF 1
ENDMDL
