MODEL 1
REMARK minimizedAffinity 1.17259562
REMARK minimizedRMSD -1
REMARK  1 active torsions:
REMARK  status: ('A' for Active; 'I' for Inactive)
REMARK    1  A    between atoms: C1_2  and  C2_3 
ROOT
ATOM      1  C2  UNL d   1      -2.804   1.988  -3.398  0.00  0.00    -0.081 A 
ATOM      2  C3  UNL d   1      -3.458   1.811  -4.624  0.00  0.00     0.006 A 
ATOM      3  C4  UNL d   1      -4.145   0.625  -4.895  0.00  0.00     0.002 A 
ATOM      4  C5  UNL d   1      -4.195  -0.400  -3.944  0.00  0.00    -0.080 A 
ATOM      5  C6  UNL d   1      -4.954  -1.665  -4.211  0.00  0.00     0.076 C 
ATOM      6  C7  UNL d   1      -3.527  -0.230  -2.727  0.00  0.00     0.002 A 
ATOM      7  C8  UNL d   1      -2.840   0.955  -2.455  0.00  0.00     0.006 A 
ENDROOT
BRANCH   1   8
ATOM      8  C1  UNL d   1      -2.118   3.291  -3.077  0.00  0.00     0.054 C 
ATOM      9  C   UNL d   1      -0.643   3.077  -2.764  0.00  0.00     0.018 C 
ENDBRANCH   1   8
TORSDOF 1
ENDMDL
