MODEL 1
REMARK minimizedAffinity -4.15784025
REMARK minimizedRMSD -1
REMARK  1 active torsions:
REMARK  status: ('A' for Active; 'I' for Inactive)
REMARK    1  A    between atoms: C1_2  and  C2_3 
ROOT
ATOM      1  C2  UNL d   1      -0.416   0.232  -0.473  0.00  0.00    -0.081 A 
ATOM      2  C3  UNL d   1      -0.995   0.151   0.799  0.00  0.00     0.006 A 
ATOM      3  C4  UNL d   1      -0.251  -0.308   1.889  0.00  0.00     0.002 A 
ATOM      4  C5  UNL d   1       1.086  -0.686   1.726  0.00  0.00    -0.080 A 
ATOM      5  C6  UNL d   1       1.905  -1.151   2.893  0.00  0.00     0.076 C 
ATOM      6  C7  UNL d   1       1.660  -0.621   0.451  0.00  0.00     0.002 A 
ATOM      7  C8  UNL d   1       0.916  -0.163  -0.638  0.00  0.00     0.006 A 
ENDROOT
BRANCH   1   8
ATOM      8  C1  UNL d   1      -1.197   0.788  -1.637  0.00  0.00     0.054 C 
ATOM      9  C   UNL d   1      -0.780   2.217  -1.951  0.00  0.00     0.018 C 
ENDBRANCH   1   8
TORSDOF 1
ENDMDL
