MODEL 1
REMARK minimizedAffinity -4.27588272
REMARK minimizedRMSD -1
REMARK  1 active torsions:
REMARK  status: ('A' for Active; 'I' for Inactive)
REMARK    1  A    between atoms: C1_2  and  C2_3 
ROOT
ATOM      1  C2  UNL d   1      -0.432   0.744  -0.487  0.00  0.00    -0.081 A 
ATOM      2  C3  UNL d   1      -1.126   0.849   0.725  0.00  0.00     0.006 A 
ATOM      3  C4  UNL d   1      -0.607   0.281   1.890  0.00  0.00     0.002 A 
ATOM      4  C5  UNL d   1       0.618  -0.396   1.865  0.00  0.00    -0.080 A 
ATOM      5  C6  UNL d   1       1.201  -0.985   3.115  0.00  0.00     0.076 C 
ATOM      6  C7  UNL d   1       1.302  -0.516   0.651  0.00  0.00     0.002 A 
ATOM      7  C8  UNL d   1       0.783   0.051  -0.514  0.00  0.00     0.006 A 
ENDROOT
BRANCH   1   8
ATOM      8  C1  UNL d   1      -0.958   1.412  -1.732  0.00  0.00     0.054 C 
ATOM      9  C   UNL d   1      -0.356   2.798  -1.912  0.00  0.00     0.018 C 
ENDBRANCH   1   8
TORSDOF 1
ENDMDL
