MODEL 1
REMARK minimizedAffinity 2.06552815
REMARK minimizedRMSD -1
REMARK  0 active torsions:
REMARK  status: ('A' for Active; 'I' for Inactive)
ROOT
ATOM      1  C   UNL d   1      -3.104   1.850   3.636  0.00  0.00     0.077 C 
ATOM      2  C1  UNL d   1      -1.851   1.686   2.828  0.00  0.00    -0.074 A 
ATOM      3  C2  UNL d   1      -1.436   2.679   1.935  0.00  0.00    -0.005 A 
ATOM      4  C3  UNL d   1      -0.264   2.517   1.197  0.00  0.00     0.006 A 
ATOM      5  C4  UNL d   1       0.505   1.362   1.345  0.00  0.00    -0.005 A 
ATOM      6  C5  UNL d   1       0.107   0.358   2.234  0.00  0.00    -0.074 A 
ATOM      7  C6  UNL d   1       0.926  -0.885   2.411  0.00  0.00     0.077 C 
ATOM      8  C7  UNL d   1      -1.069   0.532   2.977  0.00  0.00    -0.001 A 
ENDROOT
TORSDOF 0
ENDMDL
