MODEL 1
REMARK minimizedAffinity 6.02155542
REMARK minimizedRMSD -1
REMARK  0 active torsions:
REMARK  status: ('A' for Active; 'I' for Inactive)
ROOT
ATOM      1  C   UNL d   1       1.008   1.466  -1.142  0.00  0.00     0.077 C 
ATOM      2  C1  UNL d   1       0.545   1.233   0.266  0.00  0.00    -0.074 A 
ATOM      3  C2  UNL d   1       0.396   2.299   1.159  0.00  0.00    -0.005 A 
ATOM      4  C3  UNL d   1      -0.045   2.068   2.462  0.00  0.00     0.006 A 
ATOM      5  C4  UNL d   1      -0.339   0.771   2.885  0.00  0.00    -0.005 A 
ATOM      6  C5  UNL d   1      -0.196  -0.307   2.006  0.00  0.00    -0.074 A 
ATOM      7  C6  UNL d   1      -0.518  -1.706   2.441  0.00  0.00     0.077 C 
ATOM      8  C7  UNL d   1       0.240  -0.066   0.696  0.00  0.00    -0.001 A 
ENDROOT
TORSDOF 0
ENDMDL
