MODEL 1
REMARK minimizedAffinity 0.32707116
REMARK minimizedRMSD -1
REMARK  0 active torsions:
REMARK  status: ('A' for Active; 'I' for Inactive)
ROOT
ATOM      1  C   UNL d   1      -0.594   2.674   2.024  0.00  0.00     0.077 C 
ATOM      2  C1  UNL d   1      -1.766   1.942   2.608  0.00  0.00    -0.074 A 
ATOM      3  C2  UNL d   1      -2.065   0.634   2.213  0.00  0.00    -0.005 A 
ATOM      4  C3  UNL d   1      -3.153  -0.038   2.772  0.00  0.00     0.006 A 
ATOM      5  C4  UNL d   1      -3.951   0.591   3.728  0.00  0.00    -0.005 A 
ATOM      6  C5  UNL d   1      -3.666   1.898   4.136  0.00  0.00    -0.074 A 
ATOM      7  C6  UNL d   1      -4.508   2.585   5.170  0.00  0.00     0.077 C 
ATOM      8  C7  UNL d   1      -2.568   2.564   3.575  0.00  0.00    -0.001 A 
ENDROOT
TORSDOF 0
ENDMDL
