MODEL 1
REMARK minimizedAffinity 3.68352294
REMARK minimizedRMSD -1
REMARK  0 active torsions:
REMARK  status: ('A' for Active; 'I' for Inactive)
ROOT
ATOM      1  C   UNL d   1      -6.000   5.308   5.703  0.00  0.00     0.077 C 
ATOM      2  C1  UNL d   1      -5.403   3.957   5.443  0.00  0.00    -0.074 A 
ATOM      3  C2  UNL d   1      -5.966   2.804   5.999  0.00  0.00    -0.005 A 
ATOM      4  C3  UNL d   1      -5.406   1.553   5.740  0.00  0.00     0.006 A 
ATOM      5  C4  UNL d   1      -4.279   1.443   4.924  0.00  0.00    -0.005 A 
ATOM      6  C5  UNL d   1      -3.703   2.585   4.359  0.00  0.00    -0.074 A 
ATOM      7  C6  UNL d   1      -2.498   2.483   3.472  0.00  0.00     0.077 C 
ATOM      8  C7  UNL d   1      -4.276   3.837   4.618  0.00  0.00    -0.001 A 
ENDROOT
TORSDOF 0
ENDMDL
