MODEL 1
REMARK minimizedAffinity 3.2700243
REMARK minimizedRMSD -1
REMARK  0 active torsions:
REMARK  status: ('A' for Active; 'I' for Inactive)
ROOT
ATOM      1  C   UNL d   1      -1.462   3.093   1.745  0.00  0.00     0.077 C 
ATOM      2  C1  UNL d   1      -0.709   1.801   1.638  0.00  0.00    -0.074 A 
ATOM      3  C2  UNL d   1      -1.112   0.672   2.359  0.00  0.00    -0.005 A 
ATOM      4  C3  UNL d   1      -0.407  -0.526   2.242  0.00  0.00     0.006 A 
ATOM      5  C4  UNL d   1       0.706  -0.607   1.404  0.00  0.00    -0.005 A 
ATOM      6  C5  UNL d   1       1.123   0.511   0.675  0.00  0.00    -0.074 A 
ATOM      7  C6  UNL d   1       2.311   0.437  -0.238  0.00  0.00     0.077 C 
ATOM      8  C7  UNL d   1       0.405   1.709   0.793  0.00  0.00    -0.001 A 
ENDROOT
TORSDOF 0
ENDMDL
