MODEL 1
REMARK minimizedAffinity -0.290702879
REMARK minimizedRMSD -1
REMARK  0 active torsions:
REMARK  status: ('A' for Active; 'I' for Inactive)
ROOT
ATOM      1  C   UNL d   1      -1.642  -1.806   2.323  0.00  0.00     0.077 C 
ATOM      2  C1  UNL d   1      -1.229  -0.422   1.917  0.00  0.00    -0.074 A 
ATOM      3  C2  UNL d   1      -1.932   0.699   2.368  0.00  0.00    -0.005 A 
ATOM      4  C3  UNL d   1      -1.530   1.980   1.989  0.00  0.00     0.006 A 
ATOM      5  C4  UNL d   1      -0.424   2.152   1.157  0.00  0.00    -0.005 A 
ATOM      6  C5  UNL d   1       0.292   1.042   0.696  0.00  0.00    -0.074 A 
ATOM      7  C6  UNL d   1       1.490   1.210  -0.191  0.00  0.00     0.077 C 
ATOM      8  C7  UNL d   1      -0.114  -0.241   1.087  0.00  0.00    -0.001 A 
ENDROOT
TORSDOF 0
ENDMDL
