MODEL 1
REMARK minimizedAffinity -2.56042528
REMARK minimizedRMSD -1
REMARK  0 active torsions:
REMARK  status: ('A' for Active; 'I' for Inactive)
ROOT
ATOM      1  C   UNL d   1      -2.972   2.076   3.305  0.00  0.00     0.077 C 
ATOM      2  C1  UNL d   1      -1.817   1.407   2.621  0.00  0.00    -0.074 A 
ATOM      3  C2  UNL d   1      -0.915   2.143   1.846  0.00  0.00    -0.005 A 
ATOM      4  C3  UNL d   1       0.159   1.508   1.224  0.00  0.00     0.006 A 
ATOM      5  C4  UNL d   1       0.343   0.133   1.370  0.00  0.00    -0.005 A 
ATOM      6  C5  UNL d   1      -0.548  -0.620   2.142  0.00  0.00    -0.074 A 
ATOM      7  C6  UNL d   1      -0.359  -2.098   2.317  0.00  0.00     0.077 C 
ATOM      8  C7  UNL d   1      -1.621   0.026   2.769  0.00  0.00    -0.001 A 
ENDROOT
TORSDOF 0
ENDMDL
