MODEL 1
REMARK minimizedAffinity -0.863216579
REMARK minimizedRMSD -1
REMARK  0 active torsions:
REMARK  status: ('A' for Active; 'I' for Inactive)
ROOT
ATOM      1  C   UNL d   1       1.068   0.810   0.563  0.00  0.00     0.077 C 
ATOM      2  C1  UNL d   1      -0.210   0.555   1.306  0.00  0.00    -0.074 A 
ATOM      3  C2  UNL d   1      -0.734  -0.738   1.413  0.00  0.00    -0.005 A 
ATOM      4  C3  UNL d   1      -1.918  -0.961   2.115  0.00  0.00     0.006 A 
ATOM      5  C4  UNL d   1      -2.589   0.104   2.717  0.00  0.00    -0.005 A 
ATOM      6  C5  UNL d   1      -2.080   1.403   2.622  0.00  0.00    -0.074 A 
ATOM      7  C6  UNL d   1      -2.783   2.558   3.272  0.00  0.00     0.077 C 
ATOM      8  C7  UNL d   1      -0.886   1.618   1.921  0.00  0.00    -0.001 A 
ENDROOT
TORSDOF 0
ENDMDL
