MODEL 1
REMARK minimizedAffinity -0.306934148
REMARK minimizedRMSD -1
REMARK  0 active torsions:
REMARK  status: ('A' for Active; 'I' for Inactive)
ROOT
ATOM      1  C   UNL d   1       1.693   0.343   0.410  0.00  0.00     0.077 C 
ATOM      2  C1  UNL d   1       0.322   0.391   1.016  0.00  0.00    -0.074 A 
ATOM      3  C2  UNL d   1      -0.436  -0.774   1.174  0.00  0.00    -0.005 A 
ATOM      4  C3  UNL d   1      -1.706  -0.714   1.747  0.00  0.00     0.006 A 
ATOM      5  C4  UNL d   1      -2.230   0.508   2.168  0.00  0.00    -0.005 A 
ATOM      6  C5  UNL d   1      -1.487   1.684   2.019  0.00  0.00    -0.074 A 
ATOM      7  C6  UNL d   1      -2.031   3.005   2.475  0.00  0.00     0.077 C 
ATOM      8  C7  UNL d   1      -0.208   1.615   1.448  0.00  0.00    -0.001 A 
ENDROOT
TORSDOF 0
ENDMDL
