MODEL 1
REMARK minimizedAffinity 6.36062717
REMARK minimizedRMSD -1
REMARK  0 active torsions:
REMARK  status: ('A' for Active; 'I' for Inactive)
ROOT
ATOM      1  C   UNL d   1      -1.592   3.099   2.608  0.00  0.00     0.077 C 
ATOM      2  C1  UNL d   1      -0.789   1.966   2.042  0.00  0.00    -0.074 A 
ATOM      3  C2  UNL d   1       0.181   2.192   1.060  0.00  0.00    -0.005 A 
ATOM      4  C3  UNL d   1       0.926   1.130   0.550  0.00  0.00     0.006 A 
ATOM      5  C4  UNL d   1       0.710  -0.168   1.015  0.00  0.00    -0.005 A 
ATOM      6  C5  UNL d   1      -0.255  -0.413   1.997  0.00  0.00    -0.074 A 
ATOM      7  C6  UNL d   1      -0.493  -1.800   2.516  0.00  0.00     0.077 C 
ATOM      8  C7  UNL d   1      -0.995   0.661   2.510  0.00  0.00    -0.001 A 
ENDROOT
TORSDOF 0
ENDMDL
