MODEL 1
REMARK minimizedAffinity -0.819051862
REMARK minimizedRMSD -1
REMARK  0 active torsions:
REMARK  status: ('A' for Active; 'I' for Inactive)
ROOT
ATOM      1  C   UNL d   1      -2.996   2.248   3.021  0.00  0.00     0.077 C 
ATOM      2  C1  UNL d   1      -1.808   1.585   2.389  0.00  0.00    -0.074 A 
ATOM      3  C2  UNL d   1      -0.808   2.342   1.770  0.00  0.00    -0.005 A 
ATOM      4  C3  UNL d   1       0.296   1.712   1.195  0.00  0.00     0.006 A 
ATOM      5  C4  UNL d   1       0.411   0.322   1.233  0.00  0.00    -0.005 A 
ATOM      6  C5  UNL d   1      -0.579  -0.451   1.849  0.00  0.00    -0.074 A 
ATOM      7  C6  UNL d   1      -0.466  -1.945   1.907  0.00  0.00     0.077 C 
ATOM      8  C7  UNL d   1      -1.682   0.190   2.430  0.00  0.00    -0.001 A 
ENDROOT
TORSDOF 0
ENDMDL
