MODEL 1
REMARK minimizedAffinity -0.473849982
REMARK minimizedRMSD -1
REMARK  0 active torsions:
REMARK  status: ('A' for Active; 'I' for Inactive)
ROOT
ATOM      1  C   UNL d   1      -0.389  -0.821   1.733  0.00  0.00     0.077 C 
ATOM      2  C1  UNL d   1      -1.040   0.502   2.008  0.00  0.00    -0.074 A 
ATOM      3  C2  UNL d   1      -0.549   1.678   1.432  0.00  0.00    -0.005 A 
ATOM      4  C3  UNL d   1      -1.170   2.900   1.689  0.00  0.00     0.006 A 
ATOM      5  C4  UNL d   1      -2.287   2.959   2.524  0.00  0.00    -0.005 A 
ATOM      6  C5  UNL d   1      -2.792   1.793   3.108  0.00  0.00    -0.074 A 
ATOM      7  C6  UNL d   1      -3.997   1.837   4.000  0.00  0.00     0.077 C 
ATOM      8  C7  UNL d   1      -2.167   0.568   2.840  0.00  0.00    -0.001 A 
ENDROOT
TORSDOF 0
ENDMDL
