MODEL 1
REMARK minimizedAffinity -4.30269575
REMARK minimizedRMSD -1
REMARK  0 active torsions:
REMARK  status: ('A' for Active; 'I' for Inactive)
ROOT
ATOM      1  C   UNL d   1       1.244   0.364   0.442  0.00  0.00     0.077 C 
ATOM      2  C1  UNL d   1      -0.039   0.298   1.215  0.00  0.00    -0.074 A 
ATOM      3  C2  UNL d   1      -0.608  -0.933   1.560  0.00  0.00    -0.005 A 
ATOM      4  C3  UNL d   1      -1.797  -0.978   2.287  0.00  0.00     0.006 A 
ATOM      5  C4  UNL d   1      -2.429   0.203   2.677  0.00  0.00    -0.005 A 
ATOM      6  C5  UNL d   1      -1.874   1.443   2.342  0.00  0.00    -0.074 A 
ATOM      7  C6  UNL d   1      -2.535   2.723   2.760  0.00  0.00     0.077 C 
ATOM      8  C7  UNL d   1      -0.676   1.481   1.616  0.00  0.00    -0.001 A 
ENDROOT
TORSDOF 0
ENDMDL
