MODEL 1
REMARK minimizedAffinity -0.300893635
REMARK minimizedRMSD -1
REMARK  3 active torsions:
REMARK  status: ('A' for Active; 'I' for Inactive)
REMARK    1  A    between atoms: C3'_2  and  C2'_3 
REMARK    2  A    between atoms: C2'_3  and  C1'_4 
REMARK    3  A    between atoms: C1'_4  and  C1_5 
ROOT
ATOM      1  C1  N4B d   1       0.719   4.211  -5.914  0.00  0.00    -0.075 A 
ATOM      2  C2  N4B d   1      -0.638   4.601  -5.866  0.00  0.00     0.002 A 
ATOM      3  C3  N4B d   1      -1.627   3.649  -5.887  0.00  0.00     0.002 A 
ATOM      4  C4  N4B d   1      -1.286   2.308  -5.975  0.00  0.00    -0.004 A 
ATOM      5  C5  N4B d   1       0.027   1.938  -5.995  0.00  0.00     0.002 A 
ATOM      6  C6  N4B d   1       1.032   2.884  -5.970  0.00  0.00     0.002 A 
ENDROOT
BRANCH   1   7
ATOM      7  C1' N4B d   1       1.833   5.220  -5.979  0.00  0.00     0.057 C 
BRANCH   7   8
ATOM      8  C2' N4B d   1       3.171   4.487  -5.996  0.00  0.00     0.009 C 
BRANCH   8   9
ATOM      9  C3' N4B d   1       4.346   5.449  -5.989  0.00  0.00     0.004 C 
ATOM     10  C4' N4B d   1       5.663   4.757  -5.797  0.00  0.00     0.003 C 
ENDBRANCH   8   9
ENDBRANCH   7   8
ENDBRANCH   1   7
TORSDOF 3
ENDMDL
