MODEL 1
REMARK minimizedAffinity -2.3684268
REMARK minimizedRMSD -1
REMARK  3 active torsions:
REMARK  status: ('A' for Active; 'I' for Inactive)
REMARK    1  A    between atoms: C3'_2  and  C2'_3 
REMARK    2  A    between atoms: C2'_3  and  C1'_4 
REMARK    3  A    between atoms: C1'_4  and  C1_5 
ROOT
ATOM      1  C1  N4B d   1      -1.358   3.314  -5.913  0.00  0.00    -0.075 A 
ATOM      2  C2  N4B d   1      -1.237   4.721  -5.922  0.00  0.00     0.002 A 
ATOM      3  C3  N4B d   1      -2.364   5.506  -5.955  0.00  0.00     0.002 A 
ATOM      4  C4  N4B d   1      -3.615   4.910  -5.999  0.00  0.00    -0.004 A 
ATOM      5  C5  N4B d   1      -3.723   3.550  -5.964  0.00  0.00     0.002 A 
ATOM      6  C6  N4B d   1      -2.600   2.749  -5.927  0.00  0.00     0.002 A 
ENDROOT
BRANCH   1   7
ATOM      7  C1' N4B d   1      -0.154   2.414  -5.964  0.00  0.00     0.057 C 
BRANCH   7   8
ATOM      8  C2' N4B d   1       0.970   3.034  -5.139  0.00  0.00     0.009 C 
BRANCH   8   9
ATOM      9  C3' N4B d   1       2.166   3.409  -5.998  0.00  0.00     0.004 C 
ATOM     10  C4' N4B d   1       2.440   4.883  -5.999  0.00  0.00     0.003 C 
ENDBRANCH   8   9
ENDBRANCH   7   8
ENDBRANCH   1   7
TORSDOF 3
ENDMDL
