MODEL 1
REMARK minimizedAffinity 4.23450947
REMARK minimizedRMSD -1
REMARK  3 active torsions:
REMARK  status: ('A' for Active; 'I' for Inactive)
REMARK    1  A    between atoms: C3'_2  and  C2'_3 
REMARK    2  A    between atoms: C2'_3  and  C1'_4 
REMARK    3  A    between atoms: C1'_4  and  C1_5 
ROOT
ATOM      1  C1  N4B d   1      -0.417   3.151  -5.293  0.00  0.00    -0.075 A 
ATOM      2  C2  N4B d   1      -1.653   2.471  -5.359  0.00  0.00     0.002 A 
ATOM      3  C3  N4B d   1      -2.792   3.149  -5.717  0.00  0.00     0.002 A 
ATOM      4  C4  N4B d   1      -2.724   4.506  -5.994  0.00  0.00    -0.004 A 
ATOM      5  C5  N4B d   1      -1.522   5.150  -5.953  0.00  0.00     0.002 A 
ATOM      6  C6  N4B d   1      -0.368   4.480  -5.599  0.00  0.00     0.002 A 
ENDROOT
BRANCH   1   7
ATOM      7  C1' N4B d   1       0.840   2.471  -4.824  0.00  0.00     0.057 C 
BRANCH   7   8
ATOM      8  C2' N4B d   1       0.594   1.858  -3.448  0.00  0.00     0.009 C 
BRANCH   8   9
ATOM      9  C3' N4B d   1       1.576   2.376  -2.412  0.00  0.00     0.004 C 
ATOM     10  C4' N4B d   1       0.921   2.697  -1.101  0.00  0.00     0.003 C 
ENDBRANCH   8   9
ENDBRANCH   7   8
ENDBRANCH   1   7
TORSDOF 3
ENDMDL
