MODEL 1
REMARK minimizedAffinity 2.07448387
REMARK minimizedRMSD -1
REMARK  3 active torsions:
REMARK  status: ('A' for Active; 'I' for Inactive)
REMARK    1  A    between atoms: C3'_2  and  C2'_3 
REMARK    2  A    between atoms: C2'_3  and  C1'_4 
REMARK    3  A    between atoms: C1'_4  and  C1_5 
ROOT
ATOM      1  C1  N4B d   1      -1.195   3.480  -5.919  0.00  0.00    -0.075 A 
ATOM      2  C2  N4B d   1      -0.946   4.869  -5.970  0.00  0.00     0.002 A 
ATOM      3  C3  N4B d   1      -1.996   5.754  -5.995  0.00  0.00     0.002 A 
ATOM      4  C4  N4B d   1      -3.298   5.275  -5.990  0.00  0.00    -0.004 A 
ATOM      5  C5  N4B d   1      -3.530   3.933  -5.915  0.00  0.00     0.002 A 
ATOM      6  C6  N4B d   1      -2.484   3.032  -5.885  0.00  0.00     0.002 A 
ENDROOT
BRANCH   1   7
ATOM      7  C1' N4B d   1      -0.081   2.471  -5.976  0.00  0.00     0.057 C 
BRANCH   7   8
ATOM      8  C2' N4B d   1       1.258   3.202  -5.955  0.00  0.00     0.009 C 
BRANCH   8   9
ATOM      9  C3' N4B d   1       2.432   2.239  -5.997  0.00  0.00     0.004 C 
ATOM     10  C4' N4B d   1       3.758   2.939  -5.999  0.00  0.00     0.003 C 
ENDBRANCH   8   9
ENDBRANCH   7   8
ENDBRANCH   1   7
TORSDOF 3
ENDMDL
