MODEL 1
REMARK minimizedAffinity 9.02597141
REMARK minimizedRMSD -1
REMARK  3 active torsions:
REMARK  status: ('A' for Active; 'I' for Inactive)
REMARK    1  A    between atoms: C3'_2  and  C2'_3 
REMARK    2  A    between atoms: C2'_3  and  C1'_4 
REMARK    3  A    between atoms: C1'_4  and  C1_5 
ROOT
ATOM      1  C1  N4B d   1      -1.245   3.488  -5.985  0.00  0.00    -0.075 A 
ATOM      2  C2  N4B d   1      -2.620   3.167  -5.991  0.00  0.00     0.002 A 
ATOM      3  C3  N4B d   1      -3.560   4.169  -5.997  0.00  0.00     0.002 A 
ATOM      4  C4  N4B d   1      -3.150   5.493  -5.979  0.00  0.00    -0.004 A 
ATOM      5  C5  N4B d   1      -1.819   5.795  -6.000  0.00  0.00     0.002 A 
ATOM      6  C6  N4B d   1      -0.864   4.799  -5.998  0.00  0.00     0.002 A 
ENDROOT
BRANCH   1   7
ATOM      7  C1' N4B d   1      -0.182   2.428  -5.892  0.00  0.00     0.057 C 
BRANCH   7   8
ATOM      8  C2' N4B d   1       0.866   2.859  -4.871  0.00  0.00     0.009 C 
BRANCH   8   9
ATOM      9  C3' N4B d   1       0.412   2.598  -3.445  0.00  0.00     0.004 C 
ATOM     10  C4' N4B d   1       1.501   2.032  -2.583  0.00  0.00     0.003 C 
ENDBRANCH   8   9
ENDBRANCH   7   8
ENDBRANCH   1   7
TORSDOF 3
ENDMDL
