MODEL 1
REMARK minimizedAffinity 1.93663132
REMARK minimizedRMSD -1
REMARK  3 active torsions:
REMARK  status: ('A' for Active; 'I' for Inactive)
REMARK    1  A    between atoms: C3'_2  and  C2'_3 
REMARK    2  A    between atoms: C2'_3  and  C1'_4 
REMARK    3  A    between atoms: C1'_4  and  C1_5 
ROOT
ATOM      1  C1  N4B d   1      -1.031   4.320  -5.911  0.00  0.00    -0.075 A 
ATOM      2  C2  N4B d   1      -1.769   3.117  -5.958  0.00  0.00     0.002 A 
ATOM      3  C3  N4B d   1      -3.141   3.155  -5.988  0.00  0.00     0.002 A 
ATOM      4  C4  N4B d   1      -3.795   4.377  -5.952  0.00  0.00    -0.004 A 
ATOM      5  C5  N4B d   1      -3.074   5.535  -5.932  0.00  0.00     0.002 A 
ATOM      6  C6  N4B d   1      -1.694   5.513  -5.906  0.00  0.00     0.002 A 
ENDROOT
BRANCH   1   7
ATOM      7  C1' N4B d   1       0.469   4.328  -5.790  0.00  0.00     0.057 C 
BRANCH   7   8
ATOM      8  C2' N4B d   1       0.927   3.018  -5.155  0.00  0.00     0.009 C 
BRANCH   8   9
ATOM      9  C3' N4B d   1       2.025   2.348  -5.963  0.00  0.00     0.004 C 
ATOM     10  C4' N4B d   1       1.933   0.851  -5.938  0.00  0.00     0.003 C 
ENDBRANCH   8   9
ENDBRANCH   7   8
ENDBRANCH   1   7
TORSDOF 3
ENDMDL
