MODEL 1
REMARK minimizedAffinity 0.543755293
REMARK minimizedRMSD -1
REMARK  3 active torsions:
REMARK  status: ('A' for Active; 'I' for Inactive)
REMARK    1  A    between atoms: C3'_2  and  C2'_3 
REMARK    2  A    between atoms: C2'_3  and  C1'_4 
REMARK    3  A    between atoms: C1'_4  and  C1_5 
ROOT
ATOM      1  C1  N4B d   1      -1.906   3.723  -5.918  0.00  0.00    -0.075 A 
ATOM      2  C2  N4B d   1      -3.246   3.292  -5.809  0.00  0.00     0.002 A 
ATOM      3  C3  N4B d   1      -4.254   4.214  -5.661  0.00  0.00     0.002 A 
ATOM      4  C4  N4B d   1      -3.944   5.564  -5.600  0.00  0.00    -0.004 A 
ATOM      5  C5  N4B d   1      -2.650   5.974  -5.732  0.00  0.00     0.002 A 
ATOM      6  C6  N4B d   1      -1.628   5.059  -5.886  0.00  0.00     0.002 A 
ENDROOT
BRANCH   1   7
ATOM      7  C1' N4B d   1      -0.762   2.749  -5.995  0.00  0.00     0.057 C 
BRANCH   7   8
ATOM      8  C2' N4B d   1       0.554   3.512  -5.884  0.00  0.00     0.009 C 
BRANCH   8   9
ATOM      9  C3' N4B d   1       1.752   2.578  -5.861  0.00  0.00     0.004 C 
ATOM     10  C4' N4B d   1       3.057   3.304  -5.997  0.00  0.00     0.003 C 
ENDBRANCH   8   9
ENDBRANCH   7   8
ENDBRANCH   1   7
TORSDOF 3
ENDMDL
