MODEL 1
REMARK minimizedAffinity 0.234066203
REMARK minimizedRMSD -1
REMARK  3 active torsions:
REMARK  status: ('A' for Active; 'I' for Inactive)
REMARK    1  A    between atoms: C3'_2  and  C2'_3 
REMARK    2  A    between atoms: C2'_3  and  C1'_4 
REMARK    3  A    between atoms: C1'_4  and  C1_5 
ROOT
ATOM      1  C1  N4B d   1       0.680   4.520  -5.819  0.00  0.00    -0.075 A 
ATOM      2  C2  N4B d   1      -0.597   5.115  -5.717  0.00  0.00     0.002 A 
ATOM      3  C3  N4B d   1      -1.722   4.328  -5.705  0.00  0.00     0.002 A 
ATOM      4  C4  N4B d   1      -1.597   2.951  -5.812  0.00  0.00    -0.004 A 
ATOM      5  C5  N4B d   1      -0.359   2.382  -5.884  0.00  0.00     0.002 A 
ATOM      6  C6  N4B d   1       0.781   3.161  -5.893  0.00  0.00     0.002 A 
ENDROOT
BRANCH   1   7
ATOM      7  C1' N4B d   1       1.934   5.344  -5.923  0.00  0.00     0.057 C 
BRANCH   7   8
ATOM      8  C2' N4B d   1       3.140   4.412  -6.000  0.00  0.00     0.009 C 
BRANCH   8   9
ATOM      9  C3' N4B d   1       4.452   5.179  -5.982  0.00  0.00     0.004 C 
ATOM     10  C4' N4B d   1       5.588   4.373  -5.426  0.00  0.00     0.003 C 
ENDBRANCH   8   9
ENDBRANCH   7   8
ENDBRANCH   1   7
TORSDOF 3
ENDMDL
