MODEL 1
REMARK minimizedAffinity 2.56447649
REMARK minimizedRMSD -1
REMARK  3 active torsions:
REMARK  status: ('A' for Active; 'I' for Inactive)
REMARK    1  A    between atoms: C3'_2  and  C2'_3 
REMARK    2  A    between atoms: C2'_3  and  C1'_4 
REMARK    3  A    between atoms: C1'_4  and  C1_5 
ROOT
ATOM      1  C1  N4B d   1      -0.440   4.617  -5.942  0.00  0.00    -0.075 A 
ATOM      2  C2  N4B d   1      -0.921   3.290  -5.978  0.00  0.00     0.002 A 
ATOM      3  C3  N4B d   1      -2.273   3.048  -5.943  0.00  0.00     0.002 A 
ATOM      4  C4  N4B d   1      -3.157   4.113  -5.854  0.00  0.00    -0.004 A 
ATOM      5  C5  N4B d   1      -2.685   5.393  -5.846  0.00  0.00     0.002 A 
ATOM      6  C6  N4B d   1      -1.330   5.650  -5.885  0.00  0.00     0.002 A 
ENDROOT
BRANCH   1   7
ATOM      7  C1' N4B d   1       1.031   4.927  -5.892  0.00  0.00     0.057 C 
BRANCH   7   8
ATOM      8  C2' N4B d   1       1.821   3.625  -5.987  0.00  0.00     0.009 C 
BRANCH   8   9
ATOM      9  C3' N4B d   1       3.320   3.869  -5.997  0.00  0.00     0.004 C 
ATOM     10  C4' N4B d   1       4.115   2.612  -5.807  0.00  0.00     0.003 C 
ENDBRANCH   8   9
ENDBRANCH   7   8
ENDBRANCH   1   7
TORSDOF 3
ENDMDL
