MODEL 1
REMARK minimizedAffinity 0.604160905
REMARK minimizedRMSD -1
REMARK  3 active torsions:
REMARK  status: ('A' for Active; 'I' for Inactive)
REMARK    1  A    between atoms: C3'_2  and  C2'_3 
REMARK    2  A    between atoms: C2'_3  and  C1'_4 
REMARK    3  A    between atoms: C1'_4  and  C1_5 
ROOT
ATOM      1  C1  N4B d   1      -1.715   4.020  -5.936  0.00  0.00    -0.075 A 
ATOM      2  C2  N4B d   1      -1.899   5.420  -5.961  0.00  0.00     0.002 A 
ATOM      3  C3  N4B d   1      -3.168   5.945  -5.983  0.00  0.00     0.002 A 
ATOM      4  C4  N4B d   1      -4.263   5.093  -6.000  0.00  0.00    -0.004 A 
ATOM      5  C5  N4B d   1      -4.076   3.743  -5.950  0.00  0.00     0.002 A 
ATOM      6  C6  N4B d   1      -2.807   3.201  -5.924  0.00  0.00     0.002 A 
ENDROOT
BRANCH   1   7
ATOM      7  C1' N4B d   1      -0.347   3.398  -5.999  0.00  0.00     0.057 C 
BRANCH   7   8
ATOM      8  C2' N4B d   1       0.707   4.500  -5.945  0.00  0.00     0.009 C 
BRANCH   8   9
ATOM      9  C3' N4B d   1       2.118   3.939  -5.997  0.00  0.00     0.004 C 
ATOM     10  C4' N4B d   1       2.148   2.440  -5.999  0.00  0.00     0.003 C 
ENDBRANCH   8   9
ENDBRANCH   7   8
ENDBRANCH   1   7
TORSDOF 3
ENDMDL
