MODEL 1
REMARK minimizedAffinity 9.68430424
REMARK minimizedRMSD -1
REMARK  3 active torsions:
REMARK  status: ('A' for Active; 'I' for Inactive)
REMARK    1  A    between atoms: C3'_2  and  C2'_3 
REMARK    2  A    between atoms: C2'_3  and  C1'_4 
REMARK    3  A    between atoms: C1'_4  and  C1_5 
ROOT
ATOM      1  C1  N4B d   1       3.334   4.339  -0.736  0.00  0.00    -0.075 A 
ATOM      2  C2  N4B d   1       1.942   4.447  -0.530  0.00  0.00     0.002 A 
ATOM      3  C3  N4B d   1       1.081   3.619  -1.209  0.00  0.00     0.002 A 
ATOM      4  C4  N4B d   1       1.587   2.694  -2.110  0.00  0.00    -0.004 A 
ATOM      5  C5  N4B d   1       2.935   2.579  -2.284  0.00  0.00     0.002 A 
ATOM      6  C6  N4B d   1       3.812   3.401  -1.606  0.00  0.00     0.002 A 
ENDROOT
BRANCH   1   7
ATOM      7  C1' N4B d   1       4.309   5.279  -0.082  0.00  0.00     0.057 C 
BRANCH   7   8
ATOM      8  C2' N4B d   1       5.401   4.468   0.609  0.00  0.00     0.009 C 
BRANCH   8   9
ATOM      9  C3' N4B d   1       5.320   4.577   2.122  0.00  0.00     0.004 C 
ATOM     10  C4' N4B d   1       5.013   3.267   2.784  0.00  0.00     0.003 C 
ENDBRANCH   8   9
ENDBRANCH   7   8
ENDBRANCH   1   7
TORSDOF 3
ENDMDL
