MODEL 1
REMARK minimizedAffinity -0.919128239
REMARK minimizedRMSD -1
REMARK  3 active torsions:
REMARK  status: ('A' for Active; 'I' for Inactive)
REMARK    1  A    between atoms: C3'_2  and  C2'_3 
REMARK    2  A    between atoms: C2'_3  and  C1'_4 
REMARK    3  A    between atoms: C1'_4  and  C1_5 
ROOT
ATOM      1  C1  N4B d   1       0.780   4.522  -5.842  0.00  0.00    -0.075 A 
ATOM      2  C2  N4B d   1      -0.576   4.898  -5.969  0.00  0.00     0.002 A 
ATOM      3  C3  N4B d   1      -1.559   3.939  -5.948  0.00  0.00     0.002 A 
ATOM      4  C4  N4B d   1      -1.211   2.603  -5.819  0.00  0.00    -0.004 A 
ATOM      5  C5  N4B d   1       0.099   2.250  -5.671  0.00  0.00     0.002 A 
ATOM      6  C6  N4B d   1       1.097   3.204  -5.687  0.00  0.00     0.002 A 
ENDROOT
BRANCH   1   7
ATOM      7  C1' N4B d   1       1.895   5.526  -5.946  0.00  0.00     0.057 C 
BRANCH   7   8
ATOM      8  C2' N4B d   1       3.230   4.788  -5.994  0.00  0.00     0.009 C 
BRANCH   8   9
ATOM      9  C3' N4B d   1       4.409   5.744  -5.943  0.00  0.00     0.004 C 
ATOM     10  C4' N4B d   1       5.717   5.042  -5.726  0.00  0.00     0.003 C 
ENDBRANCH   8   9
ENDBRANCH   7   8
ENDBRANCH   1   7
TORSDOF 3
ENDMDL
