MODEL 1
REMARK minimizedAffinity -1.42738008
REMARK minimizedRMSD -1
REMARK  3 active torsions:
REMARK  status: ('A' for Active; 'I' for Inactive)
REMARK    1  A    between atoms: C3'_2  and  C2'_3 
REMARK    2  A    between atoms: C2'_3  and  C1'_4 
REMARK    3  A    between atoms: C1'_4  and  C1_5 
ROOT
ATOM      1  C1  N4B d   1       0.804   4.545  -5.919  0.00  0.00    -0.075 A 
ATOM      2  C2  N4B d   1      -0.487   5.112  -5.845  0.00  0.00     0.002 A 
ATOM      3  C3  N4B d   1      -1.595   4.300  -5.852  0.00  0.00     0.002 A 
ATOM      4  C4  N4B d   1      -1.437   2.926  -5.952  0.00  0.00    -0.004 A 
ATOM      5  C5  N4B d   1      -0.185   2.385  -5.998  0.00  0.00     0.002 A 
ATOM      6  C6  N4B d   1       0.937   3.189  -5.987  0.00  0.00     0.002 A 
ENDROOT
BRANCH   1   7
ATOM      7  C1' N4B d   1       2.042   5.397  -6.000  0.00  0.00     0.057 C 
BRANCH   7   8
ATOM      8  C2' N4B d   1       3.273   4.507  -5.855  0.00  0.00     0.009 C 
BRANCH   8   9
ATOM      9  C3' N4B d   1       4.564   5.297  -5.983  0.00  0.00     0.004 C 
ATOM     10  C4' N4B d   1       5.771   4.508  -5.570  0.00  0.00     0.003 C 
ENDBRANCH   8   9
ENDBRANCH   7   8
ENDBRANCH   1   7
TORSDOF 3
ENDMDL
