MODEL 1
REMARK minimizedAffinity 3.1750803
REMARK minimizedRMSD -1
REMARK  3 active torsions:
REMARK  status: ('A' for Active; 'I' for Inactive)
REMARK    1  A    between atoms: C3'_2  and  C2'_3 
REMARK    2  A    between atoms: C2'_3  and  C1'_4 
REMARK    3  A    between atoms: C1'_4  and  C1_5 
ROOT
ATOM      1  C1  N4B d   1      -0.252   3.197  -6.000  0.00  0.00    -0.075 A 
ATOM      2  C2  N4B d   1      -1.504   2.544  -5.979  0.00  0.00     0.002 A 
ATOM      3  C3  N4B d   1      -2.662   3.281  -5.939  0.00  0.00     0.002 A 
ATOM      4  C4  N4B d   1      -2.593   4.666  -5.901  0.00  0.00    -0.004 A 
ATOM      5  C5  N4B d   1      -1.380   5.289  -5.947  0.00  0.00     0.002 A 
ATOM      6  C6  N4B d   1      -0.209   4.561  -5.991  0.00  0.00     0.002 A 
ENDROOT
BRANCH   1   7
ATOM      7  C1' N4B d   1       1.043   2.433  -5.957  0.00  0.00     0.057 C 
BRANCH   7   8
ATOM      8  C2' N4B d   1       2.207   3.419  -5.979  0.00  0.00     0.009 C 
BRANCH   8   9
ATOM      9  C3' N4B d   1       3.549   2.715  -5.871  0.00  0.00     0.004 C 
ATOM     10  C4' N4B d   1       4.706   3.670  -5.858  0.00  0.00     0.003 C 
ENDBRANCH   8   9
ENDBRANCH   7   8
ENDBRANCH   1   7
TORSDOF 3
ENDMDL
