MODEL 1
REMARK minimizedAffinity 0.256057501
REMARK minimizedRMSD -1
REMARK  0 active torsions:
REMARK  status: ('A' for Active; 'I' for Inactive)
ROOT
ATOM      1  C1  DEN d   1       0.616   1.178  -2.093  0.00  0.00     0.130 A 
ATOM      2  C2  DEN d   1       0.784   0.003  -2.944  0.00  0.00    -0.031 A 
ATOM      3  C3  DEN d   1       0.346  -1.181  -2.179  0.00  0.00     0.027 A 
ATOM      4  C4  DEN d   1      -0.578  -1.310   0.226  0.00  0.00     0.027 A 
ATOM      5  C5  DEN d   1      -0.893  -0.576   1.348  0.00  0.00    -0.003 A 
ATOM      6  C6  DEN d   1      -0.696   0.778   1.413  0.00  0.00     0.001 A 
ATOM      7  C7  DEN d   1      -0.213   1.448   0.320  0.00  0.00     0.017 A 
ATOM      8  C8  DEN d   1       0.114   0.713  -0.812  0.00  0.00    -0.094 A 
ATOM      9  C9  DEN d   1      -0.103  -0.653  -0.863  0.00  0.00    -0.072 A 
ENDROOT
TORSDOF 0
ENDMDL
