MODEL 1
REMARK minimizedAffinity -3.26414967
REMARK minimizedRMSD -1
REMARK  0 active torsions:
REMARK  status: ('A' for Active; 'I' for Inactive)
ROOT
ATOM      1  C1  DEN d   1       2.592   2.763   1.591  0.00  0.00     0.130 A 
ATOM      2  C2  DEN d   1       2.539   4.053   0.909  0.00  0.00    -0.031 A 
ATOM      3  C3  DEN d   1       1.634   3.920  -0.250  0.00  0.00     0.027 A 
ATOM      4  C4  DEN d   1       0.313   1.853  -1.048  0.00  0.00     0.027 A 
ATOM      5  C5  DEN d   1       0.048   0.525  -0.798  0.00  0.00    -0.003 A 
ATOM      6  C6  DEN d   1       0.634  -0.154   0.238  0.00  0.00     0.001 A 
ATOM      7  C7  DEN d   1       1.480   0.505   1.089  0.00  0.00     0.017 A 
ATOM      8  C8  DEN d   1       1.758   1.843   0.838  0.00  0.00    -0.094 A 
ATOM      9  C9  DEN d   1       1.147   2.515  -0.206  0.00  0.00    -0.072 A 
ENDROOT
TORSDOF 0
ENDMDL
