MODEL 1
REMARK minimizedAffinity -4.39882374
REMARK minimizedRMSD -1
REMARK  0 active torsions:
REMARK  status: ('A' for Active; 'I' for Inactive)
ROOT
ATOM      1  C1  DEN d   1      -1.403   0.579   0.942  0.00  0.00     0.130 A 
ATOM      2  C2  DEN d   1      -0.633   1.735   0.493  0.00  0.00    -0.031 A 
ATOM      3  C3  DEN d   1       0.608   1.240  -0.136  0.00  0.00     0.027 A 
ATOM      4  C4  DEN d   1       1.405  -1.191  -0.460  0.00  0.00     0.027 A 
ATOM      5  C5  DEN d   1       1.096  -2.514  -0.232  0.00  0.00    -0.003 A 
ATOM      6  C6  DEN d   1      -0.043  -2.894   0.428  0.00  0.00     0.001 A 
ATOM      7  C7  DEN d   1      -0.936  -1.942   0.843  0.00  0.00     0.017 A 
ATOM      8  C8  DEN d   1      -0.627  -0.606   0.624  0.00  0.00    -0.094 A 
ATOM      9  C9  DEN d   1       0.523  -0.243  -0.056  0.00  0.00    -0.072 A 
ENDROOT
TORSDOF 0
ENDMDL
