MODEL 1
REMARK minimizedAffinity -4.93458939
REMARK minimizedRMSD -1
REMARK  0 active torsions:
REMARK  status: ('A' for Active; 'I' for Inactive)
ROOT
ATOM      1  C1  DEN d   1       0.864  -2.562  -0.295  0.00  0.00     0.130 A 
ATOM      2  C2  DEN d   1      -0.127  -3.427   0.340  0.00  0.00    -0.031 A 
ATOM      3  C3  DEN d   1      -1.232  -2.575   0.823  0.00  0.00     0.027 A 
ATOM      4  C4  DEN d   1      -1.507  -0.017   0.646  0.00  0.00     0.027 A 
ATOM      5  C5  DEN d   1      -0.919   1.147   0.201  0.00  0.00    -0.003 A 
ATOM      6  C6  DEN d   1       0.309   1.160  -0.404  0.00  0.00     0.001 A 
ATOM      7  C7  DEN d   1       0.970  -0.020  -0.623  0.00  0.00     0.017 A 
ATOM      8  C8  DEN d   1       0.388  -1.197  -0.171  0.00  0.00    -0.094 A 
ATOM      9  C9  DEN d   1      -0.860  -1.190   0.429  0.00  0.00    -0.072 A 
ENDROOT
TORSDOF 0
ENDMDL
