MODEL 1
REMARK minimizedAffinity -3.5442071
REMARK minimizedRMSD -1
REMARK  0 active torsions:
REMARK  status: ('A' for Active; 'I' for Inactive)
ROOT
ATOM      1  C1  DEN d   1       1.126  -1.978   0.333  0.00  0.00     0.130 A 
ATOM      2  C2  DEN d   1       0.012  -2.822   0.757  0.00  0.00    -0.031 A 
ATOM      3  C3  DEN d   1      -1.179  -1.963   0.911  0.00  0.00     0.027 A 
ATOM      4  C4  DEN d   1      -1.406   0.578   0.533  0.00  0.00     0.027 A 
ATOM      5  C5  DEN d   1      -0.731   1.725   0.180  0.00  0.00    -0.003 A 
ATOM      6  C6  DEN d   1       0.607   1.724  -0.112  0.00  0.00     0.001 A 
ATOM      7  C7  DEN d   1       1.304   0.545  -0.099  0.00  0.00     0.017 A 
ATOM      8  C8  DEN d   1       0.631  -0.615   0.263  0.00  0.00    -0.094 A 
ATOM      9  C9  DEN d   1      -0.725  -0.595   0.542  0.00  0.00    -0.072 A 
ENDROOT
TORSDOF 0
ENDMDL
