MODEL 1
REMARK minimizedAffinity -3.8120966
REMARK minimizedRMSD -1
REMARK  0 active torsions:
REMARK  status: ('A' for Active; 'I' for Inactive)
ROOT
ATOM      1  C1  DEN d   1       1.887   3.004   1.741  0.00  0.00     0.130 A 
ATOM      2  C2  DEN d   1       2.114   4.251   1.016  0.00  0.00    -0.031 A 
ATOM      3  C3  DEN d   1       1.463   4.137  -0.304  0.00  0.00     0.027 A 
ATOM      4  C4  DEN d   1       0.127   2.163  -1.289  0.00  0.00     0.027 A 
ATOM      5  C5  DEN d   1      -0.324   0.883  -1.052  0.00  0.00    -0.003 A 
ATOM      6  C6  DEN d   1      -0.042   0.213   0.109  0.00  0.00     0.001 A 
ATOM      7  C7  DEN d   1       0.673   0.837   1.096  0.00  0.00     0.017 A 
ATOM      8  C8  DEN d   1       1.137   2.125   0.862  0.00  0.00    -0.094 A 
ATOM      9  C9  DEN d   1       0.831   2.790  -0.314  0.00  0.00    -0.072 A 
ENDROOT
TORSDOF 0
ENDMDL
