MODEL 1
REMARK minimizedAffinity -6.7065258
REMARK minimizedRMSD -1
REMARK  0 active torsions:
REMARK  status: ('A' for Active; 'I' for Inactive)
ROOT
ATOM      1  C1  DEN d   1      -0.523   0.136   0.875  0.00  0.00     0.130 A 
ATOM      2  C2  DEN d   1      -0.223   1.169  -0.113  0.00  0.00    -0.031 A 
ATOM      3  C3  DEN d   1       0.322   0.506  -1.315  0.00  0.00     0.027 A 
ATOM      4  C4  DEN d   1       0.723  -2.006  -1.742  0.00  0.00     0.027 A 
ATOM      5  C5  DEN d   1       0.633  -3.266  -1.193  0.00  0.00    -0.003 A 
ATOM      6  C6  DEN d   1       0.187  -3.476   0.085  0.00  0.00     0.001 A 
ATOM      7  C7  DEN d   1      -0.229  -2.412   0.842  0.00  0.00     0.017 A 
ATOM      8  C8  DEN d   1      -0.134  -1.138   0.298  0.00  0.00    -0.094 A 
ATOM      9  C9  DEN d   1       0.308  -0.948  -1.000  0.00  0.00    -0.072 A 
ENDROOT
TORSDOF 0
ENDMDL
