MODEL 1
REMARK minimizedAffinity -3.78561759
REMARK minimizedRMSD -1
REMARK  0 active torsions:
REMARK  status: ('A' for Active; 'I' for Inactive)
ROOT
ATOM      1  C1  DEN d   1      -0.724  -2.598   0.877  0.00  0.00     0.130 A 
ATOM      2  C2  DEN d   1       0.175  -3.296  -0.038  0.00  0.00    -0.031 A 
ATOM      3  C3  DEN d   1       0.888  -2.281  -0.840  0.00  0.00     0.027 A 
ATOM      4  C4  DEN d   1       0.693   0.289  -0.749  0.00  0.00     0.027 A 
ATOM      5  C5  DEN d   1       0.054   1.346  -0.140  0.00  0.00    -0.003 A 
ATOM      6  C6  DEN d   1      -0.907   1.162   0.820  0.00  0.00     0.001 A 
ATOM      7  C7  DEN d   1      -1.223  -0.106   1.230  0.00  0.00     0.017 A 
ATOM      8  C8  DEN d   1      -0.587  -1.176   0.615  0.00  0.00    -0.094 A 
ATOM      9  C9  DEN d   1       0.390  -0.970  -0.344  0.00  0.00    -0.072 A 
ENDROOT
TORSDOF 0
ENDMDL
