MODEL 1
REMARK minimizedAffinity -4.71850157
REMARK minimizedRMSD -1
REMARK  0 active torsions:
REMARK  status: ('A' for Active; 'I' for Inactive)
ROOT
ATOM      1  C1  DEN d   1       1.157  -1.430  -1.989  0.00  0.00     0.130 A 
ATOM      2  C2  DEN d   1       1.110  -0.106  -2.604  0.00  0.00    -0.031 A 
ATOM      3  C3  DEN d   1       0.340   0.785  -1.713  0.00  0.00     0.027 A 
ATOM      4  C4  DEN d   1      -0.774   0.248   0.551  0.00  0.00     0.027 A 
ATOM      5  C5  DEN d   1      -1.015  -0.744   1.476  0.00  0.00    -0.003 A 
ATOM      6  C6  DEN d   1      -0.581  -2.031   1.297  0.00  0.00     0.001 A 
ATOM      7  C7  DEN d   1       0.155  -2.350   0.187  0.00  0.00     0.017 A 
ATOM      8  C8  DEN d   1       0.396  -1.358  -0.754  0.00  0.00    -0.094 A 
ATOM      9  C9  DEN d   1      -0.041  -0.060  -0.549  0.00  0.00    -0.072 A 
ENDROOT
TORSDOF 0
ENDMDL
