MODEL 1
REMARK minimizedAffinity -0.785668314
REMARK minimizedRMSD -1
REMARK  0 active torsions:
REMARK  status: ('A' for Active; 'I' for Inactive)
ROOT
ATOM      1  C1  DEN d   1       0.560  -2.386  -0.411  0.00  0.00     0.130 A 
ATOM      2  C2  DEN d   1      -0.386  -3.149   0.399  0.00  0.00    -0.031 A 
ATOM      3  C3  DEN d   1      -1.217  -2.190   1.154  0.00  0.00     0.027 A 
ATOM      4  C4  DEN d   1      -1.135   0.388   1.145  0.00  0.00     0.027 A 
ATOM      5  C5  DEN d   1      -0.491   1.489   0.624  0.00  0.00    -0.003 A 
ATOM      6  C6  DEN d   1       0.562   1.376  -0.245  0.00  0.00     0.001 A 
ATOM      7  C7  DEN d   1       0.973   0.135  -0.654  0.00  0.00     0.017 A 
ATOM      8  C8  DEN d   1       0.334  -0.980  -0.128  0.00  0.00    -0.094 A 
ATOM      9  C9  DEN d   1      -0.737  -0.844   0.740  0.00  0.00    -0.072 A 
ENDROOT
TORSDOF 0
ENDMDL
