MODEL 1
REMARK minimizedAffinity -1.67460608
REMARK minimizedRMSD -1
REMARK  0 active torsions:
REMARK  status: ('A' for Active; 'I' for Inactive)
ROOT
ATOM      1  C1  DEN d   1       1.218   0.629  -0.665  0.00  0.00     0.130 A 
ATOM      2  C2  DEN d   1      -0.101   0.013  -0.553  0.00  0.00    -0.031 A 
ATOM      3  C3  DEN d   1      -0.976   0.939   0.194  0.00  0.00     0.027 A 
ATOM      4  C4  DEN d   1      -0.420   3.257   1.178  0.00  0.00     0.027 A 
ATOM      5  C5  DEN d   1       0.574   4.196   1.347  0.00  0.00    -0.003 A 
ATOM      6  C6  DEN d   1       1.850   3.999   0.890  0.00  0.00     0.001 A 
ATOM      7  C7  DEN d   1       2.155   2.855   0.202  0.00  0.00     0.017 A 
ATOM      8  C8  DEN d   1       1.161   1.900   0.035  0.00  0.00    -0.094 A 
ATOM      9  C9  DEN d   1      -0.126   2.123   0.493  0.00  0.00    -0.072 A 
ENDROOT
TORSDOF 0
ENDMDL
