MODEL 1
REMARK minimizedAffinity -5.44431734
REMARK minimizedRMSD -1
REMARK  0 active torsions:
REMARK  status: ('A' for Active; 'I' for Inactive)
ROOT
ATOM      1  C1  DEN d   1       0.926   5.356   3.182  0.00  0.00     0.130 A 
ATOM      2  C2  DEN d   1      -0.475   5.210   3.565  0.00  0.00    -0.031 A 
ATOM      3  C3  DEN d   1      -1.098   4.230   2.653  0.00  0.00     0.027 A 
ATOM      4  C4  DEN d   1      -0.033   2.926   0.699  0.00  0.00     0.027 A 
ATOM      5  C5  DEN d   1       1.127   2.725  -0.016  0.00  0.00    -0.003 A 
ATOM      6  C6  DEN d   1       2.283   3.406   0.261  0.00  0.00     0.001 A 
ATOM      7  C7  DEN d   1       2.317   4.288   1.308  0.00  0.00     0.017 A 
ATOM      8  C8  DEN d   1       1.149   4.502   2.029  0.00  0.00    -0.094 A 
ATOM      9  C9  DEN d   1      -0.006   3.795   1.741  0.00  0.00    -0.072 A 
ENDROOT
TORSDOF 0
ENDMDL
