MODEL 1
REMARK minimizedAffinity -4.68439245
REMARK minimizedRMSD -1
REMARK  0 active torsions:
REMARK  status: ('A' for Active; 'I' for Inactive)
ROOT
ATOM      1  C1  DEN d   1       1.499   2.869   2.170  0.00  0.00     0.130 A 
ATOM      2  C2  DEN d   1       1.949   4.046   1.433  0.00  0.00    -0.031 A 
ATOM      3  C3  DEN d   1       1.808   3.763  -0.009  0.00  0.00     0.027 A 
ATOM      4  C4  DEN d   1       0.936   1.629  -1.166  0.00  0.00     0.027 A 
ATOM      5  C5  DEN d   1       0.449   0.358  -0.957  0.00  0.00    -0.003 A 
ATOM      6  C6  DEN d   1       0.312  -0.174   0.298  0.00  0.00     0.001 A 
ATOM      7  C7  DEN d   1       0.622   0.586   1.395  0.00  0.00     0.017 A 
ATOM      8  C8  DEN d   1       1.120   1.866   1.191  0.00  0.00    -0.094 A 
ATOM      9  C9  DEN d   1       1.241   2.390  -0.084  0.00  0.00    -0.072 A 
ENDROOT
TORSDOF 0
ENDMDL
