MODEL 1
REMARK minimizedAffinity -5.2420907
REMARK minimizedRMSD -1
REMARK  0 active torsions:
REMARK  status: ('A' for Active; 'I' for Inactive)
ROOT
ATOM      1  C1  DEN d   1      -0.155  -0.096   0.805  0.00  0.00     0.130 A 
ATOM      2  C2  DEN d   1      -0.160   1.076  -0.066  0.00  0.00    -0.031 A 
ATOM      3  C3  DEN d   1       0.092   0.619  -1.448  0.00  0.00     0.027 A 
ATOM      4  C4  DEN d   1       0.482  -1.777  -2.318  0.00  0.00     0.027 A 
ATOM      5  C5  DEN d   1       0.589  -3.101  -1.952  0.00  0.00    -0.003 A 
ATOM      6  C6  DEN d   1       0.491  -3.508  -0.648  0.00  0.00     0.001 A 
ATOM      7  C7  DEN d   1       0.233  -2.588   0.333  0.00  0.00     0.017 A 
ATOM      8  C8  DEN d   1       0.131  -1.250  -0.027  0.00  0.00    -0.094 A 
ATOM      9  C9  DEN d   1       0.222  -0.860  -1.352  0.00  0.00    -0.072 A 
ENDROOT
TORSDOF 0
ENDMDL
