MODEL 1
REMARK minimizedAffinity -4.38836718
REMARK minimizedRMSD -1
REMARK  0 active torsions:
REMARK  status: ('A' for Active; 'I' for Inactive)
ROOT
ATOM      1  C1  DEN d   1      -1.410   0.886   0.143  0.00  0.00     0.130 A 
ATOM      2  C2  DEN d   1      -0.412   1.709  -0.534  0.00  0.00    -0.031 A 
ATOM      3  C3  DEN d   1       0.770   0.865  -0.801  0.00  0.00     0.027 A 
ATOM      4  C4  DEN d   1       1.148  -1.623  -0.239  0.00  0.00     0.027 A 
ATOM      5  C5  DEN d   1       0.591  -2.739   0.346  0.00  0.00    -0.003 A 
ATOM      6  C6  DEN d   1      -0.649  -2.716   0.929  0.00  0.00     0.001 A 
ATOM      7  C7  DEN d   1      -1.391  -1.565   0.900  0.00  0.00     0.017 A 
ATOM      8  C8  DEN d   1      -0.833  -0.434   0.320  0.00  0.00    -0.094 A 
ATOM      9  C9  DEN d   1       0.417  -0.481  -0.275  0.00  0.00    -0.072 A 
ENDROOT
TORSDOF 0
ENDMDL
