MODEL 1
REMARK minimizedAffinity -2.92447424
REMARK minimizedRMSD -1
REMARK  0 active torsions:
REMARK  status: ('A' for Active; 'I' for Inactive)
ROOT
ATOM      1  C1  DEN d   1      -1.390   4.717   1.859  0.00  0.00     0.130 A 
ATOM      2  C2  DEN d   1      -0.819   5.999   2.263  0.00  0.00    -0.031 A 
ATOM      3  C3  DEN d   1       0.610   6.000   1.891  0.00  0.00     0.027 A 
ATOM      4  C4  DEN d   1       1.985   4.152   0.729  0.00  0.00     0.027 A 
ATOM      5  C5  DEN d   1       1.937   2.880   0.204  0.00  0.00    -0.003 A 
ATOM      6  C6  DEN d   1       0.796   2.124   0.224  0.00  0.00     0.001 A 
ATOM      7  C7  DEN d   1      -0.359   2.651   0.740  0.00  0.00     0.017 A 
ATOM      8  C8  DEN d   1      -0.317   3.931   1.278  0.00  0.00    -0.094 A 
ATOM      9  C9  DEN d   1       0.845   4.684   1.237  0.00  0.00    -0.072 A 
ENDROOT
TORSDOF 0
ENDMDL
