MODEL 1
REMARK minimizedAffinity 1.66870272
REMARK minimizedRMSD -1
REMARK  0 active torsions:
REMARK  status: ('A' for Active; 'I' for Inactive)
ROOT
ATOM      1  C   UNL d   1       1.604   2.222  -0.826  0.00  0.00     0.077 C 
ATOM      2  C1  UNL d   1       1.247   0.821  -1.225  0.00  0.00    -0.074 A 
ATOM      3  C2  UNL d   1       0.656   0.555  -2.464  0.00  0.00    -0.005 A 
ATOM      4  C3  UNL d   1       0.338  -0.755  -2.824  0.00  0.00     0.006 A 
ATOM      5  C4  UNL d   1       0.607  -1.809  -1.951  0.00  0.00    -0.005 A 
ATOM      6  C5  UNL d   1       1.199  -1.562  -0.708  0.00  0.00    -0.074 A 
ATOM      7  C6  UNL d   1       1.504  -2.685   0.239  0.00  0.00     0.077 C 
ATOM      8  C7  UNL d   1       1.522  -0.244  -0.356  0.00  0.00    -0.001 A 
ENDROOT
TORSDOF 0
ENDMDL
