MODEL 1
REMARK minimizedAffinity 2.5657196
REMARK minimizedRMSD -1
REMARK  0 active torsions:
REMARK  status: ('A' for Active; 'I' for Inactive)
ROOT
ATOM      1  C   UNL d   1       1.842  -2.932  -1.176  0.00  0.00     0.077 C 
ATOM      2  C1  UNL d   1       1.540  -1.464  -1.240  0.00  0.00    -0.074 A 
ATOM      3  C2  UNL d   1       1.750  -0.638  -0.132  0.00  0.00    -0.005 A 
ATOM      4  C3  UNL d   1       1.474   0.727  -0.210  0.00  0.00     0.006 A 
ATOM      5  C4  UNL d   1       0.984   1.279  -1.394  0.00  0.00    -0.005 A 
ATOM      6  C5  UNL d   1       0.769   0.468  -2.513  0.00  0.00    -0.074 A 
ATOM      7  C6  UNL d   1       0.253   1.046  -3.798  0.00  0.00     0.077 C 
ATOM      8  C7  UNL d   1       1.056  -0.901  -2.429  0.00  0.00    -0.001 A 
ENDROOT
TORSDOF 0
ENDMDL
