MODEL 1
REMARK minimizedAffinity 5.30951309
REMARK minimizedRMSD -1
REMARK  0 active torsions:
REMARK  status: ('A' for Active; 'I' for Inactive)
ROOT
ATOM      1  C   UNL d   1      -5.785   1.635   3.096  0.00  0.00     0.077 C 
ATOM      2  C1  UNL d   1      -4.460   2.203   2.682  0.00  0.00    -0.074 A 
ATOM      3  C2  UNL d   1      -3.406   2.309   3.596  0.00  0.00    -0.005 A 
ATOM      4  C3  UNL d   1      -2.176   2.830   3.194  0.00  0.00     0.006 A 
ATOM      5  C4  UNL d   1      -1.988   3.249   1.876  0.00  0.00    -0.005 A 
ATOM      6  C5  UNL d   1      -3.030   3.150   0.949  0.00  0.00    -0.074 A 
ATOM      7  C6  UNL d   1      -2.841   3.587  -0.474  0.00  0.00     0.077 C 
ATOM      8  C7  UNL d   1      -4.260   2.619   1.359  0.00  0.00    -0.001 A 
ENDROOT
TORSDOF 0
ENDMDL
