MODEL 1
REMARK minimizedAffinity 5.84772539
REMARK minimizedRMSD -1
REMARK  0 active torsions:
REMARK  status: ('A' for Active; 'I' for Inactive)
ROOT
ATOM      1  C   UNL d   1      -2.445  -3.719  -2.570  0.00  0.00     0.077 C 
ATOM      2  C1  UNL d   1      -3.375  -3.457  -3.717  0.00  0.00    -0.074 A 
ATOM      3  C2  UNL d   1      -3.470  -4.354  -4.785  0.00  0.00    -0.005 A 
ATOM      4  C3  UNL d   1      -4.347  -4.101  -5.840  0.00  0.00     0.006 A 
ATOM      5  C4  UNL d   1      -5.136  -2.950  -5.838  0.00  0.00    -0.005 A 
ATOM      6  C5  UNL d   1      -5.055  -2.042  -4.778  0.00  0.00    -0.074 A 
ATOM      7  C6  UNL d   1      -5.903  -0.805  -4.754  0.00  0.00     0.077 C 
ATOM      8  C7  UNL d   1      -4.177  -2.307  -3.718  0.00  0.00    -0.001 A 
ENDROOT
TORSDOF 0
ENDMDL
