MODEL 1
REMARK minimizedAffinity 12.7972193
REMARK minimizedRMSD -1
REMARK  0 active torsions:
REMARK  status: ('A' for Active; 'I' for Inactive)
ROOT
ATOM      1  C   UNL d   1       1.603   0.876   0.329  0.00  0.00     0.077 C 
ATOM      2  C1  UNL d   1       1.235  -0.264  -0.573  0.00  0.00    -0.074 A 
ATOM      3  C2  UNL d   1       0.445  -0.055  -1.708  0.00  0.00    -0.005 A 
ATOM      4  C3  UNL d   1       0.119  -1.124  -2.544  0.00  0.00     0.006 A 
ATOM      5  C4  UNL d   1       0.578  -2.409  -2.253  0.00  0.00    -0.005 A 
ATOM      6  C5  UNL d   1       1.370  -2.636  -1.123  0.00  0.00    -0.074 A 
ATOM      7  C6  UNL d   1       1.880  -4.009  -0.801  0.00  0.00     0.077 C 
ATOM      8  C7  UNL d   1       1.699  -1.556  -0.292  0.00  0.00    -0.001 A 
ENDROOT
TORSDOF 0
ENDMDL
