MODEL 1
REMARK minimizedAffinity -1.18913937
REMARK minimizedRMSD -1
REMARK  0 active torsions:
REMARK  status: ('A' for Active; 'I' for Inactive)
ROOT
ATOM      1  C   UNL d   1      -0.032   0.275   1.366  0.00  0.00     0.077 C 
ATOM      2  C1  UNL d   1       0.235   0.174  -0.106  0.00  0.00    -0.074 A 
ATOM      3  C2  UNL d   1       1.010   1.134  -0.764  0.00  0.00    -0.005 A 
ATOM      4  C3  UNL d   1       1.258   1.022  -2.132  0.00  0.00     0.006 A 
ATOM      5  C4  UNL d   1       0.733  -0.050  -2.855  0.00  0.00    -0.005 A 
ATOM      6  C5  UNL d   1      -0.044  -1.020  -2.215  0.00  0.00    -0.074 A 
ATOM      7  C6  UNL d   1      -0.607  -2.184  -2.975  0.00  0.00     0.077 C 
ATOM      8  C7  UNL d   1      -0.282  -0.904  -0.838  0.00  0.00    -0.001 A 
ENDROOT
TORSDOF 0
ENDMDL
