MODEL 1
REMARK minimizedAffinity 7.06402111
REMARK minimizedRMSD -1
REMARK  0 active torsions:
REMARK  status: ('A' for Active; 'I' for Inactive)
ROOT
ATOM      1  C   UNL d   1       1.985   1.297  -0.037  0.00  0.00     0.077 C 
ATOM      2  C1  UNL d   1       1.374   0.270  -0.942  0.00  0.00    -0.074 A 
ATOM      3  C2  UNL d   1       1.539  -1.097  -0.695  0.00  0.00    -0.005 A 
ATOM      4  C3  UNL d   1       0.956  -2.040  -1.541  0.00  0.00     0.006 A 
ATOM      5  C4  UNL d   1       0.203  -1.627  -2.641  0.00  0.00    -0.005 A 
ATOM      6  C5  UNL d   1       0.026  -0.265  -2.904  0.00  0.00    -0.074 A 
ATOM      7  C6  UNL d   1      -0.788   0.196  -4.076  0.00  0.00     0.077 C 
ATOM      8  C7  UNL d   1       0.609   0.677  -2.045  0.00  0.00    -0.001 A 
ENDROOT
TORSDOF 0
ENDMDL
