MODEL 1
REMARK minimizedAffinity 3.56995559
REMARK minimizedRMSD -1
REMARK  0 active torsions:
REMARK  status: ('A' for Active; 'I' for Inactive)
ROOT
ATOM      1  C   UNL d   1       1.477   5.999  -1.838  0.00  0.00     0.077 C 
ATOM      2  C1  UNL d   1       1.344   4.867  -0.863  0.00  0.00    -0.074 A 
ATOM      3  C2  UNL d   1       1.047   5.108   0.482  0.00  0.00    -0.005 A 
ATOM      4  C3  UNL d   1       0.917   4.044   1.375  0.00  0.00     0.006 A 
ATOM      5  C4  UNL d   1       1.081   2.731   0.932  0.00  0.00    -0.005 A 
ATOM      6  C5  UNL d   1       1.377   2.471  -0.409  0.00  0.00    -0.074 A 
ATOM      7  C6  UNL d   1       1.548   1.065  -0.904  0.00  0.00     0.077 C 
ATOM      8  C7  UNL d   1       1.500   3.545  -1.302  0.00  0.00    -0.001 A 
ENDROOT
TORSDOF 0
ENDMDL
