MODEL 1
REMARK minimizedAffinity 5.50567484
REMARK minimizedRMSD -1
REMARK  0 active torsions:
REMARK  status: ('A' for Active; 'I' for Inactive)
ROOT
ATOM      1  C   UNL d   1      -0.351  -1.153   1.044  0.00  0.00     0.077 C 
ATOM      2  C1  UNL d   1       0.593  -0.107   0.530  0.00  0.00    -0.074 A 
ATOM      3  C2  UNL d   1       1.425  -0.365  -0.565  0.00  0.00    -0.005 A 
ATOM      4  C3  UNL d   1       2.290   0.621  -1.038  0.00  0.00     0.006 A 
ATOM      5  C4  UNL d   1       2.333   1.873  -0.423  0.00  0.00    -0.005 A 
ATOM      6  C5  UNL d   1       1.508   2.149   0.672  0.00  0.00    -0.074 A 
ATOM      7  C6  UNL d   1       1.534   3.493   1.338  0.00  0.00     0.077 C 
ATOM      8  C7  UNL d   1       0.636   1.156   1.137  0.00  0.00    -0.001 A 
ENDROOT
TORSDOF 0
ENDMDL
