MODEL 1
REMARK minimizedAffinity -1.89231312
REMARK minimizedRMSD -1
REMARK  0 active torsions:
REMARK  status: ('A' for Active; 'I' for Inactive)
ROOT
ATOM      1  C   UNL d   1       0.694   1.622   1.039  0.00  0.00     0.077 C 
ATOM      2  C1  UNL d   1       0.657   0.858  -0.251  0.00  0.00    -0.074 A 
ATOM      3  C2  UNL d   1       1.758   0.849  -1.113  0.00  0.00    -0.005 A 
ATOM      4  C3  UNL d   1       1.713   0.126  -2.305  0.00  0.00     0.006 A 
ATOM      5  C4  UNL d   1       0.567  -0.595  -2.646  0.00  0.00    -0.005 A 
ATOM      6  C5  UNL d   1      -0.543  -0.598  -1.796  0.00  0.00    -0.074 A 
ATOM      7  C6  UNL d   1      -1.778  -1.375  -2.143  0.00  0.00     0.077 C 
ATOM      8  C7  UNL d   1      -0.487   0.125  -0.597  0.00  0.00    -0.001 A 
ENDROOT
TORSDOF 0
ENDMDL
