MODEL 1
REMARK minimizedAffinity -0.783075929
REMARK minimizedRMSD -1
REMARK  0 active torsions:
REMARK  status: ('A' for Active; 'I' for Inactive)
ROOT
ATOM      1  C   UNL d   1      -0.202  -1.376   0.688  0.00  0.00     0.077 C 
ATOM      2  C1  UNL d   1       0.509  -0.064   0.542  0.00  0.00    -0.074 A 
ATOM      3  C2  UNL d   1       0.663   0.796   1.634  0.00  0.00    -0.005 A 
ATOM      4  C3  UNL d   1       1.334   2.010   1.484  0.00  0.00     0.006 A 
ATOM      5  C4  UNL d   1       1.858   2.375   0.243  0.00  0.00    -0.005 A 
ATOM      6  C5  UNL d   1       1.714   1.527  -0.860  0.00  0.00    -0.074 A 
ATOM      7  C6  UNL d   1       2.279   1.900  -2.198  0.00  0.00     0.077 C 
ATOM      8  C7  UNL d   1       1.044   0.307  -0.700  0.00  0.00    -0.001 A 
ENDROOT
TORSDOF 0
ENDMDL
