MODEL 1
REMARK minimizedAffinity 8.05401707
REMARK minimizedRMSD -1
REMARK  0 active torsions:
REMARK  status: ('A' for Active; 'I' for Inactive)
ROOT
ATOM      1  C   UNL d   1       3.772   0.425  -0.419  0.00  0.00     0.077 C 
ATOM      2  C1  UNL d   1       2.668  -0.573  -0.605  0.00  0.00    -0.074 A 
ATOM      3  C2  UNL d   1       1.333  -0.217  -0.391  0.00  0.00    -0.005 A 
ATOM      4  C3  UNL d   1       0.316  -1.153  -0.577  0.00  0.00     0.006 A 
ATOM      5  C4  UNL d   1       0.624  -2.454  -0.978  0.00  0.00    -0.005 A 
ATOM      6  C5  UNL d   1       1.953  -2.829  -1.197  0.00  0.00    -0.074 A 
ATOM      7  C6  UNL d   1       2.301  -4.220  -1.638  0.00  0.00     0.077 C 
ATOM      8  C7  UNL d   1       2.969  -1.880  -1.015  0.00  0.00    -0.001 A 
ENDROOT
TORSDOF 0
ENDMDL
