MODEL 1
REMARK minimizedAffinity 2.73966956
REMARK minimizedRMSD -1
REMARK  0 active torsions:
REMARK  status: ('A' for Active; 'I' for Inactive)
ROOT
ATOM      1  C   UNL d   1       3.915  -0.115  -0.375  0.00  0.00     0.077 C 
ATOM      2  C1  UNL d   1       2.867  -1.129  -0.727  0.00  0.00    -0.074 A 
ATOM      3  C2  UNL d   1       1.509  -0.796  -0.703  0.00  0.00    -0.005 A 
ATOM      4  C3  UNL d   1       0.546  -1.747  -1.042  0.00  0.00     0.006 A 
ATOM      5  C4  UNL d   1       0.931  -3.037  -1.409  0.00  0.00    -0.005 A 
ATOM      6  C5  UNL d   1       2.285  -3.387  -1.439  0.00  0.00    -0.074 A 
ATOM      7  C6  UNL d   1       2.716  -4.767  -1.840  0.00  0.00     0.077 C 
ATOM      8  C7  UNL d   1       3.247  -2.425  -1.104  0.00  0.00    -0.001 A 
ENDROOT
TORSDOF 0
ENDMDL
