MODEL 1
REMARK minimizedAffinity 1.81537151
REMARK minimizedRMSD -1
REMARK  0 active torsions:
REMARK  status: ('A' for Active; 'I' for Inactive)
ROOT
ATOM      1  C   UNL d   1       2.231   2.929  -1.125  0.00  0.00     0.077 C 
ATOM      2  C1  UNL d   1       1.623   1.638  -1.585  0.00  0.00    -0.074 A 
ATOM      3  C2  UNL d   1       1.182   1.480  -2.903  0.00  0.00    -0.005 A 
ATOM      4  C3  UNL d   1       0.627   0.270  -3.319  0.00  0.00     0.006 A 
ATOM      5  C4  UNL d   1       0.508  -0.793  -2.423  0.00  0.00    -0.005 A 
ATOM      6  C5  UNL d   1       0.945  -0.655  -1.102  0.00  0.00    -0.074 A 
ATOM      7  C6  UNL d   1       0.833  -1.791  -0.129  0.00  0.00     0.077 C 
ATOM      8  C7  UNL d   1       1.507   0.562  -0.693  0.00  0.00    -0.001 A 
ENDROOT
TORSDOF 0
ENDMDL
