MODEL 1
REMARK minimizedAffinity 3.21353912
REMARK minimizedRMSD -1
REMARK  0 active torsions:
REMARK  status: ('A' for Active; 'I' for Inactive)
ROOT
ATOM      1  C   UNL d   1      -4.086  -1.903  -5.637  0.00  0.00     0.077 C 
ATOM      2  C1  UNL d   1      -4.064  -0.443  -5.296  0.00  0.00    -0.074 A 
ATOM      3  C2  UNL d   1      -4.857   0.471  -5.998  0.00  0.00    -0.005 A 
ATOM      4  C3  UNL d   1      -4.833   1.825  -5.663  0.00  0.00     0.006 A 
ATOM      5  C4  UNL d   1      -4.018   2.278  -4.626  0.00  0.00    -0.005 A 
ATOM      6  C5  UNL d   1      -3.219   1.379  -3.913  0.00  0.00    -0.074 A 
ATOM      7  C6  UNL d   1      -2.344   1.848  -2.788  0.00  0.00     0.077 C 
ATOM      8  C7  UNL d   1      -3.253   0.019  -4.250  0.00  0.00    -0.001 A 
ENDROOT
TORSDOF 0
ENDMDL
