MODEL 1
REMARK minimizedAffinity 5.94325829
REMARK minimizedRMSD -1
REMARK  0 active torsions:
REMARK  status: ('A' for Active; 'I' for Inactive)
ROOT
ATOM      1  C   UNL d   1      -2.190  -4.018  -1.998  0.00  0.00     0.077 C 
ATOM      2  C1  UNL d   1      -1.561  -3.666  -0.683  0.00  0.00    -0.074 A 
ATOM      3  C2  UNL d   1      -0.284  -3.097  -0.627  0.00  0.00    -0.005 A 
ATOM      4  C3  UNL d   1       0.284  -2.766   0.603  0.00  0.00     0.006 A 
ATOM      5  C4  UNL d   1      -0.417  -2.999   1.787  0.00  0.00    -0.005 A 
ATOM      6  C5  UNL d   1      -1.694  -3.567   1.750  0.00  0.00    -0.074 A 
ATOM      7  C6  UNL d   1      -2.465  -3.815   3.013  0.00  0.00     0.077 C 
ATOM      8  C7  UNL d   1      -2.262  -3.890   0.510  0.00  0.00    -0.001 A 
ENDROOT
TORSDOF 0
ENDMDL
