MODEL 1
REMARK minimizedAffinity 9.5712328
REMARK minimizedRMSD -1
REMARK  0 active torsions:
REMARK  status: ('A' for Active; 'I' for Inactive)
ROOT
ATOM      1  C   UNL d   1       2.822   1.200  -0.514  0.00  0.00     0.077 C 
ATOM      2  C1  UNL d   1       1.880   0.136  -0.993  0.00  0.00    -0.074 A 
ATOM      3  C2  UNL d   1       0.743   0.465  -1.738  0.00  0.00    -0.005 A 
ATOM      4  C3  UNL d   1      -0.120  -0.536  -2.185  0.00  0.00     0.006 A 
ATOM      5  C4  UNL d   1       0.145  -1.874  -1.890  0.00  0.00    -0.005 A 
ATOM      6  C5  UNL d   1       1.277  -2.223  -1.147  0.00  0.00    -0.074 A 
ATOM      7  C6  UNL d   1       1.582  -3.657  -0.830  0.00  0.00     0.077 C 
ATOM      8  C7  UNL d   1       2.143  -1.211  -0.708  0.00  0.00    -0.001 A 
ENDROOT
TORSDOF 0
ENDMDL
