MODEL 1
REMARK minimizedAffinity 2.00811911
REMARK minimizedRMSD -1
REMARK  0 active torsions:
REMARK  status: ('A' for Active; 'I' for Inactive)
ROOT
ATOM      1  C   UNL d   1       2.064   2.211  -1.177  0.00  0.00     0.020 A 
ATOM      2  C1  UNL d   1       0.887   2.058  -0.447  0.00  0.00     0.020 A 
ATOM      3  C2  UNL d   1       0.430   0.780  -0.119  0.00  0.00     0.034 A 
ATOM      4  C3  UNL d   1       1.151  -0.350  -0.522  0.00  0.00     0.017 A 
ATOM      5  C4  UNL d   1       2.333  -0.195  -1.255  0.00  0.00     0.017 A 
ATOM      6  C5  UNL d   1       2.786   1.087  -1.581  0.00  0.00     0.034 A 
ATOM      7 Cl   UNL d   1       3.276  -1.542  -1.788  0.00  0.00    -0.070 Cl
ATOM      8 Cl1  UNL d   1       0.527  -1.900  -0.082  0.00  0.00    -0.070 Cl
ENDROOT
TORSDOF 0
ENDMDL
