MODEL 1
REMARK minimizedAffinity -4.68539619
REMARK minimizedRMSD -1
REMARK  0 active torsions:
REMARK  status: ('A' for Active; 'I' for Inactive)
ROOT
ATOM      1  C   UNL d   1      -4.785  -0.005  -5.793  0.00  0.00     0.020 A 
ATOM      2  C1  UNL d   1      -3.415   0.226  -5.666  0.00  0.00     0.020 A 
ATOM      3  C2  UNL d   1      -2.528  -0.851  -5.612  0.00  0.00     0.034 A 
ATOM      4  C3  UNL d   1      -3.009  -2.164  -5.686  0.00  0.00     0.017 A 
ATOM      5  C4  UNL d   1      -4.383  -2.394  -5.814  0.00  0.00     0.017 A 
ATOM      6  C5  UNL d   1      -5.267  -1.312  -5.867  0.00  0.00     0.034 A 
ATOM      7 Cl   UNL d   1      -5.052  -3.985  -5.911  0.00  0.00    -0.070 Cl
ATOM      8 Cl1  UNL d   1      -1.855  -3.447  -5.614  0.00  0.00    -0.070 Cl
ENDROOT
TORSDOF 0
ENDMDL
