MODEL 1
REMARK minimizedAffinity -4.01183033
REMARK minimizedRMSD -1
REMARK  0 active torsions:
REMARK  status: ('A' for Active; 'I' for Inactive)
ROOT
ATOM      1  C   UNL d   1      -1.489  -4.537  -4.867  0.00  0.00     0.020 A 
ATOM      2  C1  UNL d   1      -1.498  -3.181  -4.541  0.00  0.00     0.020 A 
ATOM      3  C2  UNL d   1      -2.676  -2.442  -4.663  0.00  0.00     0.034 A 
ATOM      4  C3  UNL d   1      -3.851  -3.057  -5.112  0.00  0.00     0.017 A 
ATOM      5  C4  UNL d   1      -3.841  -4.418  -5.439  0.00  0.00     0.017 A 
ATOM      6  C5  UNL d   1      -2.658  -5.154  -5.315  0.00  0.00     0.034 A 
ATOM      7 Cl   UNL d   1      -5.250  -5.247  -6.000  0.00  0.00    -0.070 Cl
ATOM      8 Cl1  UNL d   1      -5.271  -2.082  -5.238  0.00  0.00    -0.070 Cl
ENDROOT
TORSDOF 0
ENDMDL
