MODEL 1
REMARK minimizedAffinity -0.28089118
REMARK minimizedRMSD -1
REMARK  0 active torsions:
REMARK  status: ('A' for Active; 'I' for Inactive)
ROOT
ATOM      1  C   UNL d   1      -1.470   4.850  -5.923  0.00  0.00     0.020 A 
ATOM      2  C1  UNL d   1      -2.258   6.000  -5.960  0.00  0.00     0.020 A 
ATOM      3  C2  UNL d   1      -3.650   5.892  -5.982  0.00  0.00     0.034 A 
ATOM      4  C3  UNL d   1      -4.259   4.632  -5.968  0.00  0.00     0.017 A 
ATOM      5  C4  UNL d   1      -3.467   3.478  -5.931  0.00  0.00     0.017 A 
ATOM      6  C5  UNL d   1      -2.074   3.592  -5.909  0.00  0.00     0.034 A 
ATOM      7 Cl   UNL d   1      -4.146   1.889  -5.912  0.00  0.00    -0.070 Cl
ATOM      8 Cl1  UNL d   1      -5.985   4.573  -5.998  0.00  0.00    -0.070 Cl
ENDROOT
TORSDOF 0
ENDMDL
