MODEL 1
REMARK minimizedAffinity -0.39787671
REMARK minimizedRMSD -1
REMARK  0 active torsions:
REMARK  status: ('A' for Active; 'I' for Inactive)
ROOT
ATOM      1  C   UNL d   1      -2.024   5.112  -5.643  0.00  0.00     0.020 A 
ATOM      2  C1  UNL d   1      -1.711   3.753  -5.643  0.00  0.00     0.020 A 
ATOM      3  C2  UNL d   1      -2.728   2.802  -5.754  0.00  0.00     0.034 A 
ATOM      4  C3  UNL d   1      -4.063   3.209  -5.866  0.00  0.00     0.017 A 
ATOM      5  C4  UNL d   1      -4.376   4.573  -5.865  0.00  0.00     0.017 A 
ATOM      6  C5  UNL d   1      -3.353   5.521  -5.754  0.00  0.00     0.034 A 
ATOM      7 Cl   UNL d   1      -5.999   5.152  -5.999  0.00  0.00    -0.070 Cl
ATOM      8 Cl1  UNL d   1      -5.269   1.980  -6.000  0.00  0.00    -0.070 Cl
ENDROOT
TORSDOF 0
ENDMDL
