MODEL 1
REMARK minimizedAffinity -2.94905305
REMARK minimizedRMSD -1
REMARK  0 active torsions:
REMARK  status: ('A' for Active; 'I' for Inactive)
ROOT
ATOM      1  C   UNL d   1      -5.469  -3.427  -5.989  0.00  0.00     0.020 A 
ATOM      2  C1  UNL d   1      -5.164  -2.170  -5.466  0.00  0.00     0.020 A 
ATOM      3  C2  UNL d   1      -3.987  -1.983  -4.740  0.00  0.00     0.034 A 
ATOM      4  C3  UNL d   1      -3.109  -3.053  -4.534  0.00  0.00     0.017 A 
ATOM      5  C4  UNL d   1      -3.415  -4.314  -5.059  0.00  0.00     0.017 A 
ATOM      6  C5  UNL d   1      -4.596  -4.496  -5.785  0.00  0.00     0.034 A 
ATOM      7 Cl   UNL d   1      -2.381  -5.683  -4.846  0.00  0.00    -0.070 Cl
ATOM      8 Cl1  UNL d   1      -1.670  -2.749  -3.627  0.00  0.00    -0.070 Cl
ENDROOT
TORSDOF 0
ENDMDL
