MODEL 1
REMARK minimizedAffinity 0.290674776
REMARK minimizedRMSD -1
REMARK  0 active torsions:
REMARK  status: ('A' for Active; 'I' for Inactive)
ROOT
ATOM      1  C   UNL d   1      -1.890   5.295  -5.623  0.00  0.00     0.020 A 
ATOM      2  C1  UNL d   1      -1.538   3.946  -5.622  0.00  0.00     0.020 A 
ATOM      3  C2  UNL d   1      -2.527   2.967  -5.738  0.00  0.00     0.034 A 
ATOM      4  C3  UNL d   1      -3.872   3.335  -5.856  0.00  0.00     0.017 A 
ATOM      5  C4  UNL d   1      -4.224   4.690  -5.857  0.00  0.00     0.017 A 
ATOM      6  C5  UNL d   1      -3.230   5.666  -5.741  0.00  0.00     0.034 A 
ATOM      7 Cl   UNL d   1      -5.862   5.222  -5.999  0.00  0.00    -0.070 Cl
ATOM      8 Cl1  UNL d   1      -5.043   2.072  -5.996  0.00  0.00    -0.070 Cl
ENDROOT
TORSDOF 0
ENDMDL
