MODEL 1
REMARK minimizedAffinity 3.43655705
REMARK minimizedRMSD -1
REMARK  0 active torsions:
REMARK  status: ('A' for Active; 'I' for Inactive)
ROOT
ATOM      1  C   UNL d   1      -5.408   2.227  -5.996  0.00  0.00     0.020 A 
ATOM      2  C1  UNL d   1      -5.979   3.499  -5.987  0.00  0.00     0.020 A 
ATOM      3  C2  UNL d   1      -5.161   4.631  -5.982  0.00  0.00     0.034 A 
ATOM      4  C3  UNL d   1      -3.768   4.493  -5.985  0.00  0.00     0.017 A 
ATOM      5  C4  UNL d   1      -3.196   3.216  -5.994  0.00  0.00     0.017 A 
ATOM      6  C5  UNL d   1      -4.020   2.086  -5.999  0.00  0.00     0.034 A 
ATOM      7 Cl   UNL d   1      -1.486   2.966  -5.999  0.00  0.00    -0.070 Cl
ATOM      8 Cl1  UNL d   1      -2.818   5.936  -5.979  0.00  0.00    -0.070 Cl
ENDROOT
TORSDOF 0
ENDMDL
