MODEL 1
REMARK minimizedAffinity 6.07727337
REMARK minimizedRMSD -1
REMARK  0 active torsions:
REMARK  status: ('A' for Active; 'I' for Inactive)
ROOT
ATOM      1  C   UNL d   1      -2.043   5.163  -5.908  0.00  0.00     0.020 A 
ATOM      2  C1  UNL d   1      -1.897   3.777  -5.899  0.00  0.00     0.020 A 
ATOM      3  C2  UNL d   1      -3.026   2.955  -5.911  0.00  0.00     0.034 A 
ATOM      4  C3  UNL d   1      -4.307   3.519  -5.933  0.00  0.00     0.017 A 
ATOM      5  C4  UNL d   1      -4.453   4.911  -5.942  0.00  0.00     0.017 A 
ATOM      6  C5  UNL d   1      -3.318   5.729  -5.930  0.00  0.00     0.034 A 
ATOM      7 Cl   UNL d   1      -6.000   5.681  -5.969  0.00  0.00    -0.070 Cl
ATOM      8 Cl1  UNL d   1      -5.659   2.443  -5.947  0.00  0.00    -0.070 Cl
ENDROOT
TORSDOF 0
ENDMDL
