MODEL 1
REMARK minimizedAffinity 2.26070738
REMARK minimizedRMSD -1
REMARK  0 active torsions:
REMARK  status: ('A' for Active; 'I' for Inactive)
ROOT
ATOM      1  C   UNL d   1      -4.962   2.033  -5.976  0.00  0.00     0.020 A 
ATOM      2  C1  UNL d   1      -3.568   2.071  -5.958  0.00  0.00     0.020 A 
ATOM      3  C2  UNL d   1      -2.903   3.299  -5.953  0.00  0.00     0.034 A 
ATOM      4  C3  UNL d   1      -3.632   4.494  -5.965  0.00  0.00     0.017 A 
ATOM      5  C4  UNL d   1      -5.031   4.455  -5.983  0.00  0.00     0.017 A 
ATOM      6  C5  UNL d   1      -5.691   3.222  -5.988  0.00  0.00     0.034 A 
ATOM      7 Cl   UNL d   1      -5.998   5.887  -5.998  0.00  0.00    -0.070 Cl
ATOM      8 Cl1  UNL d   1      -2.744   5.976  -5.957  0.00  0.00    -0.070 Cl
ENDROOT
TORSDOF 0
ENDMDL
