MODEL 1
REMARK minimizedAffinity 1.36337125
REMARK minimizedRMSD -1
REMARK  0 active torsions:
REMARK  status: ('A' for Active; 'I' for Inactive)
ROOT
ATOM      1  C   UNL d   1       1.005   1.684   2.385  0.00  0.00     0.020 A 
ATOM      2  C1  UNL d   1       2.263   2.283   2.331  0.00  0.00     0.020 A 
ATOM      3  C2  UNL d   1       3.040   2.172   1.177  0.00  0.00     0.034 A 
ATOM      4  C3  UNL d   1       2.561   1.460   0.071  0.00  0.00     0.017 A 
ATOM      5  C4  UNL d   1       1.299   0.859   0.126  0.00  0.00     0.017 A 
ATOM      6  C5  UNL d   1       0.524   0.973   1.284  0.00  0.00     0.034 A 
ATOM      7 Cl   UNL d   1       0.640  -0.036  -1.198  0.00  0.00    -0.070 Cl
ATOM      8 Cl1  UNL d   1       3.577   1.364  -1.324  0.00  0.00    -0.070 Cl
ENDROOT
TORSDOF 0
ENDMDL
