MODEL 1
REMARK minimizedAffinity -2.32031655
REMARK minimizedRMSD -1
REMARK  0 active torsions:
REMARK  status: ('A' for Active; 'I' for Inactive)
ROOT
ATOM      1  C   UNL d   1      -5.332  -3.162  -5.575  0.00  0.00     0.020 A 
ATOM      2  C1  UNL d   1      -5.254  -4.488  -6.000  0.00  0.00     0.020 A 
ATOM      3  C2  UNL d   1      -4.122  -5.250  -5.706  0.00  0.00     0.034 A 
ATOM      4  C3  UNL d   1      -3.062  -4.687  -4.986  0.00  0.00     0.017 A 
ATOM      5  C4  UNL d   1      -3.141  -3.357  -4.559  0.00  0.00     0.017 A 
ATOM      6  C5  UNL d   1      -4.277  -2.598  -4.856  0.00  0.00     0.034 A 
ATOM      7 Cl   UNL d   1      -1.874  -2.593  -3.666  0.00  0.00    -0.070 Cl
ATOM      8 Cl1  UNL d   1      -1.692  -5.688  -4.658  0.00  0.00    -0.070 Cl
ENDROOT
TORSDOF 0
ENDMDL
