MODEL 1
REMARK minimizedAffinity 6.56388426
REMARK minimizedRMSD -1
REMARK  0 active torsions:
REMARK  status: ('A' for Active; 'I' for Inactive)
ROOT
ATOM      1  C   UNL d   1      -5.335  -3.672  -5.777  0.00  0.00     0.020 A 
ATOM      2  C1  UNL d   1      -5.196  -2.331  -5.419  0.00  0.00     0.020 A 
ATOM      3  C2  UNL d   1      -4.053  -1.904  -4.741  0.00  0.00     0.034 A 
ATOM      4  C3  UNL d   1      -3.043  -2.818  -4.420  0.00  0.00     0.017 A 
ATOM      5  C4  UNL d   1      -3.182  -4.163  -4.779  0.00  0.00     0.017 A 
ATOM      6  C5  UNL d   1      -4.330  -4.585  -5.458  0.00  0.00     0.034 A 
ATOM      7 Cl   UNL d   1      -1.979  -5.349  -4.417  0.00  0.00    -0.070 Cl
ATOM      8 Cl1  UNL d   1      -1.655  -2.220  -3.581  0.00  0.00    -0.070 Cl
ENDROOT
TORSDOF 0
ENDMDL
