MODEL 1
REMARK minimizedAffinity -0.663223267
REMARK minimizedRMSD -1
REMARK  0 active torsions:
REMARK  status: ('A' for Active; 'I' for Inactive)
ROOT
ATOM      1  C   UNL d   1      -4.866   1.482  -5.994  0.00  0.00     0.020 A 
ATOM      2  C1  UNL d   1      -5.998   2.296  -5.996  0.00  0.00     0.020 A 
ATOM      3  C2  UNL d   1      -5.859   3.685  -5.997  0.00  0.00     0.034 A 
ATOM      4  C3  UNL d   1      -4.585   4.265  -5.997  0.00  0.00     0.017 A 
ATOM      5  C4  UNL d   1      -3.449   3.447  -5.996  0.00  0.00     0.017 A 
ATOM      6  C5  UNL d   1      -3.595   2.056  -5.994  0.00  0.00     0.034 A 
ATOM      7 Cl   UNL d   1      -1.845   4.089  -5.995  0.00  0.00    -0.070 Cl
ATOM      8 Cl1  UNL d   1      -4.487   5.990  -5.999  0.00  0.00    -0.070 Cl
ENDROOT
TORSDOF 0
ENDMDL
