MODEL 1
REMARK minimizedAffinity -0.557046473
REMARK minimizedRMSD -1
REMARK  0 active torsions:
REMARK  status: ('A' for Active; 'I' for Inactive)
ROOT
ATOM      1  C   UNL d   1      -3.872   5.999  -5.970  0.00  0.00     0.020 A 
ATOM      2  C1  UNL d   1      -5.264   5.928  -5.987  0.00  0.00     0.020 A 
ATOM      3  C2  UNL d   1      -5.899   4.685  -5.995  0.00  0.00     0.034 A 
ATOM      4  C3  UNL d   1      -5.143   3.507  -5.987  0.00  0.00     0.017 A 
ATOM      5  C4  UNL d   1      -3.745   3.580  -5.970  0.00  0.00     0.017 A 
ATOM      6  C5  UNL d   1      -3.114   4.827  -5.962  0.00  0.00     0.034 A 
ATOM      7 Cl   UNL d   1      -2.744   2.171  -5.959  0.00  0.00    -0.070 Cl
ATOM      8 Cl1  UNL d   1      -5.995   2.004  -5.998  0.00  0.00    -0.070 Cl
ENDROOT
TORSDOF 0
ENDMDL
