MODEL 1
REMARK minimizedAffinity -0.357026637
REMARK minimizedRMSD -1
REMARK  0 active torsions:
REMARK  status: ('A' for Active; 'I' for Inactive)
ROOT
ATOM      1  C   UNL d   1      -4.109   6.000  -5.699  0.00  0.00     0.020 A 
ATOM      2  C1  UNL d   1      -5.449   5.727  -5.969  0.00  0.00     0.020 A 
ATOM      3  C2  UNL d   1      -5.900   4.406  -5.999  0.00  0.00     0.034 A 
ATOM      4  C3  UNL d   1      -5.011   3.352  -5.758  0.00  0.00     0.017 A 
ATOM      5  C4  UNL d   1      -3.666   3.628  -5.487  0.00  0.00     0.017 A 
ATOM      6  C5  UNL d   1      -3.219   4.952  -5.458  0.00  0.00     0.034 A 
ATOM      7 Cl   UNL d   1      -2.508   2.381  -5.179  0.00  0.00    -0.070 Cl
ATOM      8 Cl1  UNL d   1      -5.638   1.743  -5.810  0.00  0.00    -0.070 Cl
ENDROOT
TORSDOF 0
ENDMDL
