MODEL 1
REMARK minimizedAffinity 5.70115852
REMARK minimizedRMSD -1
REMARK  0 active torsions:
REMARK  status: ('A' for Active; 'I' for Inactive)
ROOT
ATOM      1  C   UNL d   1      -3.878  -3.222  -4.796  0.00  0.00     0.020 A 
ATOM      2  C1  UNL d   1      -3.454  -4.543  -4.929  0.00  0.00     0.020 A 
ATOM      3  C2  UNL d   1      -2.134  -4.886  -4.626  0.00  0.00     0.034 A 
ATOM      4  C3  UNL d   1      -1.235  -3.907  -4.190  0.00  0.00     0.017 A 
ATOM      5  C4  UNL d   1      -1.662  -2.581  -4.057  0.00  0.00     0.017 A 
ATOM      6  C5  UNL d   1      -2.984  -2.243  -4.361  0.00  0.00     0.034 A 
ATOM      7 Cl   UNL d   1      -0.610  -1.317  -3.523  0.00  0.00    -0.070 Cl
ATOM      8 Cl1  UNL d   1       0.382  -4.402  -3.833  0.00  0.00    -0.070 Cl
ENDROOT
TORSDOF 0
ENDMDL
