MODEL 1
REMARK minimizedAffinity 3.94243813
REMARK minimizedRMSD -1
REMARK  1 active torsions:
REMARK  status: ('A' for Active; 'I' for Inactive)
REMARK    1  A    between atoms: C1_2  and  C2_3 
ROOT
ATOM      1  C2  UNL d   1       1.763  -3.864   3.132  0.00  0.00    -0.076 A 
ATOM      2  C3  UNL d   1       1.553  -3.239   4.373  0.00  0.00     0.004 A 
ATOM      3  C4  UNL d   1       1.495  -3.983   5.551  0.00  0.00    -0.003 A 
ATOM      4  C5  UNL d   1       1.647  -5.365   5.506  0.00  0.00     0.000 A 
ATOM      5  C6  UNL d   1       1.875  -6.000   4.285  0.00  0.00     0.000 A 
ATOM      6  C7  UNL d   1       1.952  -5.262   3.091  0.00  0.00    -0.073 A 
ATOM      7  C8  UNL d   1       2.194  -5.999   1.802  0.00  0.00     0.078 C 
ENDROOT
BRANCH   1   8
ATOM      8  C1  UNL d   1       1.789  -3.009   1.886  0.00  0.00     0.053 C 
ATOM      9  C   UNL d   1       0.670  -1.980   1.862  0.00  0.00     0.018 C 
ENDBRANCH   1   8
TORSDOF 1
ENDMDL
