MODEL 1
REMARK minimizedAffinity 13.5197001
REMARK minimizedRMSD -1
REMARK  1 active torsions:
REMARK  status: ('A' for Active; 'I' for Inactive)
REMARK    1  A    between atoms: C1_2  and  C2_3 
ROOT
ATOM      1  C2  UNL d   1      -3.769   3.352  -0.056  0.00  0.00    -0.076 A 
ATOM      2  C3  UNL d   1      -4.999   3.878  -0.488  0.00  0.00     0.004 A 
ATOM      3  C4  UNL d   1      -5.999   4.208   0.424  0.00  0.00    -0.003 A 
ATOM      4  C5  UNL d   1      -5.786   4.017   1.785  0.00  0.00     0.000 A 
ATOM      5  C6  UNL d   1      -4.566   3.513   2.234  0.00  0.00     0.000 A 
ATOM      6  C7  UNL d   1      -3.541   3.191   1.328  0.00  0.00    -0.073 A 
ATOM      7  C8  UNL d   1      -2.247   2.645   1.866  0.00  0.00     0.078 C 
ENDROOT
BRANCH   1   8
ATOM      8  C1  UNL d   1      -2.732   2.987  -1.093  0.00  0.00     0.053 C 
ATOM      9  C   UNL d   1      -3.100   1.732  -1.869  0.00  0.00     0.018 C 
ENDBRANCH   1   8
TORSDOF 1
ENDMDL
