MODEL 1
REMARK minimizedAffinity 9.14612865
REMARK minimizedRMSD -1
REMARK  1 active torsions:
REMARK  status: ('A' for Active; 'I' for Inactive)
REMARK    1  A    between atoms: C1_2  and  C2_3 
ROOT
ATOM      1  C2  UNL d   1       3.588  -2.289   1.576  0.00  0.00    -0.076 A 
ATOM      2  C3  UNL d   1       3.400  -0.911   1.369  0.00  0.00     0.004 A 
ATOM      3  C4  UNL d   1       2.120  -0.361   1.318  0.00  0.00    -0.003 A 
ATOM      4  C5  UNL d   1       1.008  -1.180   1.475  0.00  0.00     0.000 A 
ATOM      5  C6  UNL d   1       1.176  -2.546   1.699  0.00  0.00     0.000 A 
ATOM      6  C7  UNL d   1       2.460  -3.114   1.769  0.00  0.00    -0.073 A 
ATOM      7  C8  UNL d   1       2.583  -4.594   2.007  0.00  0.00     0.078 C 
ENDROOT
BRANCH   1   8
ATOM      8  C1  UNL d   1       4.999  -2.832   1.594  0.00  0.00     0.053 C 
ATOM      9  C   UNL d   1       5.921  -2.029   2.498  0.00  0.00     0.018 C 
ENDBRANCH   1   8
TORSDOF 1
ENDMDL
