MODEL 1
REMARK minimizedAffinity 11.9228067
REMARK minimizedRMSD -1
REMARK  1 active torsions:
REMARK  status: ('A' for Active; 'I' for Inactive)
REMARK    1  A    between atoms: C1_2  and  C2_3 
ROOT
ATOM      1  C2  UNL d   1       0.766  -1.664   2.929  0.00  0.00    -0.076 A 
ATOM      2  C3  UNL d   1       1.078  -0.502   2.202  0.00  0.00     0.004 A 
ATOM      3  C4  UNL d   1       1.350   0.700   2.853  0.00  0.00    -0.003 A 
ATOM      4  C5  UNL d   1       1.316   0.760   4.242  0.00  0.00     0.000 A 
ATOM      5  C6  UNL d   1       1.025  -0.388   4.980  0.00  0.00     0.000 A 
ATOM      6  C7  UNL d   1       0.764  -1.611   4.340  0.00  0.00    -0.073 A 
ATOM      7  C8  UNL d   1       0.451  -2.816   5.185  0.00  0.00     0.078 C 
ENDROOT
BRANCH   1   8
ATOM      8  C1  UNL d   1       0.454  -2.933   2.168  0.00  0.00     0.053 C 
ATOM      9  C   UNL d   1       1.437  -3.191   1.037  0.00  0.00     0.018 C 
ENDBRANCH   1   8
TORSDOF 1
ENDMDL
