MODEL 1
REMARK minimizedAffinity -0.593108952
REMARK minimizedRMSD -1
REMARK  1 active torsions:
REMARK  status: ('A' for Active; 'I' for Inactive)
REMARK    1  A    between atoms: C1_2  and  C2_3 
ROOT
ATOM      1  C2  UNL d   1       5.346   4.781  -3.455  0.00  0.00    -0.076 A 
ATOM      2  C3  UNL d   1       6.000   5.769  -2.699  0.00  0.00     0.004 A 
ATOM      3  C4  UNL d   1       5.655   6.000  -1.368  0.00  0.00    -0.003 A 
ATOM      4  C5  UNL d   1       4.651   5.245  -0.772  0.00  0.00     0.000 A 
ATOM      5  C6  UNL d   1       4.004   4.248  -1.502  0.00  0.00     0.000 A 
ATOM      6  C7  UNL d   1       4.351   3.992  -2.840  0.00  0.00    -0.073 A 
ATOM      7  C8  UNL d   1       3.616   2.909  -3.581  0.00  0.00     0.078 C 
ENDROOT
BRANCH   1   8
ATOM      8  C1  UNL d   1       5.744   4.595  -4.902  0.00  0.00     0.053 C 
ATOM      9  C   UNL d   1       5.950   5.917  -5.624  0.00  0.00     0.018 C 
ENDBRANCH   1   8
TORSDOF 1
ENDMDL
