MODEL 1
REMARK minimizedAffinity 0.805027246
REMARK minimizedRMSD -1
REMARK  1 active torsions:
REMARK  status: ('A' for Active; 'I' for Inactive)
REMARK    1  A    between atoms: C1_2  and  C2_3 
ROOT
ATOM      1  C2  UNL d   1       3.831   4.885  -3.370  0.00  0.00    -0.076 A 
ATOM      2  C3  UNL d   1       3.836   4.519  -4.727  0.00  0.00     0.004 A 
ATOM      3  C4  UNL d   1       4.902   4.862  -5.558  0.00  0.00    -0.003 A 
ATOM      4  C5  UNL d   1       5.980   5.574  -5.045  0.00  0.00     0.000 A 
ATOM      5  C6  UNL d   1       5.999   5.930  -3.697  0.00  0.00     0.000 A 
ATOM      6  C7  UNL d   1       4.941   5.579  -2.841  0.00  0.00    -0.073 A 
ATOM      7  C8  UNL d   1       5.011   5.993  -1.397  0.00  0.00     0.078 C 
ENDROOT
BRANCH   1   8
ATOM      8  C1  UNL d   1       2.636   4.510  -2.523  0.00  0.00     0.053 C 
ATOM      9  C   UNL d   1       2.975   3.475  -1.461  0.00  0.00     0.018 C 
ENDBRANCH   1   8
TORSDOF 1
ENDMDL
