MODEL 1
REMARK minimizedAffinity 8.02364349
REMARK minimizedRMSD -1
REMARK  1 active torsions:
REMARK  status: ('A' for Active; 'I' for Inactive)
REMARK    1  A    between atoms: N_2  and  C1_3 
ROOT
ATOM      1  C1  UNL d   1       3.897  -0.016   1.400  0.00  0.00     0.143 A 
ATOM      2  C2  UNL d   1       2.853  -0.105   2.328  0.00  0.00    -0.057 A 
ATOM      3  C3  UNL d   1       1.767   0.777   2.286  0.00  0.00     0.033 A 
ATOM      4  C4  UNL d   1       1.719   1.786   1.329  0.00  0.00    -0.042 A 
ATOM      5  C5  UNL d   1       2.758   1.909   0.413  0.00  0.00     0.033 A 
ATOM      6  C6  UNL d   1       3.837   1.021   0.456  0.00  0.00    -0.057 A 
ENDROOT
BRANCH   1   7
ATOM      7  N   UNL d   1       5.052  -0.800   1.451  0.00  0.00    -0.732 N 
ATOM      8  C   UNL d   1       5.995  -0.796   0.353  0.00  0.00     0.284 C 
ATOM      9  H3  UNL d   1       5.486  -0.794   2.371  0.00  0.00     0.395 HD
ENDBRANCH   1   7
TORSDOF 1
ENDMDL
