MODEL 1
REMARK minimizedAffinity 1.13474047
REMARK minimizedRMSD -1
REMARK  1 active torsions:
REMARK  status: ('A' for Active; 'I' for Inactive)
REMARK    1  A    between atoms: N_2  and  C1_3 
ROOT
ATOM      1  C1  UNL d   1       3.760   0.060   0.209  0.00  0.00     0.143 A 
ATOM      2  C2  UNL d   1       2.804   0.595   1.081  0.00  0.00    -0.057 A 
ATOM      3  C3  UNL d   1       2.103   1.764   0.760  0.00  0.00     0.033 A 
ATOM      4  C4  UNL d   1       2.366   2.436  -0.429  0.00  0.00    -0.042 A 
ATOM      5  C5  UNL d   1       3.329   1.936  -1.298  0.00  0.00     0.033 A 
ATOM      6  C6  UNL d   1       4.022   0.765  -0.976  0.00  0.00    -0.057 A 
ENDROOT
BRANCH   1   7
ATOM      7  N   UNL d   1       4.560  -1.043   0.516  0.00  0.00    -0.732 N 
ATOM      8  C   UNL d   1       6.000  -0.967   0.390  0.00  0.00     0.284 C 
ATOM      9  H3  UNL d   1       4.241  -1.536   1.347  0.00  0.00     0.395 HD
ENDBRANCH   1   7
TORSDOF 1
ENDMDL
