MODEL 1
REMARK minimizedAffinity 9.25077248
REMARK minimizedRMSD -1
REMARK  1 active torsions:
REMARK  status: ('A' for Active; 'I' for Inactive)
REMARK    1  A    between atoms: N_2  and  C1_3 
ROOT
ATOM      1  C1  UNL d   1       4.924  -0.990   3.551  0.00  0.00     0.143 A 
ATOM      2  C2  UNL d   1       5.849  -1.081   2.505  0.00  0.00    -0.057 A 
ATOM      3  C3  UNL d   1       5.437  -1.058   1.167  0.00  0.00     0.033 A 
ATOM      4  C4  UNL d   1       4.085  -0.972   0.851  0.00  0.00    -0.042 A 
ATOM      5  C5  UNL d   1       3.146  -0.905   1.875  0.00  0.00     0.033 A 
ATOM      6  C6  UNL d   1       3.564  -0.922   3.208  0.00  0.00    -0.057 A 
ENDROOT
BRANCH   1   7
ATOM      7  N   UNL d   1       5.263  -1.106   4.901  0.00  0.00    -0.732 N 
ATOM      8  C   UNL d   1       5.995  -0.052   5.571  0.00  0.00     0.284 C 
ATOM      9  H3  UNL d   1       4.512  -1.509   5.457  0.00  0.00     0.395 HD
ENDBRANCH   1   7
TORSDOF 1
ENDMDL
