MODEL 1
REMARK minimizedAffinity 9.6896019
REMARK minimizedRMSD -1
REMARK  1 active torsions:
REMARK  status: ('A' for Active; 'I' for Inactive)
REMARK    1  A    between atoms: N_2  and  C1_3 
ROOT
ATOM      1  C1  UNL d   1      -4.256   1.817   4.211  0.00  0.00     0.143 A 
ATOM      2  C2  UNL d   1      -5.067   2.324   5.231  0.00  0.00    -0.057 A 
ATOM      3  C3  UNL d   1      -5.880   1.481   5.999  0.00  0.00     0.033 A 
ATOM      4  C4  UNL d   1      -5.917   0.115   5.739  0.00  0.00    -0.042 A 
ATOM      5  C5  UNL d   1      -5.137  -0.408   4.713  0.00  0.00     0.033 A 
ATOM      6  C6  UNL d   1      -4.323   0.438   3.954  0.00  0.00    -0.057 A 
ENDROOT
BRANCH   1   7
ATOM      7  N   UNL d   1      -3.501   2.616   3.348  0.00  0.00    -0.732 N 
ATOM      8  C   UNL d   1      -4.098   3.185   2.159  0.00  0.00     0.284 C 
ATOM      9  H3  UNL d   1      -2.883   3.251   3.848  0.00  0.00     0.395 HD
ENDBRANCH   1   7
TORSDOF 1
ENDMDL
