MODEL 1
REMARK minimizedAffinity 14.3043375
REMARK minimizedRMSD -1
REMARK  1 active torsions:
REMARK  status: ('A' for Active; 'I' for Inactive)
REMARK    1  A    between atoms: N_2  and  C1_3 
ROOT
ATOM      1  C1  UNL d   1      -3.386  -2.711  -3.253  0.00  0.00     0.143 A 
ATOM      2  C2  UNL d   1      -3.278  -2.880  -4.638  0.00  0.00    -0.057 A 
ATOM      3  C3  UNL d   1      -4.416  -2.996  -5.445  0.00  0.00     0.033 A 
ATOM      4  C4  UNL d   1      -5.685  -2.974  -4.876  0.00  0.00    -0.042 A 
ATOM      5  C5  UNL d   1      -5.815  -2.832  -3.499  0.00  0.00     0.033 A 
ATOM      6  C6  UNL d   1      -4.675  -2.710  -2.699  0.00  0.00    -0.057 A 
ENDROOT
BRANCH   1   7
ATOM      7  N   UNL d   1      -2.291  -2.688  -2.385  0.00  0.00    -0.732 N 
ATOM      8  C   UNL d   1      -2.289  -1.825  -1.224  0.00  0.00     0.284 C 
ATOM      9  H3  UNL d   1      -1.912  -3.617  -2.214  0.00  0.00     0.395 HD
ENDBRANCH   1   7
TORSDOF 1
ENDMDL
