MODEL 1
REMARK minimizedAffinity 13.7420692
REMARK minimizedRMSD -1
REMARK  1 active torsions:
REMARK  status: ('A' for Active; 'I' for Inactive)
REMARK    1  A    between atoms: N_2  and  C1_3 
ROOT
ATOM      1  C1  UNL d   1       5.058  -0.988   3.423  0.00  0.00     0.143 A 
ATOM      2  C2  UNL d   1       6.000  -1.109   2.395  0.00  0.00    -0.057 A 
ATOM      3  C3  UNL d   1       5.658  -0.849   1.063  0.00  0.00     0.033 A 
ATOM      4  C4  UNL d   1       4.357  -0.489   0.730  0.00  0.00    -0.042 A 
ATOM      5  C5  UNL d   1       3.398  -0.386   1.731  0.00  0.00     0.033 A 
ATOM      6  C6  UNL d   1       3.747  -0.641   3.061  0.00  0.00    -0.057 A 
ENDROOT
BRANCH   1   7
ATOM      7  N   UNL d   1       5.311  -1.328   4.754  0.00  0.00    -0.732 N 
ATOM      8  C   UNL d   1       6.000  -0.407   5.632  0.00  0.00     0.284 C 
ATOM      9  H3  UNL d   1       4.526  -1.808   5.188  0.00  0.00     0.395 HD
ENDBRANCH   1   7
TORSDOF 1
ENDMDL
