MODEL 1
REMARK minimizedAffinity 0.538051486
REMARK minimizedRMSD -1
REMARK  1 active torsions:
REMARK  status: ('A' for Active; 'I' for Inactive)
REMARK    1  A    between atoms: N_2  and  C1_3 
ROOT
ATOM      1  C1  UNL d   1      -4.490   2.700   5.294  0.00  0.00     0.143 A 
ATOM      2  C2  UNL d   1      -4.126   2.268   4.014  0.00  0.00    -0.057 A 
ATOM      3  C3  UNL d   1      -4.704   1.129   3.440  0.00  0.00     0.033 A 
ATOM      4  C4  UNL d   1      -5.639   0.383   4.151  0.00  0.00    -0.042 A 
ATOM      5  C5  UNL d   1      -5.997   0.779   5.435  0.00  0.00     0.033 A 
ATOM      6  C6  UNL d   1      -5.421   1.921   5.999  0.00  0.00    -0.057 A 
ENDROOT
BRANCH   1   7
ATOM      7  N   UNL d   1      -3.880   3.767   5.957  0.00  0.00    -0.732 N 
ATOM      8  C   UNL d   1      -4.512   5.068   6.000  0.00  0.00     0.284 C 
ATOM      9  H3  UNL d   1      -3.451   3.484   6.836  0.00  0.00     0.395 HD
ENDBRANCH   1   7
TORSDOF 1
ENDMDL
