MODEL 1
REMARK minimizedAffinity 10.7444944
REMARK minimizedRMSD -1
REMARK  1 active torsions:
REMARK  status: ('A' for Active; 'I' for Inactive)
REMARK    1  A    between atoms: N_2  and  C1_3 
ROOT
ATOM      1  C1  UNL d   1       2.766  -0.324   3.010  0.00  0.00     0.143 A 
ATOM      2  C2  UNL d   1       1.614  -0.311   3.804  0.00  0.00    -0.057 A 
ATOM      3  C3  UNL d   1       0.510   0.481   3.467  0.00  0.00     0.033 A 
ATOM      4  C4  UNL d   1       0.550   1.300   2.344  0.00  0.00    -0.042 A 
ATOM      5  C5  UNL d   1       1.695   1.322   1.554  0.00  0.00     0.033 A 
ATOM      6  C6  UNL d   1       2.791   0.523   1.892  0.00  0.00    -0.057 A 
ENDROOT
BRANCH   1   7
ATOM      7  N   UNL d   1       3.933  -1.015   3.345  0.00  0.00    -0.732 N 
ATOM      8  C   UNL d   1       4.760  -0.575   4.448  0.00  0.00     0.284 C 
ATOM      9  H3  UNL d   1       3.816  -2.025   3.291  0.00  0.00     0.395 HD
ENDBRANCH   1   7
TORSDOF 1
ENDMDL
