MODEL 1
REMARK minimizedAffinity 0.89088738
REMARK minimizedRMSD -1
REMARK  1 active torsions:
REMARK  status: ('A' for Active; 'I' for Inactive)
REMARK    1  A    between atoms: N_2  and  C1_3 
ROOT
ATOM      1  C1  UNL d   1      -5.232   0.841   4.102  0.00  0.00     0.143 A 
ATOM      2  C2  UNL d   1      -5.993   1.070   5.254  0.00  0.00    -0.057 A 
ATOM      3  C3  UNL d   1      -5.846   2.245   6.000  0.00  0.00     0.033 A 
ATOM      4  C4  UNL d   1      -4.911   3.203   5.622  0.00  0.00    -0.042 A 
ATOM      5  C5  UNL d   1      -4.126   2.986   4.495  0.00  0.00     0.033 A 
ATOM      6  C6  UNL d   1      -4.282   1.813   3.751  0.00  0.00    -0.057 A 
ENDROOT
BRANCH   1   7
ATOM      7  N   UNL d   1      -5.263  -0.351   3.374  0.00  0.00    -0.732 N 
ATOM      8  C   UNL d   1      -4.128  -0.752   2.570  0.00  0.00     0.284 C 
ATOM      9  H3  UNL d   1      -5.695  -1.112   3.893  0.00  0.00     0.395 HD
ENDBRANCH   1   7
TORSDOF 1
ENDMDL
