MODEL 1
REMARK minimizedAffinity 18.7401543
REMARK minimizedRMSD -1
REMARK  1 active torsions:
REMARK  status: ('A' for Active; 'I' for Inactive)
REMARK    1  A    between atoms: N_2  and  C1_3 
ROOT
ATOM      1  C1  UNL d   1       3.855  -0.769   3.300  0.00  0.00     0.143 A 
ATOM      2  C2  UNL d   1       2.653  -0.647   4.005  0.00  0.00    -0.057 A 
ATOM      3  C3  UNL d   1       1.490  -0.180   3.381  0.00  0.00     0.033 A 
ATOM      4  C4  UNL d   1       1.516   0.201   2.043  0.00  0.00    -0.042 A 
ATOM      5  C5  UNL d   1       2.706   0.112   1.330  0.00  0.00     0.033 A 
ATOM      6  C6  UNL d   1       3.863  -0.362   1.957  0.00  0.00    -0.057 A 
ENDROOT
BRANCH   1   7
ATOM      7  N   UNL d   1       5.069  -1.134   3.889  0.00  0.00    -0.732 N 
ATOM      8  C   UNL d   1       5.567  -0.426   5.048  0.00  0.00     0.284 C 
ATOM      9  H3  UNL d   1       5.191  -2.143   3.933  0.00  0.00     0.395 HD
ENDBRANCH   1   7
TORSDOF 1
ENDMDL
