MODEL 1
REMARK minimizedAffinity 16.0211945
REMARK minimizedRMSD -1
REMARK  1 active torsions:
REMARK  status: ('A' for Active; 'I' for Inactive)
REMARK    1  A    between atoms: N_2  and  C1_3 
ROOT
ATOM      1  C1  UNL d   1       2.427   0.050   1.473  0.00  0.00     0.143 A 
ATOM      2  C2  UNL d   1       2.327   1.427   1.244  0.00  0.00    -0.057 A 
ATOM      3  C3  UNL d   1       1.393   2.211   1.932  0.00  0.00     0.033 A 
ATOM      4  C4  UNL d   1       0.519   1.625   2.842  0.00  0.00    -0.042 A 
ATOM      5  C5  UNL d   1       0.584   0.254   3.067  0.00  0.00     0.033 A 
ATOM      6  C6  UNL d   1       1.523  -0.522   2.382  0.00  0.00    -0.057 A 
ENDROOT
BRANCH   1   7
ATOM      7  N   UNL d   1       3.267  -0.799   0.749  0.00  0.00    -0.732 N 
ATOM      8  C   UNL d   1       4.682  -0.865   1.047  0.00  0.00     0.284 C 
ATOM      9  H3  UNL d   1       2.839  -1.703   0.563  0.00  0.00     0.395 HD
ENDBRANCH   1   7
TORSDOF 1
ENDMDL
