MODEL 1
REMARK minimizedAffinity 5.07876348
REMARK minimizedRMSD -1
REMARK  1 active torsions:
REMARK  status: ('A' for Active; 'I' for Inactive)
REMARK    1  A    between atoms: N_2  and  C1_3 
ROOT
ATOM      1  C1  UNL d   1       2.986   3.864  -4.943  0.00  0.00     0.143 A 
ATOM      2  C2  UNL d   1       2.899   4.220  -3.593  0.00  0.00    -0.057 A 
ATOM      3  C3  UNL d   1       3.487   3.433  -2.595  0.00  0.00     0.033 A 
ATOM      4  C4  UNL d   1       4.149   2.256  -2.929  0.00  0.00    -0.042 A 
ATOM      5  C5  UNL d   1       4.226   1.870  -4.262  0.00  0.00     0.033 A 
ATOM      6  C6  UNL d   1       3.644   2.664  -5.255  0.00  0.00    -0.057 A 
ENDROOT
BRANCH   1   7
ATOM      7  N   UNL d   1       2.339   4.552  -5.972  0.00  0.00    -0.732 N 
ATOM      8  C   UNL d   1       2.331   5.999  -6.000  0.00  0.00     0.284 C 
ATOM      9  H3  UNL d   1       2.487   4.120  -6.881  0.00  0.00     0.395 HD
ENDBRANCH   1   7
TORSDOF 1
ENDMDL
