MODEL 1
REMARK minimizedAffinity 8.07316589
REMARK minimizedRMSD -1
REMARK  1 active torsions:
REMARK  status: ('A' for Active; 'I' for Inactive)
REMARK    1  A    between atoms: C1_2  and  C2_3 
ROOT
ATOM      1  C2  UNL d   1       1.080  -1.697   2.785  0.00  0.00    -0.077 A 
ATOM      2  C3  UNL d   1       0.414  -1.494   4.002  0.00  0.00     0.002 A 
ATOM      3  C4  UNL d   1       0.761  -2.239   5.131  0.00  0.00     0.002 A 
ATOM      4  C5  UNL d   1       1.778  -3.189   5.054  0.00  0.00    -0.004 A 
ATOM      5  C6  UNL d   1       2.445  -3.400   3.848  0.00  0.00     0.002 A 
ATOM      6  C7  UNL d   1       2.098  -2.657   2.719  0.00  0.00     0.002 A 
ENDROOT
BRANCH   1   7
ATOM      7  C1  UNL d   1       0.740  -0.860   1.580  0.00  0.00     0.055 C 
ATOM      8  C   UNL d   1       1.143   0.593   1.784  0.00  0.00     0.019 C 
ENDBRANCH   1   7
TORSDOF 1
ENDMDL
