MODEL 1
REMARK minimizedAffinity 9.41561413
REMARK minimizedRMSD -1
REMARK  1 active torsions:
REMARK  status: ('A' for Active; 'I' for Inactive)
REMARK    1  A    between atoms: C1_2  and  C2_3 
ROOT
ATOM      1  C2  UNL d   1       4.949   5.276  -3.549  0.00  0.00    -0.077 A 
ATOM      2  C3  UNL d   1       3.860   4.610  -4.129  0.00  0.00     0.002 A 
ATOM      3  C4  UNL d   1       2.881   4.024  -3.325  0.00  0.00     0.002 A 
ATOM      4  C5  UNL d   1       2.978   4.102  -1.938  0.00  0.00    -0.004 A 
ATOM      5  C6  UNL d   1       4.057   4.761  -1.351  0.00  0.00     0.002 A 
ATOM      6  C7  UNL d   1       5.038   5.347  -2.153  0.00  0.00     0.002 A 
ENDROOT
BRANCH   1   7
ATOM      7  C1  UNL d   1       5.980   5.951  -4.415  0.00  0.00     0.055 C 
ATOM      8  C   UNL d   1       5.580   5.916  -5.883  0.00  0.00     0.019 C 
ENDBRANCH   1   7
TORSDOF 1
ENDMDL
