MODEL 1
REMARK minimizedAffinity 4.22957611
REMARK minimizedRMSD -1
REMARK  1 active torsions:
REMARK  status: ('A' for Active; 'I' for Inactive)
REMARK    1  A    between atoms: C1_2  and  C2_3 
ROOT
ATOM      1  C2  UNL d   1      -4.272  -3.441  -4.439  0.00  0.00    -0.077 A 
ATOM      2  C3  UNL d   1      -3.768  -4.749  -4.444  0.00  0.00     0.002 A 
ATOM      3  C4  UNL d   1      -4.376  -5.737  -5.221  0.00  0.00     0.002 A 
ATOM      4  C5  UNL d   1      -5.488  -5.427  -6.000  0.00  0.00    -0.004 A 
ATOM      5  C6  UNL d   1      -5.999  -4.129  -6.000  0.00  0.00     0.002 A 
ATOM      6  C7  UNL d   1      -5.393  -3.140  -5.224  0.00  0.00     0.002 A 
ENDROOT
BRANCH   1   7
ATOM      7  C1  UNL d   1      -3.588  -2.362  -3.641  0.00  0.00     0.055 C 
ATOM      8  C   UNL d   1      -4.502  -1.811  -2.556  0.00  0.00     0.019 C 
ENDBRANCH   1   7
TORSDOF 1
ENDMDL
