MODEL 1
REMARK minimizedAffinity 11.5280571
REMARK minimizedRMSD -1
REMARK  1 active torsions:
REMARK  status: ('A' for Active; 'I' for Inactive)
REMARK    1  A    between atoms: C1_2  and  C2_3 
ROOT
ATOM      1  C2  UNL d   1       1.450   0.852   2.051  0.00  0.00    -0.077 A 
ATOM      2  C3  UNL d   1       2.332   1.365   1.090  0.00  0.00     0.002 A 
ATOM      3  C4  UNL d   1       3.048   2.537   1.342  0.00  0.00     0.002 A 
ATOM      4  C5  UNL d   1       2.893   3.202   2.557  0.00  0.00    -0.004 A 
ATOM      5  C6  UNL d   1       2.017   2.700   3.519  0.00  0.00     0.002 A 
ATOM      6  C7  UNL d   1       1.300   1.530   3.267  0.00  0.00     0.002 A 
ENDROOT
BRANCH   1   7
ATOM      7  C1  UNL d   1       0.714  -0.438   1.800  0.00  0.00     0.055 C 
ATOM      8  C   UNL d   1       1.612  -1.643   2.040  0.00  0.00     0.019 C 
ENDBRANCH   1   7
TORSDOF 1
ENDMDL
