MODEL 1
REMARK minimizedAffinity 12.8179379
REMARK minimizedRMSD -1
REMARK  1 active torsions:
REMARK  status: ('A' for Active; 'I' for Inactive)
REMARK    1  A    between atoms: C1_2  and  C2_3 
ROOT
ATOM      1  C2  UNL d   1       1.659  -0.592   1.793  0.00  0.00    -0.077 A 
ATOM      2  C3  UNL d   1       2.769  -0.665   0.939  0.00  0.00     0.002 A 
ATOM      3  C4  UNL d   1       3.448   0.496   0.563  0.00  0.00     0.002 A 
ATOM      4  C5  UNL d   1       3.028   1.736   1.038  0.00  0.00    -0.004 A 
ATOM      5  C6  UNL d   1       1.924   1.820   1.886  0.00  0.00     0.002 A 
ATOM      6  C7  UNL d   1       1.243   0.661   2.262  0.00  0.00     0.002 A 
ENDROOT
BRANCH   1   7
ATOM      7  C1  UNL d   1       0.956  -1.846   2.239  0.00  0.00     0.055 C 
ATOM      8  C   UNL d   1       1.367  -2.240   3.651  0.00  0.00     0.019 C 
ENDBRANCH   1   7
TORSDOF 1
ENDMDL
