MODEL 1
REMARK minimizedAffinity 8.48883438
REMARK minimizedRMSD -1
REMARK  1 active torsions:
REMARK  status: ('A' for Active; 'I' for Inactive)
REMARK    1  A    between atoms: C1_2  and  C2_3 
ROOT
ATOM      1  C2  UNL d   1       4.767   5.951  -3.109  0.00  0.00    -0.077 A 
ATOM      2  C3  UNL d   1       5.981   5.965  -3.811  0.00  0.00     0.002 A 
ATOM      3  C4  UNL d   1       5.989   5.985  -5.207  0.00  0.00     0.002 A 
ATOM      4  C5  UNL d   1       4.788   5.995  -5.912  0.00  0.00    -0.004 A 
ATOM      5  C6  UNL d   1       3.576   5.979  -5.224  0.00  0.00     0.002 A 
ATOM      6  C7  UNL d   1       3.565   5.958  -3.829  0.00  0.00     0.002 A 
ENDROOT
BRANCH   1   7
ATOM      7  C1  UNL d   1       4.755   5.979  -1.603  0.00  0.00     0.055 C 
ATOM      8  C   UNL d   1       3.599   5.163  -1.043  0.00  0.00     0.019 C 
ENDBRANCH   1   7
TORSDOF 1
ENDMDL
