MODEL 1
REMARK minimizedAffinity 4.99907446
REMARK minimizedRMSD -1
REMARK  1 active torsions:
REMARK  status: ('A' for Active; 'I' for Inactive)
REMARK    1  A    between atoms: C1_2  and  C2_3 
ROOT
ATOM      1  C2  UNL d   1      -5.260  -2.627  -4.605  0.00  0.00    -0.077 A 
ATOM      2  C3  UNL d   1      -5.998  -1.467  -4.330  0.00  0.00     0.002 A 
ATOM      3  C4  UNL d   1      -5.989  -0.911  -3.049  0.00  0.00     0.002 A 
ATOM      4  C5  UNL d   1      -5.240  -1.506  -2.035  0.00  0.00    -0.004 A 
ATOM      5  C6  UNL d   1      -4.504  -2.660  -2.298  0.00  0.00     0.002 A 
ATOM      6  C7  UNL d   1      -4.513  -3.218  -3.578  0.00  0.00     0.002 A 
ENDROOT
BRANCH   1   7
ATOM      7  C1  UNL d   1      -5.229  -3.200  -5.998  0.00  0.00     0.055 C 
ATOM      8  C   UNL d   1      -5.505  -4.696  -5.987  0.00  0.00     0.019 C 
ENDBRANCH   1   7
TORSDOF 1
ENDMDL
