MODEL 1
REMARK minimizedAffinity 9.86126041
REMARK minimizedRMSD -1
REMARK  1 active torsions:
REMARK  status: ('A' for Active; 'I' for Inactive)
REMARK    1  A    between atoms: C1_2  and  C2_3 
ROOT
ATOM      1  C2  UNL d   1      -4.837  -3.305  -4.961  0.00  0.00    -0.077 A 
ATOM      2  C3  UNL d   1      -5.940  -3.873  -5.613  0.00  0.00     0.002 A 
ATOM      3  C4  UNL d   1      -5.918  -5.215  -5.998  0.00  0.00     0.002 A 
ATOM      4  C5  UNL d   1      -4.797  -6.000  -5.733  0.00  0.00    -0.004 A 
ATOM      5  C6  UNL d   1      -3.694  -5.443  -5.087  0.00  0.00     0.002 A 
ATOM      6  C7  UNL d   1      -3.714  -4.102  -4.702  0.00  0.00     0.002 A 
ENDROOT
BRANCH   1   7
ATOM      7  C1  UNL d   1      -4.878  -1.871  -4.500  0.00  0.00     0.055 C 
ATOM      8  C   UNL d   1      -3.878  -1.621  -3.380  0.00  0.00     0.019 C 
ENDBRANCH   1   7
TORSDOF 1
ENDMDL
