MODEL 1
REMARK minimizedAffinity -3.83276391
REMARK minimizedRMSD -1
REMARK  0 active torsions:
REMARK  status: ('A' for Active; 'I' for Inactive)
ROOT
ATOM      1  C2' OXE d   1      -1.527  -0.047  -0.808  0.00  0.00     0.078 C 
ATOM      2  C1' OXE d   1      -1.026  -1.767   1.354  0.00  0.00     0.078 C 
ATOM      3  C1  OXE d   1       0.151  -1.057   0.733  0.00  0.00    -0.078 A 
ATOM      4  C2  OXE d   1      -0.098  -0.254  -0.354  0.00  0.00    -0.078 A 
ATOM      5  C3  OXE d   1       0.944   0.467  -0.931  0.00  0.00     0.003 A 
ATOM      6  C4  OXE d   1       2.265   0.263  -0.512  0.00  0.00    -0.002 A 
ATOM      7  C5  OXE d   1       2.544  -0.582   0.568  0.00  0.00    -0.002 A 
ATOM      8  C6  OXE d   1       1.496  -1.215   1.227  0.00  0.00     0.003 A 
ENDROOT
TORSDOF 0
ENDMDL
