MODEL 1
REMARK minimizedAffinity -4.09478045
REMARK minimizedRMSD -1
REMARK  0 active torsions:
REMARK  status: ('A' for Active; 'I' for Inactive)
ROOT
ATOM      1  C2' OXE d   1      -1.218  -0.303   0.021  0.00  0.00     0.078 C 
ATOM      2  C1' OXE d   1       0.829  -1.649   1.391  0.00  0.00     0.078 C 
ATOM      3  C1  OXE d   1       1.167  -0.331   0.741  0.00  0.00    -0.078 A 
ATOM      4  C2  OXE d   1       0.171   0.298   0.033  0.00  0.00    -0.078 A 
ATOM      5  C3  OXE d   1       0.413   1.543  -0.540  0.00  0.00     0.003 A 
ATOM      6  C4  OXE d   1       1.703   2.088  -0.533  0.00  0.00    -0.002 A 
ATOM      7  C5  OXE d   1       2.741   1.445   0.149  0.00  0.00    -0.002 A 
ATOM      8  C6  OXE d   1       2.480   0.258   0.825  0.00  0.00     0.003 A 
ENDROOT
TORSDOF 0
ENDMDL
