MODEL 1
REMARK minimizedAffinity -5.48900747
REMARK minimizedRMSD -1
REMARK  0 active torsions:
REMARK  status: ('A' for Active; 'I' for Inactive)
ROOT
ATOM      1  C2' OXE d   1       1.028   1.834   0.027  0.00  0.00     0.078 C 
ATOM      2  C1' OXE d   1      -1.018  -0.086  -0.055  0.00  0.00     0.078 C 
ATOM      3  C1  OXE d   1       0.307  -0.494   0.541  0.00  0.00    -0.078 A 
ATOM      4  C2  OXE d   1       1.317   0.438   0.534  0.00  0.00    -0.078 A 
ATOM      5  C3  OXE d   1       2.541   0.132   1.120  0.00  0.00     0.003 A 
ATOM      6  C4  OXE d   1       2.804  -1.165   1.577  0.00  0.00    -0.002 A 
ATOM      7  C5  OXE d   1       1.802  -2.142   1.557  0.00  0.00    -0.002 A 
ATOM      8  C6  OXE d   1       0.537  -1.811   1.082  0.00  0.00     0.003 A 
ENDROOT
TORSDOF 0
ENDMDL
