MODEL 1
REMARK minimizedAffinity 0.577443957
REMARK minimizedRMSD -1
REMARK  0 active torsions:
REMARK  status: ('A' for Active; 'I' for Inactive)
ROOT
ATOM      1  C2' OXE d   1      -3.387   0.721  -1.513  0.00  0.00     0.078 C 
ATOM      2  C1' OXE d   1      -1.677   0.539  -3.732  0.00  0.00     0.078 C 
ATOM      3  C1  OXE d   1      -1.047   0.634  -2.365  0.00  0.00    -0.078 A 
ATOM      4  C2  OXE d   1      -1.891   0.770  -1.288  0.00  0.00    -0.078 A 
ATOM      5  C3  OXE d   1      -1.364   0.807  -0.000  0.00  0.00     0.003 A 
ATOM      6  C4  OXE d   1       0.020   0.861   0.198  0.00  0.00    -0.002 A 
ATOM      7  C5  OXE d   1       0.898   0.764  -0.887  0.00  0.00    -0.002 A 
ATOM      8  C6  OXE d   1       0.381   0.607  -2.169  0.00  0.00     0.003 A 
ENDROOT
TORSDOF 0
ENDMDL
