MODEL 1
REMARK minimizedAffinity -4.020504
REMARK minimizedRMSD -1
REMARK  0 active torsions:
REMARK  status: ('A' for Active; 'I' for Inactive)
ROOT
ATOM      1  C2' OXE d   1      -0.823   0.107  -0.433  0.00  0.00     0.078 C 
ATOM      2  C1' OXE d   1      -0.698  -2.018   1.397  0.00  0.00     0.078 C 
ATOM      3  C1  OXE d   1       0.476  -1.073   1.335  0.00  0.00    -0.078 A 
ATOM      4  C2  OXE d   1       0.426  -0.064   0.404  0.00  0.00    -0.078 A 
ATOM      5  C3  OXE d   1       1.458   0.869   0.342  0.00  0.00     0.003 A 
ATOM      6  C4  OXE d   1       2.614   0.698   1.113  0.00  0.00    -0.002 A 
ATOM      7  C5  OXE d   1       2.702  -0.347   2.039  0.00  0.00    -0.002 A 
ATOM      8  C6  OXE d   1       1.626  -1.214   2.193  0.00  0.00     0.003 A 
ENDROOT
TORSDOF 0
ENDMDL
