MODEL 1
REMARK minimizedAffinity -3.78271604
REMARK minimizedRMSD -1
REMARK  0 active torsions:
REMARK  status: ('A' for Active; 'I' for Inactive)
ROOT
ATOM      1  C2' OXE d   1      -0.843  -0.355  -0.245  0.00  0.00     0.078 C 
ATOM      2  C1' OXE d   1       1.327   1.415  -0.044  0.00  0.00     0.078 C 
ATOM      3  C1  OXE d   1       1.315   0.211   0.864  0.00  0.00    -0.078 A 
ATOM      4  C2  OXE d   1       0.226  -0.625   0.792  0.00  0.00    -0.078 A 
ATOM      5  C3  OXE d   1       0.191  -1.779   1.568  0.00  0.00     0.003 A 
ATOM      6  C4  OXE d   1       1.179  -2.016   2.532  0.00  0.00    -0.002 A 
ATOM      7  C5  OXE d   1       2.276  -1.156   2.650  0.00  0.00    -0.002 A 
ATOM      8  C6  OXE d   1       2.380  -0.064   1.796  0.00  0.00     0.003 A 
ENDROOT
TORSDOF 0
ENDMDL
