MODEL 1
REMARK minimizedAffinity -4.27962923
REMARK minimizedRMSD -1
REMARK  0 active torsions:
REMARK  status: ('A' for Active; 'I' for Inactive)
ROOT
ATOM      1  C2' OXE d   1       1.433   1.976  -0.617  0.00  0.00     0.078 C 
ATOM      2  C1' OXE d   1       2.782  -0.082   0.734  0.00  0.00     0.078 C 
ATOM      3  C1  OXE d   1       1.286  -0.202   0.584  0.00  0.00    -0.078 A 
ATOM      4  C2  OXE d   1       0.628   0.833  -0.037  0.00  0.00    -0.078 A 
ATOM      5  C3  OXE d   1      -0.745   0.748  -0.250  0.00  0.00     0.003 A 
ATOM      6  C4  OXE d   1      -1.483  -0.308   0.298  0.00  0.00    -0.002 A 
ATOM      7  C5  OXE d   1      -0.838  -1.352   0.969  0.00  0.00    -0.002 A 
ATOM      8  C6  OXE d   1       0.548  -1.336   1.084  0.00  0.00     0.003 A 
ENDROOT
TORSDOF 0
ENDMDL
