MODEL 1
REMARK minimizedAffinity -5.14484644
REMARK minimizedRMSD -1
REMARK  0 active torsions:
REMARK  status: ('A' for Active; 'I' for Inactive)
ROOT
ATOM      1  C2' OXE d   1       0.461  -2.093   1.452  0.00  0.00     0.078 C 
ATOM      2  C1' OXE d   1       2.897  -0.765   1.025  0.00  0.00     0.078 C 
ATOM      3  C1  OXE d   1       1.626  -0.035   0.669  0.00  0.00    -0.078 A 
ATOM      4  C2  OXE d   1       0.441  -0.710   0.838  0.00  0.00    -0.078 A 
ATOM      5  C3  OXE d   1      -0.764  -0.064   0.577  0.00  0.00     0.003 A 
ATOM      6  C4  OXE d   1      -0.773   1.212  -0.001  0.00  0.00    -0.002 A 
ATOM      7  C5  OXE d   1       0.424   1.902  -0.218  0.00  0.00    -0.002 A 
ATOM      8  C6  OXE d   1       1.627   1.310   0.150  0.00  0.00     0.003 A 
ENDROOT
TORSDOF 0
ENDMDL
