MODEL 1
REMARK minimizedAffinity -4.26319408
REMARK minimizedRMSD -1
REMARK  0 active torsions:
REMARK  status: ('A' for Active; 'I' for Inactive)
ROOT
ATOM      1  C2' OXE d   1      -0.684   0.221   0.029  0.00  0.00     0.078 C 
ATOM      2  C1' OXE d   1       1.902   1.298   0.211  0.00  0.00     0.078 C 
ATOM      3  C1  OXE d   1       1.629  -0.000   0.929  0.00  0.00    -0.078 A 
ATOM      4  C2  OXE d   1       0.348  -0.496   0.873  0.00  0.00    -0.078 A 
ATOM      5  C3  OXE d   1       0.055  -1.718   1.472  0.00  0.00     0.003 A 
ATOM      6  C4  OXE d   1       1.013  -2.369   2.258  0.00  0.00    -0.002 A 
ATOM      7  C5  OXE d   1       2.312  -1.861   2.361  0.00  0.00    -0.002 A 
ATOM      8  C6  OXE d   1       2.647  -0.703   1.669  0.00  0.00     0.003 A 
ENDROOT
TORSDOF 0
ENDMDL
