MODEL 1
REMARK minimizedAffinity -5.37379074
REMARK minimizedRMSD -1
REMARK  0 active torsions:
REMARK  status: ('A' for Active; 'I' for Inactive)
ROOT
ATOM      1  C2' OXE d   1       0.409   2.272   0.714  0.00  0.00     0.078 C 
ATOM      2  C1' OXE d   1      -1.015  -0.049   0.033  0.00  0.00     0.078 C 
ATOM      3  C1  OXE d   1       0.414  -0.209   0.488  0.00  0.00    -0.078 A 
ATOM      4  C2  OXE d   1       1.118   0.936   0.775  0.00  0.00    -0.078 A 
ATOM      5  C3  OXE d   1       2.422   0.842   1.251  0.00  0.00     0.003 A 
ATOM      6  C4  OXE d   1       3.073  -0.396   1.295  0.00  0.00    -0.002 A 
ATOM      7  C5  OXE d   1       2.387  -1.571   0.969  0.00  0.00    -0.002 A 
ATOM      8  C6  OXE d   1       1.047  -1.499   0.606  0.00  0.00     0.003 A 
ENDROOT
TORSDOF 0
ENDMDL
