MODEL 1
REMARK minimizedAffinity -1.88620234
REMARK minimizedRMSD -1
REMARK  0 active torsions:
REMARK  status: ('A' for Active; 'I' for Inactive)
ROOT
ATOM      1  C2' OXE d   1      -1.503  -0.240  -0.176  0.00  0.00     0.078 C 
ATOM      2  C1' OXE d   1      -0.097  -2.356   1.017  0.00  0.00     0.078 C 
ATOM      3  C1  OXE d   1       0.643  -1.062   0.785  0.00  0.00    -0.078 A 
ATOM      4  C2  OXE d   1      -0.040  -0.047   0.158  0.00  0.00    -0.078 A 
ATOM      5  C3  OXE d   1       0.579   1.185  -0.030  0.00  0.00     0.003 A 
ATOM      6  C4  OXE d   1       1.936   1.351   0.273  0.00  0.00    -0.002 A 
ATOM      7  C5  OXE d   1       2.660   0.317   0.875  0.00  0.00    -0.002 A 
ATOM      8  C6  OXE d   1       2.019  -0.879   1.176  0.00  0.00     0.003 A 
ENDROOT
TORSDOF 0
ENDMDL
