MODEL 1
REMARK minimizedAffinity -2.14985776
REMARK minimizedRMSD -1
REMARK  0 active torsions:
REMARK  status: ('A' for Active; 'I' for Inactive)
ROOT
ATOM      1  C   UNL d   1      -2.586   3.456  -6.000  0.00  0.00     0.172 C 
ATOM      2  N   UNL d   1      -1.182   3.793  -6.000  0.00  0.00    -0.070 N 
ATOM      3  C1  UNL d   1      -0.146   2.898  -5.999  0.00  0.00    -0.004 A 
ATOM      4  C2  UNL d   1       1.031   3.615  -6.000  0.00  0.00    -0.047 A 
ATOM      5  C3  UNL d   1       0.691   4.989  -6.000  0.00  0.00    -0.047 A 
ATOM      6  C4  UNL d   1      -0.686   5.070  -6.000  0.00  0.00    -0.004 A 
ENDROOT
TORSDOF 0
ENDMDL
