MODEL 1
REMARK minimizedAffinity -1.86683059
REMARK minimizedRMSD -1
REMARK  0 active torsions:
REMARK  status: ('A' for Active; 'I' for Inactive)
ROOT
ATOM      1  C   UNL d   1      -2.570   3.786  -5.971  0.00  0.00     0.172 C 
ATOM      2  N   UNL d   1      -1.280   4.434  -5.979  0.00  0.00    -0.070 N 
ATOM      3  C1  UNL d   1      -1.066   5.787  -5.972  0.00  0.00    -0.004 A 
ATOM      4  C2  UNL d   1       0.295   5.999  -5.984  0.00  0.00    -0.047 A 
ATOM      5  C3  UNL d   1       0.922   4.730  -5.999  0.00  0.00    -0.047 A 
ATOM      6  C4  UNL d   1      -0.077   3.779  -5.996  0.00  0.00    -0.004 A 
ENDROOT
TORSDOF 0
ENDMDL
