MODEL 1
REMARK minimizedAffinity -2.22375917
REMARK minimizedRMSD -1
REMARK  0 active torsions:
REMARK  status: ('A' for Active; 'I' for Inactive)
ROOT
ATOM      1  C   UNL d   1      -3.613   3.755  -6.000  0.00  0.00     0.172 C 
ATOM      2  N   UNL d   1      -2.241   4.207  -5.982  0.00  0.00    -0.070 N 
ATOM      3  C1  UNL d   1      -1.831   5.513  -5.947  0.00  0.00    -0.004 A 
ATOM      4  C2  UNL d   1      -0.453   5.522  -5.940  0.00  0.00    -0.047 A 
ATOM      5  C3  UNL d   1      -0.020   4.175  -5.974  0.00  0.00    -0.047 A 
ATOM      6  C4  UNL d   1      -1.147   3.382  -6.000  0.00  0.00    -0.004 A 
ENDROOT
TORSDOF 0
ENDMDL
