MODEL 1
REMARK minimizedAffinity -2.0637598
REMARK minimizedRMSD -1
REMARK  0 active torsions:
REMARK  status: ('A' for Active; 'I' for Inactive)
ROOT
ATOM      1  C   UNL d   1      -2.222   5.896  -5.985  0.00  0.00     0.172 C 
ATOM      2  N   UNL d   1      -1.127   4.960  -5.880  0.00  0.00    -0.070 N 
ATOM      3  C1  UNL d   1       0.182   5.287  -5.649  0.00  0.00    -0.004 A 
ATOM      4  C2  UNL d   1       0.910   4.117  -5.618  0.00  0.00    -0.047 A 
ATOM      5  C3  UNL d   1       0.007   3.051  -5.840  0.00  0.00    -0.047 A 
ATOM      6  C4  UNL d   1      -1.247   3.601  -5.999  0.00  0.00    -0.004 A 
ENDROOT
TORSDOF 0
ENDMDL
