MODEL 1
REMARK minimizedAffinity -1.71436846
REMARK minimizedRMSD -1
REMARK  0 active torsions:
REMARK  status: ('A' for Active; 'I' for Inactive)
ROOT
ATOM      1  C   UNL d   1       0.705   4.716  -5.988  0.00  0.00     0.172 C 
ATOM      2  N   UNL d   1      -0.735   4.821  -5.989  0.00  0.00    -0.070 N 
ATOM      3  C1  UNL d   1      -1.612   3.769  -6.000  0.00  0.00    -0.004 A 
ATOM      4  C2  UNL d   1      -2.890   4.285  -5.996  0.00  0.00    -0.047 A 
ATOM      5  C3  UNL d   1      -2.777   5.696  -5.984  0.00  0.00    -0.047 A 
ATOM      6  C4  UNL d   1      -1.432   6.000  -5.980  0.00  0.00    -0.004 A 
ENDROOT
TORSDOF 0
ENDMDL
