MODEL 1
REMARK minimizedAffinity -1.78094637
REMARK minimizedRMSD -1
REMARK  0 active torsions:
REMARK  status: ('A' for Active; 'I' for Inactive)
ROOT
ATOM      1  C   UNL d   1      -3.008   3.233  -5.994  0.00  0.00     0.172 C 
ATOM      2  N   UNL d   1      -1.619   3.627  -5.997  0.00  0.00    -0.070 N 
ATOM      3  C1  UNL d   1      -1.155   4.916  -5.998  0.00  0.00    -0.004 A 
ATOM      4  C2  UNL d   1       0.222   4.868  -6.000  0.00  0.00    -0.047 A 
ATOM      5  C3  UNL d   1       0.599   3.504  -6.000  0.00  0.00    -0.047 A 
ATOM      6  C4  UNL d   1      -0.560   2.758  -5.998  0.00  0.00    -0.004 A 
ENDROOT
TORSDOF 0
ENDMDL
