MODEL 1
REMARK minimizedAffinity -0.997494102
REMARK minimizedRMSD -1
REMARK  0 active torsions:
REMARK  status: ('A' for Active; 'I' for Inactive)
ROOT
ATOM      1  C   UNL d   1      -1.684   2.855  -5.988  0.00  0.00     0.172 C 
ATOM      2  N   UNL d   1      -0.551   3.749  -5.991  0.00  0.00    -0.070 N 
ATOM      3  C1  UNL d   1      -0.613   5.117  -5.999  0.00  0.00    -0.004 A 
ATOM      4  C2  UNL d   1       0.678   5.598  -5.999  0.00  0.00    -0.047 A 
ATOM      5  C3  UNL d   1       1.547   4.481  -5.993  0.00  0.00    -0.047 A 
ATOM      6  C4  UNL d   1       0.759   3.349  -5.988  0.00  0.00    -0.004 A 
ENDROOT
TORSDOF 0
ENDMDL
