MODEL 1
REMARK minimizedAffinity -1.30969
REMARK minimizedRMSD -1
REMARK  0 active torsions:
REMARK  status: ('A' for Active; 'I' for Inactive)
ROOT
ATOM      1  C   UNL d   1       0.600   4.401  -5.994  0.00  0.00     0.172 C 
ATOM      2  N   UNL d   1      -0.840   4.297  -5.995  0.00  0.00    -0.070 N 
ATOM      3  C1  UNL d   1      -1.556   3.129  -5.994  0.00  0.00    -0.004 A 
ATOM      4  C2  UNL d   1      -2.895   3.455  -5.996  0.00  0.00    -0.047 A 
ATOM      5  C3  UNL d   1      -2.987   4.867  -5.999  0.00  0.00    -0.047 A 
ATOM      6  C4  UNL d   1      -1.701   5.363  -5.999  0.00  0.00    -0.004 A 
ENDROOT
TORSDOF 0
ENDMDL
