MODEL 1
REMARK minimizedAffinity -2.11600208
REMARK minimizedRMSD -1
REMARK  0 active torsions:
REMARK  status: ('A' for Active; 'I' for Inactive)
ROOT
ATOM      1  C   UNL d   1      -2.971   3.398  -5.991  0.00  0.00     0.172 C 
ATOM      2  N   UNL d   1      -1.551   3.659  -5.993  0.00  0.00    -0.070 N 
ATOM      3  C1  UNL d   1      -0.565   2.709  -5.989  0.00  0.00    -0.004 A 
ATOM      4  C2  UNL d   1       0.650   3.361  -5.994  0.00  0.00    -0.047 A 
ATOM      5  C3  UNL d   1       0.384   4.751  -5.999  0.00  0.00    -0.047 A 
ATOM      6  C4  UNL d   1      -0.986   4.907  -5.999  0.00  0.00    -0.004 A 
ENDROOT
TORSDOF 0
ENDMDL
