MODEL 1
REMARK minimizedAffinity -2.71192193
REMARK minimizedRMSD -1
REMARK  0 active torsions:
REMARK  status: ('A' for Active; 'I' for Inactive)
ROOT
ATOM      1  C   UNL d   1       4.249   4.487  -5.994  0.00  0.00     0.172 C 
ATOM      2  N   UNL d   1       2.817   4.299  -5.995  0.00  0.00    -0.070 N 
ATOM      3  C1  UNL d   1       1.880   5.298  -6.000  0.00  0.00    -0.004 A 
ATOM      4  C2  UNL d   1       0.635   4.708  -6.000  0.00  0.00    -0.047 A 
ATOM      5  C3  UNL d   1       0.829   3.306  -5.993  0.00  0.00    -0.047 A 
ATOM      6  C4  UNL d   1       2.190   3.081  -5.990  0.00  0.00    -0.004 A 
ENDROOT
TORSDOF 0
ENDMDL
