MODEL 1
REMARK minimizedAffinity 0.0494387075
REMARK minimizedRMSD -1
REMARK  0 active torsions:
REMARK  status: ('A' for Active; 'I' for Inactive)
ROOT
ATOM      1  C   UNL d   1       2.354   4.508  -6.000  0.00  0.00     0.172 C 
ATOM      2  N   UNL d   1       1.164   3.690  -5.998  0.00  0.00    -0.070 N 
ATOM      3  C1  UNL d   1       1.136   2.321  -5.995  0.00  0.00    -0.004 A 
ATOM      4  C2  UNL d   1      -0.185   1.926  -5.994  0.00  0.00    -0.047 A 
ATOM      5  C3  UNL d   1      -0.978   3.099  -5.997  0.00  0.00    -0.047 A 
ATOM      6  C4  UNL d   1      -0.117   4.176  -6.000  0.00  0.00    -0.004 A 
ENDROOT
TORSDOF 0
ENDMDL
