MODEL 1
REMARK minimizedAffinity -0.0605744608
REMARK minimizedRMSD -1
REMARK  0 active torsions:
REMARK  status: ('A' for Active; 'I' for Inactive)
ROOT
ATOM      1  C   UNL d   1      -1.394   5.996  -5.980  0.00  0.00     0.172 C 
ATOM      2  N   UNL d   1      -0.130   5.298  -5.985  0.00  0.00    -0.070 N 
ATOM      3  C1  UNL d   1       1.106   5.886  -5.985  0.00  0.00    -0.004 A 
ATOM      4  C2  UNL d   1       2.051   4.882  -5.990  0.00  0.00    -0.047 A 
ATOM      5  C3  UNL d   1       1.357   3.648  -5.993  0.00  0.00    -0.047 A 
ATOM      6  C4  UNL d   1       0.009   3.935  -5.990  0.00  0.00    -0.004 A 
ENDROOT
TORSDOF 0
ENDMDL
