MODEL 1
REMARK minimizedAffinity -4.2605052
REMARK minimizedRMSD -1
REMARK  0 active torsions:
REMARK  status: ('A' for Active; 'I' for Inactive)
ROOT
ATOM      1  C   UNL d   1       0.803   1.936  -0.210  0.00  0.00     0.077 C 
ATOM      2  C1  UNL d   1       0.408   0.492  -0.119  0.00  0.00    -0.074 A 
ATOM      3  C2  UNL d   1      -0.325   0.014   0.972  0.00  0.00    -0.005 A 
ATOM      4  C3  UNL d   1      -0.692  -1.330   1.038  0.00  0.00     0.006 A 
ATOM      5  C4  UNL d   1      -0.332  -2.208   0.016  0.00  0.00    -0.005 A 
ATOM      6  C5  UNL d   1       0.400  -1.749  -1.083  0.00  0.00    -0.074 A 
ATOM      7  C6  UNL d   1       0.788  -2.678  -2.196  0.00  0.00     0.077 C 
ATOM      8  C7  UNL d   1       0.760  -0.396  -1.146  0.00  0.00    -0.001 A 
ENDROOT
TORSDOF 0
ENDMDL
