MODEL 1
REMARK minimizedAffinity -4.77159977
REMARK minimizedRMSD -1
REMARK  0 active torsions:
REMARK  status: ('A' for Active; 'I' for Inactive)
ROOT
ATOM      1  C   UNL d   1       0.430  -4.920  -0.322  0.00  0.00     0.077 C 
ATOM      2  C1  UNL d   1       0.128  -3.468  -0.545  0.00  0.00    -0.074 A 
ATOM      3  C2  UNL d   1       0.365  -2.867  -1.785  0.00  0.00    -0.005 A 
ATOM      4  C3  UNL d   1       0.070  -1.518  -1.980  0.00  0.00     0.006 A 
ATOM      5  C4  UNL d   1      -0.464  -0.757  -0.938  0.00  0.00    -0.005 A 
ATOM      6  C5  UNL d   1      -0.708  -1.342   0.309  0.00  0.00    -0.074 A 
ATOM      7  C6  UNL d   1      -1.290  -0.542   1.436  0.00  0.00     0.077 C 
ATOM      8  C7  UNL d   1      -0.415  -2.700   0.494  0.00  0.00    -0.001 A 
ENDROOT
TORSDOF 0
ENDMDL
