MODEL 1
REMARK minimizedAffinity -5.52281332
REMARK minimizedRMSD -1
REMARK  0 active torsions:
REMARK  status: ('A' for Active; 'I' for Inactive)
ROOT
ATOM      1  C   UNL d   1       0.755  -3.220  -2.404  0.00  0.00     0.077 C 
ATOM      2  C1  UNL d   1       0.240  -2.402  -1.257  0.00  0.00    -0.074 A 
ATOM      3  C2  UNL d   1      -0.434  -3.005  -0.190  0.00  0.00    -0.005 A 
ATOM      4  C3  UNL d   1      -0.898  -2.232   0.874  0.00  0.00     0.006 A 
ATOM      5  C4  UNL d   1      -0.693  -0.852   0.883  0.00  0.00    -0.005 A 
ATOM      6  C5  UNL d   1      -0.021  -0.232  -0.175  0.00  0.00    -0.074 A 
ATOM      7  C6  UNL d   1       0.217   1.249  -0.177  0.00  0.00     0.077 C 
ATOM      8  C7  UNL d   1       0.449  -1.016  -1.238  0.00  0.00    -0.001 A 
ENDROOT
TORSDOF 0
ENDMDL
