MODEL 1
REMARK minimizedAffinity -4.35242891
REMARK minimizedRMSD -1
REMARK  0 active torsions:
REMARK  status: ('A' for Active; 'I' for Inactive)
ROOT
ATOM      1  C   UNL d   1       0.188   0.791  -0.349  0.00  0.00     0.077 C 
ATOM      2  C1  UNL d   1       0.098  -0.704  -0.430  0.00  0.00    -0.074 A 
ATOM      3  C2  UNL d   1      -0.511  -1.444   0.589  0.00  0.00    -0.005 A 
ATOM      4  C3  UNL d   1      -0.596  -2.833   0.496  0.00  0.00     0.006 A 
ATOM      5  C4  UNL d   1      -0.074  -3.495  -0.616  0.00  0.00    -0.005 A 
ATOM      6  C5  UNL d   1       0.537  -2.772  -1.646  0.00  0.00    -0.074 A 
ATOM      7  C6  UNL d   1       1.094  -3.468  -2.852  0.00  0.00     0.077 C 
ATOM      8  C7  UNL d   1       0.612  -1.376  -1.547  0.00  0.00    -0.001 A 
ENDROOT
TORSDOF 0
ENDMDL
