MODEL 1
REMARK minimizedAffinity -4.94976711
REMARK minimizedRMSD -1
REMARK  0 active torsions:
REMARK  status: ('A' for Active; 'I' for Inactive)
ROOT
ATOM      1  C   UNL d   1       0.444  -2.528  -3.308  0.00  0.00     0.077 C 
ATOM      2  C1  UNL d   1       0.196  -2.548  -1.829  0.00  0.00    -0.074 A 
ATOM      3  C2  UNL d   1       0.177  -3.754  -1.120  0.00  0.00    -0.005 A 
ATOM      4  C3  UNL d   1      -0.045  -3.756   0.257  0.00  0.00     0.006 A 
ATOM      5  C4  UNL d   1      -0.250  -2.555   0.938  0.00  0.00    -0.005 A 
ATOM      6  C5  UNL d   1      -0.233  -1.340   0.246  0.00  0.00    -0.074 A 
ATOM      7  C6  UNL d   1      -0.442  -0.040   0.964  0.00  0.00     0.077 C 
ATOM      8  C7  UNL d   1      -0.003  -1.345  -1.137  0.00  0.00    -0.001 A 
ENDROOT
TORSDOF 0
ENDMDL
