MODEL 1
REMARK minimizedAffinity -3.90305328
REMARK minimizedRMSD -1
REMARK  0 active torsions:
REMARK  status: ('A' for Active; 'I' for Inactive)
ROOT
ATOM      1  C   UNL d   1       0.512  -3.930  -0.497  0.00  0.00     0.077 C 
ATOM      2  C1  UNL d   1      -0.015  -2.619   0.007  0.00  0.00    -0.074 A 
ATOM      3  C2  UNL d   1      -0.920  -2.570   1.072  0.00  0.00    -0.005 A 
ATOM      4  C3  UNL d   1      -1.394  -1.343   1.536  0.00  0.00     0.006 A 
ATOM      5  C4  UNL d   1      -0.969  -0.155   0.941  0.00  0.00    -0.005 A 
ATOM      6  C5  UNL d   1      -0.064  -0.184  -0.125  0.00  0.00    -0.074 A 
ATOM      7  C6  UNL d   1       0.411   1.084  -0.769  0.00  0.00     0.077 C 
ATOM      8  C7  UNL d   1       0.414  -1.420  -0.581  0.00  0.00    -0.001 A 
ENDROOT
TORSDOF 0
ENDMDL
