MODEL 1
REMARK minimizedAffinity -4.16630316
REMARK minimizedRMSD -1
REMARK  0 active torsions:
REMARK  status: ('A' for Active; 'I' for Inactive)
ROOT
ATOM      1  C   UNL d   1       0.045   1.528  -0.331  0.00  0.00     0.077 C 
ATOM      2  C1  UNL d   1      -0.186   0.046  -0.288  0.00  0.00    -0.074 A 
ATOM      3  C2  UNL d   1      -0.626  -0.579   0.882  0.00  0.00    -0.005 A 
ATOM      4  C3  UNL d   1      -0.845  -1.957   0.904  0.00  0.00     0.006 A 
ATOM      5  C4  UNL d   1      -0.627  -2.721  -0.243  0.00  0.00    -0.005 A 
ATOM      6  C5  UNL d   1      -0.187  -2.113  -1.423  0.00  0.00    -0.074 A 
ATOM      7  C6  UNL d   1       0.043  -2.918  -2.667  0.00  0.00     0.077 C 
ATOM      8  C7  UNL d   1       0.024  -0.727  -1.439  0.00  0.00    -0.001 A 
ENDROOT
TORSDOF 0
ENDMDL
