MODEL 1
REMARK minimizedAffinity -4.1473403
REMARK minimizedRMSD -1
REMARK  0 active torsions:
REMARK  status: ('A' for Active; 'I' for Inactive)
ROOT
ATOM      1  C   UNL d   1       0.038   1.624  -0.613  0.00  0.00     0.077 C 
ATOM      2  C1  UNL d   1      -0.378   0.261  -0.145  0.00  0.00    -0.074 A 
ATOM      3  C2  UNL d   1      -1.022   0.088   1.084  0.00  0.00    -0.005 A 
ATOM      4  C3  UNL d   1      -1.412  -1.185   1.501  0.00  0.00     0.006 A 
ATOM      5  C4  UNL d   1      -1.161  -2.295   0.694  0.00  0.00    -0.005 A 
ATOM      6  C5  UNL d   1      -0.519  -2.142  -0.538  0.00  0.00    -0.074 A 
ATOM      7  C6  UNL d   1      -0.251  -3.324  -1.422  0.00  0.00     0.077 C 
ATOM      8  C7  UNL d   1      -0.137  -0.859  -0.954  0.00  0.00    -0.001 A 
ENDROOT
TORSDOF 0
ENDMDL
