MODEL 1
REMARK minimizedAffinity -2.96515799
REMARK minimizedRMSD -1
REMARK  0 active torsions:
REMARK  status: ('A' for Active; 'I' for Inactive)
ROOT
ATOM      1  C   UNL d   1      -0.825  -0.884   1.548  0.00  0.00     0.077 C 
ATOM      2  C1  UNL d   1      -0.441   0.118   0.500  0.00  0.00    -0.074 A 
ATOM      3  C2  UNL d   1      -0.586  -0.172  -0.860  0.00  0.00    -0.005 A 
ATOM      4  C3  UNL d   1      -0.233   0.774  -1.823  0.00  0.00     0.006 A 
ATOM      5  C4  UNL d   1       0.268   2.017  -1.435  0.00  0.00    -0.005 A 
ATOM      6  C5  UNL d   1       0.419   2.326  -0.080  0.00  0.00    -0.074 A 
ATOM      7  C6  UNL d   1       0.947   3.661   0.354  0.00  0.00     0.077 C 
ATOM      8  C7  UNL d   1       0.056   1.373   0.882  0.00  0.00    -0.001 A 
ENDROOT
TORSDOF 0
ENDMDL
