MODEL 1
REMARK minimizedAffinity -6.22637272
REMARK minimizedRMSD -1
REMARK  0 active torsions:
REMARK  status: ('A' for Active; 'I' for Inactive)
ROOT
ATOM      1  C   UNL d   1       0.337  -3.151  -1.347  0.00  0.00     0.077 C 
ATOM      2  C1  UNL d   1      -0.155  -2.086  -0.412  0.00  0.00    -0.074 A 
ATOM      3  C2  UNL d   1      -0.790  -2.421   0.789  0.00  0.00    -0.005 A 
ATOM      4  C3  UNL d   1      -1.233  -1.420   1.653  0.00  0.00     0.006 A 
ATOM      5  C4  UNL d   1      -1.046  -0.077   1.327  0.00  0.00    -0.005 A 
ATOM      6  C5  UNL d   1      -0.413   0.277   0.131  0.00  0.00    -0.074 A 
ATOM      7  C6  UNL d   1      -0.195   1.717  -0.230  0.00  0.00     0.077 C 
ATOM      8  C7  UNL d   1       0.036  -0.734  -0.729  0.00  0.00    -0.001 A 
ENDROOT
TORSDOF 0
ENDMDL
