MODEL 1
REMARK minimizedAffinity -3.81524134
REMARK minimizedRMSD -1
REMARK  0 active torsions:
REMARK  status: ('A' for Active; 'I' for Inactive)
ROOT
ATOM      1  C   UNL d   1       0.403   1.099   0.216  0.00  0.00     0.077 C 
ATOM      2  C1  UNL d   1       0.154  -0.374   0.079  0.00  0.00    -0.074 A 
ATOM      3  C2  UNL d   1      -0.167  -1.155   1.194  0.00  0.00    -0.005 A 
ATOM      4  C3  UNL d   1      -0.406  -2.522   1.050  0.00  0.00     0.006 A 
ATOM      5  C4  UNL d   1      -0.326  -3.120  -0.209  0.00  0.00    -0.005 A 
ATOM      6  C5  UNL d   1      -0.008  -2.354  -1.335  0.00  0.00    -0.074 A 
ATOM      7  C6  UNL d   1       0.072  -2.979  -2.696  0.00  0.00     0.077 C 
ATOM      8  C7  UNL d   1       0.224  -0.980  -1.183  0.00  0.00    -0.001 A 
ENDROOT
TORSDOF 0
ENDMDL
