MODEL 1
REMARK minimizedAffinity -2.7410357
REMARK minimizedRMSD -1
REMARK  0 active torsions:
REMARK  status: ('A' for Active; 'I' for Inactive)
ROOT
ATOM      1  C   UNL d   1      -0.983   0.024   0.943  0.00  0.00     0.077 C 
ATOM      2  C1  UNL d   1       0.072   0.949   0.412  0.00  0.00    -0.074 A 
ATOM      3  C2  UNL d   1       0.407   0.953  -0.946  0.00  0.00    -0.005 A 
ATOM      4  C3  UNL d   1       1.383   1.826  -1.426  0.00  0.00     0.006 A 
ATOM      5  C4  UNL d   1       2.033   2.701  -0.555  0.00  0.00    -0.005 A 
ATOM      6  C5  UNL d   1       1.711   2.712   0.805  0.00  0.00    -0.074 A 
ATOM      7  C6  UNL d   1       2.393   3.653   1.753  0.00  0.00     0.077 C 
ATOM      8  C7  UNL d   1       0.724   1.837   1.279  0.00  0.00    -0.001 A 
ENDROOT
TORSDOF 0
ENDMDL
