MODEL 1
REMARK minimizedAffinity -5.26819277
REMARK minimizedRMSD -1
REMARK  0 active torsions:
REMARK  status: ('A' for Active; 'I' for Inactive)
ROOT
ATOM      1  C   UNL d   1      -0.217  -3.376  -2.291  0.00  0.00     0.077 C 
ATOM      2  C1  UNL d   1      -0.383  -2.062  -1.588  0.00  0.00    -0.074 A 
ATOM      3  C2  UNL d   1      -0.178  -0.855  -2.263  0.00  0.00    -0.005 A 
ATOM      4  C3  UNL d   1      -0.345   0.360  -1.598  0.00  0.00     0.006 A 
ATOM      5  C4  UNL d   1      -0.718   0.380  -0.254  0.00  0.00    -0.005 A 
ATOM      6  C5  UNL d   1      -0.928  -0.817   0.438  0.00  0.00    -0.074 A 
ATOM      7  C6  UNL d   1      -1.339  -0.814   1.880  0.00  0.00     0.077 C 
ATOM      8  C7  UNL d   1      -0.765  -2.034  -0.239  0.00  0.00    -0.001 A 
ENDROOT
TORSDOF 0
ENDMDL
