MODEL 1
REMARK minimizedAffinity -3.01129127
REMARK minimizedRMSD -1
REMARK  0 active torsions:
REMARK  status: ('A' for Active; 'I' for Inactive)
ROOT
ATOM      1  C   UNL d   1       0.114  -3.419   0.856  0.00  0.00     0.077 C 
ATOM      2  C1  UNL d   1      -0.178  -1.950   0.772  0.00  0.00    -0.074 A 
ATOM      3  C2  UNL d   1      -0.964  -1.317   1.740  0.00  0.00    -0.005 A 
ATOM      4  C3  UNL d   1      -1.218   0.052   1.654  0.00  0.00     0.006 A 
ATOM      5  C4  UNL d   1      -0.691   0.800   0.601  0.00  0.00    -0.005 A 
ATOM      6  C5  UNL d   1       0.099   0.184  -0.376  0.00  0.00    -0.074 A 
ATOM      7  C6  UNL d   1       0.682   0.975  -1.509  0.00  0.00     0.077 C 
ATOM      8  C7  UNL d   1       0.356  -1.190  -0.279  0.00  0.00    -0.001 A 
ENDROOT
TORSDOF 0
ENDMDL
