MODEL 1
REMARK minimizedAffinity -4.87453747
REMARK minimizedRMSD -1
REMARK  0 active torsions:
REMARK  status: ('A' for Active; 'I' for Inactive)
ROOT
ATOM      1  C   UNL d   1      -0.036  -2.352  -2.272  0.00  0.00     0.077 C 
ATOM      2  C1  UNL d   1      -0.270  -1.572  -1.013  0.00  0.00    -0.074 A 
ATOM      3  C2  UNL d   1      -0.538  -2.221   0.196  0.00  0.00    -0.005 A 
ATOM      4  C3  UNL d   1      -0.743  -1.482   1.361  0.00  0.00     0.006 A 
ATOM      5  C4  UNL d   1      -0.683  -0.089   1.329  0.00  0.00    -0.005 A 
ATOM      6  C5  UNL d   1      -0.415   0.578   0.129  0.00  0.00    -0.074 A 
ATOM      7  C6  UNL d   1      -0.338   2.075   0.079  0.00  0.00     0.077 C 
ATOM      8  C7  UNL d   1      -0.203  -0.172  -1.036  0.00  0.00    -0.001 A 
ENDROOT
TORSDOF 0
ENDMDL
