MODEL 1
REMARK minimizedAffinity -1.45405114
REMARK minimizedRMSD -1
REMARK  2 active torsions:
REMARK  status: ('A' for Active; 'I' for Inactive)
REMARK    1  A    between atoms: C2'_3  and  C1'_4 
REMARK    2  A    between atoms: C1'_4  and  C1_5 
ROOT
ATOM      1  C1  I4B d   1      -1.069  -2.620  -0.070  0.00  0.00    -0.075 A 
ATOM      2  C2  I4B d   1      -1.870  -3.466   0.655  0.00  0.00     0.003 A 
ATOM      3  C3  I4B d   1      -2.590  -4.498   0.006  0.00  0.00     0.002 A 
ATOM      4  C4  I4B d   1      -2.519  -4.615  -1.367  0.00  0.00    -0.004 A 
ATOM      5  C5  I4B d   1      -1.689  -3.771  -2.099  0.00  0.00     0.002 A 
ATOM      6  C6  I4B d   1      -0.949  -2.775  -1.445  0.00  0.00     0.003 A 
ENDROOT
BRANCH   1   7
ATOM      7  C1' I4B d   1      -0.348  -1.520   0.644  0.00  0.00     0.060 C 
BRANCH   7   8
ATOM      8  C2' I4B d   1       0.582  -0.851  -0.348  0.00  0.00    -0.013 C 
ATOM      9  C4' I4B d   1       0.366   0.639  -0.377  0.00  0.00     0.013 C 
ATOM     10  C3' I4B d   1       1.991  -1.186   0.039  0.00  0.00     0.013 C 
ENDBRANCH   7   8
ENDBRANCH   1   7
TORSDOF 2
ENDMDL
