MODEL 1
REMARK minimizedAffinity -5.04099464
REMARK minimizedRMSD -1
REMARK  2 active torsions:
REMARK  status: ('A' for Active; 'I' for Inactive)
REMARK    1  A    between atoms: C2'_3  and  C1'_4 
REMARK    2  A    between atoms: C1'_4  and  C1_5 
ROOT
ATOM      1  C1  I4B d   1      -0.783  -1.036   1.370  0.00  0.00    -0.075 A 
ATOM      2  C2  I4B d   1      -0.105  -2.181   1.705  0.00  0.00     0.003 A 
ATOM      3  C3  I4B d   1      -0.483  -2.924   2.850  0.00  0.00     0.002 A 
ATOM      4  C4  I4B d   1      -1.505  -2.461   3.653  0.00  0.00    -0.004 A 
ATOM      5  C5  I4B d   1      -2.206  -1.311   3.299  0.00  0.00     0.002 A 
ATOM      6  C6  I4B d   1      -1.851  -0.601   2.143  0.00  0.00     0.003 A 
ENDROOT
BRANCH   1   7
ATOM      7  C1' I4B d   1      -0.336  -0.258   0.172  0.00  0.00     0.060 C 
BRANCH   7   8
ATOM      8  C2' I4B d   1       0.079   1.122   0.640  0.00  0.00    -0.013 C 
ATOM      9  C4' I4B d   1       1.519   1.403   0.300  0.00  0.00     0.013 C 
ATOM     10  C3' I4B d   1      -0.834   2.123  -0.003  0.00  0.00     0.013 C 
ENDBRANCH   7   8
ENDBRANCH   1   7
TORSDOF 2
ENDMDL
