MODEL 1
REMARK minimizedAffinity -6.28036499
REMARK minimizedRMSD -1
REMARK  2 active torsions:
REMARK  status: ('A' for Active; 'I' for Inactive)
REMARK    1  A    between atoms: C2'_3  and  C1'_4 
REMARK    2  A    between atoms: C1'_4  and  C1_5 
ROOT
ATOM      1  C1  I4B d   1      -0.717   0.095   0.522  0.00  0.00    -0.075 A 
ATOM      2  C2  I4B d   1       0.563   0.189   0.037  0.00  0.00     0.003 A 
ATOM      3  C3  I4B d   1       1.025   1.403  -0.527  0.00  0.00     0.002 A 
ATOM      4  C4  I4B d   1       0.162   2.475  -0.631  0.00  0.00    -0.004 A 
ATOM      5  C5  I4B d   1      -1.128   2.386  -0.117  0.00  0.00     0.002 A 
ATOM      6  C6  I4B d   1      -1.567   1.192   0.474  0.00  0.00     0.003 A 
ENDROOT
BRANCH   1   7
ATOM      7  C1' I4B d   1      -1.182  -1.212   1.081  0.00  0.00     0.060 C 
BRANCH   7   8
ATOM      8  C2' I4B d   1      -1.420  -1.027   2.566  0.00  0.00    -0.013 C 
ATOM      9  C4' I4B d   1      -2.892  -1.018   2.885  0.00  0.00     0.013 C 
ATOM     10  C3' I4B d   1      -0.716  -2.136   3.289  0.00  0.00     0.013 C 
ENDBRANCH   7   8
ENDBRANCH   1   7
TORSDOF 2
ENDMDL
