MODEL 1
REMARK minimizedAffinity -3.67122483
REMARK minimizedRMSD -1
REMARK  2 active torsions:
REMARK  status: ('A' for Active; 'I' for Inactive)
REMARK    1  A    between atoms: C2'_3  and  C1'_4 
REMARK    2  A    between atoms: C1'_4  and  C1_5 
ROOT
ATOM      1  C1  I4B d   1      -0.125  -2.062  -0.927  0.00  0.00    -0.075 A 
ATOM      2  C2  I4B d   1       0.659  -3.189  -0.932  0.00  0.00     0.003 A 
ATOM      3  C3  I4B d   1       0.636  -4.070  -2.040  0.00  0.00     0.002 A 
ATOM      4  C4  I4B d   1      -0.218  -3.814  -3.093  0.00  0.00    -0.004 A 
ATOM      5  C5  I4B d   1      -0.996  -2.660  -3.098  0.00  0.00     0.002 A 
ATOM      6  C6  I4B d   1      -0.940  -1.772  -2.014  0.00  0.00     0.003 A 
ENDROOT
BRANCH   1   7
ATOM      7  C1' I4B d   1      -0.101  -1.171   0.274  0.00  0.00     0.060 C 
BRANCH   7   8
ATOM      8  C2' I4B d   1      -0.067   0.264  -0.211  0.00  0.00    -0.013 C 
ATOM      9  C4' I4B d   1      -1.265   1.033   0.279  0.00  0.00     0.013 C 
ATOM     10  C3' I4B d   1       1.210   0.886   0.272  0.00  0.00     0.013 C 
ENDBRANCH   7   8
ENDBRANCH   1   7
TORSDOF 2
ENDMDL
