MODEL 1
REMARK minimizedAffinity -3.00616527
REMARK minimizedRMSD -1
REMARK  2 active torsions:
REMARK  status: ('A' for Active; 'I' for Inactive)
REMARK    1  A    between atoms: C2'_3  and  C1'_4 
REMARK    2  A    between atoms: C1'_4  and  C1_5 
ROOT
ATOM      1  C1  I4B d   1      -1.047   0.852   0.899  0.00  0.00    -0.075 A 
ATOM      2  C2  I4B d   1      -0.015   0.135   0.349  0.00  0.00     0.003 A 
ATOM      3  C3  I4B d   1       0.074  -1.262   0.558  0.00  0.00     0.002 A 
ATOM      4  C4  I4B d   1      -0.857  -1.889   1.361  0.00  0.00    -0.004 A 
ATOM      5  C5  I4B d   1      -1.916  -1.165   1.900  0.00  0.00     0.002 A 
ATOM      6  C6  I4B d   1      -2.019   0.213   1.658  0.00  0.00     0.003 A 
ENDROOT
BRANCH   1   7
ATOM      7  C1' I4B d   1      -1.092   2.332   0.685  0.00  0.00     0.060 C 
BRANCH   7   8
ATOM      8  C2' I4B d   1       0.055   2.951   1.458  0.00  0.00    -0.013 C 
ATOM      9  C4' I4B d   1       0.633   4.132   0.725  0.00  0.00     0.013 C 
ATOM     10  C3' I4B d   1      -0.461   3.351   2.809  0.00  0.00     0.013 C 
ENDBRANCH   7   8
ENDBRANCH   1   7
TORSDOF 2
ENDMDL
