MODEL 1
REMARK minimizedAffinity -5.15060329
REMARK minimizedRMSD -1
REMARK  2 active torsions:
REMARK  status: ('A' for Active; 'I' for Inactive)
REMARK    1  A    between atoms: C2'_3  and  C1'_4 
REMARK    2  A    between atoms: C1'_4  and  C1_5 
ROOT
ATOM      1  C1  I4B d   1      -0.986  -0.122   1.174  0.00  0.00    -0.075 A 
ATOM      2  C2  I4B d   1      -1.484   1.157   1.216  0.00  0.00     0.003 A 
ATOM      3  C3  I4B d   1      -0.659   2.255   0.874  0.00  0.00     0.002 A 
ATOM      4  C4  I4B d   1       0.664   2.035   0.547  0.00  0.00    -0.004 A 
ATOM      5  C5  I4B d   1       1.161   0.737   0.483  0.00  0.00     0.002 A 
ATOM      6  C6  I4B d   1       0.328  -0.350   0.786  0.00  0.00     0.003 A 
ENDROOT
BRANCH   1   7
ATOM      7  C1' I4B d   1      -1.876  -1.255   1.574  0.00  0.00     0.060 C 
BRANCH   7   8
ATOM      8  C2' I4B d   1      -2.145  -1.136   3.060  0.00  0.00    -0.013 C 
ATOM      9  C4' I4B d   1      -3.617  -1.250   3.359  0.00  0.00     0.013 C 
ATOM     10  C3' I4B d   1      -1.366  -2.211   3.759  0.00  0.00     0.013 C 
ENDBRANCH   7   8
ENDBRANCH   1   7
TORSDOF 2
ENDMDL
