MODEL 1
REMARK minimizedAffinity 3.99343157
REMARK minimizedRMSD -1
REMARK  2 active torsions:
REMARK  status: ('A' for Active; 'I' for Inactive)
REMARK    1  A    between atoms: C2'_3  and  C1'_4 
REMARK    2  A    between atoms: C1'_4  and  C1_5 
ROOT
ATOM      1  C1  I4B d   1       1.702   2.905   2.413  0.00  0.00    -0.075 A 
ATOM      2  C2  I4B d   1       0.669   2.708   3.296  0.00  0.00     0.003 A 
ATOM      3  C3  I4B d   1       0.241   3.763   4.138  0.00  0.00     0.002 A 
ATOM      4  C4  I4B d   1       0.902   4.974   4.101  0.00  0.00    -0.004 A 
ATOM      5  C5  I4B d   1       1.934   5.178   3.189  0.00  0.00     0.002 A 
ATOM      6  C6  I4B d   1       2.329   4.141   2.331  0.00  0.00     0.003 A 
ENDROOT
BRANCH   1   7
ATOM      7  C1' I4B d   1       2.150   1.759   1.562  0.00  0.00     0.060 C 
BRANCH   7   8
ATOM      8  C2' I4B d   1       1.019   1.411   0.615  0.00  0.00    -0.013 C 
ATOM      9  C4' I4B d   1       1.423   1.628  -0.819  0.00  0.00     0.013 C 
ATOM     10  C3' I4B d   1       0.635  -0.018   0.859  0.00  0.00     0.013 C 
ENDBRANCH   7   8
ENDBRANCH   1   7
TORSDOF 2
ENDMDL
