MODEL 1
REMARK minimizedAffinity 9.00610828
REMARK minimizedRMSD -1
REMARK  2 active torsions:
REMARK  status: ('A' for Active; 'I' for Inactive)
REMARK    1  A    between atoms: C2'_3  and  C1'_4 
REMARK    2  A    between atoms: C1'_4  and  C1_5 
ROOT
ATOM      1  C1  I4B d   1      -0.657   3.139  -5.347  0.00  0.00    -0.075 A 
ATOM      2  C2  I4B d   1      -0.656   3.724  -4.105  0.00  0.00     0.003 A 
ATOM      3  C3  I4B d   1      -1.878   4.062  -3.475  0.00  0.00     0.002 A 
ATOM      4  C4  I4B d   1      -3.068   3.846  -4.140  0.00  0.00    -0.004 A 
ATOM      5  C5  I4B d   1      -3.068   3.232  -5.390  0.00  0.00     0.002 A 
ATOM      6  C6  I4B d   1      -1.856   2.865  -5.992  0.00  0.00     0.003 A 
ENDROOT
BRANCH   1   7
ATOM      7  C1' I4B d   1       0.653   2.826  -5.997  0.00  0.00     0.060 C 
BRANCH   7   8
ATOM      8  C2' I4B d   1       1.753   3.431  -5.148  0.00  0.00    -0.013 C 
ATOM      9  C4' I4B d   1       2.008   2.603  -3.916  0.00  0.00     0.013 C 
ATOM     10  C3' I4B d   1       2.986   3.537  -5.994  0.00  0.00     0.013 C 
ENDBRANCH   7   8
ENDBRANCH   1   7
TORSDOF 2
ENDMDL
