MODEL 1
REMARK minimizedAffinity 8.54997158
REMARK minimizedRMSD -1
REMARK  0 active torsions:
REMARK  status: ('A' for Active; 'I' for Inactive)
ROOT
ATOM      1  C4' PXY d   1       5.198   5.940  -5.972  0.00  0.00     0.077 C 
ATOM      2  C1' PXY d   1       0.012   3.508  -5.192  0.00  0.00     0.077 C 
ATOM      3  C1  PXY d   1       1.378   4.137  -5.389  0.00  0.00    -0.082 A 
ATOM      4  C2  PXY d   1       1.469   5.422  -5.692  0.00  0.00     0.003 A 
ATOM      5  C3  PXY d   1       2.694   5.999  -5.905  0.00  0.00     0.003 A 
ATOM      6  C4  PXY d   1       3.841   5.266  -5.754  0.00  0.00    -0.082 A 
ATOM      7  C5  PXY d   1       3.757   3.957  -5.435  0.00  0.00     0.003 A 
ATOM      8  C6  PXY d   1       2.501   3.380  -5.263  0.00  0.00     0.003 A 
ENDROOT
TORSDOF 0
ENDMDL
