MODEL 1
REMARK minimizedAffinity 13.6044731
REMARK minimizedRMSD -1
REMARK  0 active torsions:
REMARK  status: ('A' for Active; 'I' for Inactive)
ROOT
ATOM      1  C4' PXY d   1      -2.852   2.444  -2.726  0.00  0.00     0.077 C 
ATOM      2  C1' PXY d   1      -4.463  -1.696   0.972  0.00  0.00     0.077 C 
ATOM      3  C1  PXY d   1      -4.048  -0.602   0.008  0.00  0.00    -0.082 A 
ATOM      4  C2  PXY d   1      -3.570  -0.925  -1.182  0.00  0.00     0.003 A 
ATOM      5  C3  PXY d   1      -3.161   0.051  -2.054  0.00  0.00     0.003 A 
ATOM      6  C4  PXY d   1      -3.292   1.373  -1.724  0.00  0.00    -0.082 A 
ATOM      7  C5  PXY d   1      -3.789   1.712  -0.516  0.00  0.00     0.003 A 
ATOM      8  C6  PXY d   1      -4.160   0.705   0.371  0.00  0.00     0.003 A 
ENDROOT
TORSDOF 0
ENDMDL
