MODEL 1
REMARK minimizedAffinity 3.30420995
REMARK minimizedRMSD -1
REMARK  0 active torsions:
REMARK  status: ('A' for Active; 'I' for Inactive)
ROOT
ATOM      1  C4' PXY d   1      -1.791  -3.572   3.362  0.00  0.00     0.077 C 
ATOM      2  C1' PXY d   1       3.076  -2.060   0.634  0.00  0.00     0.077 C 
ATOM      3  C1  PXY d   1       1.801  -2.446   1.358  0.00  0.00    -0.082 A 
ATOM      4  C2  PXY d   1       1.362  -3.692   1.289  0.00  0.00     0.003 A 
ATOM      5  C3  PXY d   1       0.194  -4.052   1.911  0.00  0.00     0.003 A 
ATOM      6  C4  PXY d   1      -0.504  -3.139   2.655  0.00  0.00    -0.082 A 
ATOM      7  C5  PXY d   1      -0.057  -1.868   2.739  0.00  0.00     0.003 A 
ATOM      8  C6  PXY d   1       1.109  -1.513   2.066  0.00  0.00     0.003 A 
ENDROOT
TORSDOF 0
ENDMDL
