MODEL 1
REMARK minimizedAffinity 10.7252636
REMARK minimizedRMSD -1
REMARK  0 active torsions:
REMARK  status: ('A' for Active; 'I' for Inactive)
ROOT
ATOM      1  C4' PXY d   1      -6.000  -0.111   5.224  0.00  0.00     0.077 C 
ATOM      2  C1' PXY d   1      -2.325   4.337   4.884  0.00  0.00     0.077 C 
ATOM      3  C1  PXY d   1      -3.298   3.178   4.967  0.00  0.00    -0.082 A 
ATOM      4  C2  PXY d   1      -3.165   2.280   5.929  0.00  0.00     0.003 A 
ATOM      5  C3  PXY d   1      -4.016   1.207   6.000  0.00  0.00     0.003 A 
ATOM      6  C4  PXY d   1      -5.047   1.081   5.108  0.00  0.00    -0.082 A 
ATOM      7  C5  PXY d   1      -5.196   1.999   4.129  0.00  0.00     0.003 A 
ATOM      8  C6  PXY d   1      -4.296   3.058   4.050  0.00  0.00     0.003 A 
ENDROOT
TORSDOF 0
ENDMDL
