MODEL 1
REMARK minimizedAffinity 5.13198471
REMARK minimizedRMSD -1
REMARK  0 active torsions:
REMARK  status: ('A' for Active; 'I' for Inactive)
ROOT
ATOM      1  C4' PXY d   1       5.284  -2.767   0.554  0.00  0.00     0.077 C 
ATOM      2  C1' PXY d   1      -0.463  -2.341   1.001  0.00  0.00     0.077 C 
ATOM      3  C1  PXY d   1       1.043  -2.466   0.886  0.00  0.00    -0.082 A 
ATOM      4  C2  PXY d   1       1.805  -1.407   1.104  0.00  0.00     0.003 A 
ATOM      5  C3  PXY d   1       3.168  -1.494   0.973  0.00  0.00     0.003 A 
ATOM      6  C4  PXY d   1       3.759  -2.690   0.668  0.00  0.00    -0.082 A 
ATOM      7  C5  PXY d   1       2.989  -3.778   0.454  0.00  0.00     0.003 A 
ATOM      8  C6  PXY d   1       1.606  -3.659   0.552  0.00  0.00     0.003 A 
ENDROOT
TORSDOF 0
ENDMDL
