MODEL 1
REMARK minimizedAffinity 12.6009665
REMARK minimizedRMSD -1
REMARK  0 active torsions:
REMARK  status: ('A' for Active; 'I' for Inactive)
ROOT
ATOM      1  C4' PXY d   1       1.101   0.267   2.992  0.00  0.00     0.077 C 
ATOM      2  C1' PXY d   1       2.186  -4.615   0.093  0.00  0.00     0.077 C 
ATOM      3  C1  PXY d   1       1.890  -3.334   0.848  0.00  0.00    -0.082 A 
ATOM      4  C2  PXY d   1       2.889  -2.565   1.248  0.00  0.00     0.003 A 
ATOM      5  C3  PXY d   1       2.640  -1.419   1.959  0.00  0.00     0.003 A 
ATOM      6  C4  PXY d   1       1.353  -1.030   2.218  0.00  0.00    -0.082 A 
ATOM      7  C5  PXY d   1       0.328  -1.805   1.804  0.00  0.00     0.003 A 
ATOM      8  C6  PXY d   1       0.603  -2.985   1.119  0.00  0.00     0.003 A 
ENDROOT
TORSDOF 0
ENDMDL
