MODEL 1
REMARK minimizedAffinity 8.38353062
REMARK minimizedRMSD -1
REMARK  0 active torsions:
REMARK  status: ('A' for Active; 'I' for Inactive)
ROOT
ATOM      1  C4' PXY d   1       4.083  -2.060   0.590  0.00  0.00     0.077 C 
ATOM      2  C1' PXY d   1      -1.126  -1.359   2.997  0.00  0.00     0.077 C 
ATOM      3  C1  PXY d   1       0.235  -1.553   2.359  0.00  0.00    -0.082 A 
ATOM      4  C2  PXY d   1       1.318  -1.115   2.981  0.00  0.00     0.003 A 
ATOM      5  C3  PXY d   1       2.554  -1.253   2.403  0.00  0.00     0.003 A 
ATOM      6  C4  PXY d   1       2.689  -1.894   1.201  0.00  0.00    -0.082 A 
ATOM      7  C5  PXY d   1       1.590  -2.354   0.565  0.00  0.00     0.003 A 
ATOM      8  C6  PXY d   1       0.341  -2.167   1.149  0.00  0.00     0.003 A 
ENDROOT
TORSDOF 0
ENDMDL
