MODEL 1
REMARK minimizedAffinity 1.87590492
REMARK minimizedRMSD -1
REMARK  0 active torsions:
REMARK  status: ('A' for Active; 'I' for Inactive)
ROOT
ATOM      1  C4' PXY d   1      -1.216   1.886  -4.476  0.00  0.00     0.077 C 
ATOM      2  C1' PXY d   1      -5.975   4.793  -6.000  0.00  0.00     0.077 C 
ATOM      3  C1  PXY d   1      -4.733   4.019  -5.602  0.00  0.00    -0.082 A 
ATOM      4  C2  PXY d   1      -3.800   4.610  -4.873  0.00  0.00     0.003 A 
ATOM      5  C3  PXY d   1      -2.656   3.935  -4.531  0.00  0.00     0.003 A 
ATOM      6  C4  PXY d   1      -2.490   2.625  -4.893  0.00  0.00    -0.082 A 
ATOM      7  C5  PXY d   1      -3.443   2.012  -5.627  0.00  0.00     0.003 A 
ATOM      8  C6  PXY d   1      -4.578   2.728  -5.999  0.00  0.00     0.003 A 
ENDROOT
TORSDOF 0
ENDMDL
