MODEL 1
REMARK minimizedAffinity 6.05076981
REMARK minimizedRMSD -1
REMARK  0 active torsions:
REMARK  status: ('A' for Active; 'I' for Inactive)
ROOT
ATOM      1  C4' PXY d   1      -1.210  -1.748   2.907  0.00  0.00     0.077 C 
ATOM      2  C1' PXY d   1       3.894  -0.997   0.299  0.00  0.00     0.077 C 
ATOM      3  C1  PXY d   1       2.562  -1.194   0.995  0.00  0.00    -0.082 A 
ATOM      4  C2  PXY d   1       1.566  -1.777   0.348  0.00  0.00     0.003 A 
ATOM      5  C3  PXY d   1       0.344  -1.934   0.951  0.00  0.00     0.003 A 
ATOM      6  C4  PXY d   1       0.156  -1.537   2.247  0.00  0.00    -0.082 A 
ATOM      7  C5  PXY d   1       1.170  -0.951   2.918  0.00  0.00     0.003 A 
ATOM      8  C6  PXY d   1       2.390  -0.764   2.274  0.00  0.00     0.003 A 
ENDROOT
TORSDOF 0
ENDMDL
