MODEL 1
REMARK minimizedAffinity 13.208704
REMARK minimizedRMSD -1
REMARK  0 active torsions:
REMARK  status: ('A' for Active; 'I' for Inactive)
ROOT
ATOM      1  C4' PXY d   1       4.995  -2.562   0.122  0.00  0.00     0.077 C 
ATOM      2  C1' PXY d   1      -0.696  -1.599  -0.202  0.00  0.00     0.077 C 
ATOM      3  C1  PXY d   1       0.798  -1.840  -0.112  0.00  0.00    -0.082 A 
ATOM      4  C2  PXY d   1       1.365  -2.737  -0.903  0.00  0.00     0.003 A 
ATOM      5  C3  PXY d   1       2.710  -2.990  -0.812  0.00  0.00     0.003 A 
ATOM      6  C4  PXY d   1       3.491  -2.279   0.059  0.00  0.00    -0.082 A 
ATOM      7  C5  PXY d   1       2.922  -1.355   0.862  0.00  0.00     0.003 A 
ATOM      8  C6  PXY d   1       1.549  -1.142   0.783  0.00  0.00     0.003 A 
ENDROOT
TORSDOF 0
ENDMDL
