MODEL 1
REMARK minimizedAffinity 14.6883059
REMARK minimizedRMSD -1
REMARK  0 active torsions:
REMARK  status: ('A' for Active; 'I' for Inactive)
ROOT
ATOM      1  C4' PXY d   1       2.865  -4.500  -0.269  0.00  0.00     0.077 C 
ATOM      2  C1' PXY d   1       1.885   0.112   3.075  0.00  0.00     0.077 C 
ATOM      3  C1  PXY d   1       2.129  -1.101   2.199  0.00  0.00    -0.082 A 
ATOM      4  C2  PXY d   1       3.354  -1.589   2.085  0.00  0.00     0.003 A 
ATOM      5  C3  PXY d   1       3.599  -2.666   1.272  0.00  0.00     0.003 A 
ATOM      6  C4  PXY d   1       2.570  -3.283   0.611  0.00  0.00    -0.082 A 
ATOM      7  C5  PXY d   1       1.316  -2.798   0.731  0.00  0.00     0.003 A 
ATOM      8  C6  PXY d   1       1.096  -1.678   1.529  0.00  0.00     0.003 A 
ENDROOT
TORSDOF 0
ENDMDL
