MODEL 1
REMARK minimizedAffinity 7.88269615
REMARK minimizedRMSD -1
REMARK  0 active torsions:
REMARK  status: ('A' for Active; 'I' for Inactive)
ROOT
ATOM      1  C1  DEN d   1       4.598   5.415  -4.428  0.00  0.00     0.130 A 
ATOM      2  C2  DEN d   1       5.955   5.797  -4.044  0.00  0.00    -0.031 A 
ATOM      3  C3  DEN d   1       5.978   5.984  -2.579  0.00  0.00     0.027 A 
ATOM      4  C4  DEN d   1       4.058   5.717  -0.878  0.00  0.00     0.027 A 
ATOM      5  C5  DEN d   1       2.722   5.418  -0.731  0.00  0.00    -0.003 A 
ATOM      6  C6  DEN d   1       1.916   5.133  -1.801  0.00  0.00     0.001 A 
ATOM      7  C7  DEN d   1       2.450   5.096  -3.062  0.00  0.00     0.017 A 
ATOM      8  C8  DEN d   1       3.795   5.404  -3.219  0.00  0.00    -0.094 A 
ATOM      9  C9  DEN d   1       4.596   5.678  -2.123  0.00  0.00    -0.072 A 
ENDROOT
TORSDOF 0
ENDMDL
