MODEL 1
REMARK minimizedAffinity 12.1458368
REMARK minimizedRMSD -1
REMARK  0 active torsions:
REMARK  status: ('A' for Active; 'I' for Inactive)
ROOT
ATOM      1  C1  DEN d   1      -4.316  -2.091  -4.124  0.00  0.00     0.130 A 
ATOM      2  C2  DEN d   1      -5.022  -1.242  -5.080  0.00  0.00    -0.031 A 
ATOM      3  C3  DEN d   1      -5.801  -2.117  -5.979  0.00  0.00     0.027 A 
ATOM      4  C4  DEN d   1      -5.987  -4.689  -5.980  0.00  0.00     0.027 A 
ATOM      5  C5  DEN d   1      -5.561  -5.846  -5.365  0.00  0.00    -0.003 A 
ATOM      6  C6  DEN d   1      -4.671  -5.834  -4.323  0.00  0.00     0.001 A 
ATOM      7  C7  DEN d   1      -4.213  -4.638  -3.836  0.00  0.00     0.017 A 
ATOM      8  C8  DEN d   1      -4.632  -3.468  -4.456  0.00  0.00    -0.094 A 
ATOM      9  C9  DEN d   1      -5.541  -3.501  -5.499  0.00  0.00    -0.072 A 
ENDROOT
TORSDOF 0
ENDMDL
