MODEL 1
REMARK minimizedAffinity 5.10933781
REMARK minimizedRMSD -1
REMARK  0 active torsions:
REMARK  status: ('A' for Active; 'I' for Inactive)
ROOT
ATOM      1  C1  DEN d   1       2.177   5.644  -3.076  0.00  0.00     0.130 A 
ATOM      2  C2  DEN d   1       2.466   5.683  -1.645  0.00  0.00    -0.031 A 
ATOM      3  C3  DEN d   1       3.926   5.826  -1.477  0.00  0.00     0.027 A 
ATOM      4  C4  DEN d   1       5.758   5.997  -3.285  0.00  0.00     0.027 A 
ATOM      5  C5  DEN d   1       6.000   6.000  -4.641  0.00  0.00    -0.003 A 
ATOM      6  C6  DEN d   1       4.997   5.851  -5.562  0.00  0.00     0.001 A 
ATOM      7  C7  DEN d   1       3.699   5.739  -5.140  0.00  0.00     0.017 A 
ATOM      8  C8  DEN d   1       3.448   5.728  -3.774  0.00  0.00    -0.094 A 
ATOM      9  C9  DEN d   1       4.474   5.891  -2.859  0.00  0.00    -0.072 A 
ENDROOT
TORSDOF 0
ENDMDL
