MODEL 1
REMARK minimizedAffinity 7.86245489
REMARK minimizedRMSD -1
REMARK  0 active torsions:
REMARK  status: ('A' for Active; 'I' for Inactive)
ROOT
ATOM      1  C1  DEN d   1      -3.581  -0.432  -3.149  0.00  0.00     0.130 A 
ATOM      2  C2  DEN d   1      -4.127  -0.225  -4.488  0.00  0.00    -0.031 A 
ATOM      3  C3  DEN d   1      -4.343   1.224  -4.674  0.00  0.00     0.027 A 
ATOM      4  C4  DEN d   1      -3.882   3.158  -3.031  0.00  0.00     0.027 A 
ATOM      5  C5  DEN d   1      -3.430   3.475  -1.770  0.00  0.00    -0.003 A 
ATOM      6  C6  DEN d   1      -3.031   2.518  -0.875  0.00  0.00     0.001 A 
ATOM      7  C7  DEN d   1      -3.035   1.199  -1.245  0.00  0.00     0.017 A 
ATOM      8  C8  DEN d   1      -3.497   0.871  -2.512  0.00  0.00    -0.094 A 
ATOM      9  C9  DEN d   1      -3.884   1.854  -3.407  0.00  0.00    -0.072 A 
ENDROOT
TORSDOF 0
ENDMDL
