MODEL 1
REMARK minimizedAffinity 15.883811
REMARK minimizedRMSD -1
REMARK  0 active torsions:
REMARK  status: ('A' for Active; 'I' for Inactive)
ROOT
ATOM      1  C1  DEN d   1      -5.581  -2.156  -5.864  0.00  0.00     0.130 A 
ATOM      2  C2  DEN d   1      -4.543  -1.364  -5.208  0.00  0.00    -0.031 A 
ATOM      3  C3  DEN d   1      -3.611  -2.296  -4.542  0.00  0.00     0.027 A 
ATOM      4  C4  DEN d   1      -3.669  -4.874  -4.469  0.00  0.00     0.027 A 
ATOM      5  C5  DEN d   1      -4.366  -5.993  -4.869  0.00  0.00    -0.003 A 
ATOM      6  C6  DEN d   1      -5.525  -5.910  -5.594  0.00  0.00     0.001 A 
ATOM      7  C7  DEN d   1      -5.999  -4.684  -5.981  0.00  0.00     0.017 A 
ATOM      8  C8  DEN d   1      -5.306  -3.551  -5.574  0.00  0.00    -0.094 A 
ATOM      9  C9  DEN d   1      -4.129  -3.656  -4.852  0.00  0.00    -0.072 A 
ENDROOT
TORSDOF 0
ENDMDL
