MODEL 1
REMARK minimizedAffinity 15.9366684
REMARK minimizedRMSD -1
REMARK  0 active torsions:
REMARK  status: ('A' for Active; 'I' for Inactive)
ROOT
ATOM      1  C1  DEN d   1      -3.740   2.400  -3.101  0.00  0.00     0.130 A 
ATOM      2  C2  DEN d   1      -3.435   1.144  -3.779  0.00  0.00    -0.031 A 
ATOM      3  C3  DEN d   1      -2.874   0.211  -2.781  0.00  0.00     0.027 A 
ATOM      4  C4  DEN d   1      -2.456   0.587  -0.263  0.00  0.00     0.027 A 
ATOM      5  C5  DEN d   1      -2.546   1.498   0.766  0.00  0.00    -0.003 A 
ATOM      6  C6  DEN d   1      -3.005   2.774   0.573  0.00  0.00     0.001 A 
ATOM      7  C7  DEN d   1      -3.434   3.161  -0.669  0.00  0.00     0.017 A 
ATOM      8  C8  DEN d   1      -3.339   2.250  -1.713  0.00  0.00    -0.094 A 
ATOM      9  C9  DEN d   1      -2.884   0.961  -1.496  0.00  0.00    -0.072 A 
ENDROOT
TORSDOF 0
ENDMDL
