MODEL 1
REMARK minimizedAffinity 7.77127981
REMARK minimizedRMSD -1
REMARK  0 active torsions:
REMARK  status: ('A' for Active; 'I' for Inactive)
ROOT
ATOM      1  C1  DEN d   1       2.232  -1.121   3.376  0.00  0.00     0.130 A 
ATOM      2  C2  DEN d   1       1.533  -2.359   3.044  0.00  0.00    -0.031 A 
ATOM      3  C3  DEN d   1       1.097  -2.274   1.636  0.00  0.00     0.027 A 
ATOM      4  C4  DEN d   1       1.439  -0.356  -0.055  0.00  0.00     0.027 A 
ATOM      5  C5  DEN d   1       1.965   0.905  -0.231  0.00  0.00    -0.003 A 
ATOM      6  C6  DEN d   1       2.581   1.587   0.785  0.00  0.00     0.001 A 
ATOM      7  C7  DEN d   1       2.728   0.993   2.010  0.00  0.00     0.017 A 
ATOM      8  C8  DEN d   1       2.194  -0.275   2.197  0.00  0.00    -0.094 A 
ATOM      9  C9  DEN d   1       1.585  -0.953   1.155  0.00  0.00    -0.072 A 
ENDROOT
TORSDOF 0
ENDMDL
