MODEL 1
REMARK minimizedAffinity -3.03306556
REMARK minimizedRMSD -1
REMARK  1 active torsions:
REMARK  status: ('A' for Active; 'I' for Inactive)
REMARK    1  A    between atoms: C3_4  and  O_7 
ROOT
ATOM      1  C   UNL d   1      -0.662   0.077   1.587  0.00  0.00    -0.033 A 
ATOM      2  C1  UNL d   1      -1.069   1.275   2.178  0.00  0.00     0.039 A 
ATOM      3  C2  UNL d   1      -0.844   2.489   1.525  0.00  0.00    -0.080 A 
ATOM      4  C3  UNL d   1      -0.212   2.491   0.285  0.00  0.00     0.150 A 
ATOM      5  C4  UNL d   1       0.193   1.301  -0.311  0.00  0.00    -0.007 A 
ATOM      6  C5  UNL d   1      -0.032   0.090   0.342  0.00  0.00     0.039 A 
ENDROOT
BRANCH   4   7
ATOM      7  O   UNL d   1       0.033   3.651  -0.388  0.00  0.00    -0.526 OA
ATOM      8  H5  UNL d   1      -0.275   4.394   0.157  0.00  0.00     0.418 HD
ENDBRANCH   4   7
TORSDOF 1
ENDMDL
