MODEL 1
REMARK minimizedAffinity -2.94554853
REMARK minimizedRMSD -1
REMARK  1 active torsions:
REMARK  status: ('A' for Active; 'I' for Inactive)
REMARK    1  A    between atoms: C3_4  and  O_7 
ROOT
ATOM      1  C   UNL d   1      -0.548   0.337   1.386  0.00  0.00    -0.033 A 
ATOM      2  C1  UNL d   1       0.673   0.519   0.735  0.00  0.00     0.039 A 
ATOM      3  C2  UNL d   1       1.034  -0.317  -0.324  0.00  0.00    -0.080 A 
ATOM      4  C3  UNL d   1       0.164  -1.329  -0.722  0.00  0.00     0.150 A 
ATOM      5  C4  UNL d   1      -1.056  -1.513  -0.081  0.00  0.00    -0.007 A 
ATOM      6  C5  UNL d   1      -1.414  -0.679   0.977  0.00  0.00     0.039 A 
ENDROOT
BRANCH   4   7
ATOM      7  O   UNL d   1       0.475  -2.172  -1.747  0.00  0.00    -0.526 OA
ATOM      8  H5  UNL d   1       1.360  -1.944  -2.077  0.00  0.00     0.418 HD
ENDBRANCH   4   7
TORSDOF 1
ENDMDL
