MODEL 1
REMARK minimizedAffinity -3.60663486
REMARK minimizedRMSD -1
REMARK  1 active torsions:
REMARK  status: ('A' for Active; 'I' for Inactive)
REMARK    1  A    between atoms: C3_4  and  O_7 
ROOT
ATOM      1  C   UNL d   1       0.099  -0.148   0.518  0.00  0.00    -0.033 A 
ATOM      2  C1  UNL d   1       1.342  -0.314  -0.097  0.00  0.00     0.039 A 
ATOM      3  C2  UNL d   1       1.488  -1.224  -1.146  0.00  0.00    -0.080 A 
ATOM      4  C3  UNL d   1       0.385  -1.959  -1.571  0.00  0.00     0.150 A 
ATOM      5  C4  UNL d   1      -0.857  -1.796  -0.966  0.00  0.00    -0.007 A 
ATOM      6  C5  UNL d   1      -1.001  -0.888   0.082  0.00  0.00     0.039 A 
ENDROOT
BRANCH   4   7
ATOM      7  O   UNL d   1       0.480  -2.862  -2.588  0.00  0.00    -0.526 OA
ATOM      8  H5  UNL d   1       1.403  -2.889  -2.891  0.00  0.00     0.418 HD
ENDBRANCH   4   7
TORSDOF 1
ENDMDL
