MODEL 1
REMARK minimizedAffinity -2.89941168
REMARK minimizedRMSD -1
REMARK  1 active torsions:
REMARK  status: ('A' for Active; 'I' for Inactive)
REMARK    1  A    between atoms: C3_4  and  O_7 
ROOT
ATOM      1  C   UNL d   1      -1.726  -0.065   1.781  0.00  0.00    -0.033 A 
ATOM      2  C1  UNL d   1      -0.423   0.291   2.134  0.00  0.00     0.039 A 
ATOM      3  C2  UNL d   1       0.642  -0.019   1.286  0.00  0.00    -0.080 A 
ATOM      4  C3  UNL d   1       0.391  -0.683   0.089  0.00  0.00     0.150 A 
ATOM      5  C4  UNL d   1      -0.906  -1.037  -0.272  0.00  0.00    -0.007 A 
ATOM      6  C5  UNL d   1      -1.967  -0.727   0.577  0.00  0.00     0.039 A 
ENDROOT
BRANCH   4   7
ATOM      7  O   UNL d   1       1.398  -1.011  -0.769  0.00  0.00    -0.526 OA
ATOM      8  H5  UNL d   1       2.241  -0.729  -0.376  0.00  0.00     0.418 HD
ENDBRANCH   4   7
TORSDOF 1
ENDMDL
