MODEL 1
REMARK minimizedAffinity -3.5739696
REMARK minimizedRMSD -1
REMARK  1 active torsions:
REMARK  status: ('A' for Active; 'I' for Inactive)
REMARK    1  A    between atoms: C3_4  and  O_7 
ROOT
ATOM      1  C   UNL d   1       0.507  -2.684  -2.018  0.00  0.00    -0.033 A 
ATOM      2  C1  UNL d   1       1.593  -1.964  -1.516  0.00  0.00     0.039 A 
ATOM      3  C2  UNL d   1       1.396  -0.999  -0.527  0.00  0.00    -0.080 A 
ATOM      4  C3  UNL d   1       0.110  -0.765  -0.047  0.00  0.00     0.150 A 
ATOM      5  C4  UNL d   1      -0.976  -1.481  -0.540  0.00  0.00    -0.007 A 
ATOM      6  C5  UNL d   1      -0.777  -2.444  -1.529  0.00  0.00     0.039 A 
ENDROOT
BRANCH   4   7
ATOM      7  O   UNL d   1      -0.133   0.170   0.915  0.00  0.00    -0.526 OA
ATOM      8  H5  UNL d   1       0.706   0.606   1.139  0.00  0.00     0.418 HD
ENDBRANCH   4   7
TORSDOF 1
ENDMDL
