MODEL 1
REMARK minimizedAffinity -1.35015762
REMARK minimizedRMSD -1
REMARK  1 active torsions:
REMARK  status: ('A' for Active; 'I' for Inactive)
REMARK    1  A    between atoms: C3_4  and  O_7 
ROOT
ATOM      1  C   UNL d   1      -0.130  -0.705   2.130  0.00  0.00    -0.033 A 
ATOM      2  C1  UNL d   1      -1.342  -0.907   1.468  0.00  0.00     0.039 A 
ATOM      3  C2  UNL d   1      -1.375  -0.976   0.074  0.00  0.00    -0.080 A 
ATOM      4  C3  UNL d   1      -0.190  -0.842  -0.645  0.00  0.00     0.150 A 
ATOM      5  C4  UNL d   1       1.022  -0.644   0.008  0.00  0.00    -0.007 A 
ATOM      6  C5  UNL d   1       1.052  -0.575   1.401  0.00  0.00     0.039 A 
ENDROOT
BRANCH   4   7
ATOM      7  O   UNL d   1      -0.173  -0.897  -2.007  0.00  0.00    -0.526 OA
ATOM      8  H5  UNL d   1      -1.085  -1.009  -2.322  0.00  0.00     0.418 HD
ENDBRANCH   4   7
TORSDOF 1
ENDMDL
