MODEL 1
REMARK minimizedAffinity -3.87193036
REMARK minimizedRMSD -1
REMARK  1 active torsions:
REMARK  status: ('A' for Active; 'I' for Inactive)
REMARK    1  A    between atoms: C3_4  and  O_7 
ROOT
ATOM      1  C   UNL d   1      -0.707  -0.365   1.137  0.00  0.00    -0.033 A 
ATOM      2  C1  UNL d   1      -0.021  -0.143  -0.059  0.00  0.00     0.039 A 
ATOM      3  C2  UNL d   1       0.313   1.157  -0.443  0.00  0.00    -0.080 A 
ATOM      4  C3  UNL d   1      -0.043   2.224   0.377  0.00  0.00     0.150 A 
ATOM      5  C4  UNL d   1      -0.722   2.010   1.572  0.00  0.00    -0.007 A 
ATOM      6  C5  UNL d   1      -1.056   0.711   1.953  0.00  0.00     0.039 A 
ENDROOT
BRANCH   4   7
ATOM      7  O   UNL d   1       0.258   3.511   0.042  0.00  0.00    -0.526 OA
ATOM      8  H5  UNL d   1       0.702   3.508  -0.822  0.00  0.00     0.418 HD
ENDBRANCH   4   7
TORSDOF 1
ENDMDL
