MODEL 1
REMARK minimizedAffinity -3.01194549
REMARK minimizedRMSD -1
REMARK  1 active torsions:
REMARK  status: ('A' for Active; 'I' for Inactive)
REMARK    1  A    between atoms: C3_4  and  O_7 
ROOT
ATOM      1  C   UNL d   1       0.308  -0.195  -0.107  0.00  0.00    -0.033 A 
ATOM      2  C1  UNL d   1      -0.744  -1.005  -0.540  0.00  0.00     0.039 A 
ATOM      3  C2  UNL d   1      -0.520  -1.985  -1.509  0.00  0.00    -0.080 A 
ATOM      4  C3  UNL d   1       0.758  -2.145  -2.036  0.00  0.00     0.150 A 
ATOM      5  C4  UNL d   1       1.812  -1.345  -1.607  0.00  0.00    -0.007 A 
ATOM      6  C5  UNL d   1       1.586  -0.366  -0.640  0.00  0.00     0.039 A 
ENDROOT
BRANCH   4   7
ATOM      7  O   UNL d   1       1.024  -3.085  -2.987  0.00  0.00    -0.526 OA
ATOM      8  H5  UNL d   1       0.196  -3.543  -3.207  0.00  0.00     0.418 HD
ENDBRANCH   4   7
TORSDOF 1
ENDMDL
