MODEL 1
REMARK minimizedAffinity -0.985574365
REMARK minimizedRMSD -1
REMARK  1 active torsions:
REMARK  status: ('A' for Active; 'I' for Inactive)
REMARK    1  A    between atoms: C3_4  and  O_7 
ROOT
ATOM      1  C   UNL d   1       0.333  -3.574  -2.773  0.00  0.00    -0.033 A 
ATOM      2  C1  UNL d   1      -0.158  -2.340  -3.203  0.00  0.00     0.039 A 
ATOM      3  C2  UNL d   1      -0.122  -1.237  -2.348  0.00  0.00    -0.080 A 
ATOM      4  C3  UNL d   1       0.407  -1.380  -1.069  0.00  0.00     0.150 A 
ATOM      5  C4  UNL d   1       0.902  -2.606  -0.636  0.00  0.00    -0.007 A 
ATOM      6  C5  UNL d   1       0.864  -3.707  -1.490  0.00  0.00     0.039 A 
ENDROOT
BRANCH   4   7
ATOM      7  O   UNL d   1       0.459  -0.333  -0.197  0.00  0.00    -0.526 OA
ATOM      8  H5  UNL d   1       0.056   0.442  -0.623  0.00  0.00     0.418 HD
ENDBRANCH   4   7
TORSDOF 1
ENDMDL
