MODEL 1
REMARK minimizedAffinity -3.30516362
REMARK minimizedRMSD -1
REMARK  1 active torsions:
REMARK  status: ('A' for Active; 'I' for Inactive)
REMARK    1  A    between atoms: C3_4  and  O_7 
ROOT
ATOM      1  C   UNL d   1      -0.787  -0.139   1.548  0.00  0.00    -0.033 A 
ATOM      2  C1  UNL d   1      -1.033   1.173   1.958  0.00  0.00     0.039 A 
ATOM      3  C2  UNL d   1      -0.677   2.243   1.133  0.00  0.00    -0.080 A 
ATOM      4  C3  UNL d   1      -0.078   1.987  -0.097  0.00  0.00     0.150 A 
ATOM      5  C4  UNL d   1       0.166   0.682  -0.514  0.00  0.00    -0.007 A 
ATOM      6  C5  UNL d   1      -0.189  -0.384   0.311  0.00  0.00     0.039 A 
ENDROOT
BRANCH   4   7
ATOM      7  O   UNL d   1       0.291   2.998  -0.934  0.00  0.00    -0.526 OA
ATOM      8  H5  UNL d   1       0.087   3.844  -0.502  0.00  0.00     0.418 HD
ENDBRANCH   4   7
TORSDOF 1
ENDMDL
