MODEL 1
REMARK minimizedAffinity -4.46532011
REMARK minimizedRMSD -1
REMARK  1 active torsions:
REMARK  status: ('A' for Active; 'I' for Inactive)
REMARK    1  A    between atoms: C3_4  and  O_7 
ROOT
ATOM      1  C   UNL d   1      -0.532  -0.191   1.693  0.00  0.00    -0.033 A 
ATOM      2  C1  UNL d   1      -1.054   1.019   2.152  0.00  0.00     0.039 A 
ATOM      3  C2  UNL d   1      -0.907   2.179   1.389  0.00  0.00    -0.080 A 
ATOM      4  C3  UNL d   1      -0.237   2.115   0.170  0.00  0.00     0.150 A 
ATOM      5  C4  UNL d   1       0.282   0.912  -0.295  0.00  0.00    -0.007 A 
ATOM      6  C5  UNL d   1       0.135  -0.246   0.469  0.00  0.00     0.039 A 
ENDROOT
BRANCH   4   7
ATOM      7  O   UNL d   1      -0.064   3.222  -0.607  0.00  0.00    -0.526 OA
ATOM      8  H5  UNL d   1      -0.450   3.985  -0.145  0.00  0.00     0.418 HD
ENDBRANCH   4   7
TORSDOF 1
ENDMDL
