MODEL 1
REMARK minimizedAffinity -3.40107203
REMARK minimizedRMSD -1
REMARK  1 active torsions:
REMARK  status: ('A' for Active; 'I' for Inactive)
REMARK    1  A    between atoms: C3_4  and  O_7 
ROOT
ATOM      1  C   UNL d   1       0.050   0.166   0.734  0.00  0.00    -0.033 A 
ATOM      2  C1  UNL d   1      -1.100  -0.599   0.527  0.00  0.00     0.039 A 
ATOM      3  C2  UNL d   1      -1.116  -1.587  -0.459  0.00  0.00    -0.080 A 
ATOM      4  C3  UNL d   1       0.024  -1.802  -1.229  0.00  0.00     0.150 A 
ATOM      5  C4  UNL d   1       1.174  -1.047  -1.026  0.00  0.00    -0.007 A 
ATOM      6  C5  UNL d   1       1.188  -0.059  -0.042  0.00  0.00     0.039 A 
ENDROOT
BRANCH   4   7
ATOM      7  O   UNL d   1       0.054  -2.752  -2.206  0.00  0.00    -0.526 OA
ATOM      8  H5  UNL d   1      -0.819  -3.175  -2.252  0.00  0.00     0.418 HD
ENDBRANCH   4   7
TORSDOF 1
ENDMDL
