MODEL 1
REMARK minimizedAffinity -2.51635385
REMARK minimizedRMSD -1
REMARK  1 active torsions:
REMARK  status: ('A' for Active; 'I' for Inactive)
REMARK    1  A    between atoms: C3_4  and  O_7 
ROOT
ATOM      1  C   UNL d   1      -0.618   0.379   1.751  0.00  0.00    -0.033 A 
ATOM      2  C1  UNL d   1      -0.872   1.738   1.945  0.00  0.00     0.039 A 
ATOM      3  C2  UNL d   1      -0.513   2.664   0.965  0.00  0.00    -0.080 A 
ATOM      4  C3  UNL d   1       0.099   2.219  -0.204  0.00  0.00     0.150 A 
ATOM      5  C4  UNL d   1       0.352   0.866  -0.406  0.00  0.00    -0.007 A 
ATOM      6  C5  UNL d   1      -0.007  -0.057   0.575  0.00  0.00     0.039 A 
ENDROOT
BRANCH   4   7
ATOM      7  O   UNL d   1       0.472   3.086  -1.188  0.00  0.00    -0.526 OA
ATOM      8  H5  UNL d   1       0.261   3.989  -0.898  0.00  0.00     0.418 HD
ENDBRANCH   4   7
TORSDOF 1
ENDMDL
