MODEL 1
REMARK minimizedAffinity -3.59378791
REMARK minimizedRMSD -1
REMARK  1 active torsions:
REMARK  status: ('A' for Active; 'I' for Inactive)
REMARK    1  A    between atoms: C3_4  and  O_7 
ROOT
ATOM      1  C   UNL d   1      -0.197   2.746   1.142  0.00  0.00    -0.033 A 
ATOM      2  C1  UNL d   1       0.425   2.772  -0.108  0.00  0.00     0.039 A 
ATOM      3  C2  UNL d   1       0.859   1.583  -0.698  0.00  0.00    -0.080 A 
ATOM      4  C3  UNL d   1       0.666   0.378  -0.029  0.00  0.00     0.150 A 
ATOM      5  C4  UNL d   1       0.044   0.345   1.215  0.00  0.00    -0.007 A 
ATOM      6  C5  UNL d   1      -0.389   1.533   1.803  0.00  0.00     0.039 A 
ENDROOT
BRANCH   4   7
ATOM      7  O   UNL d   1       1.077  -0.807  -0.562  0.00  0.00    -0.526 OA
ATOM      8  H5  UNL d   1       1.516  -0.627  -1.411  0.00  0.00     0.418 HD
ENDBRANCH   4   7
TORSDOF 1
ENDMDL
