MODEL 1
REMARK minimizedAffinity -3.80120993
REMARK minimizedRMSD -1
REMARK  1 active torsions:
REMARK  status: ('A' for Active; 'I' for Inactive)
REMARK    1  A    between atoms: C3_4  and  O_7 
ROOT
ATOM      1  C   UNL d   1      -0.616   3.652   1.074  0.00  0.00    -0.033 A 
ATOM      2  C1  UNL d   1       0.041   3.433  -0.139  0.00  0.00     0.039 A 
ATOM      3  C2  UNL d   1       0.311   2.130  -0.563  0.00  0.00    -0.080 A 
ATOM      4  C3  UNL d   1      -0.081   1.057   0.233  0.00  0.00     0.150 A 
ATOM      5  C4  UNL d   1      -0.740   1.268   1.440  0.00  0.00    -0.007 A 
ATOM      6  C5  UNL d   1      -1.007   2.570   1.862  0.00  0.00     0.039 A 
ENDROOT
BRANCH   4   7
ATOM      7  O   UNL d   1       0.164  -0.232  -0.137  0.00  0.00    -0.526 OA
ATOM      8  H5  UNL d   1       0.651  -0.223  -0.978  0.00  0.00     0.418 HD
ENDBRANCH   4   7
TORSDOF 1
ENDMDL
