MODEL 1
REMARK minimizedAffinity -3.04234552
REMARK minimizedRMSD -1
REMARK  1 active torsions:
REMARK  status: ('A' for Active; 'I' for Inactive)
REMARK    1  A    between atoms: C3_4  and  O_7 
ROOT
ATOM      1  C   UNL d   1      -0.178  -0.396   1.405  0.00  0.00    -0.033 A 
ATOM      2  C1  UNL d   1       0.520  -0.258   0.204  0.00  0.00     0.039 A 
ATOM      3  C2  UNL d   1       0.683   1.005  -0.369  0.00  0.00    -0.080 A 
ATOM      4  C3  UNL d   1       0.144   2.119   0.268  0.00  0.00     0.150 A 
ATOM      5  C4  UNL d   1      -0.550   1.989   1.466  0.00  0.00    -0.007 A 
ATOM      6  C5  UNL d   1      -0.712   0.727   2.037  0.00  0.00     0.039 A 
ENDROOT
BRANCH   4   7
ATOM      7  O   UNL d   1       0.273   3.371  -0.256  0.00  0.00    -0.526 OA
ATOM      8  H5  UNL d   1       0.750   3.304  -1.100  0.00  0.00     0.418 HD
ENDBRANCH   4   7
TORSDOF 1
ENDMDL
