MODEL 1
REMARK minimizedAffinity -3.16738534
REMARK minimizedRMSD -1
REMARK  1 active torsions:
REMARK  status: ('A' for Active; 'I' for Inactive)
REMARK    1  A    between atoms: C3_4  and  O_7 
ROOT
ATOM      1  C   UNL d   1       0.012  -0.955   0.450  0.00  0.00    -0.033 A 
ATOM      2  C1  UNL d   1      -1.101  -0.734   1.264  0.00  0.00     0.039 A 
ATOM      3  C2  UNL d   1      -1.448   0.565   1.639  0.00  0.00    -0.080 A 
ATOM      4  C3  UNL d   1      -0.675   1.634   1.194  0.00  0.00     0.150 A 
ATOM      5  C4  UNL d   1       0.433   1.422   0.380  0.00  0.00    -0.007 A 
ATOM      6  C5  UNL d   1       0.778   0.124   0.007  0.00  0.00     0.039 A 
ENDROOT
BRANCH   4   7
ATOM      7  O   UNL d   1      -0.971   2.920   1.538  0.00  0.00    -0.526 OA
ATOM      8  H5  UNL d   1      -1.744   2.911   2.126  0.00  0.00     0.418 HD
ENDBRANCH   4   7
TORSDOF 1
ENDMDL
