MODEL 1
REMARK minimizedAffinity -1.54584169
REMARK minimizedRMSD -1
REMARK  0 active torsions:
REMARK  status: ('A' for Active; 'I' for Inactive)
ROOT
ATOM      1  C2' OXE d   1       2.984  -3.593  -4.213  0.00  0.00     0.078 C 
ATOM      2  C1' OXE d   1       4.357  -5.996  -3.742  0.00  0.00     0.078 C 
ATOM      3  C1  OXE d   1       4.512  -4.887  -2.731  0.00  0.00    -0.078 A 
ATOM      4  C2  OXE d   1       3.874  -3.699  -2.993  0.00  0.00    -0.078 A 
ATOM      5  C3  OXE d   1       3.940  -2.662  -2.066  0.00  0.00     0.003 A 
ATOM      6  C4  OXE d   1       4.774  -2.765  -0.946  0.00  0.00    -0.002 A 
ATOM      7  C5  OXE d   1       5.464  -3.952  -0.681  0.00  0.00    -0.002 A 
ATOM      8  C6  OXE d   1       5.310  -5.035  -1.539  0.00  0.00     0.003 A 
ENDROOT
TORSDOF 0
ENDMDL
