MODEL 1
REMARK minimizedAffinity 2.774086
REMARK minimizedRMSD -1
REMARK  0 active torsions:
REMARK  status: ('A' for Active; 'I' for Inactive)
ROOT
ATOM      1  C2' OXE d   1      -1.697   2.054  -1.887  0.00  0.00     0.078 C 
ATOM      2  C1' OXE d   1      -3.328  -0.145  -1.265  0.00  0.00     0.078 C 
ATOM      3  C1  OXE d   1      -4.003   1.128  -1.709  0.00  0.00    -0.078 A 
ATOM      4  C2  OXE d   1      -3.200   2.213  -1.966  0.00  0.00    -0.078 A 
ATOM      5  C3  OXE d   1      -3.768   3.396  -2.431  0.00  0.00     0.003 A 
ATOM      6  C4  OXE d   1      -5.160   3.538  -2.493  0.00  0.00    -0.002 A 
ATOM      7  C5  OXE d   1      -5.997   2.458  -2.197  0.00  0.00    -0.002 A 
ATOM      8  C6  OXE d   1      -5.435   1.235  -1.845  0.00  0.00     0.003 A 
ENDROOT
TORSDOF 0
ENDMDL
