MODEL 1
REMARK minimizedAffinity 4.05655718
REMARK minimizedRMSD -1
REMARK  0 active torsions:
REMARK  status: ('A' for Active; 'I' for Inactive)
ROOT
ATOM      1  C2' OXE d   1      -0.538   1.917  -2.128  0.00  0.00     0.078 C 
ATOM      2  C1' OXE d   1       0.624   4.219  -1.019  0.00  0.00     0.078 C 
ATOM      3  C1  OXE d   1       0.112   3.163  -0.071  0.00  0.00    -0.078 A 
ATOM      4  C2  OXE d   1      -0.497   2.062  -0.622  0.00  0.00    -0.078 A 
ATOM      5  C3  OXE d   1      -0.939   1.033   0.205  0.00  0.00     0.003 A 
ATOM      6  C4  OXE d   1      -0.907   1.179   1.597  0.00  0.00    -0.002 A 
ATOM      7  C5  OXE d   1      -0.326   2.311   2.179  0.00  0.00    -0.002 A 
ATOM      8  C6  OXE d   1       0.225   3.291   1.361  0.00  0.00     0.003 A 
ENDROOT
TORSDOF 0
ENDMDL
