MODEL 1
REMARK minimizedAffinity 6.96699238
REMARK minimizedRMSD -1
REMARK  0 active torsions:
REMARK  status: ('A' for Active; 'I' for Inactive)
ROOT
ATOM      1  C2' OXE d   1       3.300  -1.667  -1.622  0.00  0.00     0.078 C 
ATOM      2  C1' OXE d   1       4.097  -2.206  -4.259  0.00  0.00     0.078 C 
ATOM      3  C1  OXE d   1       4.035  -3.362  -3.293  0.00  0.00    -0.078 A 
ATOM      4  C2  OXE d   1       3.689  -3.082  -1.993  0.00  0.00    -0.078 A 
ATOM      5  C3  OXE d   1       3.565  -4.119  -1.073  0.00  0.00     0.003 A 
ATOM      6  C4  OXE d   1       3.937  -5.423  -1.422  0.00  0.00    -0.002 A 
ATOM      7  C5  OXE d   1       4.330  -5.724  -2.730  0.00  0.00    -0.002 A 
ATOM      8  C6  OXE d   1       4.344  -4.715  -3.686  0.00  0.00     0.003 A 
ENDROOT
TORSDOF 0
ENDMDL
