MODEL 1
REMARK minimizedAffinity -0.383901626
REMARK minimizedRMSD -1
REMARK  0 active torsions:
REMARK  status: ('A' for Active; 'I' for Inactive)
ROOT
ATOM      1  C2' OXE d   1       5.260  -2.612  -1.123  0.00  0.00     0.078 C 
ATOM      2  C1' OXE d   1       5.044  -4.455  -3.230  0.00  0.00     0.078 C 
ATOM      3  C1  OXE d   1       3.921  -4.400  -2.225  0.00  0.00    -0.078 A 
ATOM      4  C2  OXE d   1       4.056  -3.528  -1.172  0.00  0.00    -0.078 A 
ATOM      5  C3  OXE d   1       3.024  -3.399  -0.247  0.00  0.00     0.003 A 
ATOM      6  C4  OXE d   1       1.919  -4.257  -0.294  0.00  0.00    -0.002 A 
ATOM      7  C5  OXE d   1       1.780  -5.180  -1.336  0.00  0.00    -0.002 A 
ATOM      8  C6  OXE d   1       2.749  -5.234  -2.331  0.00  0.00     0.003 A 
ENDROOT
TORSDOF 0
ENDMDL
