MODEL 1
REMARK minimizedAffinity 4.04851532
REMARK minimizedRMSD -1
REMARK  0 active torsions:
REMARK  status: ('A' for Active; 'I' for Inactive)
ROOT
ATOM      1  C2' OXE d   1       3.696  -2.307  -4.483  0.00  0.00     0.078 C 
ATOM      2  C1' OXE d   1       3.868  -5.075  -4.047  0.00  0.00     0.078 C 
ATOM      3  C1  OXE d   1       4.102  -4.161  -2.870  0.00  0.00    -0.078 A 
ATOM      4  C2  OXE d   1       4.062  -2.808  -3.103  0.00  0.00    -0.078 A 
ATOM      5  C3  OXE d   1       4.218  -1.921  -2.041  0.00  0.00     0.003 A 
ATOM      6  C4  OXE d   1       4.566  -2.392  -0.770  0.00  0.00    -0.002 A 
ATOM      7  C5  OXE d   1       4.651  -3.765  -0.520  0.00  0.00    -0.002 A 
ATOM      8  C6  OXE d   1       4.381  -4.663  -1.547  0.00  0.00     0.003 A 
ENDROOT
TORSDOF 0
ENDMDL
