MODEL 1
REMARK minimizedAffinity 4.17474031
REMARK minimizedRMSD -1
REMARK  0 active torsions:
REMARK  status: ('A' for Active; 'I' for Inactive)
ROOT
ATOM      1  C2' OXE d   1       1.506  -5.250  -1.074  0.00  0.00     0.078 C 
ATOM      2  C1' OXE d   1       2.755  -4.417   1.299  0.00  0.00     0.078 C 
ATOM      3  C1  OXE d   1       3.320  -3.916  -0.007  0.00  0.00    -0.078 A 
ATOM      4  C2  OXE d   1       2.731  -4.366  -1.164  0.00  0.00    -0.078 A 
ATOM      5  C3  OXE d   1       3.179  -3.892  -2.394  0.00  0.00     0.003 A 
ATOM      6  C4  OXE d   1       4.319  -3.083  -2.470  0.00  0.00    -0.002 A 
ATOM      7  C5  OXE d   1       4.958  -2.645  -1.305  0.00  0.00    -0.002 A 
ATOM      8  C6  OXE d   1       4.446  -3.018  -0.067  0.00  0.00     0.003 A 
ENDROOT
TORSDOF 0
ENDMDL
