MODEL 1
REMARK minimizedAffinity 8.71544743
REMARK minimizedRMSD -1
REMARK  0 active torsions:
REMARK  status: ('A' for Active; 'I' for Inactive)
ROOT
ATOM      1  C2' OXE d   1      -0.308   1.503  -0.976  0.00  0.00     0.078 C 
ATOM      2  C1' OXE d   1      -0.383   2.562   1.622  0.00  0.00     0.078 C 
ATOM      3  C1  OXE d   1      -0.091   3.509   0.485  0.00  0.00    -0.078 A 
ATOM      4  C2  OXE d   1      -0.010   2.973  -0.778  0.00  0.00    -0.078 A 
ATOM      5  C3  OXE d   1       0.202   3.811  -1.870  0.00  0.00     0.003 A 
ATOM      6  C4  OXE d   1       0.486   5.168  -1.677  0.00  0.00    -0.002 A 
ATOM      7  C5  OXE d   1       0.449   5.726  -0.395  0.00  0.00    -0.002 A 
ATOM      8  C6  OXE d   1       0.120   4.920   0.690  0.00  0.00     0.003 A 
ENDROOT
TORSDOF 0
ENDMDL
