MODEL 1
REMARK minimizedAffinity -3.88575339
REMARK minimizedRMSD -1
REMARK  0 active torsions:
REMARK  status: ('A' for Active; 'I' for Inactive)
ROOT
ATOM      1  O1  BZF d   1       0.719  -0.293  -3.821  0.00  0.00    -0.204 OA
ATOM      2  C2  BZF d   1       1.411  -1.480  -3.969  0.00  0.00     0.174 A 
ATOM      3  C3  BZF d   1       1.570  -2.093  -2.778  0.00  0.00    -0.012 A 
ATOM      4  C3A BZF d   1       0.859  -1.281  -1.839  0.00  0.00    -0.107 A 
ATOM      5  C4  BZF d   1       0.635  -1.377  -0.495  0.00  0.00     0.055 A 
ATOM      6  C5  BZF d   1      -0.039  -0.380   0.135  0.00  0.00    -0.016 A 
ATOM      7  C6  BZF d   1      -0.499   0.729  -0.545  0.00  0.00     0.022 A 
ATOM      8  C7  BZF d   1      -0.306   0.866  -1.880  0.00  0.00     0.029 A 
ATOM      9  C7A BZF d   1       0.346  -0.156  -2.526  0.00  0.00     0.058 A 
ENDROOT
TORSDOF 0
ENDMDL
