MODEL 1
REMARK minimizedAffinity -1.06435943
REMARK minimizedRMSD -1
REMARK  0 active torsions:
REMARK  status: ('A' for Active; 'I' for Inactive)
ROOT
ATOM      1  O1  BZF d   1      -0.765   0.558   2.224  0.00  0.00    -0.204 OA
ATOM      2  C2  BZF d   1       0.484   0.282   2.747  0.00  0.00     0.174 A 
ATOM      3  C3  BZF d   1       1.344  -0.071   1.770  0.00  0.00    -0.012 A 
ATOM      4  C3A BZF d   1       0.610   0.077   0.551  0.00  0.00    -0.107 A 
ATOM      5  C4  BZF d   1       0.927  -0.109  -0.765  0.00  0.00     0.055 A 
ATOM      6  C5  BZF d   1      -0.039   0.052  -1.706  0.00  0.00    -0.016 A 
ATOM      7  C6  BZF d   1      -1.332   0.392  -1.368  0.00  0.00     0.022 A 
ATOM      8  C7  BZF d   1      -1.694   0.592  -0.078  0.00  0.00     0.029 A 
ATOM      9  C7A BZF d   1      -0.711   0.463   0.874  0.00  0.00     0.058 A 
ENDROOT
TORSDOF 0
ENDMDL
