MODEL 1
REMARK minimizedAffinity -4.15236425
REMARK minimizedRMSD -1
REMARK  0 active torsions:
REMARK  status: ('A' for Active; 'I' for Inactive)
ROOT
ATOM      1  O1  BZF d   1      -1.017   0.641   0.101  0.00  0.00    -0.204 OA
ATOM      2  C2  BZF d   1       0.316   0.285   0.034  0.00  0.00     0.174 A 
ATOM      3  C3  BZF d   1       0.698  -0.354   1.159  0.00  0.00    -0.012 A 
ATOM      4  C3A BZF d   1      -0.493  -0.483   1.941  0.00  0.00    -0.107 A 
ATOM      5  C4  BZF d   1      -0.762  -1.043   3.157  0.00  0.00     0.055 A 
ATOM      6  C5  BZF d   1      -2.014  -0.935   3.672  0.00  0.00    -0.016 A 
ATOM      7  C6  BZF d   1      -3.020  -0.270   3.002  0.00  0.00     0.022 A 
ATOM      8  C7  BZF d   1      -2.803   0.298   1.790  0.00  0.00     0.029 A 
ATOM      9  C7A BZF d   1      -1.547   0.162   1.252  0.00  0.00     0.058 A 
ENDROOT
TORSDOF 0
ENDMDL
