MODEL 1
REMARK minimizedAffinity -1.80670702
REMARK minimizedRMSD -1
REMARK  0 active torsions:
REMARK  status: ('A' for Active; 'I' for Inactive)
ROOT
ATOM      1  O1  BZF d   1       2.438  -1.699  -1.984  0.00  0.00    -0.204 OA
ATOM      2  C2  BZF d   1       2.131  -1.308  -3.273  0.00  0.00     0.174 A 
ATOM      3  C3  BZF d   1       1.091  -0.451  -3.279  0.00  0.00    -0.012 A 
ATOM      4  C3A BZF d   1       0.783  -0.223  -1.900  0.00  0.00    -0.107 A 
ATOM      5  C4  BZF d   1      -0.144   0.548  -1.259  0.00  0.00     0.055 A 
ATOM      6  C5  BZF d   1      -0.229   0.490   0.096  0.00  0.00    -0.016 A 
ATOM      7  C6  BZF d   1       0.592  -0.331   0.840  0.00  0.00     0.022 A 
ATOM      8  C7  BZF d   1       1.531  -1.111   0.250  0.00  0.00     0.029 A 
ATOM      9  C7A BZF d   1       1.641  -1.029  -1.117  0.00  0.00     0.058 A 
ENDROOT
TORSDOF 0
ENDMDL
