MODEL 1
REMARK minimizedAffinity -3.25412107
REMARK minimizedRMSD -1
REMARK  0 active torsions:
REMARK  status: ('A' for Active; 'I' for Inactive)
ROOT
ATOM      1  O1  BZF d   1      -0.815  -0.554  -0.709  0.00  0.00    -0.204 OA
ATOM      2  C2  BZF d   1      -0.255   0.524  -0.051  0.00  0.00     0.174 A 
ATOM      3  C3  BZF d   1       0.859   0.945  -0.683  0.00  0.00    -0.012 A 
ATOM      4  C3A BZF d   1       0.955   0.134  -1.858  0.00  0.00    -0.107 A 
ATOM      5  C4  BZF d   1       1.841   0.085  -2.896  0.00  0.00     0.055 A 
ATOM      6  C5  BZF d   1       1.691  -0.874  -3.847  0.00  0.00    -0.016 A 
ATOM      7  C6  BZF d   1       0.672  -1.801  -3.789  0.00  0.00     0.022 A 
ATOM      8  C7  BZF d   1      -0.234  -1.790  -2.782  0.00  0.00     0.029 A 
ATOM      9  C7A BZF d   1      -0.105  -0.802  -1.836  0.00  0.00     0.058 A 
ENDROOT
TORSDOF 0
ENDMDL
