MODEL 1
REMARK minimizedAffinity -3.65010452
REMARK minimizedRMSD -1
REMARK  0 active torsions:
REMARK  status: ('A' for Active; 'I' for Inactive)
ROOT
ATOM      1  O1  BZF d   1       0.581   0.147   2.715  0.00  0.00    -0.204 OA
ATOM      2  C2  BZF d   1       1.734  -0.053   1.982  0.00  0.00     0.174 A 
ATOM      3  C3  BZF d   1       1.487   0.060   0.661  0.00  0.00    -0.012 A 
ATOM      4  C3A BZF d   1       0.111   0.442   0.567  0.00  0.00    -0.107 A 
ATOM      5  C4  BZF d   1      -0.716   0.721  -0.483  0.00  0.00     0.055 A 
ATOM      6  C5  BZF d   1      -2.025   0.990  -0.239  0.00  0.00    -0.016 A 
ATOM      7  C6  BZF d   1      -2.542   0.983   1.040  0.00  0.00     0.022 A 
ATOM      8  C7  BZF d   1      -1.759   0.717   2.114  0.00  0.00     0.029 A 
ATOM      9  C7A BZF d   1      -0.428   0.477   1.873  0.00  0.00     0.058 A 
ENDROOT
TORSDOF 0
ENDMDL
