MODEL 1
REMARK minimizedAffinity -2.50239325
REMARK minimizedRMSD -1
REMARK  0 active torsions:
REMARK  status: ('A' for Active; 'I' for Inactive)
ROOT
ATOM      1  O1  BZF d   1      -1.091   1.133  -0.784  0.00  0.00    -0.204 OA
ATOM      2  C2  BZF d   1      -0.258   0.860  -1.852  0.00  0.00     0.174 A 
ATOM      3  C3  BZF d   1       0.903   0.320  -1.428  0.00  0.00    -0.012 A 
ATOM      4  C3A BZF d   1       0.751   0.165  -0.014  0.00  0.00    -0.107 A 
ATOM      5  C4  BZF d   1       1.559  -0.332   0.968  0.00  0.00     0.055 A 
ATOM      6  C5  BZF d   1       1.142  -0.273   2.260  0.00  0.00    -0.016 A 
ATOM      7  C6  BZF d   1      -0.073   0.282   2.606  0.00  0.00     0.022 A 
ATOM      8  C7  BZF d   1      -0.911   0.783   1.667  0.00  0.00     0.029 A 
ATOM      9  C7A BZF d   1      -0.507   0.695   0.357  0.00  0.00     0.058 A 
ENDROOT
TORSDOF 0
ENDMDL
