MODEL 1
REMARK minimizedAffinity -5.18249846
REMARK minimizedRMSD -1
REMARK  0 active torsions:
REMARK  status: ('A' for Active; 'I' for Inactive)
ROOT
ATOM      1  O1  BZF d   1      -1.263   0.543  -0.422  0.00  0.00    -0.204 OA
ATOM      2  C2  BZF d   1       0.105   0.393  -0.540  0.00  0.00     0.174 A 
ATOM      3  C3  BZF d   1       0.674   0.225   0.672  0.00  0.00    -0.012 A 
ATOM      4  C3A BZF d   1      -0.417   0.182   1.597  0.00  0.00    -0.107 A 
ATOM      5  C4  BZF d   1      -0.494   0.019   2.950  0.00  0.00     0.055 A 
ATOM      6  C5  BZF d   1      -1.707   0.098   3.557  0.00  0.00    -0.016 A 
ATOM      7  C6  BZF d   1      -2.862   0.344   2.843  0.00  0.00     0.022 A 
ATOM      8  C7  BZF d   1      -2.836   0.507   1.498  0.00  0.00     0.029 A 
ATOM      9  C7A BZF d   1      -1.615   0.395   0.877  0.00  0.00     0.058 A 
ENDROOT
TORSDOF 0
ENDMDL
