MODEL 1
REMARK minimizedAffinity -2.26245642
REMARK minimizedRMSD -1
REMARK  0 active torsions:
REMARK  status: ('A' for Active; 'I' for Inactive)
ROOT
ATOM      1  O1  BZF d   1       0.358   0.398  -0.805  0.00  0.00    -0.204 OA
ATOM      2  C2  BZF d   1       1.590   0.420  -0.179  0.00  0.00     0.174 A 
ATOM      3  C3  BZF d   1       1.446   0.522   1.158  0.00  0.00    -0.012 A 
ATOM      4  C3A BZF d   1       0.034   0.472   1.389  0.00  0.00    -0.107 A 
ATOM      5  C4  BZF d   1      -0.734   0.511   2.517  0.00  0.00     0.055 A 
ATOM      6  C5  BZF d   1      -2.088   0.516   2.394  0.00  0.00    -0.016 A 
ATOM      7  C6  BZF d   1      -2.705   0.487   1.160  0.00  0.00     0.022 A 
ATOM      8  C7  BZF d   1      -1.984   0.443   0.013  0.00  0.00     0.029 A 
ATOM      9  C7A BZF d   1      -0.617   0.405   0.135  0.00  0.00     0.058 A 
ENDROOT
TORSDOF 0
ENDMDL
