MODEL 1
REMARK minimizedAffinity 2.2761538
REMARK minimizedRMSD -1
REMARK  0 active torsions:
REMARK  status: ('A' for Active; 'I' for Inactive)
ROOT
ATOM      1  O1  BZF d   1      -2.113   0.702   0.857  0.00  0.00    -0.204 OA
ATOM      2  C2  BZF d   1      -2.308   0.592  -0.506  0.00  0.00     0.174 A 
ATOM      3  C3  BZF d   1      -1.128   0.524  -1.155  0.00  0.00    -0.012 A 
ATOM      4  C3A BZF d   1      -0.134   0.503  -0.126  0.00  0.00    -0.107 A 
ATOM      5  C4  BZF d   1       1.230   0.427  -0.139  0.00  0.00     0.055 A 
ATOM      6  C5  BZF d   1       1.907   0.504   1.037  0.00  0.00    -0.016 A 
ATOM      7  C6  BZF d   1       1.254   0.661   2.242  0.00  0.00     0.022 A 
ATOM      8  C7  BZF d   1      -0.098   0.737   2.306  0.00  0.00     0.029 A 
ATOM      9  C7A BZF d   1      -0.787   0.627   1.122  0.00  0.00     0.058 A 
ENDROOT
TORSDOF 0
ENDMDL
