MODEL 1
REMARK minimizedAffinity 0.621872127
REMARK minimizedRMSD -1
REMARK  0 active torsions:
REMARK  status: ('A' for Active; 'I' for Inactive)
ROOT
ATOM      1  O1  BZF d   1       1.923  -2.189  -2.483  0.00  0.00    -0.204 OA
ATOM      2  C2  BZF d   1       1.498  -2.340  -3.789  0.00  0.00     0.174 A 
ATOM      3  C3  BZF d   1       0.489  -1.489  -4.065  0.00  0.00    -0.012 A 
ATOM      4  C3A BZF d   1       0.331  -0.696  -2.885  0.00  0.00    -0.107 A 
ATOM      5  C4  BZF d   1      -0.502   0.332  -2.549  0.00  0.00     0.055 A 
ATOM      6  C5  BZF d   1      -0.450   0.840  -1.289  0.00  0.00    -0.016 A 
ATOM      7  C6  BZF d   1       0.418   0.340  -0.340  0.00  0.00     0.022 A 
ATOM      8  C7  BZF d   1       1.267  -0.676  -0.628  0.00  0.00     0.029 A 
ATOM      9  C7A BZF d   1       1.240  -1.169  -1.910  0.00  0.00     0.058 A 
ENDROOT
TORSDOF 0
ENDMDL
