MODEL 1
REMARK minimizedAffinity -3.52032423
REMARK minimizedRMSD -1
REMARK  0 active torsions:
REMARK  status: ('A' for Active; 'I' for Inactive)
ROOT
ATOM      1  O1  BZF d   1      -0.282  -2.235  -3.168  0.00  0.00    -0.204 OA
ATOM      2  C2  BZF d   1       0.941  -2.150  -3.804  0.00  0.00     0.174 A 
ATOM      3  C3  BZF d   1       1.650  -1.101  -3.340  0.00  0.00    -0.012 A 
ATOM      4  C3A BZF d   1       0.857  -0.547  -2.287  0.00  0.00    -0.107 A 
ATOM      5  C4  BZF d   1       1.033   0.503  -1.431  0.00  0.00     0.055 A 
ATOM      6  C5  BZF d   1       0.035   0.826  -0.567  0.00  0.00    -0.016 A 
ATOM      7  C6  BZF d   1      -1.153   0.125  -0.535  0.00  0.00     0.022 A 
ATOM      8  C7  BZF d   1      -1.372  -0.927  -1.361  0.00  0.00     0.029 A 
ATOM      9  C7A BZF d   1      -0.353  -1.276  -2.213  0.00  0.00     0.058 A 
ENDROOT
TORSDOF 0
ENDMDL
