MODEL 1
REMARK minimizedAffinity -5.23485708
REMARK minimizedRMSD -1
REMARK  0 active torsions:
REMARK  status: ('A' for Active; 'I' for Inactive)
ROOT
ATOM      1  O1  BZF d   1      -0.897   0.500  -0.923  0.00  0.00    -0.204 OA
ATOM      2  C2  BZF d   1       0.470   0.518  -1.121  0.00  0.00     0.174 A 
ATOM      3  C3  BZF d   1       1.124   0.285   0.035  0.00  0.00    -0.012 A 
ATOM      4  C3A BZF d   1       0.101   0.018   0.999  0.00  0.00    -0.107 A 
ATOM      5  C4  BZF d   1       0.122  -0.298   2.328  0.00  0.00     0.055 A 
ATOM      6  C5  BZF d   1      -1.055  -0.423   2.996  0.00  0.00    -0.016 A 
ATOM      7  C6  BZF d   1      -2.269  -0.233   2.369  0.00  0.00     0.022 A 
ATOM      8  C7  BZF d   1      -2.341   0.077   1.052  0.00  0.00     0.029 A 
ATOM      9  C7A BZF d   1      -1.154   0.171   0.366  0.00  0.00     0.058 A 
ENDROOT
TORSDOF 0
ENDMDL
