MODEL 1
REMARK minimizedAffinity -0.517782331
REMARK minimizedRMSD -1
REMARK  0 active torsions:
REMARK  status: ('A' for Active; 'I' for Inactive)
ROOT
ATOM      1  O1  BZF d   1      -0.865  -0.527  -1.006  0.00  0.00    -0.204 OA
ATOM      2  C2  BZF d   1      -0.243   0.441  -0.243  0.00  0.00     0.174 A 
ATOM      3  C3  BZF d   1       1.004   0.681  -0.698  0.00  0.00    -0.012 A 
ATOM      4  C3A BZF d   1       1.138  -0.126  -1.872  0.00  0.00    -0.107 A 
ATOM      5  C4  BZF d   1       2.146  -0.310  -2.775  0.00  0.00     0.055 A 
ATOM      6  C5  BZF d   1       1.985  -1.224  -3.767  0.00  0.00    -0.016 A 
ATOM      7  C6  BZF d   1       0.833  -1.975  -3.883  0.00  0.00     0.022 A 
ATOM      8  C7  BZF d   1      -0.196  -1.825  -3.014  0.00  0.00     0.029 A 
ATOM      9  C7A BZF d   1      -0.049  -0.878  -2.029  0.00  0.00     0.058 A 
ENDROOT
TORSDOF 0
ENDMDL
