MODEL 1
REMARK minimizedAffinity -3.76849723
REMARK minimizedRMSD -1
REMARK  0 active torsions:
REMARK  status: ('A' for Active; 'I' for Inactive)
ROOT
ATOM      1  O1  BZF d   1      -0.829   0.973  -1.137  0.00  0.00    -0.204 OA
ATOM      2  C2  BZF d   1       0.534   0.815  -1.295  0.00  0.00     0.174 A 
ATOM      3  C3  BZF d   1       1.131   0.591  -0.107  0.00  0.00    -0.012 A 
ATOM      4  C3A BZF d   1       0.063   0.518   0.842  0.00  0.00    -0.107 A 
ATOM      5  C4  BZF d   1       0.017   0.298   2.189  0.00  0.00     0.055 A 
ATOM      6  C5  BZF d   1      -1.180   0.362   2.829  0.00  0.00    -0.016 A 
ATOM      7  C6  BZF d   1      -2.349   0.649   2.155  0.00  0.00     0.022 A 
ATOM      8  C7  BZF d   1      -2.355   0.869   0.818  0.00  0.00     0.029 A 
ATOM      9  C7A BZF d   1      -1.151   0.772   0.163  0.00  0.00     0.058 A 
ENDROOT
TORSDOF 0
ENDMDL
