MODEL 1
REMARK minimizedAffinity -4.76580381
REMARK minimizedRMSD -1
REMARK  0 active torsions:
REMARK  status: ('A' for Active; 'I' for Inactive)
ROOT
ATOM      1  O1  BZF d   1      -1.922   0.751   2.227  0.00  0.00    -0.204 OA
ATOM      2  C2  BZF d   1      -2.902   0.908   1.266  0.00  0.00     0.174 A 
ATOM      3  C3  BZF d   1      -2.365   0.892   0.029  0.00  0.00    -0.012 A 
ATOM      4  C3A BZF d   1      -0.974   0.622   0.226  0.00  0.00    -0.107 A 
ATOM      5  C4  BZF d   1       0.082   0.470  -0.626  0.00  0.00     0.055 A 
ATOM      6  C5  BZF d   1       1.326   0.287  -0.110  0.00  0.00    -0.016 A 
ATOM      7  C6  BZF d   1       1.550   0.256   1.251  0.00  0.00     0.022 A 
ATOM      8  C7  BZF d   1       0.533   0.398   2.135  0.00  0.00     0.029 A 
ATOM      9  C7A BZF d   1      -0.730   0.550   1.617  0.00  0.00     0.058 A 
ENDROOT
TORSDOF 0
ENDMDL
