MODEL 1
REMARK minimizedAffinity -5.32193041
REMARK minimizedRMSD -1
REMARK  0 active torsions:
REMARK  status: ('A' for Active; 'I' for Inactive)
ROOT
ATOM      1  O1  BZF d   1      -3.218   0.831   0.864  0.00  0.00    -0.204 OA
ATOM      2  C2  BZF d   1      -3.731   0.887   2.145  0.00  0.00     0.174 A 
ATOM      3  C3  BZF d   1      -2.766   0.652   3.057  0.00  0.00    -0.012 A 
ATOM      4  C3A BZF d   1      -1.557   0.526   2.303  0.00  0.00    -0.107 A 
ATOM      5  C4  BZF d   1      -0.255   0.302   2.647  0.00  0.00     0.055 A 
ATOM      6  C5  BZF d   1       0.673   0.161   1.664  0.00  0.00    -0.016 A 
ATOM      7  C6  BZF d   1       0.333   0.233   0.329  0.00  0.00     0.022 A 
ATOM      8  C7  BZF d   1      -0.945   0.458  -0.061  0.00  0.00     0.029 A 
ATOM      9  C7A BZF d   1      -1.879   0.634   0.930  0.00  0.00     0.058 A 
ENDROOT
TORSDOF 0
ENDMDL
