MODEL 1
REMARK minimizedAffinity 5.54486656
REMARK minimizedRMSD -1
REMARK  1 active torsions:
REMARK  status: ('A' for Active; 'I' for Inactive)
REMARK    1  A    between atoms: C1_2  and  C2_3 
ROOT
ATOM      1  C2  UNL d   1       2.868  -1.474   2.267  0.00  0.00    -0.077 A 
ATOM      2  C3  UNL d   1       2.934  -2.429   3.290  0.00  0.00     0.002 A 
ATOM      3  C4  UNL d   1       2.163  -2.282   4.445  0.00  0.00     0.002 A 
ATOM      4  C5  UNL d   1       1.317  -1.184   4.584  0.00  0.00    -0.004 A 
ATOM      5  C6  UNL d   1       1.245  -0.227   3.573  0.00  0.00     0.002 A 
ATOM      6  C7  UNL d   1       2.017  -0.372   2.419  0.00  0.00     0.002 A 
ENDROOT
BRANCH   1   7
ATOM      7  C1  UNL d   1       3.662  -1.656   1.000  0.00  0.00     0.055 C 
ATOM      8  C   UNL d   1       5.141  -1.854   1.297  0.00  0.00     0.019 C 
ENDBRANCH   1   7
TORSDOF 1
ENDMDL
