MODEL 1
REMARK minimizedAffinity 3.47166872
REMARK minimizedRMSD -1
REMARK  1 active torsions:
REMARK  status: ('A' for Active; 'I' for Inactive)
REMARK    1  A    between atoms: C1_2  and  C2_3 
ROOT
ATOM      1  C2  UNL d   1      -5.936   4.174  -0.198  0.00  0.00    -0.077 A 
ATOM      2  C3  UNL d   1      -5.940   5.297  -1.037  0.00  0.00     0.002 A 
ATOM      3  C4  UNL d   1      -5.950   5.143  -2.424  0.00  0.00     0.002 A 
ATOM      4  C5  UNL d   1      -5.960   3.868  -2.985  0.00  0.00    -0.004 A 
ATOM      5  C6  UNL d   1      -5.954   2.744  -2.160  0.00  0.00     0.002 A 
ATOM      6  C7  UNL d   1      -5.943   2.896  -0.773  0.00  0.00     0.002 A 
ENDROOT
BRANCH   1   7
ATOM      7  C1  UNL d   1      -5.976   4.338   1.299  0.00  0.00     0.055 C 
ATOM      8  C   UNL d   1      -5.989   2.989   2.003  0.00  0.00     0.019 C 
ENDBRANCH   1   7
TORSDOF 1
ENDMDL
