MODEL 1
REMARK minimizedAffinity 6.53697586
REMARK minimizedRMSD -1
REMARK  1 active torsions:
REMARK  status: ('A' for Active; 'I' for Inactive)
REMARK    1  A    between atoms: C1_2  and  C2_3 
ROOT
ATOM      1  C2  UNL d   1       1.612  -1.292   3.430  0.00  0.00    -0.077 A 
ATOM      2  C3  UNL d   1       1.227  -1.022   4.751  0.00  0.00     0.002 A 
ATOM      3  C4  UNL d   1       1.520  -1.929   5.772  0.00  0.00     0.002 A 
ATOM      4  C5  UNL d   1       2.203  -3.108   5.483  0.00  0.00    -0.004 A 
ATOM      5  C6  UNL d   1       2.589  -3.387   4.173  0.00  0.00     0.002 A 
ATOM      6  C7  UNL d   1       2.296  -2.482   3.151  0.00  0.00     0.002 A 
ENDROOT
BRANCH   1   7
ATOM      7  C1  UNL d   1       1.341  -0.293   2.336  0.00  0.00     0.055 C 
ATOM      8  C   UNL d   1       0.483  -0.898   1.235  0.00  0.00     0.019 C 
ENDBRANCH   1   7
TORSDOF 1
ENDMDL
