MODEL 1
REMARK minimizedAffinity 2.83444571
REMARK minimizedRMSD -1
REMARK  1 active torsions:
REMARK  status: ('A' for Active; 'I' for Inactive)
REMARK    1  A    between atoms: C1_2  and  C2_3 
ROOT
ATOM      1  C2  UNL d   1       1.257  -0.724   3.449  0.00  0.00    -0.077 A 
ATOM      2  C3  UNL d   1       1.866  -1.986   3.472  0.00  0.00     0.002 A 
ATOM      3  C4  UNL d   1       2.044  -2.662   4.681  0.00  0.00     0.002 A 
ATOM      4  C5  UNL d   1       1.612  -2.087   5.873  0.00  0.00    -0.004 A 
ATOM      5  C6  UNL d   1       1.007  -0.831   5.861  0.00  0.00     0.002 A 
ATOM      6  C7  UNL d   1       0.830  -0.152   4.654  0.00  0.00     0.002 A 
ENDROOT
BRANCH   1   7
ATOM      7  C1  UNL d   1       1.020  -0.014   2.142  0.00  0.00     0.055 C 
ATOM      8  C   UNL d   1      -0.330  -0.388   1.546  0.00  0.00     0.019 C 
ENDBRANCH   1   7
TORSDOF 1
ENDMDL
