MODEL 1
REMARK minimizedAffinity 5.01990604
REMARK minimizedRMSD -1
REMARK  1 active torsions:
REMARK  status: ('A' for Active; 'I' for Inactive)
REMARK    1  A    between atoms: C1_2  and  C2_3 
ROOT
ATOM      1  C2  UNL d   1       0.586  -0.234   1.127  0.00  0.00    -0.077 A 
ATOM      2  C3  UNL d   1       1.173  -1.299   0.429  0.00  0.00     0.002 A 
ATOM      3  C4  UNL d   1       2.066  -2.158   1.071  0.00  0.00     0.002 A 
ATOM      4  C5  UNL d   1       2.377  -1.964   2.415  0.00  0.00    -0.004 A 
ATOM      5  C6  UNL d   1       1.800  -0.907   3.118  0.00  0.00     0.002 A 
ATOM      6  C7  UNL d   1       0.908  -0.047   2.477  0.00  0.00     0.002 A 
ENDROOT
BRANCH   1   7
ATOM      7  C1  UNL d   1      -0.415   0.664   0.449  0.00  0.00     0.055 C 
ATOM      8  C   UNL d   1      -1.826   0.106   0.564  0.00  0.00     0.019 C 
ENDBRANCH   1   7
TORSDOF 1
ENDMDL
