MODEL 1
REMARK minimizedAffinity 2.56635451
REMARK minimizedRMSD -1
REMARK  1 active torsions:
REMARK  status: ('A' for Active; 'I' for Inactive)
REMARK    1  A    between atoms: C1_2  and  C2_3 
ROOT
ATOM      1  C2  UNL d   1       1.668  -0.956   3.145  0.00  0.00    -0.077 A 
ATOM      2  C3  UNL d   1       1.222   0.031   4.035  0.00  0.00     0.002 A 
ATOM      3  C4  UNL d   1       1.025  -0.272   5.384  0.00  0.00     0.002 A 
ATOM      4  C5  UNL d   1       1.275  -1.560   5.854  0.00  0.00    -0.004 A 
ATOM      5  C6  UNL d   1       1.717  -2.548   4.976  0.00  0.00     0.002 A 
ATOM      6  C7  UNL d   1       1.914  -2.248   3.627  0.00  0.00     0.002 A 
ENDROOT
BRANCH   1   7
ATOM      7  C1  UNL d   1       1.929  -0.618   1.700  0.00  0.00     0.055 C 
ATOM      8  C   UNL d   1       3.167  -1.333   1.179  0.00  0.00     0.019 C 
ENDBRANCH   1   7
TORSDOF 1
ENDMDL
