MODEL 1
REMARK minimizedAffinity -4.5699501
REMARK minimizedRMSD -1
REMARK  1 active torsions:
REMARK  status: ('A' for Active; 'I' for Inactive)
REMARK    1  A    between atoms: C3_4  and  O_7 
ROOT
ATOM      1  C   UNL d   1      -0.871   0.049   0.091  0.00  0.00    -0.033 A 
ATOM      2  C1  UNL d   1      -0.311   1.323  -0.021  0.00  0.00     0.039 A 
ATOM      3  C2  UNL d   1       1.057   1.508   0.189  0.00  0.00    -0.080 A 
ATOM      4  C3  UNL d   1       1.853   0.411   0.508  0.00  0.00     0.150 A 
ATOM      5  C4  UNL d   1       1.302  -0.862   0.618  0.00  0.00    -0.007 A 
ATOM      6  C5  UNL d   1      -0.064  -1.044   0.409  0.00  0.00     0.039 A 
ENDROOT
BRANCH   4   7
ATOM      7  O   UNL d   1       3.192   0.542   0.727  0.00  0.00    -0.526 OA
ATOM      8  H5  UNL d   1       3.426   1.482   0.646  0.00  0.00     0.418 HD
ENDBRANCH   4   7
TORSDOF 1
ENDMDL
