MODEL 1
REMARK minimizedAffinity -0.345631897
REMARK minimizedRMSD -1
REMARK  1 active torsions:
REMARK  status: ('A' for Active; 'I' for Inactive)
REMARK    1  A    between atoms: C3_4  and  O_7 
ROOT
ATOM      1  C   UNL d   1       0.682  -0.107   1.376  0.00  0.00    -0.033 A 
ATOM      2  C1  UNL d   1       0.811   0.838   0.356  0.00  0.00     0.039 A 
ATOM      3  C2  UNL d   1      -0.139   0.898  -0.666  0.00  0.00    -0.080 A 
ATOM      4  C3  UNL d   1      -1.211   0.010  -0.656  0.00  0.00     0.150 A 
ATOM      5  C4  UNL d   1      -1.347  -0.931   0.360  0.00  0.00    -0.007 A 
ATOM      6  C5  UNL d   1      -0.398  -0.990   1.379  0.00  0.00     0.039 A 
ENDROOT
BRANCH   4   7
ATOM      7  O   UNL d   1      -2.160   0.027  -1.634  0.00  0.00    -0.526 OA
ATOM      8  H5  UNL d   1      -1.920   0.710  -2.283  0.00  0.00     0.418 HD
ENDBRANCH   4   7
TORSDOF 1
ENDMDL
