MODEL 1
REMARK minimizedAffinity -1.75697649
REMARK minimizedRMSD -1
REMARK  1 active torsions:
REMARK  status: ('A' for Active; 'I' for Inactive)
REMARK    1  A    between atoms: C3_4  and  O_7 
ROOT
ATOM      1  C   UNL d   1      -0.774   1.135  -0.852  0.00  0.00    -0.033 A 
ATOM      2  C1  UNL d   1      -0.134   1.155   0.389  0.00  0.00     0.039 A 
ATOM      3  C2  UNL d   1      -0.166   0.027   1.211  0.00  0.00    -0.080 A 
ATOM      4  C3  UNL d   1      -0.839  -1.113   0.781  0.00  0.00     0.150 A 
ATOM      5  C4  UNL d   1      -1.475  -1.142  -0.456  0.00  0.00    -0.007 A 
ATOM      6  C5  UNL d   1      -1.443  -0.014  -1.275  0.00  0.00     0.039 A 
ENDROOT
BRANCH   4   7
ATOM      7  O   UNL d   1      -0.901  -2.237   1.550  0.00  0.00    -0.526 OA
ATOM      8  H5  UNL d   1      -0.442  -2.061   2.389  0.00  0.00     0.418 HD
ENDBRANCH   4   7
TORSDOF 1
ENDMDL
