MODEL 1
REMARK minimizedAffinity -4.89715624
REMARK minimizedRMSD -1
REMARK  1 active torsions:
REMARK  status: ('A' for Active; 'I' for Inactive)
REMARK    1  A    between atoms: C3_4  and  O_7 
ROOT
ATOM      1  C   UNL d   1       2.203  -1.490   1.254  0.00  0.00    -0.033 A 
ATOM      2  C1  UNL d   1       2.727  -0.269   1.683  0.00  0.00     0.039 A 
ATOM      3  C2  UNL d   1       2.092   0.925   1.337  0.00  0.00    -0.080 A 
ATOM      4  C3  UNL d   1       0.935   0.884   0.564  0.00  0.00     0.150 A 
ATOM      5  C4  UNL d   1       0.405  -0.329   0.137  0.00  0.00    -0.007 A 
ATOM      6  C5  UNL d   1       1.041  -1.520   0.482  0.00  0.00     0.039 A 
ENDROOT
BRANCH   4   7
ATOM      7  O   UNL d   1       0.282   2.024   0.197  0.00  0.00    -0.526 OA
ATOM      8  H5  UNL d   1       0.778   2.786   0.539  0.00  0.00     0.418 HD
ENDBRANCH   4   7
TORSDOF 1
ENDMDL
