MODEL 1
REMARK minimizedAffinity 0.509086311
REMARK minimizedRMSD -1
REMARK  0 active torsions:
REMARK  status: ('A' for Active; 'I' for Inactive)
ROOT
ATOM      1  C   UNL d   1      -0.252  -0.957  -0.145  0.00  0.00     0.124 A 
ATOM      2  C1  UNL d   1       1.027  -0.876  -0.678  0.00  0.00     0.062 A 
ATOM      3  C2  UNL d   1       1.903   0.116  -0.248  0.00  0.00     0.162 A 
ATOM      4  C3  UNL d   1       1.504   1.036   0.721  0.00  0.00    -0.034 A 
ATOM      5  C4  UNL d   1       0.215   0.949   1.252  0.00  0.00     0.162 A 
ATOM      6  C5  UNL d   1      -0.657  -0.045   0.819  0.00  0.00     0.062 A 
ATOM      7  F   UNL d   1      -1.892  -0.121   1.335  0.00  0.00    -0.097 F 
ATOM      8  F1  UNL d   1      -0.202   1.817   2.186  0.00  0.00    -0.096 F 
ATOM      9  I   UNL d   1       2.810   2.522   1.367  0.00  0.00    -0.060 I 
ATOM     10  F2  UNL d   1       3.133   0.171  -0.780  0.00  0.00    -0.096 F 
ATOM     11  F3  UNL d   1       1.420  -1.756  -1.611  0.00  0.00    -0.097 F 
ATOM     12  F4  UNL d   1      -1.093  -1.912  -0.562  0.00  0.00    -0.092 F 
ENDROOT
TORSDOF 0
ENDMDL
