MODEL 1
REMARK minimizedAffinity -3.96677518
REMARK minimizedRMSD -1
REMARK  0 active torsions:
REMARK  status: ('A' for Active; 'I' for Inactive)
ROOT
ATOM      1  C   UNL d   1       1.769   1.724   0.497  0.00  0.00     0.124 A 
ATOM      2  C1  UNL d   1       0.439   1.618   0.881  0.00  0.00     0.062 A 
ATOM      3  C2  UNL d   1      -0.304   0.495   0.529  0.00  0.00     0.162 A 
ATOM      4  C3  UNL d   1       0.281  -0.533  -0.211  0.00  0.00    -0.034 A 
ATOM      5  C4  UNL d   1       1.619  -0.419  -0.594  0.00  0.00     0.162 A 
ATOM      6  C5  UNL d   1       2.357   0.706  -0.239  0.00  0.00     0.062 A 
ATOM      7  F   UNL d   1       3.642   0.806  -0.611  0.00  0.00    -0.097 F 
ATOM      8  F1  UNL d   1       2.213  -1.388  -1.305  0.00  0.00    -0.096 F 
ATOM      9  I   UNL d   1      -0.827  -2.213  -0.739  0.00  0.00    -0.060 I 
ATOM     10  F2  UNL d   1      -1.587   0.420   0.913  0.00  0.00    -0.096 F 
ATOM     11  F3  UNL d   1      -0.132   2.601   1.592  0.00  0.00    -0.097 F 
ATOM     12  F4  UNL d   1       2.481   2.806   0.837  0.00  0.00    -0.092 F 
ENDROOT
TORSDOF 0
ENDMDL
