MODEL 1
REMARK minimizedAffinity 0.0827435479
REMARK minimizedRMSD -1
REMARK  0 active torsions:
REMARK  status: ('A' for Active; 'I' for Inactive)
ROOT
ATOM      1  C   UNL d   1       0.812   1.991   1.030  0.00  0.00     0.124 A 
ATOM      2  C1  UNL d   1       1.187   1.430  -0.183  0.00  0.00     0.062 A 
ATOM      3  C2  UNL d   1       0.474   0.355  -0.706  0.00  0.00     0.162 A 
ATOM      4  C3  UNL d   1      -0.622  -0.165  -0.017  0.00  0.00    -0.034 A 
ATOM      5  C4  UNL d   1      -0.992   0.404   1.203  0.00  0.00     0.162 A 
ATOM      6  C5  UNL d   1      -0.276   1.478   1.721  0.00  0.00     0.062 A 
ATOM      7  F   UNL d   1      -0.639   2.020   2.893  0.00  0.00    -0.097 F 
ATOM      8  F1  UNL d   1      -2.040  -0.071   1.891  0.00  0.00    -0.096 F 
ATOM      9  I   UNL d   1      -1.690  -1.772  -0.796  0.00  0.00    -0.060 I 
ATOM     10  F2  UNL d   1       0.858  -0.168  -1.880  0.00  0.00    -0.096 F 
ATOM     11  F3  UNL d   1       2.239   1.923  -0.852  0.00  0.00    -0.097 F 
ATOM     12  F4  UNL d   1       1.501   3.025   1.532  0.00  0.00    -0.092 F 
ENDROOT
TORSDOF 0
ENDMDL
