MODEL 1
REMARK minimizedAffinity 2.28728819
REMARK minimizedRMSD -1
REMARK  0 active torsions:
REMARK  status: ('A' for Active; 'I' for Inactive)
ROOT
ATOM      1  C   UNL d   1       1.027   1.638   1.071  0.00  0.00     0.124 A 
ATOM      2  C1  UNL d   1       1.497   1.058  -0.100  0.00  0.00     0.062 A 
ATOM      3  C2  UNL d   1       0.731   0.107  -0.767  0.00  0.00     0.162 A 
ATOM      4  C3  UNL d   1      -0.515  -0.270  -0.265  0.00  0.00    -0.034 A 
ATOM      5  C4  UNL d   1      -0.981   0.316   0.913  0.00  0.00     0.162 A 
ATOM      6  C5  UNL d   1      -0.211   1.267   1.576  0.00  0.00     0.062 A 
ATOM      7  F   UNL d   1      -0.667   1.826   2.706  0.00  0.00    -0.097 F 
ATOM      8  F1  UNL d   1      -2.174  -0.023   1.423  0.00  0.00    -0.096 F 
ATOM      9  I   UNL d   1      -1.664  -1.692  -1.259  0.00  0.00    -0.060 I 
ATOM     10  F2  UNL d   1       1.210  -0.436  -1.895  0.00  0.00    -0.096 F 
ATOM     11  F3  UNL d   1       2.693   1.415  -0.589  0.00  0.00    -0.097 F 
ATOM     12  F4  UNL d   1       1.767   2.553   1.711  0.00  0.00    -0.092 F 
ENDROOT
TORSDOF 0
ENDMDL
