MODEL 1
REMARK minimizedAffinity -2.86384892
REMARK minimizedRMSD -1
REMARK  0 active torsions:
REMARK  status: ('A' for Active; 'I' for Inactive)
ROOT
ATOM      1  C   UNL d   1       0.562   1.718   1.094  0.00  0.00     0.124 A 
ATOM      2  C1  UNL d   1       0.819   1.240  -0.184  0.00  0.00     0.062 A 
ATOM      3  C2  UNL d   1       0.239   0.051  -0.616  0.00  0.00     0.162 A 
ATOM      4  C3  UNL d   1      -0.604  -0.669   0.231  0.00  0.00    -0.034 A 
ATOM      5  C4  UNL d   1      -0.857  -0.182   1.515  0.00  0.00     0.162 A 
ATOM      6  C5  UNL d   1      -0.275   1.007   1.941  0.00  0.00     0.062 A 
ATOM      7  F   UNL d   1      -0.524   1.467   3.176  0.00  0.00    -0.097 F 
ATOM      8  F1  UNL d   1      -1.662  -0.849   2.354  0.00  0.00    -0.096 F 
ATOM      9  I   UNL d   1      -1.473  -2.448  -0.411  0.00  0.00    -0.060 I 
ATOM     10  F2  UNL d   1       0.505  -0.387  -1.855  0.00  0.00    -0.096 F 
ATOM     11  F3  UNL d   1       1.628   1.925  -1.005  0.00  0.00    -0.097 F 
ATOM     12  F4  UNL d   1       1.122   2.863   1.507  0.00  0.00    -0.092 F 
ENDROOT
TORSDOF 0
ENDMDL
