MODEL 1
REMARK minimizedAffinity -2.96170592
REMARK minimizedRMSD -1
REMARK  0 active torsions:
REMARK  status: ('A' for Active; 'I' for Inactive)
ROOT
ATOM      1  C   UNL d   1       1.513   1.644  -0.174  0.00  0.00     0.124 A 
ATOM      2  C1  UNL d   1       0.203   2.060  -0.369  0.00  0.00     0.062 A 
ATOM      3  C2  UNL d   1      -0.796   1.127  -0.632  0.00  0.00     0.162 A 
ATOM      4  C3  UNL d   1      -0.490  -0.232  -0.700  0.00  0.00    -0.034 A 
ATOM      5  C4  UNL d   1       0.830  -0.643  -0.504  0.00  0.00     0.162 A 
ATOM      6  C5  UNL d   1       1.825   0.293  -0.241  0.00  0.00     0.062 A 
ATOM      7  F   UNL d   1       3.090  -0.111  -0.053  0.00  0.00    -0.097 F 
ATOM      8  F1  UNL d   1       1.159  -1.942  -0.563  0.00  0.00    -0.096 F 
ATOM      9  I   UNL d   1      -1.981  -1.630  -1.092  0.00  0.00    -0.060 I 
ATOM     10  F2  UNL d   1      -2.053   1.558  -0.816  0.00  0.00    -0.096 F 
ATOM     11  F3  UNL d   1      -0.101   3.364  -0.305  0.00  0.00    -0.097 F 
ATOM     12  F4  UNL d   1       2.472   2.544   0.078  0.00  0.00    -0.092 F 
ENDROOT
TORSDOF 0
ENDMDL
