MODEL 1
REMARK minimizedAffinity -3.21532607
REMARK minimizedRMSD -1
REMARK  0 active torsions:
REMARK  status: ('A' for Active; 'I' for Inactive)
ROOT
ATOM      1  C   UNL d   1       0.835   2.074   0.876  0.00  0.00     0.124 A 
ATOM      2  C1  UNL d   1       1.224   1.324  -0.225  0.00  0.00     0.062 A 
ATOM      3  C2  UNL d   1       0.531   0.166  -0.563  0.00  0.00     0.162 A 
ATOM      4  C3  UNL d   1      -0.559  -0.251   0.201  0.00  0.00    -0.034 A 
ATOM      5  C4  UNL d   1      -0.944   0.508   1.308  0.00  0.00     0.162 A 
ATOM      6  C5  UNL d   1      -0.248   1.665   1.642  0.00  0.00     0.062 A 
ATOM      7  F   UNL d   1      -0.626   2.388   2.706  0.00  0.00    -0.097 F 
ATOM      8  F1  UNL d   1      -1.988   0.136   2.064  0.00  0.00    -0.096 F 
ATOM      9  I   UNL d   1      -1.598  -1.983  -0.302  0.00  0.00    -0.060 I 
ATOM     10  F2  UNL d   1       0.929  -0.539  -1.633  0.00  0.00    -0.096 F 
ATOM     11  F3  UNL d   1       2.271   1.717  -0.965  0.00  0.00    -0.097 F 
ATOM     12  F4  UNL d   1       1.504   3.188   1.200  0.00  0.00    -0.092 F 
ENDROOT
TORSDOF 0
ENDMDL
