MODEL 1
REMARK minimizedAffinity -1.35996068
REMARK minimizedRMSD -1
REMARK  0 active torsions:
REMARK  status: ('A' for Active; 'I' for Inactive)
ROOT
ATOM      1  C   UNL d   1       1.449   2.097   1.646  0.00  0.00     0.124 A 
ATOM      2  C1  UNL d   1       1.701   1.950   0.289  0.00  0.00     0.062 A 
ATOM      3  C2  UNL d   1       0.990   1.015  -0.457  0.00  0.00     0.162 A 
ATOM      4  C3  UNL d   1       0.019   0.220   0.152  0.00  0.00    -0.034 A 
ATOM      5  C4  UNL d   1      -0.228   0.373   1.517  0.00  0.00     0.162 A 
ATOM      6  C5  UNL d   1       0.485   1.309   2.259  0.00  0.00     0.062 A 
ATOM      7  F   UNL d   1       0.241   1.450   3.570  0.00  0.00    -0.097 F 
ATOM      8  F1  UNL d   1      -1.155  -0.375   2.134  0.00  0.00    -0.096 F 
ATOM      9  I   UNL d   1      -1.047  -1.180  -0.961  0.00  0.00    -0.060 I 
ATOM     10  F2  UNL d   1       1.254   0.894  -1.767  0.00  0.00    -0.096 F 
ATOM     11  F3  UNL d   1       2.632   2.710  -0.305  0.00  0.00    -0.097 F 
ATOM     12  F4  UNL d   1       2.135   2.997   2.362  0.00  0.00    -0.092 F 
ENDROOT
TORSDOF 0
ENDMDL
