MODEL 1
REMARK minimizedAffinity -3.82481575
REMARK minimizedRMSD -1
REMARK  0 active torsions:
REMARK  status: ('A' for Active; 'I' for Inactive)
ROOT
ATOM      1  C   UNL d   1       1.007   1.790   0.841  0.00  0.00     0.124 A 
ATOM      2  C1  UNL d   1      -0.144   1.427   1.527  0.00  0.00     0.062 A 
ATOM      3  C2  UNL d   1      -0.948   0.396   1.049  0.00  0.00     0.162 A 
ATOM      4  C3  UNL d   1      -0.604  -0.279  -0.121  0.00  0.00    -0.034 A 
ATOM      5  C4  UNL d   1       0.554   0.092  -0.806  0.00  0.00     0.162 A 
ATOM      6  C5  UNL d   1       1.355   1.122  -0.324  0.00  0.00     0.062 A 
ATOM      7  F   UNL d   1       2.466   1.472  -0.989  0.00  0.00    -0.097 F 
ATOM      8  F1  UNL d   1       0.914  -0.537  -1.935  0.00  0.00    -0.096 F 
ATOM      9  I   UNL d   1      -1.804  -1.821  -0.840  0.00  0.00    -0.060 I 
ATOM     10  F2  UNL d   1      -2.054   0.067   1.733  0.00  0.00    -0.096 F 
ATOM     11  F3  UNL d   1      -0.483   2.071   2.654  0.00  0.00    -0.097 F 
ATOM     12  F4  UNL d   1       1.778   2.782   1.303  0.00  0.00    -0.092 F 
ENDROOT
TORSDOF 0
ENDMDL
