MODEL 1
REMARK minimizedAffinity -2.34622955
REMARK minimizedRMSD -1
REMARK  0 active torsions:
REMARK  status: ('A' for Active; 'I' for Inactive)
ROOT
ATOM      1  C   UNL d   1       1.709   1.729  -0.068  0.00  0.00     0.124 A 
ATOM      2  C1  UNL d   1       2.065   0.421  -0.364  0.00  0.00     0.062 A 
ATOM      3  C2  UNL d   1       1.082  -0.536  -0.597  0.00  0.00     0.162 A 
ATOM      4  C3  UNL d   1      -0.268  -0.188  -0.535  0.00  0.00    -0.034 A 
ATOM      5  C4  UNL d   1      -0.618   1.129  -0.236  0.00  0.00     0.162 A 
ATOM      6  C5  UNL d   1       0.368   2.082  -0.004  0.00  0.00     0.062 A 
ATOM      7  F   UNL d   1       0.023   3.346   0.282  0.00  0.00    -0.097 F 
ATOM      8  F1  UNL d   1      -1.906   1.498  -0.169  0.00  0.00    -0.096 F 
ATOM      9  I   UNL d   1      -1.741  -1.617  -0.882  0.00  0.00    -0.060 I 
ATOM     10  F2  UNL d   1       1.454  -1.793  -0.881  0.00  0.00    -0.096 F 
ATOM     11  F3  UNL d   1       3.359   0.077  -0.425  0.00  0.00    -0.097 F 
ATOM     12  F4  UNL d   1       2.657   2.648   0.157  0.00  0.00    -0.092 F 
ENDROOT
TORSDOF 0
ENDMDL
