MODEL 1
REMARK minimizedAffinity -2.64878607
REMARK minimizedRMSD -1
REMARK  0 active torsions:
REMARK  status: ('A' for Active; 'I' for Inactive)
ROOT
ATOM      1  C   UNL d   1       0.997   2.228   0.822  0.00  0.00     0.124 A 
ATOM      2  C1  UNL d   1      -0.140   1.762   1.468  0.00  0.00     0.062 A 
ATOM      3  C2  UNL d   1      -0.829   0.662   0.966  0.00  0.00     0.162 A 
ATOM      4  C3  UNL d   1      -0.384   0.019  -0.189  0.00  0.00    -0.034 A 
ATOM      5  C4  UNL d   1       0.759   0.494  -0.834  0.00  0.00     0.162 A 
ATOM      6  C5  UNL d   1       1.445   1.594  -0.328  0.00  0.00     0.062 A 
ATOM      7  F   UNL d   1       2.543   2.042  -0.954  0.00  0.00    -0.097 F 
ATOM      8  F1  UNL d   1       1.215  -0.100  -1.947  0.00  0.00    -0.096 F 
ATOM      9  I   UNL d   1      -1.412  -1.626  -0.943  0.00  0.00    -0.060 I 
ATOM     10  F2  UNL d   1      -1.924   0.234   1.611  0.00  0.00    -0.096 F 
ATOM     11  F3  UNL d   1      -0.575   2.373   2.579  0.00  0.00    -0.097 F 
ATOM     12  F4  UNL d   1       1.658   3.287   1.306  0.00  0.00    -0.092 F 
ENDROOT
TORSDOF 0
ENDMDL
