MODEL 1
REMARK minimizedAffinity -2.96529007
REMARK minimizedRMSD -1
REMARK  0 active torsions:
REMARK  status: ('A' for Active; 'I' for Inactive)
ROOT
ATOM      1  C   UNL d   1       1.676   1.959   0.731  0.00  0.00     0.124 A 
ATOM      2  C1  UNL d   1       2.203   0.907  -0.005  0.00  0.00     0.062 A 
ATOM      3  C2  UNL d   1       1.377  -0.126  -0.441  0.00  0.00     0.162 A 
ATOM      4  C3  UNL d   1       0.015  -0.111  -0.142  0.00  0.00    -0.034 A 
ATOM      5  C4  UNL d   1      -0.508   0.949   0.600  0.00  0.00     0.162 A 
ATOM      6  C5  UNL d   1       0.321   1.979   1.033  0.00  0.00     0.062 A 
ATOM      7  F   UNL d   1      -0.190   2.994   1.745  0.00  0.00    -0.097 F 
ATOM      8  F1  UNL d   1      -1.813   0.995   0.905  0.00  0.00    -0.096 F 
ATOM      9  I   UNL d   1      -1.223  -1.653  -0.791  0.00  0.00    -0.060 I 
ATOM     10  F2  UNL d   1       1.914  -1.129  -1.151  0.00  0.00    -0.096 F 
ATOM     11  F3  UNL d   1       3.511   0.885  -0.297  0.00  0.00    -0.097 F 
ATOM     12  F4  UNL d   1       2.472   2.950   1.150  0.00  0.00    -0.092 F 
ENDROOT
TORSDOF 0
ENDMDL
