MODEL 1
REMARK minimizedAffinity 0.166590214
REMARK minimizedRMSD -1
REMARK  0 active torsions:
REMARK  status: ('A' for Active; 'I' for Inactive)
ROOT
ATOM      1  C   UNL d   1       1.558   1.404   0.989  0.00  0.00     0.124 A 
ATOM      2  C1  UNL d   1       0.207   1.501   1.291  0.00  0.00     0.062 A 
ATOM      3  C2  UNL d   1      -0.700   0.598   0.742  0.00  0.00     0.162 A 
ATOM      4  C3  UNL d   1      -0.258  -0.411  -0.114  0.00  0.00    -0.034 A 
ATOM      5  C4  UNL d   1       1.103  -0.501  -0.413  0.00  0.00     0.162 A 
ATOM      6  C5  UNL d   1       2.005   0.403   0.137  0.00  0.00     0.062 A 
ATOM      7  F   UNL d   1       3.310   0.308  -0.155  0.00  0.00    -0.097 F 
ATOM      8  F1  UNL d   1       1.562  -1.459  -1.233  0.00  0.00    -0.096 F 
ATOM      9  I   UNL d   1      -1.610  -1.762  -0.936  0.00  0.00    -0.060 I 
ATOM     10  F2  UNL d   1      -2.000   0.716   1.051  0.00  0.00    -0.096 F 
ATOM     11  F3  UNL d   1      -0.227   2.467   2.112  0.00  0.00    -0.097 F 
ATOM     12  F4  UNL d   1       2.428   2.274   1.518  0.00  0.00    -0.092 F 
ENDROOT
TORSDOF 0
ENDMDL
