MODEL 1
REMARK minimizedAffinity -2.94932103
REMARK minimizedRMSD -1
REMARK  0 active torsions:
REMARK  status: ('A' for Active; 'I' for Inactive)
ROOT
ATOM      1  C   UNL d   1      -0.843  -1.203   0.350  0.00  0.00     0.124 A 
ATOM      2  C1  UNL d   1       0.245  -0.829  -0.427  0.00  0.00     0.062 A 
ATOM      3  C2  UNL d   1       0.935   0.346  -0.146  0.00  0.00     0.162 A 
ATOM      4  C3  UNL d   1       0.540   1.157   0.918  0.00  0.00    -0.034 A 
ATOM      5  C4  UNL d   1      -0.555   0.776   1.694  0.00  0.00     0.162 A 
ATOM      6  C5  UNL d   1      -1.242  -0.400   1.410  0.00  0.00     0.062 A 
ATOM      7  F   UNL d   1      -2.293  -0.759   2.161  0.00  0.00    -0.097 F 
ATOM      8  F1  UNL d   1      -0.962   1.532   2.725  0.00  0.00    -0.096 F 
ATOM      9  I   UNL d   1       1.570   2.916   1.341  0.00  0.00    -0.060 I 
ATOM     10  F2  UNL d   1       1.983   0.682  -0.913  0.00  0.00    -0.096 F 
ATOM     11  F3  UNL d   1       0.632  -1.603  -1.452  0.00  0.00    -0.097 F 
ATOM     12  F4  UNL d   1      -1.506  -2.334   0.077  0.00  0.00    -0.092 F 
ENDROOT
TORSDOF 0
ENDMDL
