MODEL 1
REMARK minimizedAffinity 9.94729137
REMARK minimizedRMSD -1
REMARK  0 active torsions:
REMARK  status: ('A' for Active; 'I' for Inactive)
ROOT
ATOM      1  C1  DEN d   1      -1.012   2.662   2.457  0.00  0.00     0.130 A 
ATOM      2  C2  DEN d   1      -0.257   1.414   2.379  0.00  0.00    -0.031 A 
ATOM      3  C3  DEN d   1       0.239   1.266   0.996  0.00  0.00     0.027 A 
ATOM      4  C4  DEN d   1      -0.084   2.842  -1.021  0.00  0.00     0.027 A 
ATOM      5  C5  DEN d   1      -0.661   4.019  -1.445  0.00  0.00    -0.003 A 
ATOM      6  C6  DEN d   1      -1.419   4.802  -0.614  0.00  0.00     0.001 A 
ATOM      7  C7  DEN d   1      -1.581   4.440   0.697  0.00  0.00     0.017 A 
ATOM      8  C8  DEN d   1      -1.008   3.252   1.130  0.00  0.00    -0.094 A 
ATOM      9  C9  DEN d   1      -0.236   2.481   0.278  0.00  0.00    -0.072 A 
ENDROOT
TORSDOF 0
ENDMDL
