MODEL 1
REMARK minimizedAffinity 17.6869984
REMARK minimizedRMSD -1
REMARK  0 active torsions:
REMARK  status: ('A' for Active; 'I' for Inactive)
ROOT
ATOM      1  C1  DEN d   1      -2.540   3.917  -2.158  0.00  0.00     0.130 A 
ATOM      2  C2  DEN d   1      -1.763   3.071  -1.257  0.00  0.00    -0.031 A 
ATOM      3  C3  DEN d   1      -2.569   1.873  -0.946  0.00  0.00     0.027 A 
ATOM      4  C4  DEN d   1      -4.932   1.249  -1.770  0.00  0.00     0.027 A 
ATOM      5  C5  DEN d   1      -5.997   1.660  -2.541  0.00  0.00    -0.003 A 
ATOM      6  C6  DEN d   1      -5.998   2.857  -3.205  0.00  0.00     0.001 A 
ATOM      7  C7  DEN d   1      -4.894   3.667  -3.148  0.00  0.00     0.017 A 
ATOM      8  C8  DEN d   1      -3.820   3.263  -2.367  0.00  0.00    -0.094 A 
ATOM      9  C9  DEN d   1      -3.832   2.042  -1.713  0.00  0.00    -0.072 A 
ENDROOT
TORSDOF 0
ENDMDL
