MODEL 1
REMARK minimizedAffinity 14.0815029
REMARK minimizedRMSD -1
REMARK  0 active torsions:
REMARK  status: ('A' for Active; 'I' for Inactive)
ROOT
ATOM      1  C1  DEN d   1       1.246  -4.890  -1.160  0.00  0.00     0.130 A 
ATOM      2  C2  DEN d   1       0.289  -4.225  -2.040  0.00  0.00    -0.031 A 
ATOM      3  C3  DEN d   1       0.900  -4.117  -3.380  0.00  0.00     0.027 A 
ATOM      4  C4  DEN d   1       3.220  -4.916  -4.175  0.00  0.00     0.027 A 
ATOM      5  C5  DEN d   1       4.391  -5.526  -3.785  0.00  0.00    -0.003 A 
ATOM      6  C6  DEN d   1       4.608  -5.933  -2.495  0.00  0.00     0.001 A 
ATOM      7  C7  DEN d   1       3.621  -5.775  -1.559  0.00  0.00     0.017 A 
ATOM      8  C8  DEN d   1       2.440  -5.155  -1.943  0.00  0.00    -0.094 A 
ATOM      9  C9  DEN d   1       2.235  -4.762  -3.255  0.00  0.00    -0.072 A 
ENDROOT
TORSDOF 0
ENDMDL
