MODEL 1
REMARK minimizedAffinity 14.2709341
REMARK minimizedRMSD -1
REMARK  0 active torsions:
REMARK  status: ('A' for Active; 'I' for Inactive)
ROOT
ATOM      1  C1  DEN d   1       4.620  -5.146  -1.495  0.00  0.00     0.130 A 
ATOM      2  C2  DEN d   1       6.000  -4.674  -1.418  0.00  0.00    -0.031 A 
ATOM      3  C3  DEN d   1       5.995  -3.355  -0.754  0.00  0.00     0.027 A 
ATOM      4  C4  DEN d   1       3.996  -2.008   0.163  0.00  0.00     0.027 A 
ATOM      5  C5  DEN d   1       2.627  -1.994   0.317  0.00  0.00    -0.003 A 
ATOM      6  C6  DEN d   1       1.830  -3.006  -0.149  0.00  0.00     0.001 A 
ATOM      7  C7  DEN d   1       2.400  -4.097  -0.751  0.00  0.00     0.017 A 
ATOM      8  C8  DEN d   1       3.779  -4.114  -0.917  0.00  0.00    -0.094 A 
ATOM      9  C9  DEN d   1       4.568  -3.087  -0.428  0.00  0.00    -0.072 A 
ENDROOT
TORSDOF 0
ENDMDL
