MODEL 1
REMARK minimizedAffinity 11.8338289
REMARK minimizedRMSD -1
REMARK  0 active torsions:
REMARK  status: ('A' for Active; 'I' for Inactive)
ROOT
ATOM      1  C1  DEN d   1       2.033  -5.466  -1.613  0.00  0.00     0.130 A 
ATOM      2  C2  DEN d   1       0.903  -4.899  -0.880  0.00  0.00    -0.031 A 
ATOM      3  C3  DEN d   1       0.063  -4.156  -1.841  0.00  0.00     0.027 A 
ATOM      4  C4  DEN d   1       0.397  -3.833  -4.378  0.00  0.00     0.027 A 
ATOM      5  C5  DEN d   1       1.218  -4.117  -5.447  0.00  0.00    -0.003 A 
ATOM      6  C6  DEN d   1       2.376  -4.835  -5.308  0.00  0.00     0.001 A 
ATOM      7  C7  DEN d   1       2.723  -5.333  -4.080  0.00  0.00     0.017 A 
ATOM      8  C8  DEN d   1       1.904  -5.045  -2.996  0.00  0.00    -0.094 A 
ATOM      9  C9  DEN d   1       0.731  -4.328  -3.159  0.00  0.00    -0.072 A 
ENDROOT
TORSDOF 0
ENDMDL
