MODEL 1
REMARK minimizedAffinity 9.58118343
REMARK minimizedRMSD -1
REMARK  0 active torsions:
REMARK  status: ('A' for Active; 'I' for Inactive)
ROOT
ATOM      1  C1  DEN d   1       0.193   2.230   1.903  0.00  0.00     0.130 A 
ATOM      2  C2  DEN d   1       0.960   1.585   0.840  0.00  0.00    -0.031 A 
ATOM      3  C3  DEN d   1       0.192   1.706  -0.415  0.00  0.00     0.027 A 
ATOM      4  C4  DEN d   1      -2.095   2.828  -0.816  0.00  0.00     0.027 A 
ATOM      5  C5  DEN d   1      -3.136   3.500  -0.216  0.00  0.00    -0.003 A 
ATOM      6  C6  DEN d   1      -3.156   3.765   1.128  0.00  0.00     0.001 A 
ATOM      7  C7  DEN d   1      -2.094   3.394   1.909  0.00  0.00     0.017 A 
ATOM      8  C8  DEN d   1      -1.044   2.709   1.312  0.00  0.00    -0.094 A 
ATOM      9  C9  DEN d   1      -1.036   2.462  -0.051  0.00  0.00    -0.072 A 
ENDROOT
TORSDOF 0
ENDMDL
