MODEL 1
REMARK minimizedAffinity 5.9196806
REMARK minimizedRMSD -1
REMARK  1 active torsions:
REMARK  status: ('A' for Active; 'I' for Inactive)
REMARK    1  A    between atoms: C1_2  and  C2_3 
ROOT
ATOM      1  C2  UNL d   1      -1.579  -4.429  -5.645  0.00  0.00    -0.077 A 
ATOM      2  C3  UNL d   1      -2.479  -5.500  -5.560  0.00  0.00     0.002 A 
ATOM      3  C4  UNL d   1      -3.851  -5.282  -5.693  0.00  0.00     0.002 A 
ATOM      4  C5  UNL d   1      -4.336  -3.995  -5.916  0.00  0.00    -0.004 A 
ATOM      5  C6  UNL d   1      -3.449  -2.922  -6.000  0.00  0.00     0.002 A 
ATOM      6  C7  UNL d   1      -2.077  -3.138  -5.866  0.00  0.00     0.002 A 
ENDROOT
BRANCH   1   7
ATOM      7  C1  UNL d   1      -0.095  -4.669  -5.551  0.00  0.00     0.055 C 
ATOM      8  C   UNL d   1       0.692  -3.413  -5.897  0.00  0.00     0.019 C 
ENDBRANCH   1   7
TORSDOF 1
ENDMDL
