MODEL 1
REMARK minimizedAffinity -2.51687169
REMARK minimizedRMSD -1
REMARK  1 active torsions:
REMARK  status: ('A' for Active; 'I' for Inactive)
REMARK    1  A    between atoms: C1_2  and  C2_3 
ROOT
ATOM      1  C2  UNL d   1      -5.258  -2.732   4.521  0.00  0.00    -0.077 A 
ATOM      2  C3  UNL d   1      -4.518  -2.881   3.340  0.00  0.00     0.002 A 
ATOM      3  C4  UNL d   1      -4.520  -1.874   2.373  0.00  0.00     0.002 A 
ATOM      4  C5  UNL d   1      -5.257  -0.710   2.579  0.00  0.00    -0.004 A 
ATOM      5  C6  UNL d   1      -5.997  -0.552   3.750  0.00  0.00     0.002 A 
ATOM      6  C7  UNL d   1      -5.997  -1.558   4.717  0.00  0.00     0.002 A 
ENDROOT
BRANCH   1   7
ATOM      7  C1  UNL d   1      -5.218  -3.796   5.587  0.00  0.00     0.055 C 
ATOM      8  C   UNL d   1      -3.787  -4.112   6.000  0.00  0.00     0.019 C 
ENDBRANCH   1   7
TORSDOF 1
ENDMDL
