MODEL 1
REMARK minimizedAffinity 5.29388332
REMARK minimizedRMSD -1
REMARK  1 active torsions:
REMARK  status: ('A' for Active; 'I' for Inactive)
REMARK    1  A    between atoms: C1_2  and  C2_3 
ROOT
ATOM      1  C2  UNL d   1       4.932  -4.264  -0.786  0.00  0.00    -0.077 A 
ATOM      2  C3  UNL d   1       5.637  -3.122  -1.191  0.00  0.00     0.002 A 
ATOM      3  C4  UNL d   1       5.020  -1.869  -1.176  0.00  0.00     0.002 A 
ATOM      4  C5  UNL d   1       3.699  -1.746  -0.753  0.00  0.00    -0.004 A 
ATOM      5  C6  UNL d   1       2.989  -2.876  -0.349  0.00  0.00     0.002 A 
ATOM      6  C7  UNL d   1       3.602  -4.129  -0.365  0.00  0.00     0.002 A 
ENDROOT
BRANCH   1   7
ATOM      7  C1  UNL d   1       5.610  -5.609  -0.754  0.00  0.00     0.055 C 
ATOM      8  C   UNL d   1       5.998  -6.000   0.664  0.00  0.00     0.019 C 
ENDBRANCH   1   7
TORSDOF 1
ENDMDL
