MODEL 1
REMARK minimizedAffinity 3.81904936
REMARK minimizedRMSD -1
REMARK  1 active torsions:
REMARK  status: ('A' for Active; 'I' for Inactive)
REMARK    1  A    between atoms: C1_2  and  C2_3 
ROOT
ATOM      1  C2  UNL d   1      -5.248  -0.463   3.658  0.00  0.00    -0.077 A 
ATOM      2  C3  UNL d   1      -5.985  -0.402   4.849  0.00  0.00     0.002 A 
ATOM      3  C4  UNL d   1      -5.994  -1.485   5.730  0.00  0.00     0.002 A 
ATOM      4  C5  UNL d   1      -5.264  -2.634   5.432  0.00  0.00    -0.004 A 
ATOM      5  C6  UNL d   1      -4.529  -2.705   4.249  0.00  0.00     0.002 A 
ATOM      6  C7  UNL d   1      -4.520  -1.624   3.367  0.00  0.00     0.002 A 
ENDROOT
BRANCH   1   7
ATOM      7  C1  UNL d   1      -5.198   0.722   2.730  0.00  0.00     0.055 C 
ATOM      8  C   UNL d   1      -4.534   0.363   1.409  0.00  0.00     0.019 C 
ENDBRANCH   1   7
TORSDOF 1
ENDMDL
