MODEL 1
REMARK minimizedAffinity 1.23041523
REMARK minimizedRMSD -1
REMARK  1 active torsions:
REMARK  status: ('A' for Active; 'I' for Inactive)
REMARK    1  A    between atoms: C1_2  and  C2_3 
ROOT
ATOM      1  C2  UNL d   1      -2.392  -4.577  -5.930  0.00  0.00    -0.077 A 
ATOM      2  C3  UNL d   1      -1.005  -4.368  -5.931  0.00  0.00     0.002 A 
ATOM      3  C4  UNL d   1      -0.487  -3.072  -5.967  0.00  0.00     0.002 A 
ATOM      4  C5  UNL d   1      -1.347  -1.976  -5.998  0.00  0.00    -0.004 A 
ATOM      5  C6  UNL d   1      -2.727  -2.174  -5.999  0.00  0.00     0.002 A 
ATOM      6  C7  UNL d   1      -3.247  -3.469  -5.965  0.00  0.00     0.002 A 
ENDROOT
BRANCH   1   7
ATOM      7  C1  UNL d   1      -2.953  -5.972  -5.842  0.00  0.00     0.055 C 
ATOM      8  C   UNL d   1      -4.473  -5.963  -5.910  0.00  0.00     0.019 C 
ENDBRANCH   1   7
TORSDOF 1
ENDMDL
