MODEL 1
REMARK minimizedAffinity 7.66497231
REMARK minimizedRMSD -1
REMARK  1 active torsions:
REMARK  status: ('A' for Active; 'I' for Inactive)
REMARK    1  A    between atoms: C1_2  and  C2_3 
ROOT
ATOM      1  C2  UNL d   1      -5.944  -1.187   3.615  0.00  0.00    -0.077 A 
ATOM      2  C3  UNL d   1      -5.971  -2.472   3.055  0.00  0.00     0.002 A 
ATOM      3  C4  UNL d   1      -5.978  -3.600   3.877  0.00  0.00     0.002 A 
ATOM      4  C5  UNL d   1      -5.964  -3.456   5.262  0.00  0.00    -0.004 A 
ATOM      5  C6  UNL d   1      -5.936  -2.182   5.829  0.00  0.00     0.002 A 
ATOM      6  C7  UNL d   1      -5.927  -1.053   5.010  0.00  0.00     0.002 A 
ENDROOT
BRANCH   1   7
ATOM      7  C1  UNL d   1      -5.986   0.033   2.732  0.00  0.00     0.055 C 
ATOM      8  C   UNL d   1      -5.445  -0.272   1.343  0.00  0.00     0.019 C 
ENDBRANCH   1   7
TORSDOF 1
ENDMDL
