MODEL 1
REMARK minimizedAffinity 1.3481729
REMARK minimizedRMSD -1
REMARK  1 active torsions:
REMARK  status: ('A' for Active; 'I' for Inactive)
REMARK    1  A    between atoms: C1_2  and  C2_3 
ROOT
ATOM      1  C2  UNL d   1      -5.436  -0.931   3.638  0.00  0.00    -0.077 A 
ATOM      2  C3  UNL d   1      -4.312  -1.556   3.081  0.00  0.00     0.002 A 
ATOM      3  C4  UNL d   1      -3.763  -1.089   1.885  0.00  0.00     0.002 A 
ATOM      4  C5  UNL d   1      -4.330   0.008   1.239  0.00  0.00    -0.004 A 
ATOM      5  C6  UNL d   1      -5.449   0.636   1.783  0.00  0.00     0.002 A 
ATOM      6  C7  UNL d   1      -6.000   0.169   2.978  0.00  0.00     0.002 A 
ENDROOT
BRANCH   1   7
ATOM      7  C1  UNL d   1      -6.000  -1.402   4.953  0.00  0.00     0.055 C 
ATOM      8  C   UNL d   1      -5.998  -2.921   5.043  0.00  0.00     0.019 C 
ENDBRANCH   1   7
TORSDOF 1
ENDMDL
