MODEL 1
REMARK minimizedAffinity 3.09440041
REMARK minimizedRMSD -1
REMARK  1 active torsions:
REMARK  status: ('A' for Active; 'I' for Inactive)
REMARK    1  A    between atoms: C1_2  and  C2_3 
ROOT
ATOM      1  C2  UNL d   1      -3.324  -4.880  -4.855  0.00  0.00    -0.077 A 
ATOM      2  C3  UNL d   1      -3.849  -3.797  -5.574  0.00  0.00     0.002 A 
ATOM      3  C4  UNL d   1      -5.181  -3.807  -5.994  0.00  0.00     0.002 A 
ATOM      4  C5  UNL d   1      -5.999  -4.895  -5.696  0.00  0.00    -0.004 A 
ATOM      5  C6  UNL d   1      -5.485  -5.978  -4.983  0.00  0.00     0.002 A 
ATOM      6  C7  UNL d   1      -4.154  -5.970  -4.564  0.00  0.00     0.002 A 
ENDROOT
BRANCH   1   7
ATOM      7  C1  UNL d   1      -1.902  -4.850  -4.359  0.00  0.00     0.055 C 
ATOM      8  C   UNL d   1      -0.982  -5.653  -5.266  0.00  0.00     0.019 C 
ENDBRANCH   1   7
TORSDOF 1
ENDMDL
