MODEL 1
REMARK minimizedAffinity -3.24945045
REMARK minimizedRMSD -1
REMARK  1 active torsions:
REMARK  status: ('A' for Active; 'I' for Inactive)
REMARK    1  A    between atoms: C3_4  and  O_7 
ROOT
ATOM      1  C   UNL d   1       1.830  -2.025   1.940  0.00  0.00    -0.033 A 
ATOM      2  C1  UNL d   1       2.957  -1.206   1.856  0.00  0.00     0.039 A 
ATOM      3  C2  UNL d   1       2.880   0.028   1.208  0.00  0.00    -0.080 A 
ATOM      4  C3  UNL d   1       1.670   0.432   0.649  0.00  0.00     0.150 A 
ATOM      5  C4  UNL d   1       0.541  -0.378   0.733  0.00  0.00    -0.007 A 
ATOM      6  C5  UNL d   1       0.621  -1.610   1.380  0.00  0.00     0.039 A 
ENDROOT
BRANCH   4   7
ATOM      7  O   UNL d   1       1.546   1.625   0.002  0.00  0.00    -0.526 OA
ATOM      8  H5  UNL d   1       2.413   2.064  -0.002  0.00  0.00     0.418 HD
ENDBRANCH   4   7
TORSDOF 1
ENDMDL
