MODEL 1
REMARK minimizedAffinity -0.847086012
REMARK minimizedRMSD -1
REMARK  1 active torsions:
REMARK  status: ('A' for Active; 'I' for Inactive)
REMARK    1  A    between atoms: C3_4  and  O_7 
ROOT
ATOM      1  C   UNL d   1       0.234  -2.782   0.003  0.00  0.00    -0.033 A 
ATOM      2  C1  UNL d   1       0.622  -2.622  -1.329  0.00  0.00     0.039 A 
ATOM      3  C2  UNL d   1      -0.305  -2.192  -2.280  0.00  0.00    -0.080 A 
ATOM      4  C3  UNL d   1      -1.614  -1.925  -1.887  0.00  0.00     0.150 A 
ATOM      5  C4  UNL d   1      -2.006  -2.079  -0.562  0.00  0.00    -0.007 A 
ATOM      6  C5  UNL d   1      -1.079  -2.509   0.387  0.00  0.00     0.039 A 
ENDROOT
BRANCH   4   7
ATOM      7  O   UNL d   1      -2.555  -1.508  -2.781  0.00  0.00    -0.526 OA
ATOM      8  H5  UNL d   1      -2.148  -1.474  -3.663  0.00  0.00     0.418 HD
ENDBRANCH   4   7
TORSDOF 1
ENDMDL
