MODEL 1
REMARK minimizedAffinity 2.29567552
REMARK minimizedRMSD -1
REMARK  1 active torsions:
REMARK  status: ('A' for Active; 'I' for Inactive)
REMARK    1  A    between atoms: C3_4  and  O_7 
ROOT
ATOM      1  C   UNL d   1       2.742   1.142   1.807  0.00  0.00    -0.033 A 
ATOM      2  C1  UNL d   1       2.671   0.051   2.676  0.00  0.00     0.039 A 
ATOM      3  C2  UNL d   1       1.661  -0.902   2.522  0.00  0.00    -0.080 A 
ATOM      4  C3  UNL d   1       0.732  -0.753   1.497  0.00  0.00     0.150 A 
ATOM      5  C4  UNL d   1       0.799   0.329   0.625  0.00  0.00    -0.007 A 
ATOM      6  C5  UNL d   1       1.807   1.280   0.781  0.00  0.00     0.039 A 
ENDROOT
BRANCH   4   7
ATOM      7  O   UNL d   1      -0.274  -1.654   1.310  0.00  0.00    -0.526 OA
ATOM      8  H5  UNL d   1      -0.212  -2.332   2.004  0.00  0.00     0.418 HD
ENDBRANCH   4   7
TORSDOF 1
ENDMDL
