MODEL 1
REMARK minimizedAffinity 6.14787197
REMARK minimizedRMSD -1
REMARK  1 active torsions:
REMARK  status: ('A' for Active; 'I' for Inactive)
REMARK    1  A    between atoms: C3_4  and  O_7 
ROOT
ATOM      1  C   UNL d   1       1.434  -1.655   2.842  0.00  0.00    -0.033 A 
ATOM      2  C1  UNL d   1       2.487  -0.910   3.375  0.00  0.00     0.039 A 
ATOM      3  C2  UNL d   1       2.904   0.263   2.743  0.00  0.00    -0.080 A 
ATOM      4  C3  UNL d   1       2.258   0.680   1.582  0.00  0.00     0.150 A 
ATOM      5  C4  UNL d   1       1.205  -0.055   1.048  0.00  0.00    -0.007 A 
ATOM      6  C5  UNL d   1       0.791  -1.227   1.680  0.00  0.00     0.039 A 
ENDROOT
BRANCH   4   7
ATOM      7  O   UNL d   1       2.632   1.816   0.928  0.00  0.00    -0.526 OA
ATOM      8  H5  UNL d   1       3.391   2.205   1.395  0.00  0.00     0.418 HD
ENDBRANCH   4   7
TORSDOF 1
ENDMDL
