MODEL 1
REMARK minimizedAffinity 7.9813447
REMARK minimizedRMSD -1
REMARK  1 active torsions:
REMARK  status: ('A' for Active; 'I' for Inactive)
REMARK    1  A    between atoms: C3_4  and  O_7 
ROOT
ATOM      1  C   UNL d   1      -4.186   2.139  -3.157  0.00  0.00    -0.033 A 
ATOM      2  C1  UNL d   1      -3.564   3.016  -2.266  0.00  0.00     0.039 A 
ATOM      3  C2  UNL d   1      -4.161   3.303  -1.037  0.00  0.00    -0.080 A 
ATOM      4  C3  UNL d   1      -5.376   2.708  -0.711  0.00  0.00     0.150 A 
ATOM      5  C4  UNL d   1      -5.999   1.831  -1.592  0.00  0.00    -0.007 A 
ATOM      6  C5  UNL d   1      -5.403   1.545  -2.820  0.00  0.00     0.039 A 
ENDROOT
BRANCH   4   7
ATOM      7  O   UNL d   1      -5.999   2.962   0.475  0.00  0.00    -0.526 OA
ATOM      8  H5  UNL d   1      -5.467   3.608   0.970  0.00  0.00     0.418 HD
ENDBRANCH   4   7
TORSDOF 1
ENDMDL
