MODEL 1
REMARK minimizedAffinity -2.05463457
REMARK minimizedRMSD -1
REMARK  1 active torsions:
REMARK  status: ('A' for Active; 'I' for Inactive)
REMARK    1  A    between atoms: C3_4  and  O_7 
ROOT
ATOM      1  C   UNL d   1       1.271   1.482   0.903  0.00  0.00    -0.033 A 
ATOM      2  C1  UNL d   1       0.172   2.330   0.751  0.00  0.00     0.039 A 
ATOM      3  C2  UNL d   1       0.275   3.471  -0.048  0.00  0.00    -0.080 A 
ATOM      4  C3  UNL d   1       1.479   3.752  -0.688  0.00  0.00     0.150 A 
ATOM      5  C4  UNL d   1       2.576   2.909  -0.543  0.00  0.00    -0.007 A 
ATOM      6  C5  UNL d   1       2.472   1.770   0.255  0.00  0.00     0.039 A 
ENDROOT
BRANCH   4   7
ATOM      7  O   UNL d   1       1.628   4.856  -1.473  0.00  0.00    -0.526 OA
ATOM      8  H5  UNL d   1       0.797   5.360  -1.457  0.00  0.00     0.418 HD
ENDBRANCH   4   7
TORSDOF 1
ENDMDL
