MODEL 1
REMARK minimizedAffinity 6.01699495
REMARK minimizedRMSD -1
REMARK  1 active torsions:
REMARK  status: ('A' for Active; 'I' for Inactive)
REMARK    1  A    between atoms: C3_4  and  O_7 
ROOT
ATOM      1  C   UNL d   1      -1.105  -0.374   0.845  0.00  0.00    -0.033 A 
ATOM      2  C1  UNL d   1      -0.880   1.001   0.760  0.00  0.00     0.039 A 
ATOM      3  C2  UNL d   1       0.413   1.509   0.898  0.00  0.00    -0.080 A 
ATOM      4  C3  UNL d   1       1.472   0.633   1.119  0.00  0.00     0.150 A 
ATOM      5  C4  UNL d   1       1.256  -0.739   1.201  0.00  0.00    -0.007 A 
ATOM      6  C5  UNL d   1      -0.036  -1.244   1.064  0.00  0.00     0.039 A 
ENDROOT
BRANCH   4   7
ATOM      7  O   UNL d   1       2.750   1.082   1.265  0.00  0.00    -0.526 OA
ATOM      8  H5  UNL d   1       2.743   2.052   1.214  0.00  0.00     0.418 HD
ENDBRANCH   4   7
TORSDOF 1
ENDMDL
