MODEL 1
REMARK minimizedAffinity -0.243054628
REMARK minimizedRMSD -1
REMARK  1 active torsions:
REMARK  status: ('A' for Active; 'I' for Inactive)
REMARK    1  A    between atoms: C3_4  and  O_7 
ROOT
ATOM      1  C   UNL d   1       2.729   1.981   0.573  0.00  0.00    -0.033 A 
ATOM      2  C1  UNL d   1       2.932   1.142   1.671  0.00  0.00     0.039 A 
ATOM      3  C2  UNL d   1       1.938   0.241   2.056  0.00  0.00    -0.080 A 
ATOM      4  C3  UNL d   1       0.747   0.188   1.336  0.00  0.00     0.150 A 
ATOM      5  C4  UNL d   1       0.540   1.018   0.239  0.00  0.00    -0.007 A 
ATOM      6  C5  UNL d   1       1.534   1.918  -0.143  0.00  0.00     0.039 A 
ENDROOT
BRANCH   4   7
ATOM      7  O   UNL d   1      -0.254  -0.672   1.677  0.00  0.00    -0.526 OA
ATOM      8  H5  UNL d   1       0.018  -1.162   2.471  0.00  0.00     0.418 HD
ENDBRANCH   4   7
TORSDOF 1
ENDMDL
