MODEL 1
REMARK minimizedAffinity 1.87202716
REMARK minimizedRMSD -1
REMARK  1 active torsions:
REMARK  status: ('A' for Active; 'I' for Inactive)
REMARK    1  A    between atoms: C3_4  and  O_7 
ROOT
ATOM      1  C   UNL d   1      -5.922   1.498  -1.489  0.00  0.00    -0.033 A 
ATOM      2  C1  UNL d   1      -5.354   2.758  -1.287  0.00  0.00     0.039 A 
ATOM      3  C2  UNL d   1      -4.865   3.112  -0.028  0.00  0.00    -0.080 A 
ATOM      4  C3  UNL d   1      -4.948   2.198   1.019  0.00  0.00     0.150 A 
ATOM      5  C4  UNL d   1      -5.509   0.940   0.824  0.00  0.00    -0.007 A 
ATOM      6  C5  UNL d   1      -5.998   0.589  -0.433  0.00  0.00     0.039 A 
ENDROOT
BRANCH   4   7
ATOM      7  O   UNL d   1      -4.488   2.500   2.266  0.00  0.00    -0.526 OA
ATOM      8  H5  UNL d   1      -4.154   3.413   2.259  0.00  0.00     0.418 HD
ENDBRANCH   4   7
TORSDOF 1
ENDMDL
