MODEL 1
REMARK minimizedAffinity -0.0770983025
REMARK minimizedRMSD -1
REMARK  1 active torsions:
REMARK  status: ('A' for Active; 'I' for Inactive)
REMARK    1  A    between atoms: C3_4  and  O_7 
ROOT
ATOM      1  C   UNL d   1       2.246   0.463   2.771  0.00  0.00    -0.033 A 
ATOM      2  C1  UNL d   1       2.204  -0.825   3.308  0.00  0.00     0.039 A 
ATOM      3  C2  UNL d   1       1.333  -1.778   2.776  0.00  0.00    -0.080 A 
ATOM      4  C3  UNL d   1       0.511  -1.431   1.708  0.00  0.00     0.150 A 
ATOM      5  C4  UNL d   1       0.550  -0.151   1.165  0.00  0.00    -0.007 A 
ATOM      6  C5  UNL d   1       1.420   0.799   1.698  0.00  0.00     0.039 A 
ENDROOT
BRANCH   4   7
ATOM      7  O   UNL d   1      -0.359  -2.325   1.159  0.00  0.00    -0.526 OA
ATOM      8  H5  UNL d   1      -0.297  -3.159   1.654  0.00  0.00     0.418 HD
ENDBRANCH   4   7
TORSDOF 1
ENDMDL
