MODEL 1
REMARK minimizedAffinity -0.198725745
REMARK minimizedRMSD -1
REMARK  0 active torsions:
REMARK  status: ('A' for Active; 'I' for Inactive)
ROOT
ATOM      1  C1  BNZ d   1       3.617  -4.139  -6.000  0.00  0.00     0.000 A 
ATOM      2  C2  BNZ d   1       2.248  -4.138  -6.000  0.00  0.00     0.000 A 
ATOM      3  C3  BNZ d   1       1.548  -3.022  -5.632  0.00  0.00     0.000 A 
ATOM      4  C4  BNZ d   1       2.218  -1.924  -5.228  0.00  0.00     0.000 A 
ATOM      5  C5  BNZ d   1       3.598  -1.912  -5.214  0.00  0.00     0.000 A 
ATOM      6  C6  BNZ d   1       4.299  -3.024  -5.621  0.00  0.00     0.000 A 
ENDROOT
TORSDOF 0
ENDMDL
