MODEL 1
REMARK minimizedAffinity 0.921882927
REMARK minimizedRMSD -1
REMARK  0 active torsions:
REMARK  status: ('A' for Active; 'I' for Inactive)
ROOT
ATOM      1  C1  BNZ d   1       5.677  -0.466  -4.862  0.00  0.00     0.000 A 
ATOM      2  C2  BNZ d   1       5.384  -1.157  -3.717  0.00  0.00     0.000 A 
ATOM      3  C3  BNZ d   1       5.421  -2.523  -3.694  0.00  0.00     0.000 A 
ATOM      4  C4  BNZ d   1       5.711  -3.197  -4.826  0.00  0.00     0.000 A 
ATOM      5  C5  BNZ d   1       6.000  -2.515  -5.991  0.00  0.00     0.000 A 
ATOM      6  C6  BNZ d   1       6.000  -1.139  -6.000  0.00  0.00     0.000 A 
ENDROOT
TORSDOF 0
ENDMDL
