MODEL 1
REMARK minimizedAffinity -1.2640059
REMARK minimizedRMSD -1
REMARK  0 active torsions:
REMARK  status: ('A' for Active; 'I' for Inactive)
ROOT
ATOM      1  C1  BNZ d   1       5.999   5.998  -2.100  0.00  0.00     0.000 A 
ATOM      2  C2  BNZ d   1       4.842   6.000  -1.368  0.00  0.00     0.000 A 
ATOM      3  C3  BNZ d   1       3.674   5.532  -1.904  0.00  0.00     0.000 A 
ATOM      4  C4  BNZ d   1       3.657   5.101  -3.182  0.00  0.00     0.000 A 
ATOM      5  C5  BNZ d   1       4.814   5.101  -3.935  0.00  0.00     0.000 A 
ATOM      6  C6  BNZ d   1       5.996   5.537  -3.380  0.00  0.00     0.000 A 
ENDROOT
TORSDOF 0
ENDMDL
