MODEL 1
REMARK minimizedAffinity 4.23618889
REMARK minimizedRMSD -1
REMARK  0 active torsions:
REMARK  status: ('A' for Active; 'I' for Inactive)
ROOT
ATOM      1  C1  BNZ d   1       3.846  -2.381  -4.385  0.00  0.00     0.000 A 
ATOM      2  C2  BNZ d   1       4.924  -1.536  -4.385  0.00  0.00     0.000 A 
ATOM      3  C3  BNZ d   1       5.992  -1.765  -5.206  0.00  0.00     0.000 A 
ATOM      4  C4  BNZ d   1       6.000  -2.859  -5.996  0.00  0.00     0.000 A 
ATOM      5  C5  BNZ d   1       4.925  -3.725  -6.000  0.00  0.00     0.000 A 
ATOM      6  C6  BNZ d   1       3.834  -3.470  -5.201  0.00  0.00     0.000 A 
ENDROOT
TORSDOF 0
ENDMDL
