MODEL 1
REMARK minimizedAffinity -1.44528484
REMARK minimizedRMSD -1
REMARK  0 active torsions:
REMARK  status: ('A' for Active; 'I' for Inactive)
ROOT
ATOM      1  C1  BNZ d   1      -4.837   2.068  -2.406  0.00  0.00     0.000 A 
ATOM      2  C2  BNZ d   1      -5.522   3.254  -2.390  0.00  0.00     0.000 A 
ATOM      3  C3  BNZ d   1      -5.120   4.304  -3.168  0.00  0.00     0.000 A 
ATOM      4  C4  BNZ d   1      -4.013   4.181  -3.928  0.00  0.00     0.000 A 
ATOM      5  C5  BNZ d   1      -3.307   2.995  -3.948  0.00  0.00     0.000 A 
ATOM      6  C6  BNZ d   1      -3.736   1.927  -3.194  0.00  0.00     0.000 A 
ENDROOT
TORSDOF 0
ENDMDL
