MODEL 1
REMARK minimizedAffinity -1.58792734
REMARK minimizedRMSD -1
REMARK  0 active torsions:
REMARK  status: ('A' for Active; 'I' for Inactive)
ROOT
ATOM      1  C1  BNZ d   1       4.813  -2.664  -5.696  0.00  0.00     0.000 A 
ATOM      2  C2  BNZ d   1       3.635  -2.202  -5.173  0.00  0.00     0.000 A 
ATOM      3  C3  BNZ d   1       3.631  -1.261  -4.181  0.00  0.00     0.000 A 
ATOM      4  C4  BNZ d   1       4.803  -0.814  -3.687  0.00  0.00     0.000 A 
ATOM      5  C5  BNZ d   1       5.999  -1.278  -4.198  0.00  0.00     0.000 A 
ATOM      6  C6  BNZ d   1       5.999  -2.196  -5.223  0.00  0.00     0.000 A 
ENDROOT
TORSDOF 0
ENDMDL
