MODEL 1
REMARK minimizedAffinity -0.981554925
REMARK minimizedRMSD -1
REMARK  0 active torsions:
REMARK  status: ('A' for Active; 'I' for Inactive)
ROOT
ATOM      1  C1  BNZ d   1       4.230  -3.693  -4.876  0.00  0.00     0.000 A 
ATOM      2  C2  BNZ d   1       3.904  -4.854  -4.227  0.00  0.00     0.000 A 
ATOM      3  C3  BNZ d   1       4.619  -5.999  -4.440  0.00  0.00     0.000 A 
ATOM      4  C4  BNZ d   1       5.632  -5.993  -5.331  0.00  0.00     0.000 A 
ATOM      5  C5  BNZ d   1       5.967  -4.833  -6.000  0.00  0.00     0.000 A 
ATOM      6  C6  BNZ d   1       5.270  -3.672  -5.754  0.00  0.00     0.000 A 
ENDROOT
TORSDOF 0
ENDMDL
