MODEL 1
REMARK minimizedAffinity -0.827909529
REMARK minimizedRMSD -1
REMARK  0 active torsions:
REMARK  status: ('A' for Active; 'I' for Inactive)
ROOT
ATOM      1  C1  BNZ d   1       5.163  -3.683  -5.976  0.00  0.00     0.000 A 
ATOM      2  C2  BNZ d   1       5.871  -4.855  -5.975  0.00  0.00     0.000 A 
ATOM      3  C3  BNZ d   1       5.419  -5.946  -5.286  0.00  0.00     0.000 A 
ATOM      4  C4  BNZ d   1       4.281  -5.851  -4.568  0.00  0.00     0.000 A 
ATOM      5  C5  BNZ d   1       3.561  -4.673  -4.551  0.00  0.00     0.000 A 
ATOM      6  C6  BNZ d   1       3.999  -3.589  -5.277  0.00  0.00     0.000 A 
ENDROOT
TORSDOF 0
ENDMDL
