MODEL 1
REMARK minimizedAffinity -1.43033695
REMARK minimizedRMSD -1
REMARK  0 active torsions:
REMARK  status: ('A' for Active; 'I' for Inactive)
ROOT
ATOM      1  C2' OXE d   1       1.933   0.351  -5.107  0.00  0.00     0.078 C 
ATOM      2  C1' OXE d   1      -0.487  -0.919  -4.467  0.00  0.00     0.078 C 
ATOM      3  C1  OXE d   1       0.409  -0.499  -3.329  0.00  0.00    -0.078 A 
ATOM      4  C2  OXE d   1       1.613   0.080  -3.653  0.00  0.00    -0.078 A 
ATOM      5  C3  OXE d   1       2.453   0.536  -2.641  0.00  0.00     0.003 A 
ATOM      6  C4  OXE d   1       2.154   0.273  -1.299  0.00  0.00    -0.002 A 
ATOM      7  C5  OXE d   1       0.951  -0.351  -0.949  0.00  0.00    -0.002 A 
ATOM      8  C6  OXE d   1       0.051  -0.704  -1.947  0.00  0.00     0.003 A 
ENDROOT
TORSDOF 0
ENDMDL
