MODEL 1
REMARK minimizedAffinity 2.06360841
REMARK minimizedRMSD -1
REMARK  0 active torsions:
REMARK  status: ('A' for Active; 'I' for Inactive)
ROOT
ATOM      1  C2' OXE d   1       2.319  -0.615   2.298  0.00  0.00     0.078 C 
ATOM      2  C1' OXE d   1      -0.258   0.470   2.540  0.00  0.00     0.078 C 
ATOM      3  C1  OXE d   1       0.215   0.082   1.162  0.00  0.00    -0.078 A 
ATOM      4  C2  OXE d   1       1.495  -0.405   1.046  0.00  0.00    -0.078 A 
ATOM      5  C3  OXE d   1       1.961  -0.830  -0.194  0.00  0.00     0.003 A 
ATOM      6  C4  OXE d   1       1.196  -0.623  -1.348  0.00  0.00    -0.002 A 
ATOM      7  C5  OXE d   1      -0.095  -0.092  -1.258  0.00  0.00    -0.002 A 
ATOM      8  C6  OXE d   1      -0.616   0.225  -0.008  0.00  0.00     0.003 A 
ENDROOT
TORSDOF 0
ENDMDL
