MODEL 1
REMARK minimizedAffinity -2.77574706
REMARK minimizedRMSD -1
REMARK  0 active torsions:
REMARK  status: ('A' for Active; 'I' for Inactive)
ROOT
ATOM      1  C2' OXE d   1      -2.308  -0.535  -0.218  0.00  0.00     0.078 C 
ATOM      2  C1' OXE d   1       0.401  -0.257  -0.897  0.00  0.00     0.078 C 
ATOM      3  C1  OXE d   1      -0.043   0.261   0.448  0.00  0.00    -0.078 A 
ATOM      4  C2  OXE d   1      -1.380   0.163   0.753  0.00  0.00    -0.078 A 
ATOM      5  C3  OXE d   1      -1.834   0.575   2.002  0.00  0.00     0.003 A 
ATOM      6  C4  OXE d   1      -0.970   1.229   2.890  0.00  0.00    -0.002 A 
ATOM      7  C5  OXE d   1       0.386   1.375   2.582  0.00  0.00    -0.002 A 
ATOM      8  C6  OXE d   1       0.874   0.860   1.386  0.00  0.00     0.003 A 
ENDROOT
TORSDOF 0
ENDMDL
