MODEL 1
REMARK minimizedAffinity -4.44583273
REMARK minimizedRMSD -1
REMARK  0 active torsions:
REMARK  status: ('A' for Active; 'I' for Inactive)
ROOT
ATOM      1  C2' OXE d   1      -1.171   1.236   2.404  0.00  0.00     0.078 C 
ATOM      2  C1' OXE d   1      -2.587   0.270   0.180  0.00  0.00     0.078 C 
ATOM      3  C1  OXE d   1      -1.092   0.066   0.206  0.00  0.00    -0.078 A 
ATOM      4  C2  OXE d   1      -0.402   0.584   1.276  0.00  0.00    -0.078 A 
ATOM      5  C3  OXE d   1       0.971   0.376   1.376  0.00  0.00     0.003 A 
ATOM      6  C4  OXE d   1       1.676  -0.220   0.323  0.00  0.00    -0.002 A 
ATOM      7  C5  OXE d   1       0.997  -0.718  -0.794  0.00  0.00    -0.002 A 
ATOM      8  C6  OXE d   1      -0.389  -0.622  -0.848  0.00  0.00     0.003 A 
ENDROOT
TORSDOF 0
ENDMDL
