MODEL 1
REMARK minimizedAffinity -5.14425659
REMARK minimizedRMSD -1
REMARK  0 active torsions:
REMARK  status: ('A' for Active; 'I' for Inactive)
ROOT
ATOM      1  C2' OXE d   1      -0.744   1.688   3.005  0.00  0.00     0.078 C 
ATOM      2  C1' OXE d   1      -2.893   0.246   1.918  0.00  0.00     0.078 C 
ATOM      3  C1  OXE d   1      -1.568   0.181   1.200  0.00  0.00    -0.078 A 
ATOM      4  C2  OXE d   1      -0.534   0.927   1.713  0.00  0.00    -0.078 A 
ATOM      5  C3  OXE d   1       0.724   0.860   1.122  0.00  0.00     0.003 A 
ATOM      6  C4  OXE d   1       0.907   0.162  -0.078  0.00  0.00    -0.002 A 
ATOM      7  C5  OXE d   1      -0.143  -0.573  -0.639  0.00  0.00    -0.002 A 
ATOM      8  C6  OXE d   1      -1.373  -0.608   0.009  0.00  0.00     0.003 A 
ENDROOT
TORSDOF 0
ENDMDL
