MODEL 1
REMARK minimizedAffinity -4.68385506
REMARK minimizedRMSD -1
REMARK  0 active torsions:
REMARK  status: ('A' for Active; 'I' for Inactive)
ROOT
ATOM      1  C2' OXE d   1      -2.587  -0.563  -0.398  0.00  0.00     0.078 C 
ATOM      2  C1' OXE d   1       0.154  -0.741  -0.973  0.00  0.00     0.078 C 
ATOM      3  C1  OXE d   1      -0.249  -0.149   0.354  0.00  0.00    -0.078 A 
ATOM      4  C2  OXE d   1      -1.594  -0.023   0.607  0.00  0.00    -0.078 A 
ATOM      5  C3  OXE d   1      -2.020   0.467   1.838  0.00  0.00     0.003 A 
ATOM      6  C4  OXE d   1      -1.095   0.974   2.759  0.00  0.00    -0.002 A 
ATOM      7  C5  OXE d   1       0.278   0.892   2.503  0.00  0.00    -0.002 A 
ATOM      8  C6  OXE d   1       0.718   0.296   1.327  0.00  0.00     0.003 A 
ENDROOT
TORSDOF 0
ENDMDL
