MODEL 1
REMARK minimizedAffinity -2.67891932
REMARK minimizedRMSD -1
REMARK  0 active torsions:
REMARK  status: ('A' for Active; 'I' for Inactive)
ROOT
ATOM      1  C2' OXE d   1       0.417  -0.336  -1.439  0.00  0.00     0.078 C 
ATOM      2  C1' OXE d   1      -2.177  -1.255  -0.886  0.00  0.00     0.078 C 
ATOM      3  C1  OXE d   1      -1.495  -0.405   0.156  0.00  0.00    -0.078 A 
ATOM      4  C2  OXE d   1      -0.208   0.002  -0.102  0.00  0.00    -0.078 A 
ATOM      5  C3  OXE d   1       0.447   0.833   0.801  0.00  0.00     0.003 A 
ATOM      6  C4  OXE d   1      -0.135   1.132   2.040  0.00  0.00    -0.002 A 
ATOM      7  C5  OXE d   1      -1.429   0.695   2.340  0.00  0.00    -0.002 A 
ATOM      8  C6  OXE d   1      -2.138  -0.037   1.394  0.00  0.00     0.003 A 
ENDROOT
TORSDOF 0
ENDMDL
