MODEL 1
REMARK minimizedAffinity -2.98663568
REMARK minimizedRMSD -1
REMARK  0 active torsions:
REMARK  status: ('A' for Active; 'I' for Inactive)
ROOT
ATOM      1  C2' OXE d   1       1.043  -0.860  -2.143  0.00  0.00     0.078 C 
ATOM      2  C1' OXE d   1       2.258   1.567  -2.862  0.00  0.00     0.078 C 
ATOM      3  C1  OXE d   1       1.064   1.113  -3.665  0.00  0.00    -0.078 A 
ATOM      4  C2  OXE d   1       0.505  -0.098  -3.336  0.00  0.00    -0.078 A 
ATOM      5  C3  OXE d   1      -0.632  -0.538  -4.008  0.00  0.00     0.003 A 
ATOM      6  C4  OXE d   1      -1.117   0.167  -5.116  0.00  0.00    -0.002 A 
ATOM      7  C5  OXE d   1      -0.537   1.383  -5.494  0.00  0.00    -0.002 A 
ATOM      8  C6  OXE d   1       0.525   1.890  -4.753  0.00  0.00     0.003 A 
ENDROOT
TORSDOF 0
ENDMDL
