MODEL 1
REMARK minimizedAffinity -0.821751475
REMARK minimizedRMSD -1
REMARK  1 active torsions:
REMARK  status: ('A' for Active; 'I' for Inactive)
REMARK    1  A    between atoms: C3_4  and  O_7 
ROOT
ATOM      1  C   UNL d   1       0.178  -1.421  -0.365  0.00  0.00    -0.033 A 
ATOM      2  C1  UNL d   1       0.024  -1.132   0.992  0.00  0.00     0.039 A 
ATOM      3  C2  UNL d   1      -0.328   0.156   1.398  0.00  0.00    -0.080 A 
ATOM      4  C3  UNL d   1      -0.524   1.145   0.438  0.00  0.00     0.150 A 
ATOM      5  C4  UNL d   1      -0.376   0.864  -0.916  0.00  0.00    -0.007 A 
ATOM      6  C5  UNL d   1      -0.023  -0.423  -1.319  0.00  0.00     0.039 A 
ENDROOT
BRANCH   4   7
ATOM      7  O   UNL d   1      -0.864   2.419   0.786  0.00  0.00    -0.526 OA
ATOM      8  H5  UNL d   1      -0.903   2.473   1.756  0.00  0.00     0.418 HD
ENDBRANCH   4   7
TORSDOF 1
ENDMDL
