MODEL 1
REMARK minimizedAffinity 3.0400424
REMARK minimizedRMSD -1
REMARK  1 active torsions:
REMARK  status: ('A' for Active; 'I' for Inactive)
REMARK    1  A    between atoms: C3_4  and  O_7 
ROOT
ATOM      1  C   UNL d   1      -3.319  -4.347  -1.356  0.00  0.00    -0.033 A 
ATOM      2  C1  UNL d   1      -2.669  -5.065  -0.350  0.00  0.00     0.039 A 
ATOM      3  C2  UNL d   1      -1.869  -4.398   0.580  0.00  0.00    -0.080 A 
ATOM      4  C3  UNL d   1      -1.728  -3.016   0.494  0.00  0.00     0.150 A 
ATOM      5  C4  UNL d   1      -2.377  -2.294  -0.504  0.00  0.00    -0.007 A 
ATOM      6  C5  UNL d   1      -3.174  -2.962  -1.432  0.00  0.00     0.039 A 
ENDROOT
BRANCH   4   7
ATOM      7  O   UNL d   1      -0.954  -2.322   1.375  0.00  0.00    -0.526 OA
ATOM      8  H5  UNL d   1      -0.546  -2.954   1.990  0.00  0.00     0.418 HD
ENDBRANCH   4   7
TORSDOF 1
ENDMDL
