MODEL 1
REMARK minimizedAffinity -2.61426067
REMARK minimizedRMSD -1
REMARK  1 active torsions:
REMARK  status: ('A' for Active; 'I' for Inactive)
REMARK    1  A    between atoms: C3_4  and  O_7 
ROOT
ATOM      1  C   UNL d   1      -5.992   4.867  -3.464  0.00  0.00    -0.033 A 
ATOM      2  C1  UNL d   1      -5.997   3.593  -2.893  0.00  0.00     0.039 A 
ATOM      3  C2  UNL d   1      -5.998   3.448  -1.504  0.00  0.00    -0.080 A 
ATOM      4  C3  UNL d   1      -5.995   4.584  -0.699  0.00  0.00     0.150 A 
ATOM      5  C4  UNL d   1      -5.994   5.856  -1.261  0.00  0.00    -0.007 A 
ATOM      6  C5  UNL d   1      -5.992   5.999  -2.648  0.00  0.00     0.039 A 
ENDROOT
BRANCH   4   7
ATOM      7  O   UNL d   1      -5.991   4.493   0.661  0.00  0.00    -0.526 OA
ATOM      8  H5  UNL d   1      -5.963   3.553   0.907  0.00  0.00     0.418 HD
ENDBRANCH   4   7
TORSDOF 1
ENDMDL
