MODEL 1
REMARK minimizedAffinity 6.27459955
REMARK minimizedRMSD -1
REMARK  1 active torsions:
REMARK  status: ('A' for Active; 'I' for Inactive)
REMARK    1  A    between atoms: C3_4  and  O_7 
ROOT
ATOM      1  C   UNL d   1       6.000   4.323   3.605  0.00  0.00    -0.033 A 
ATOM      2  C1  UNL d   1       5.273   5.343   2.988  0.00  0.00     0.039 A 
ATOM      3  C2  UNL d   1       4.336   5.035   2.000  0.00  0.00    -0.080 A 
ATOM      4  C3  UNL d   1       4.135   3.706   1.639  0.00  0.00     0.150 A 
ATOM      5  C4  UNL d   1       4.853   2.684   2.252  0.00  0.00    -0.007 A 
ATOM      6  C5  UNL d   1       5.789   2.994   3.238  0.00  0.00     0.039 A 
ENDROOT
BRANCH   4   7
ATOM      7  O   UNL d   1       3.235   3.357   0.676  0.00  0.00    -0.526 OA
ATOM      8  H5  UNL d   1       2.834   4.168   0.321  0.00  0.00     0.418 HD
ENDBRANCH   4   7
TORSDOF 1
ENDMDL
