MODEL 1
REMARK minimizedAffinity 4.32674026
REMARK minimizedRMSD -1
REMARK  1 active torsions:
REMARK  status: ('A' for Active; 'I' for Inactive)
REMARK    1  A    between atoms: C3_4  and  O_7 
ROOT
ATOM      1  C   UNL d   1      -5.998   5.265  -4.000  0.00  0.00    -0.033 A 
ATOM      2  C1  UNL d   1      -5.990   5.900  -2.756  0.00  0.00     0.039 A 
ATOM      3  C2  UNL d   1      -5.983   5.142  -1.583  0.00  0.00    -0.080 A 
ATOM      4  C3  UNL d   1      -5.983   3.752  -1.668  0.00  0.00     0.150 A 
ATOM      5  C4  UNL d   1      -5.987   3.114  -2.904  0.00  0.00    -0.007 A 
ATOM      6  C5  UNL d   1      -5.995   3.872  -4.074  0.00  0.00     0.039 A 
ENDROOT
BRANCH   4   7
ATOM      7  O   UNL d   1      -5.981   2.970  -0.552  0.00  0.00    -0.526 OA
ATOM      8  H5  UNL d   1      -6.007   3.548   0.229  0.00  0.00     0.418 HD
ENDBRANCH   4   7
TORSDOF 1
ENDMDL
