MODEL 1
REMARK minimizedAffinity 8.77834225
REMARK minimizedRMSD -1
REMARK  1 active torsions:
REMARK  status: ('A' for Active; 'I' for Inactive)
REMARK    1  A    between atoms: C3_4  and  O_7 
ROOT
ATOM      1  C   UNL d   1       5.201   5.747  -0.682  0.00  0.00    -0.033 A 
ATOM      2  C1  UNL d   1       4.937   4.436  -0.282  0.00  0.00     0.039 A 
ATOM      3  C2  UNL d   1       5.199   3.374  -1.149  0.00  0.00    -0.080 A 
ATOM      4  C3  UNL d   1       5.726   3.635  -2.411  0.00  0.00     0.150 A 
ATOM      5  C4  UNL d   1       5.995   4.939  -2.814  0.00  0.00    -0.007 A 
ATOM      6  C5  UNL d   1       5.731   5.999  -1.948  0.00  0.00     0.039 A 
ENDROOT
BRANCH   4   7
ATOM      7  O   UNL d   1       5.994   2.632  -3.293  0.00  0.00    -0.526 OA
ATOM      8  H5  UNL d   1       5.731   1.788  -2.889  0.00  0.00     0.418 HD
ENDBRANCH   4   7
TORSDOF 1
ENDMDL
