MODEL 1
REMARK minimizedAffinity 0.810019672
REMARK minimizedRMSD -1
REMARK  1 active torsions:
REMARK  status: ('A' for Active; 'I' for Inactive)
REMARK    1  A    between atoms: C3_4  and  O_7 
ROOT
ATOM      1  C   UNL d   1       2.708   1.561   1.129  0.00  0.00    -0.033 A 
ATOM      2  C1  UNL d   1       1.750   0.644   0.692  0.00  0.00     0.039 A 
ATOM      3  C2  UNL d   1       0.398   0.859   0.967  0.00  0.00    -0.080 A 
ATOM      4  C3  UNL d   1       0.018   1.993   1.679  0.00  0.00     0.150 A 
ATOM      5  C4  UNL d   1       0.966   2.913   2.114  0.00  0.00    -0.007 A 
ATOM      6  C5  UNL d   1       2.315   2.697   1.839  0.00  0.00     0.039 A 
ENDROOT
BRANCH   4   7
ATOM      7  O   UNL d   1      -1.289   2.242   1.976  0.00  0.00    -0.526 OA
ATOM      8  H5  UNL d   1      -1.828   1.508   1.637  0.00  0.00     0.418 HD
ENDBRANCH   4   7
TORSDOF 1
ENDMDL
