MODEL 1
REMARK minimizedAffinity 1.73350859
REMARK minimizedRMSD -1
REMARK  1 active torsions:
REMARK  status: ('A' for Active; 'I' for Inactive)
REMARK    1  A    between atoms: C3_4  and  O_7 
ROOT
ATOM      1  C   UNL d   1      -3.864  -4.313  -1.747  0.00  0.00    -0.033 A 
ATOM      2  C1  UNL d   1      -3.659  -5.642  -2.125  0.00  0.00     0.039 A 
ATOM      3  C2  UNL d   1      -2.576  -5.979  -2.939  0.00  0.00    -0.080 A 
ATOM      4  C3  UNL d   1      -1.706  -4.980  -3.367  0.00  0.00     0.150 A 
ATOM      5  C4  UNL d   1      -1.902  -3.655  -2.991  0.00  0.00    -0.007 A 
ATOM      6  C5  UNL d   1      -2.985  -3.320  -2.178  0.00  0.00     0.039 A 
ENDROOT
BRANCH   4   7
ATOM      7  O   UNL d   1      -0.638  -5.259  -4.166  0.00  0.00    -0.526 OA
ATOM      8  H5  UNL d   1      -0.645  -6.210  -4.368  0.00  0.00     0.418 HD
ENDBRANCH   4   7
TORSDOF 1
ENDMDL
