MODEL 1
REMARK minimizedAffinity 4.46067572
REMARK minimizedRMSD -1
REMARK  1 active torsions:
REMARK  status: ('A' for Active; 'I' for Inactive)
REMARK    1  A    between atoms: C3_4  and  O_7 
ROOT
ATOM      1  C   UNL d   1       5.997   3.932  -1.059  0.00  0.00    -0.033 A 
ATOM      2  C1  UNL d   1       5.530   3.209   0.040  0.00  0.00     0.039 A 
ATOM      3  C2  UNL d   1       5.042   3.881   1.163  0.00  0.00    -0.080 A 
ATOM      4  C3  UNL d   1       5.026   5.273   1.173  0.00  0.00     0.150 A 
ATOM      5  C4  UNL d   1       5.486   5.999   0.079  0.00  0.00    -0.007 A 
ATOM      6  C5  UNL d   1       5.974   5.327  -1.040  0.00  0.00     0.039 A 
ENDROOT
BRANCH   4   7
ATOM      7  O   UNL d   1       4.564   5.973   2.248  0.00  0.00    -0.526 OA
ATOM      8  H5  UNL d   1       4.306   5.340   2.939  0.00  0.00     0.418 HD
ENDBRANCH   4   7
TORSDOF 1
ENDMDL
