MODEL 1
REMARK minimizedAffinity 9.06153488
REMARK minimizedRMSD -1
REMARK  1 active torsions:
REMARK  status: ('A' for Active; 'I' for Inactive)
REMARK    1  A    between atoms: C3_4  and  O_7 
ROOT
ATOM      1  C   UNL d   1       0.466   3.491  -5.985  0.00  0.00    -0.033 A 
ATOM      2  C1  UNL d   1       0.659   4.874  -5.979  0.00  0.00     0.039 A 
ATOM      3  C2  UNL d   1      -0.441   5.734  -5.981  0.00  0.00    -0.080 A 
ATOM      4  C3  UNL d   1      -1.727   5.199  -5.989  0.00  0.00     0.150 A 
ATOM      5  C4  UNL d   1      -1.926   3.823  -5.991  0.00  0.00    -0.007 A 
ATOM      6  C5  UNL d   1      -0.827   2.966  -5.989  0.00  0.00     0.039 A 
ENDROOT
BRANCH   4   7
ATOM      7  O   UNL d   1      -2.831   5.999  -5.996  0.00  0.00    -0.526 OA
ATOM      8  H5  UNL d   1      -2.540   6.926  -6.023  0.00  0.00     0.418 HD
ENDBRANCH   4   7
TORSDOF 1
ENDMDL
