MODEL 1
REMARK minimizedAffinity 1.28002584
REMARK minimizedRMSD -1
REMARK  1 active torsions:
REMARK  status: ('A' for Active; 'I' for Inactive)
REMARK    1  A    between atoms: C3_4  and  O_7 
ROOT
ATOM      1  C   UNL d   1      -1.567  -3.943   1.780  0.00  0.00    -0.033 A 
ATOM      2  C1  UNL d   1      -1.549  -2.866   2.668  0.00  0.00     0.039 A 
ATOM      3  C2  UNL d   1      -2.222  -1.685   2.350  0.00  0.00    -0.080 A 
ATOM      4  C3  UNL d   1      -2.908  -1.594   1.142  0.00  0.00     0.150 A 
ATOM      5  C4  UNL d   1      -2.934  -2.664   0.254  0.00  0.00    -0.007 A 
ATOM      6  C5  UNL d   1      -2.260  -3.843   0.574  0.00  0.00     0.039 A 
ENDROOT
BRANCH   4   7
ATOM      7  O   UNL d   1      -3.575  -0.460   0.785  0.00  0.00    -0.526 OA
ATOM      8  H5  UNL d   1      -3.446   0.205   1.482  0.00  0.00     0.418 HD
ENDBRANCH   4   7
TORSDOF 1
ENDMDL
