MODEL 1
REMARK minimizedAffinity 5.8447299
REMARK minimizedRMSD -1
REMARK  1 active torsions:
REMARK  status: ('A' for Active; 'I' for Inactive)
REMARK    1  A    between atoms: C3_4  and  O_7 
ROOT
ATOM      1  C   UNL d   1       4.913   4.688   2.245  0.00  0.00    -0.033 A 
ATOM      2  C1  UNL d   1       5.629   3.492   2.169  0.00  0.00     0.039 A 
ATOM      3  C2  UNL d   1       5.998   2.974   0.926  0.00  0.00    -0.080 A 
ATOM      4  C3  UNL d   1       5.646   3.662  -0.232  0.00  0.00     0.150 A 
ATOM      5  C4  UNL d   1       4.936   4.856  -0.164  0.00  0.00    -0.007 A 
ATOM      6  C5  UNL d   1       4.567   5.371   1.078  0.00  0.00     0.039 A 
ENDROOT
BRANCH   4   7
ATOM      7  O   UNL d   1       5.980   3.194  -1.468  0.00  0.00    -0.526 OA
ATOM      8  H5  UNL d   1       6.444   2.346  -1.361  0.00  0.00     0.418 HD
ENDBRANCH   4   7
TORSDOF 1
ENDMDL
