MODEL 1
REMARK minimizedAffinity -1.60849285
REMARK minimizedRMSD -1
REMARK  1 active torsions:
REMARK  status: ('A' for Active; 'I' for Inactive)
REMARK    1  A    between atoms: C3_4  and  O_7 
ROOT
ATOM      1  C   UNL d   1      -3.345  -4.144  -1.719  0.00  0.00    -0.033 A 
ATOM      2  C1  UNL d   1      -3.250  -5.497  -2.050  0.00  0.00     0.039 A 
ATOM      3  C2  UNL d   1      -2.372  -5.912  -3.054  0.00  0.00    -0.080 A 
ATOM      4  C3  UNL d   1      -1.595  -4.965  -3.716  0.00  0.00     0.150 A 
ATOM      5  C4  UNL d   1      -1.682  -3.616  -3.387  0.00  0.00    -0.007 A 
ATOM      6  C5  UNL d   1      -2.560  -3.204  -2.386  0.00  0.00     0.039 A 
ENDROOT
BRANCH   4   7
ATOM      7  O   UNL d   1      -0.727  -5.321  -4.705  0.00  0.00    -0.526 OA
ATOM      8  H5  UNL d   1      -0.795  -6.281  -4.843  0.00  0.00     0.418 HD
ENDBRANCH   4   7
TORSDOF 1
ENDMDL
