MODEL 1
REMARK minimizedAffinity -3.28469205
REMARK minimizedRMSD -1
REMARK  1 active torsions:
REMARK  status: ('A' for Active; 'I' for Inactive)
REMARK    1  A    between atoms: C3_4  and  O_7 
ROOT
ATOM      1  C   UNL d   1      -5.980   2.249  -5.287  0.00  0.00    -0.033 A 
ATOM      2  C1  UNL d   1      -5.982   1.986  -3.916  0.00  0.00     0.039 A 
ATOM      3  C2  UNL d   1      -5.989   3.041  -3.001  0.00  0.00    -0.080 A 
ATOM      4  C3  UNL d   1      -5.997   4.352  -3.470  0.00  0.00     0.150 A 
ATOM      5  C4  UNL d   1      -6.000   4.621  -4.835  0.00  0.00    -0.007 A 
ATOM      6  C5  UNL d   1      -5.991   3.566  -5.747  0.00  0.00     0.039 A 
ENDROOT
BRANCH   4   7
ATOM      7  O   UNL d   1      -6.000   5.414  -2.616  0.00  0.00    -0.526 OA
ATOM      8  H5  UNL d   1      -5.968   5.077  -1.705  0.00  0.00     0.418 HD
ENDBRANCH   4   7
TORSDOF 1
ENDMDL
