MODEL 1
REMARK minimizedAffinity 1.33144987
REMARK minimizedRMSD -1
REMARK  1 active torsions:
REMARK  status: ('A' for Active; 'I' for Inactive)
REMARK    1  A    between atoms: C3_4  and  O_7 
ROOT
ATOM      1  C   UNL d   1      -1.076   1.211   0.803  0.00  0.00    -0.033 A 
ATOM      2  C1  UNL d   1       0.270   1.229   1.174  0.00  0.00     0.039 A 
ATOM      3  C2  UNL d   1       0.654   1.807   2.386  0.00  0.00    -0.080 A 
ATOM      4  C3  UNL d   1      -0.316   2.361   3.217  0.00  0.00     0.150 A 
ATOM      5  C4  UNL d   1      -1.659   2.342   2.855  0.00  0.00    -0.007 A 
ATOM      6  C5  UNL d   1      -2.041   1.766   1.644  0.00  0.00     0.039 A 
ENDROOT
BRANCH   4   7
ATOM      7  O   UNL d   1       0.010   2.939   4.407  0.00  0.00    -0.526 OA
ATOM      8  H5  UNL d   1       0.976   2.904   4.511  0.00  0.00     0.418 HD
ENDBRANCH   4   7
TORSDOF 1
ENDMDL
