MODEL 1
REMARK minimizedAffinity 2.82403731
REMARK minimizedRMSD -1
REMARK  1 active torsions:
REMARK  status: ('A' for Active; 'I' for Inactive)
REMARK    1  A    between atoms: C3_4  and  O_7 
ROOT
ATOM      1  C   UNL d   1       5.914   3.072  -5.881  0.00  0.00    -0.033 A 
ATOM      2  C1  UNL d   1       4.772   2.274  -5.967  0.00  0.00     0.039 A 
ATOM      3  C2  UNL d   1       3.507   2.865  -5.998  0.00  0.00    -0.080 A 
ATOM      4  C3  UNL d   1       3.398   4.251  -5.942  0.00  0.00     0.150 A 
ATOM      5  C4  UNL d   1       4.533   5.052  -5.860  0.00  0.00    -0.007 A 
ATOM      6  C5  UNL d   1       5.795   4.461  -5.829  0.00  0.00     0.039 A 
ENDROOT
BRANCH   4   7
ATOM      7  O   UNL d   1       2.185   4.873  -5.965  0.00  0.00    -0.526 OA
ATOM      8  H5  UNL d   1       1.492   4.193  -5.994  0.00  0.00     0.418 HD
ENDBRANCH   4   7
TORSDOF 1
ENDMDL
