MODEL 1
REMARK minimizedAffinity 2.03453231
REMARK minimizedRMSD -1
REMARK  1 active torsions:
REMARK  status: ('A' for Active; 'I' for Inactive)
REMARK    1  A    between atoms: C3_4  and  O_7 
ROOT
ATOM      1  C   UNL d   1      -3.256  -5.100  -0.495  0.00  0.00    -0.033 A 
ATOM      2  C1  UNL d   1      -4.312  -4.398  -1.080  0.00  0.00     0.039 A 
ATOM      3  C2  UNL d   1      -4.060  -3.238  -1.815  0.00  0.00    -0.080 A 
ATOM      4  C3  UNL d   1      -2.749  -2.792  -1.958  0.00  0.00     0.150 A 
ATOM      5  C4  UNL d   1      -1.692  -3.488  -1.382  0.00  0.00    -0.007 A 
ATOM      6  C5  UNL d   1      -1.946  -4.646  -0.647  0.00  0.00     0.039 A 
ENDROOT
BRANCH   4   7
ATOM      7  O   UNL d   1      -2.454  -1.662  -2.662  0.00  0.00    -0.526 OA
ATOM      8  H5  UNL d   1      -3.286  -1.271  -2.978  0.00  0.00     0.418 HD
ENDBRANCH   4   7
TORSDOF 1
ENDMDL
