MODEL 1
REMARK minimizedAffinity 3.05912066
REMARK minimizedRMSD -1
REMARK  1 active torsions:
REMARK  status: ('A' for Active; 'I' for Inactive)
REMARK    1  A    between atoms: C1_2  and  C2_3 
ROOT
ATOM      1  C2  UNL d   1       4.618  -5.790   3.182  0.00  0.00    -0.081 A 
ATOM      2  C3  UNL d   1       4.450  -5.369   1.858  0.00  0.00     0.006 A 
ATOM      3  C4  UNL d   1       3.171  -5.151   1.340  0.00  0.00     0.002 A 
ATOM      4  C5  UNL d   1       2.040  -5.343   2.140  0.00  0.00    -0.080 A 
ATOM      5  C6  UNL d   1       0.662  -5.084   1.606  0.00  0.00     0.076 C 
ATOM      6  C7  UNL d   1       2.206  -5.781   3.458  0.00  0.00     0.002 A 
ATOM      7  C8  UNL d   1       3.485  -6.000   3.976  0.00  0.00     0.006 A 
ENDROOT
BRANCH   1   8
ATOM      8  C1  UNL d   1       5.998  -5.964   3.763  0.00  0.00     0.054 C 
ATOM      9  C   UNL d   1       5.969  -5.917   5.284  0.00  0.00     0.018 C 
ENDBRANCH   1   8
TORSDOF 1
ENDMDL
