MODEL 1
REMARK minimizedAffinity 5.26085043
REMARK minimizedRMSD -1
REMARK  1 active torsions:
REMARK  status: ('A' for Active; 'I' for Inactive)
REMARK    1  A    between atoms: C1_2  and  C2_3 
ROOT
ATOM      1  C2  UNL d   1      -3.953  -3.337  -5.954  0.00  0.00    -0.081 A 
ATOM      2  C3  UNL d   1      -4.140  -4.724  -5.957  0.00  0.00     0.006 A 
ATOM      3  C4  UNL d   1      -3.042  -5.588  -5.967  0.00  0.00     0.002 A 
ATOM      4  C5  UNL d   1      -1.739  -5.079  -5.965  0.00  0.00    -0.080 A 
ATOM      5  C6  UNL d   1      -0.551  -5.994  -5.944  0.00  0.00     0.076 C 
ATOM      6  C7  UNL d   1      -1.551  -3.692  -5.979  0.00  0.00     0.002 A 
ATOM      7  C8  UNL d   1      -2.649  -2.829  -5.971  0.00  0.00     0.006 A 
ENDROOT
BRANCH   1   8
ATOM      8  C1  UNL d   1      -5.134  -2.404  -5.879  0.00  0.00     0.054 C 
ATOM      9  C   UNL d   1      -4.699  -0.950  -5.992  0.00  0.00     0.018 C 
ENDBRANCH   1   8
TORSDOF 1
ENDMDL
