MODEL 1
REMARK minimizedAffinity -2.82935691
REMARK minimizedRMSD -1
REMARK  1 active torsions:
REMARK  status: ('A' for Active; 'I' for Inactive)
REMARK    1  A    between atoms: C1_2  and  C2_3 
ROOT
ATOM      1  C2  UNL d   1      -2.026   0.373   1.811  0.00  0.00    -0.081 A 
ATOM      2  C3  UNL d   1      -1.428   1.535   2.313  0.00  0.00     0.006 A 
ATOM      3  C4  UNL d   1      -0.151   1.488   2.878  0.00  0.00     0.002 A 
ATOM      4  C5  UNL d   1       0.552   0.280   2.944  0.00  0.00    -0.080 A 
ATOM      5  C6  UNL d   1       1.935   0.221   3.520  0.00  0.00     0.076 C 
ATOM      6  C7  UNL d   1      -0.053  -0.885   2.458  0.00  0.00     0.002 A 
ATOM      7  C8  UNL d   1      -1.329  -0.838   1.894  0.00  0.00     0.006 A 
ENDROOT
BRANCH   1   8
ATOM      8  C1  UNL d   1      -3.375   0.432   1.143  0.00  0.00     0.054 C 
ATOM      9  C   UNL d   1      -3.811  -0.941   0.653  0.00  0.00     0.018 C 
ENDBRANCH   1   8
TORSDOF 1
ENDMDL
