MODEL 1
REMARK minimizedAffinity 3.12870717
REMARK minimizedRMSD -1
REMARK  1 active torsions:
REMARK  status: ('A' for Active; 'I' for Inactive)
REMARK    1  A    between atoms: C1_2  and  C2_3 
ROOT
ATOM      1  C2  UNL d   1      -1.199   0.870   2.463  0.00  0.00    -0.081 A 
ATOM      2  C3  UNL d   1      -2.109   1.718   3.106  0.00  0.00     0.006 A 
ATOM      3  C4  UNL d   1      -3.351   1.993   2.528  0.00  0.00     0.002 A 
ATOM      4  C5  UNL d   1      -3.706   1.418   1.304  0.00  0.00    -0.080 A 
ATOM      5  C6  UNL d   1      -5.048   1.680   0.687  0.00  0.00     0.076 C 
ATOM      6  C7  UNL d   1      -2.790   0.584   0.653  0.00  0.00     0.002 A 
ATOM      7  C8  UNL d   1      -1.548   0.310   1.229  0.00  0.00     0.006 A 
ENDROOT
BRANCH   1   8
ATOM      8  C1  UNL d   1       0.115   0.521   3.114  0.00  0.00     0.054 C 
ATOM      9  C   UNL d   1       0.176  -0.955   3.481  0.00  0.00     0.018 C 
ENDBRANCH   1   8
TORSDOF 1
ENDMDL
