MODEL 1
REMARK minimizedAffinity 4.57458973
REMARK minimizedRMSD -1
REMARK  1 active torsions:
REMARK  status: ('A' for Active; 'I' for Inactive)
REMARK    1  A    between atoms: C1_2  and  C2_3 
ROOT
ATOM      1  C2  UNL d   1      -3.387  -0.196   1.282  0.00  0.00    -0.081 A 
ATOM      2  C3  UNL d   1      -3.438   1.045   1.929  0.00  0.00     0.006 A 
ATOM      3  C4  UNL d   1      -2.298   1.572   2.540  0.00  0.00     0.002 A 
ATOM      4  C5  UNL d   1      -1.088   0.872   2.508  0.00  0.00    -0.080 A 
ATOM      5  C6  UNL d   1       0.151   1.440   3.134  0.00  0.00     0.076 C 
ATOM      6  C7  UNL d   1      -1.041  -0.376   1.877  0.00  0.00     0.002 A 
ATOM      7  C8  UNL d   1      -2.181  -0.904   1.267  0.00  0.00     0.006 A 
ENDROOT
BRANCH   1   8
ATOM      8  C1  UNL d   1      -4.598  -0.738   0.566  0.00  0.00     0.054 C 
ATOM      9  C   UNL d   1      -4.358  -2.156   0.067  0.00  0.00     0.018 C 
ENDBRANCH   1   8
TORSDOF 1
ENDMDL
