MODEL 1
REMARK minimizedAffinity 1.47163057
REMARK minimizedRMSD -1
REMARK  1 active torsions:
REMARK  status: ('A' for Active; 'I' for Inactive)
REMARK    1  A    between atoms: C1_2  and  C2_3 
ROOT
ATOM      1  C2  UNL d   1       0.923  -5.926   1.911  0.00  0.00    -0.081 A 
ATOM      2  C3  UNL d   1       1.701  -5.983   0.748  0.00  0.00     0.006 A 
ATOM      3  C4  UNL d   1       3.095  -5.992   0.829  0.00  0.00     0.002 A 
ATOM      4  C5  UNL d   1       3.734  -5.952   2.072  0.00  0.00    -0.080 A 
ATOM      5  C6  UNL d   1       5.230  -5.991   2.174  0.00  0.00     0.076 C 
ATOM      6  C7  UNL d   1       2.957  -5.878   3.233  0.00  0.00     0.002 A 
ATOM      7  C8  UNL d   1       1.563  -5.868   3.153  0.00  0.00     0.006 A 
ENDROOT
BRANCH   1   8
ATOM      8  C1  UNL d   1      -0.582  -5.982   1.830  0.00  0.00     0.054 C 
ATOM      9  C   UNL d   1      -1.116  -5.013   0.785  0.00  0.00     0.018 C 
ENDBRANCH   1   8
TORSDOF 1
ENDMDL
