MODEL 1
REMARK minimizedAffinity 5.94471931
REMARK minimizedRMSD -1
REMARK  1 active torsions:
REMARK  status: ('A' for Active; 'I' for Inactive)
REMARK    1  A    between atoms: C1_2  and  C2_3 
ROOT
ATOM      1  C2  UNL d   1       0.789  -5.711   1.429  0.00  0.00    -0.081 A 
ATOM      2  C3  UNL d   1       1.254  -5.894   2.737  0.00  0.00     0.006 A 
ATOM      3  C4  UNL d   1       2.623  -6.000   2.994  0.00  0.00     0.002 A 
ATOM      4  C5  UNL d   1       3.550  -5.917   1.950  0.00  0.00    -0.080 A 
ATOM      5  C6  UNL d   1       5.024  -5.999   2.216  0.00  0.00     0.076 C 
ATOM      6  C7  UNL d   1       3.085  -5.753   0.641  0.00  0.00     0.002 A 
ATOM      7  C8  UNL d   1       1.716  -5.647   0.383  0.00  0.00     0.006 A 
ENDROOT
BRANCH   1   8
ATOM      8  C1  UNL d   1      -0.682  -5.532   1.156  0.00  0.00     0.054 C 
ATOM      9  C   UNL d   1      -0.983  -4.132   0.641  0.00  0.00     0.018 C 
ENDBRANCH   1   8
TORSDOF 1
ENDMDL
