MODEL 1
REMARK minimizedAffinity 9.99630928
REMARK minimizedRMSD -1
REMARK  1 active torsions:
REMARK  status: ('A' for Active; 'I' for Inactive)
REMARK    1  A    between atoms: C1_2  and  C2_3 
ROOT
ATOM      1  C2  UNL d   1      -3.898   0.789   2.634  0.00  0.00    -0.081 A 
ATOM      2  C3  UNL d   1      -2.612   0.943   3.168  0.00  0.00     0.006 A 
ATOM      3  C4  UNL d   1      -1.485   0.775   2.360  0.00  0.00     0.002 A 
ATOM      4  C5  UNL d   1      -1.625   0.458   1.004  0.00  0.00    -0.080 A 
ATOM      5  C6  UNL d   1      -0.424   0.305   0.119  0.00  0.00     0.076 C 
ATOM      6  C7  UNL d   1      -2.908   0.287   0.475  0.00  0.00     0.002 A 
ATOM      7  C8  UNL d   1      -4.035   0.455   1.282  0.00  0.00     0.006 A 
ENDROOT
BRANCH   1   8
ATOM      8  C1  UNL d   1      -5.116   1.033   3.487  0.00  0.00     0.054 C 
ATOM      9  C   UNL d   1      -4.881   0.596   4.926  0.00  0.00     0.018 C 
ENDBRANCH   1   8
TORSDOF 1
ENDMDL
