MODEL 1
REMARK minimizedAffinity 4.03232527
REMARK minimizedRMSD -1
REMARK  1 active torsions:
REMARK  status: ('A' for Active; 'I' for Inactive)
REMARK    1  A    between atoms: C1_2  and  C2_3 
ROOT
ATOM      1  C2  UNL d   1      -2.820   0.345   1.377  0.00  0.00    -0.081 A 
ATOM      2  C3  UNL d   1      -3.105   0.734   2.691  0.00  0.00     0.006 A 
ATOM      3  C4  UNL d   1      -2.122   1.334   3.482  0.00  0.00     0.002 A 
ATOM      4  C5  UNL d   1      -0.840   1.561   2.969  0.00  0.00    -0.080 A 
ATOM      5  C6  UNL d   1       0.216   2.232   3.797  0.00  0.00     0.076 C 
ATOM      6  C7  UNL d   1      -0.550   1.156   1.662  0.00  0.00     0.002 A 
ATOM      7  C8  UNL d   1      -1.532   0.556   0.871  0.00  0.00     0.006 A 
ENDROOT
BRANCH   1   8
ATOM      8  C1  UNL d   1      -3.896  -0.243   0.501  0.00  0.00     0.054 C 
ATOM      9  C   UNL d   1      -3.827  -1.763   0.484  0.00  0.00     0.018 C 
ENDBRANCH   1   8
TORSDOF 1
ENDMDL
