MODEL 1
REMARK minimizedAffinity -1.97669673
REMARK minimizedRMSD -1
REMARK  0 active torsions:
REMARK  status: ('A' for Active; 'I' for Inactive)
ROOT
ATOM      1  C4' PXY d   1      -2.029   0.848  -0.481  0.00  0.00     0.077 C 
ATOM      2  C1' PXY d   1       3.034  -1.675   0.708  0.00  0.00     0.077 C 
ATOM      3  C1  PXY d   1       1.707  -1.006   0.407  0.00  0.00    -0.082 A 
ATOM      4  C2  PXY d   1       0.822  -1.624  -0.358  0.00  0.00     0.003 A 
ATOM      5  C3  PXY d   1      -0.369  -1.019  -0.667  0.00  0.00     0.003 A 
ATOM      6  C4  PXY d   1      -0.680   0.207  -0.143  0.00  0.00    -0.082 A 
ATOM      7  C5  PXY d   1       0.213   0.838   0.648  0.00  0.00     0.003 A 
ATOM      8  C6  PXY d   1       1.434   0.226   0.915  0.00  0.00     0.003 A 
ENDROOT
TORSDOF 0
ENDMDL
