MODEL 1
REMARK minimizedAffinity -5.06009912
REMARK minimizedRMSD -1
REMARK  0 active torsions:
REMARK  status: ('A' for Active; 'I' for Inactive)
ROOT
ATOM      1  C4' PXY d   1       3.759  -1.008   0.601  0.00  0.00     0.077 C 
ATOM      2  C1' PXY d   1      -1.729   0.527  -0.369  0.00  0.00     0.077 C 
ATOM      3  C1  PXY d   1      -0.294   0.112  -0.114  0.00  0.00    -0.082 A 
ATOM      4  C2  PXY d   1       0.569   0.998   0.357  0.00  0.00     0.003 A 
ATOM      5  C3  PXY d   1       1.879   0.648   0.563  0.00  0.00     0.003 A 
ATOM      6  C4  PXY d   1       2.297  -0.636   0.336  0.00  0.00    -0.082 A 
ATOM      7  C5  PXY d   1       1.420  -1.548  -0.134  0.00  0.00     0.003 A 
ATOM      8  C6  PXY d   1       0.105  -1.162  -0.376  0.00  0.00     0.003 A 
ENDROOT
TORSDOF 0
ENDMDL
