MODEL 1
REMARK minimizedAffinity -3.59454608
REMARK minimizedRMSD -1
REMARK  0 active torsions:
REMARK  status: ('A' for Active; 'I' for Inactive)
ROOT
ATOM      1  C4' PXY d   1      -0.127  -3.127  -0.804  0.00  0.00     0.077 C 
ATOM      2  C1' PXY d   1       0.750   2.507   0.143  0.00  0.00     0.077 C 
ATOM      3  C1  PXY d   1       0.533   1.028  -0.108  0.00  0.00    -0.082 A 
ATOM      4  C2  PXY d   1      -0.663   0.595  -0.471  0.00  0.00     0.003 A 
ATOM      5  C3  PXY d   1      -0.886  -0.743  -0.671  0.00  0.00     0.003 A 
ATOM      6  C4  PXY d   1       0.140  -1.641  -0.549  0.00  0.00    -0.082 A 
ATOM      7  C5  PXY d   1       1.366  -1.206  -0.189  0.00  0.00     0.003 A 
ATOM      8  C6  PXY d   1       1.561   0.151   0.049  0.00  0.00     0.003 A 
ENDROOT
TORSDOF 0
ENDMDL
