MODEL 1
REMARK minimizedAffinity -4.40801239
REMARK minimizedRMSD -1
REMARK  0 active torsions:
REMARK  status: ('A' for Active; 'I' for Inactive)
ROOT
ATOM      1  C4' PXY d   1      -2.140   0.796  -0.336  0.00  0.00     0.077 C 
ATOM      2  C1' PXY d   1       3.001  -1.613   0.747  0.00  0.00     0.077 C 
ATOM      3  C1  PXY d   1       1.651  -0.990   0.454  0.00  0.00    -0.082 A 
ATOM      4  C2  PXY d   1       1.445   0.287   0.731  0.00  0.00     0.003 A 
ATOM      5  C3  PXY d   1       0.220   0.859   0.502  0.00  0.00     0.003 A 
ATOM      6  C4  PXY d   1      -0.790   0.128  -0.066  0.00  0.00    -0.082 A 
ATOM      7  C5  PXY d   1      -0.585  -1.173  -0.361  0.00  0.00     0.003 A 
ATOM      8  C6  PXY d   1       0.654  -1.745  -0.083  0.00  0.00     0.003 A 
ENDROOT
TORSDOF 0
ENDMDL
