MODEL 1
REMARK minimizedAffinity -5.21006823
REMARK minimizedRMSD -1
REMARK  0 active torsions:
REMARK  status: ('A' for Active; 'I' for Inactive)
ROOT
ATOM      1  C4' PXY d   1      -1.942   0.648   0.853  0.00  0.00     0.077 C 
ATOM      2  C1' PXY d   1       3.601  -0.922   0.381  0.00  0.00     0.077 C 
ATOM      3  C1  PXY d   1       2.144  -0.522   0.509  0.00  0.00    -0.082 A 
ATOM      4  C2  PXY d   1       1.689   0.518  -0.171  0.00  0.00     0.003 A 
ATOM      5  C3  PXY d   1       0.382   0.912  -0.043  0.00  0.00     0.003 A 
ATOM      6  C4  PXY d   1      -0.481   0.203   0.748  0.00  0.00    -0.082 A 
ATOM      7  C5  PXY d   1      -0.027  -0.866   1.436  0.00  0.00     0.003 A 
ATOM      8  C6  PXY d   1       1.313  -1.226   1.324  0.00  0.00     0.003 A 
ENDROOT
TORSDOF 0
ENDMDL
