MODEL 1
REMARK minimizedAffinity -5.71040535
REMARK minimizedRMSD -1
REMARK  0 active torsions:
REMARK  status: ('A' for Active; 'I' for Inactive)
ROOT
ATOM      1  C4' PXY d   1      -1.107   0.731  -0.617  0.00  0.00     0.077 C 
ATOM      2  C1' PXY d   1       4.272  -0.936   0.688  0.00  0.00     0.077 C 
ATOM      3  C1  PXY d   1       2.864  -0.488   0.352  0.00  0.00    -0.082 A 
ATOM      4  C2  PXY d   1       1.943  -1.391   0.056  0.00  0.00     0.003 A 
ATOM      5  C3  PXY d   1       0.672  -1.001  -0.281  0.00  0.00     0.003 A 
ATOM      6  C4  PXY d   1       0.326   0.323  -0.263  0.00  0.00    -0.082 A 
ATOM      7  C5  PXY d   1       1.257   1.250   0.049  0.00  0.00     0.003 A 
ATOM      8  C6  PXY d   1       2.552   0.836   0.348  0.00  0.00     0.003 A 
ENDROOT
TORSDOF 0
ENDMDL
