MODEL 1
REMARK minimizedAffinity -1.71723878
REMARK minimizedRMSD -1
REMARK  0 active torsions:
REMARK  status: ('A' for Active; 'I' for Inactive)
ROOT
ATOM      1  C4' PXY d   1       2.885  -0.764   1.256  0.00  0.00     0.077 C 
ATOM      2  C1' PXY d   1      -1.988   1.453  -0.926  0.00  0.00     0.077 C 
ATOM      3  C1  PXY d   1      -0.703   0.882  -0.357  0.00  0.00    -0.082 A 
ATOM      4  C2  PXY d   1      -0.554  -0.429  -0.265  0.00  0.00     0.003 A 
ATOM      5  C3  PXY d   1       0.588  -0.961   0.276  0.00  0.00     0.003 A 
ATOM      6  C4  PXY d   1       1.609  -0.144   0.679  0.00  0.00    -0.082 A 
ATOM      7  C5  PXY d   1       1.469   1.195   0.579  0.00  0.00     0.003 A 
ATOM      8  C6  PXY d   1       0.286   1.716   0.065  0.00  0.00     0.003 A 
ENDROOT
TORSDOF 0
ENDMDL
