MODEL 1
REMARK minimizedAffinity -4.38444996
REMARK minimizedRMSD -1
REMARK  0 active torsions:
REMARK  status: ('A' for Active; 'I' for Inactive)
ROOT
ATOM      1  C4' PXY d   1      -2.063   0.979  -0.149  0.00  0.00     0.077 C 
ATOM      2  C1' PXY d   1       3.169  -1.410   0.429  0.00  0.00     0.077 C 
ATOM      3  C1  PXY d   1       1.794  -0.792   0.268  0.00  0.00    -0.082 A 
ATOM      4  C2  PXY d   1       1.571   0.432   0.718  0.00  0.00     0.003 A 
ATOM      5  C3  PXY d   1       0.325   0.995   0.609  0.00  0.00     0.003 A 
ATOM      6  C4  PXY d   1      -0.688   0.318  -0.015  0.00  0.00    -0.082 A 
ATOM      7  C5  PXY d   1      -0.465  -0.927  -0.487  0.00  0.00     0.003 A 
ATOM      8  C6  PXY d   1       0.795  -1.496  -0.329  0.00  0.00     0.003 A 
ENDROOT
TORSDOF 0
ENDMDL
