MODEL 1
REMARK minimizedAffinity -4.41493177
REMARK minimizedRMSD -1
REMARK  0 active torsions:
REMARK  status: ('A' for Active; 'I' for Inactive)
ROOT
ATOM      1  C4' PXY d   1      -2.560   0.842   0.190  0.00  0.00     0.077 C 
ATOM      2  C1' PXY d   1       2.549  -1.841  -0.162  0.00  0.00     0.077 C 
ATOM      3  C1  PXY d   1       1.214  -1.128  -0.062  0.00  0.00    -0.082 A 
ATOM      4  C2  PXY d   1       0.094  -1.808  -0.247  0.00  0.00     0.003 A 
ATOM      5  C3  PXY d   1      -1.120  -1.173  -0.192  0.00  0.00     0.003 A 
ATOM      6  C4  PXY d   1      -1.190   0.162   0.108  0.00  0.00    -0.082 A 
ATOM      7  C5  PXY d   1      -0.053   0.860   0.309  0.00  0.00     0.003 A 
ATOM      8  C6  PXY d   1       1.171   0.205   0.208  0.00  0.00     0.003 A 
ENDROOT
TORSDOF 0
ENDMDL
