MODEL 1
REMARK minimizedAffinity -3.94751453
REMARK minimizedRMSD -1
REMARK  1 active torsions:
REMARK  status: ('A' for Active; 'I' for Inactive)
REMARK    1  A    between atoms: N_2  and  C1_3 
ROOT
ATOM      1  C1  UNL d   1       0.097   0.329  -0.140  0.00  0.00     0.143 A 
ATOM      2  C2  UNL d   1      -1.084  -0.411  -0.012  0.00  0.00    -0.057 A 
ATOM      3  C3  UNL d   1      -1.123  -1.591   0.740  0.00  0.00     0.033 A 
ATOM      4  C4  UNL d   1       0.028  -2.069   1.356  0.00  0.00    -0.042 A 
ATOM      5  C5  UNL d   1       1.219  -1.364   1.222  0.00  0.00     0.033 A 
ATOM      6  C6  UNL d   1       1.251  -0.182   0.475  0.00  0.00    -0.057 A 
ENDROOT
BRANCH   1   7
ATOM      7  N   UNL d   1       0.224   1.456  -0.955  0.00  0.00    -0.732 N 
ATOM      8  C   UNL d   1       1.391   1.633  -1.793  0.00  0.00     0.284 C 
ATOM      9  H3  UNL d   1      -0.652   1.711  -1.405  0.00  0.00     0.395 HD
ENDBRANCH   1   7
TORSDOF 1
ENDMDL
