MODEL 1
REMARK minimizedAffinity -3.31978512
REMARK minimizedRMSD -1
REMARK  1 active torsions:
REMARK  status: ('A' for Active; 'I' for Inactive)
REMARK    1  A    between atoms: N_2  and  C1_3 
ROOT
ATOM      1  C1  UNL d   1      -0.241   0.511  -0.297  0.00  0.00     0.143 A 
ATOM      2  C2  UNL d   1      -1.530   0.907   0.076  0.00  0.00    -0.057 A 
ATOM      3  C3  UNL d   1      -2.434  -0.001   0.640  0.00  0.00     0.033 A 
ATOM      4  C4  UNL d   1      -2.074  -1.333   0.814  0.00  0.00    -0.042 A 
ATOM      5  C5  UNL d   1      -0.807  -1.755   0.427  0.00  0.00     0.033 A 
ATOM      6  C6  UNL d   1       0.094  -0.842  -0.129  0.00  0.00    -0.057 A 
ENDROOT
BRANCH   1   7
ATOM      7  N   UNL d   1       0.669   1.343  -0.953  0.00  0.00    -0.732 N 
ATOM      8  C   UNL d   1       0.480   1.690  -2.345  0.00  0.00     0.284 C 
ATOM      9  H3  UNL d   1       0.978   2.117  -0.370  0.00  0.00     0.395 HD
ENDBRANCH   1   7
TORSDOF 1
ENDMDL
