MODEL 1
REMARK minimizedAffinity -5.19521523
REMARK minimizedRMSD -1
REMARK  1 active torsions:
REMARK  status: ('A' for Active; 'I' for Inactive)
REMARK    1  A    between atoms: N_2  and  C1_3 
ROOT
ATOM      1  C1  UNL d   1      -0.427  -0.394   0.297  0.00  0.00     0.143 A 
ATOM      2  C2  UNL d   1      -0.050  -1.741   0.267  0.00  0.00    -0.057 A 
ATOM      3  C3  UNL d   1      -0.830  -2.727   0.882  0.00  0.00     0.033 A 
ATOM      4  C4  UNL d   1      -1.991  -2.379   1.565  0.00  0.00    -0.042 A 
ATOM      5  C5  UNL d   1      -2.371  -1.043   1.630  0.00  0.00     0.033 A 
ATOM      6  C6  UNL d   1      -1.591  -0.064   1.008  0.00  0.00    -0.057 A 
ENDROOT
BRANCH   1   7
ATOM      7  N   UNL d   1       0.358   0.645  -0.210  0.00  0.00    -0.732 N 
ATOM      8  C   UNL d   1       0.570   0.780  -1.635  0.00  0.00     0.284 C 
ATOM      9  H3  UNL d   1       0.194   1.526   0.271  0.00  0.00     0.395 HD
ENDBRANCH   1   7
TORSDOF 1
ENDMDL
