MODEL 1
REMARK minimizedAffinity -3.32999659
REMARK minimizedRMSD -1
REMARK  1 active torsions:
REMARK  status: ('A' for Active; 'I' for Inactive)
REMARK    1  A    between atoms: N_2  and  C1_3 
ROOT
ATOM      1  C1  UNL d   1       0.214   0.308  -0.159  0.00  0.00     0.143 A 
ATOM      2  C2  UNL d   1      -1.147   0.004  -0.047  0.00  0.00    -0.057 A 
ATOM      3  C3  UNL d   1      -1.577  -1.256   0.387  0.00  0.00     0.033 A 
ATOM      4  C4  UNL d   1      -0.650  -2.248   0.689  0.00  0.00    -0.042 A 
ATOM      5  C5  UNL d   1       0.708  -1.976   0.562  0.00  0.00     0.033 A 
ATOM      6  C6  UNL d   1       1.131  -0.714   0.134  0.00  0.00    -0.057 A 
ENDROOT
BRANCH   1   7
ATOM      7  N   UNL d   1       0.703   1.509  -0.678  0.00  0.00    -0.732 N 
ATOM      8  C   UNL d   1       0.559   1.816  -2.085  0.00  0.00     0.284 C 
ATOM      9  H3  UNL d   1       0.530   2.298  -0.060  0.00  0.00     0.395 HD
ENDBRANCH   1   7
TORSDOF 1
ENDMDL
