MODEL 1
REMARK minimizedAffinity -2.52144194
REMARK minimizedRMSD -1
REMARK  1 active torsions:
REMARK  status: ('A' for Active; 'I' for Inactive)
REMARK    1  A    between atoms: N_2  and  C1_3 
ROOT
ATOM      1  C1  UNL d   1       0.037  -0.044   0.201  0.00  0.00     0.143 A 
ATOM      2  C2  UNL d   1      -1.207  -0.287   0.794  0.00  0.00    -0.057 A 
ATOM      3  C3  UNL d   1      -1.622  -1.587   1.103  0.00  0.00     0.033 A 
ATOM      4  C4  UNL d   1      -0.810  -2.674   0.798  0.00  0.00    -0.042 A 
ATOM      5  C5  UNL d   1       0.420  -2.459   0.186  0.00  0.00     0.033 A 
ATOM      6  C6  UNL d   1       0.832  -1.157  -0.114  0.00  0.00    -0.057 A 
ENDROOT
BRANCH   1   7
ATOM      7  N   UNL d   1       0.465   1.217  -0.220  0.00  0.00    -0.732 N 
ATOM      8  C   UNL d   1       0.722   1.479  -1.620  0.00  0.00     0.284 C 
ATOM      9  H3  UNL d   1      -0.017   1.972   0.262  0.00  0.00     0.395 HD
ENDBRANCH   1   7
TORSDOF 1
ENDMDL
