MODEL 1
REMARK minimizedAffinity -2.52387524
REMARK minimizedRMSD -1
REMARK  1 active torsions:
REMARK  status: ('A' for Active; 'I' for Inactive)
REMARK    1  A    between atoms: N_2  and  C1_3 
ROOT
ATOM      1  C1  UNL d   1       0.268   0.606  -0.303  0.00  0.00     0.143 A 
ATOM      2  C2  UNL d   1       1.137  -0.436   0.037  0.00  0.00    -0.057 A 
ATOM      3  C3  UNL d   1       0.661  -1.623   0.606  0.00  0.00     0.033 A 
ATOM      4  C4  UNL d   1      -0.696  -1.778   0.873  0.00  0.00    -0.042 A 
ATOM      5  C5  UNL d   1      -1.575  -0.746   0.566  0.00  0.00     0.033 A 
ATOM      6  C6  UNL d   1      -1.094   0.435  -0.008  0.00  0.00    -0.057 A 
ENDROOT
BRANCH   1   7
ATOM      7  N   UNL d   1       0.692   1.848  -0.780  0.00  0.00    -0.732 N 
ATOM      8  C   UNL d   1       0.670   2.140  -2.197  0.00  0.00     0.284 C 
ATOM      9  H3  UNL d   1       0.379   2.618  -0.193  0.00  0.00     0.395 HD
ENDBRANCH   1   7
TORSDOF 1
ENDMDL
