MODEL 1
REMARK minimizedAffinity -4.27644444
REMARK minimizedRMSD -1
REMARK  1 active torsions:
REMARK  status: ('A' for Active; 'I' for Inactive)
REMARK    1  A    between atoms: N_2  and  C1_3 
ROOT
ATOM      1  C1  UNL d   1       0.017   0.373  -0.102  0.00  0.00     0.143 A 
ATOM      2  C2  UNL d   1      -1.288   0.568   0.364  0.00  0.00    -0.057 A 
ATOM      3  C3  UNL d   1      -2.054  -0.500   0.846  0.00  0.00     0.033 A 
ATOM      4  C4  UNL d   1      -1.538  -1.791   0.843  0.00  0.00    -0.042 A 
ATOM      5  C5  UNL d   1      -0.253  -2.013   0.361  0.00  0.00     0.033 A 
ATOM      6  C6  UNL d   1       0.510  -0.941  -0.113  0.00  0.00    -0.057 A 
ENDROOT
BRANCH   1   7
ATOM      7  N   UNL d   1       0.793   1.378  -0.685  0.00  0.00    -0.732 N 
ATOM      8  C   UNL d   1       0.675   1.675  -2.096  0.00  0.00     0.284 C 
ATOM      9  H3  UNL d   1       0.872   2.201  -0.092  0.00  0.00     0.395 HD
ENDBRANCH   1   7
TORSDOF 1
ENDMDL
