MODEL 1
REMARK minimizedAffinity -4.96421385
REMARK minimizedRMSD -1
REMARK  1 active torsions:
REMARK  status: ('A' for Active; 'I' for Inactive)
REMARK    1  A    between atoms: N_2  and  C1_3 
ROOT
ATOM      1  C1  UNL d   1      -0.130  -0.275   0.117  0.00  0.00     0.143 A 
ATOM      2  C2  UNL d   1       0.075  -1.650  -0.033  0.00  0.00    -0.057 A 
ATOM      3  C3  UNL d   1      -0.847  -2.580   0.462  0.00  0.00     0.033 A 
ATOM      4  C4  UNL d   1      -1.980  -2.150   1.144  0.00  0.00    -0.042 A 
ATOM      5  C5  UNL d   1      -2.192  -0.788   1.327  0.00  0.00     0.033 A 
ATOM      6  C6  UNL d   1      -1.271   0.136   0.824  0.00  0.00    -0.057 A 
ENDROOT
BRANCH   1   7
ATOM      7  N   UNL d   1       0.798   0.697  -0.266  0.00  0.00    -0.732 N 
ATOM      8  C   UNL d   1       0.787   1.239  -1.608  0.00  0.00     0.284 C 
ATOM      9  H3  UNL d   1       0.957   1.390   0.461  0.00  0.00     0.395 HD
ENDBRANCH   1   7
TORSDOF 1
ENDMDL
