MODEL 1
REMARK minimizedAffinity -4.68906021
REMARK minimizedRMSD -1
REMARK  1 active torsions:
REMARK  status: ('A' for Active; 'I' for Inactive)
REMARK    1  A    between atoms: N_2  and  C1_3 
ROOT
ATOM      1  C1  UNL d   1       0.123   0.138   0.076  0.00  0.00     0.143 A 
ATOM      2  C2  UNL d   1      -1.242   0.073   0.375  0.00  0.00    -0.057 A 
ATOM      3  C3  UNL d   1      -1.844  -1.130   0.763  0.00  0.00     0.033 A 
ATOM      4  C4  UNL d   1      -1.094  -2.300   0.831  0.00  0.00    -0.042 A 
ATOM      5  C5  UNL d   1       0.259  -2.264   0.513  0.00  0.00     0.033 A 
ATOM      6  C6  UNL d   1       0.856  -1.058   0.133  0.00  0.00    -0.057 A 
ENDROOT
BRANCH   1   7
ATOM      7  N   UNL d   1       0.760   1.282  -0.411  0.00  0.00    -0.732 N 
ATOM      8  C   UNL d   1       0.802   1.554  -1.832  0.00  0.00     0.284 C 
ATOM      9  H3  UNL d   1       0.578   2.102   0.164  0.00  0.00     0.395 HD
ENDBRANCH   1   7
TORSDOF 1
ENDMDL
