MODEL 1
REMARK minimizedAffinity -4.54536772
REMARK minimizedRMSD -1
REMARK  1 active torsions:
REMARK  status: ('A' for Active; 'I' for Inactive)
REMARK    1  A    between atoms: N_2  and  C1_3 
ROOT
ATOM      1  C1  UNL d   1      -1.281  -0.544   0.774  0.00  0.00     0.143 A 
ATOM      2  C2  UNL d   1      -0.324   0.376   0.333  0.00  0.00    -0.057 A 
ATOM      3  C3  UNL d   1       0.912  -0.048  -0.171  0.00  0.00     0.033 A 
ATOM      4  C4  UNL d   1       1.224  -1.402  -0.217  0.00  0.00    -0.042 A 
ATOM      5  C5  UNL d   1       0.297  -2.333   0.239  0.00  0.00     0.033 A 
ATOM      6  C6  UNL d   1      -0.938  -1.904   0.735  0.00  0.00    -0.057 A 
ENDROOT
BRANCH   1   7
ATOM      7  N   UNL d   1      -2.488  -0.181   1.376  0.00  0.00    -0.732 N 
ATOM      8  C   UNL d   1      -3.384  -1.191   1.899  0.00  0.00     0.284 C 
ATOM      9  H3  UNL d   1      -2.395   0.639   1.971  0.00  0.00     0.395 HD
ENDBRANCH   1   7
TORSDOF 1
ENDMDL
