MODEL 1
REMARK minimizedAffinity -3.45130825
REMARK minimizedRMSD -1
REMARK  1 active torsions:
REMARK  status: ('A' for Active; 'I' for Inactive)
REMARK    1  A    between atoms: N_2  and  C1_3 
ROOT
ATOM      1  C1  UNL d   1       0.246   0.308  -0.432  0.00  0.00     0.143 A 
ATOM      2  C2  UNL d   1       1.346  -0.410   0.049  0.00  0.00    -0.057 A 
ATOM      3  C3  UNL d   1       1.180  -1.618   0.737  0.00  0.00     0.033 A 
ATOM      4  C4  UNL d   1      -0.095  -2.117   0.983  0.00  0.00    -0.042 A 
ATOM      5  C5  UNL d   1      -1.204  -1.407   0.536  0.00  0.00     0.033 A 
ATOM      6  C6  UNL d   1      -1.032  -0.205  -0.156  0.00  0.00    -0.057 A 
ENDROOT
BRANCH   1   7
ATOM      7  N   UNL d   1       0.340   1.563  -1.036  0.00  0.00    -0.732 N 
ATOM      8  C   UNL d   1       1.445   1.876  -1.917  0.00  0.00     0.284 C 
ATOM      9  H3  UNL d   1      -0.561   1.907  -1.361  0.00  0.00     0.395 HD
ENDBRANCH   1   7
TORSDOF 1
ENDMDL
