MODEL 1
REMARK minimizedAffinity -4.5295577
REMARK minimizedRMSD -1
REMARK  1 active torsions:
REMARK  status: ('A' for Active; 'I' for Inactive)
REMARK    1  A    between atoms: N_2  and  C1_3 
ROOT
ATOM      1  C1  UNL d   1       0.251   0.206   0.030  0.00  0.00     0.143 A 
ATOM      2  C2  UNL d   1       1.114  -0.858   0.312  0.00  0.00    -0.057 A 
ATOM      3  C3  UNL d   1       0.629  -2.074   0.809  0.00  0.00     0.033 A 
ATOM      4  C4  UNL d   1      -0.729  -2.238   1.060  0.00  0.00    -0.042 A 
ATOM      5  C5  UNL d   1      -1.602  -1.185   0.811  0.00  0.00     0.033 A 
ATOM      6  C6  UNL d   1      -1.113   0.025   0.309  0.00  0.00    -0.057 A 
ENDROOT
BRANCH   1   7
ATOM      7  N   UNL d   1       0.683   1.472  -0.372  0.00  0.00    -0.732 N 
ATOM      8  C   UNL d   1       0.657   1.851  -1.769  0.00  0.00     0.284 C 
ATOM      9  H3  UNL d   1       0.379   2.206   0.263  0.00  0.00     0.395 HD
ENDBRANCH   1   7
TORSDOF 1
ENDMDL
