MODEL 1
REMARK minimizedAffinity -4.69738054
REMARK minimizedRMSD -1
REMARK  1 active torsions:
REMARK  status: ('A' for Active; 'I' for Inactive)
REMARK    1  A    between atoms: N_2  and  C1_3 
ROOT
ATOM      1  C1  UNL d   1       0.339   0.796   0.120  0.00  0.00     0.143 A 
ATOM      2  C2  UNL d   1      -0.805   1.343   0.712  0.00  0.00    -0.057 A 
ATOM      3  C3  UNL d   1      -1.800   0.525   1.260  0.00  0.00     0.033 A 
ATOM      4  C4  UNL d   1      -1.682  -0.860   1.200  0.00  0.00    -0.042 A 
ATOM      5  C5  UNL d   1      -0.566  -1.425   0.594  0.00  0.00     0.033 A 
ATOM      6  C6  UNL d   1       0.428  -0.603   0.055  0.00  0.00    -0.057 A 
ENDROOT
BRANCH   1   7
ATOM      7  N   UNL d   1       1.316   1.554  -0.530  0.00  0.00    -0.732 N 
ATOM      8  C   UNL d   1       1.201   1.851  -1.941  0.00  0.00     0.284 C 
ATOM      9  H3  UNL d   1       1.640   2.336   0.034  0.00  0.00     0.395 HD
ENDBRANCH   1   7
TORSDOF 1
ENDMDL
