MODEL 1
REMARK minimizedAffinity 6.87650633
REMARK minimizedRMSD -1
REMARK  0 active torsions:
REMARK  status: ('A' for Active; 'I' for Inactive)
ROOT
ATOM      1  C   UNL d   1      -1.144   2.137  -1.302  0.00  0.00    -0.002 A 
ATOM      2  C1  UNL d   1      -0.936   0.789  -1.560  0.00  0.00     0.010 A 
ATOM      3  C2  UNL d   1      -0.043   0.047  -0.784  0.00  0.00     0.041 A 
ATOM      4  C3  UNL d   1       0.642   0.688   0.267  0.00  0.00    -0.075 A 
ATOM      5  S   UNL d   1       1.783  -0.020   1.349  0.00  0.00     0.015 SA
ATOM      6  C4  UNL d   1       2.020   1.450   2.179  0.00  0.00     0.022 A 
ATOM      7  C5  UNL d   1       1.256   2.467   1.656  0.00  0.00     0.026 A 
ATOM      8  C6  UNL d   1       0.449   2.044   0.546  0.00  0.00    -0.082 A 
ATOM      9  C7  UNL d   1      -0.462   2.769  -0.259  0.00  0.00     0.045 A 
ENDROOT
TORSDOF 0
ENDMDL
