MODEL 1
REMARK minimizedAffinity 5.38473129
REMARK minimizedRMSD -1
REMARK  0 active torsions:
REMARK  status: ('A' for Active; 'I' for Inactive)
ROOT
ATOM      1  C   UNL d   1      -1.262   4.135   0.362  0.00  0.00    -0.002 A 
ATOM      2  C1  UNL d   1      -0.021   4.267   0.969  0.00  0.00     0.010 A 
ATOM      3  C2  UNL d   1       0.961   3.288   0.799  0.00  0.00     0.041 A 
ATOM      4  C3  UNL d   1       0.672   2.165  -0.001  0.00  0.00    -0.075 A 
ATOM      5  S   UNL d   1       1.719   0.842  -0.353  0.00  0.00     0.015 SA
ATOM      6  C4  UNL d   1       0.545   0.071  -1.317  0.00  0.00     0.022 A 
ATOM      7  C5  UNL d   1      -0.624   0.792  -1.381  0.00  0.00     0.026 A 
ATOM      8  C6  UNL d   1      -0.570   2.011  -0.624  0.00  0.00    -0.082 A 
ATOM      9  C7  UNL d   1      -1.545   3.020  -0.431  0.00  0.00     0.045 A 
ENDROOT
TORSDOF 0
ENDMDL
