MODEL 1
REMARK minimizedAffinity 7.76908636
REMARK minimizedRMSD -1
REMARK  0 active torsions:
REMARK  status: ('A' for Active; 'I' for Inactive)
ROOT
ATOM      1  C   UNL d   1       1.404  -0.018   0.077  0.00  0.00    -0.002 A 
ATOM      2  C1  UNL d   1       2.334   0.373   1.030  0.00  0.00     0.010 A 
ATOM      3  C2  UNL d   1       3.555   0.928   0.644  0.00  0.00     0.041 A 
ATOM      4  C3  UNL d   1       3.828   1.088  -0.729  0.00  0.00    -0.075 A 
ATOM      5  S   UNL d   1       5.257   1.746  -1.435  0.00  0.00     0.015 SA
ATOM      6  C4  UNL d   1       4.666   1.525  -3.018  0.00  0.00     0.022 A 
ATOM      7  C5  UNL d   1       3.411   0.963  -3.027  0.00  0.00     0.026 A 
ATOM      8  C6  UNL d   1       2.907   0.703  -1.707  0.00  0.00    -0.082 A 
ATOM      9  C7  UNL d   1       1.678   0.142  -1.284  0.00  0.00     0.045 A 
ENDROOT
TORSDOF 0
ENDMDL
