MODEL 1
REMARK minimizedAffinity 10.7609997
REMARK minimizedRMSD -1
REMARK  0 active torsions:
REMARK  status: ('A' for Active; 'I' for Inactive)
ROOT
ATOM      1  C   UNL d   1      -0.348   0.067  -1.903  0.00  0.00    -0.002 A 
ATOM      2  C1  UNL d   1      -0.743   1.345  -1.535  0.00  0.00     0.010 A 
ATOM      3  C2  UNL d   1      -0.023   2.063  -0.579  0.00  0.00     0.041 A 
ATOM      4  C3  UNL d   1       1.113   1.470   0.007  0.00  0.00    -0.075 A 
ATOM      5  S   UNL d   1       2.149   2.161   1.199  0.00  0.00     0.015 SA
ATOM      6  C4  UNL d   1       3.141   0.776   1.248  0.00  0.00     0.022 A 
ATOM      7  C5  UNL d   1       2.706  -0.200   0.382  0.00  0.00     0.026 A 
ATOM      8  C6  UNL d   1       1.531   0.184  -0.348  0.00  0.00    -0.082 A 
ATOM      9  C7  UNL d   1       0.779  -0.519  -1.320  0.00  0.00     0.045 A 
ENDROOT
TORSDOF 0
ENDMDL
