MODEL 1
REMARK minimizedAffinity 13.3865452
REMARK minimizedRMSD -1
REMARK  0 active torsions:
REMARK  status: ('A' for Active; 'I' for Inactive)
ROOT
ATOM      1  C   UNL d   1       2.405   0.039  -1.132  0.00  0.00    -0.002 A 
ATOM      2  C1  UNL d   1       2.872   0.280   0.152  0.00  0.00     0.010 A 
ATOM      3  C2  UNL d   1       3.983   1.099   0.362  0.00  0.00     0.041 A 
ATOM      4  C3  UNL d   1       4.622   1.679  -0.752  0.00  0.00    -0.075 A 
ATOM      5  S   UNL d   1       5.999   2.717  -0.737  0.00  0.00     0.015 SA
ATOM      6  C4  UNL d   1       5.998   2.865  -2.435  0.00  0.00     0.022 A 
ATOM      7  C5  UNL d   1       4.980   2.147  -3.015  0.00  0.00     0.026 A 
ATOM      8  C6  UNL d   1       4.169   1.452  -2.055  0.00  0.00    -0.082 A 
ATOM      9  C7  UNL d   1       3.041   0.616  -2.234  0.00  0.00     0.045 A 
ENDROOT
TORSDOF 0
ENDMDL
