MODEL 1
REMARK minimizedAffinity 8.73663616
REMARK minimizedRMSD -1
REMARK  0 active torsions:
REMARK  status: ('A' for Active; 'I' for Inactive)
ROOT
ATOM      1  C   UNL d   1       3.093   1.027  -0.840  0.00  0.00    -0.002 A 
ATOM      2  C1  UNL d   1       2.453  -0.053  -1.431  0.00  0.00     0.010 A 
ATOM      3  C2  UNL d   1       1.956  -1.098  -0.650  0.00  0.00     0.041 A 
ATOM      4  C3  UNL d   1       2.113  -1.038   0.749  0.00  0.00    -0.075 A 
ATOM      5  S   UNL d   1       1.584  -2.202   1.905  0.00  0.00     0.015 SA
ATOM      6  C4  UNL d   1       2.194  -1.293   3.211  0.00  0.00     0.022 A 
ATOM      7  C5  UNL d   1       2.790  -0.127   2.793  0.00  0.00     0.026 A 
ATOM      8  C6  UNL d   1       2.753   0.040   1.367  0.00  0.00    -0.082 A 
ATOM      9  C7  UNL d   1       3.247   1.083   0.548  0.00  0.00     0.045 A 
ENDROOT
TORSDOF 0
ENDMDL
