MODEL 1
REMARK minimizedAffinity 7.87349796
REMARK minimizedRMSD -1
REMARK  0 active torsions:
REMARK  status: ('A' for Active; 'I' for Inactive)
ROOT
ATOM      1  C   UNL d   1      -6.000  -1.124  -1.633  0.00  0.00     0.077 C 
ATOM      2  C1  UNL d   1      -5.083  -0.646  -0.547  0.00  0.00    -0.074 A 
ATOM      3  C2  UNL d   1      -4.999   0.712  -0.223  0.00  0.00    -0.005 A 
ATOM      4  C3  UNL d   1      -4.148   1.141   0.796  0.00  0.00     0.006 A 
ATOM      5  C4  UNL d   1      -3.375   0.217   1.501  0.00  0.00    -0.005 A 
ATOM      6  C5  UNL d   1      -3.446  -1.145   1.192  0.00  0.00    -0.074 A 
ATOM      7  C6  UNL d   1      -2.629  -2.151   1.946  0.00  0.00     0.077 C 
ATOM      8  C7  UNL d   1      -4.308  -1.568   0.171  0.00  0.00    -0.001 A 
ENDROOT
TORSDOF 0
ENDMDL
