MODEL 1
REMARK minimizedAffinity 12.8439684
REMARK minimizedRMSD -1
REMARK  0 active torsions:
REMARK  status: ('A' for Active; 'I' for Inactive)
ROOT
ATOM      1  C   UNL d   1      -2.556  -0.946   1.301  0.00  0.00     0.077 C 
ATOM      2  C1  UNL d   1      -3.761  -0.515   0.518  0.00  0.00    -0.074 A 
ATOM      3  C2  UNL d   1      -4.341   0.740   0.725  0.00  0.00    -0.005 A 
ATOM      4  C3  UNL d   1      -5.455   1.131  -0.017  0.00  0.00     0.006 A 
ATOM      5  C4  UNL d   1      -6.000   0.273  -0.972  0.00  0.00    -0.005 A 
ATOM      6  C5  UNL d   1      -5.432  -0.986  -1.194  0.00  0.00    -0.074 A 
ATOM      7  C6  UNL d   1      -5.999  -1.918  -2.224  0.00  0.00     0.077 C 
ATOM      8  C7  UNL d   1      -4.309  -1.369  -0.449  0.00  0.00    -0.001 A 
ENDROOT
TORSDOF 0
ENDMDL
