MODEL 1
REMARK minimizedAffinity 5.67011833
REMARK minimizedRMSD -1
REMARK  0 active torsions:
REMARK  status: ('A' for Active; 'I' for Inactive)
ROOT
ATOM      1  C   UNL d   1      -5.902  -1.252  -2.045  0.00  0.00     0.077 C 
ATOM      2  C1  UNL d   1      -4.853  -0.754  -1.096  0.00  0.00    -0.074 A 
ATOM      3  C2  UNL d   1      -5.204  -0.043   0.055  0.00  0.00    -0.005 A 
ATOM      4  C3  UNL d   1      -4.218   0.406   0.933  0.00  0.00     0.006 A 
ATOM      5  C4  UNL d   1      -2.872   0.149   0.669  0.00  0.00    -0.005 A 
ATOM      6  C5  UNL d   1      -2.502  -0.561  -0.477  0.00  0.00    -0.074 A 
ATOM      7  C6  UNL d   1      -1.060  -0.855  -0.772  0.00  0.00     0.077 C 
ATOM      8  C7  UNL d   1      -3.499  -1.015  -1.351  0.00  0.00    -0.001 A 
ENDROOT
TORSDOF 0
ENDMDL
