MODEL 1
REMARK minimizedAffinity 1.36405349
REMARK minimizedRMSD -1
REMARK  0 active torsions:
REMARK  status: ('A' for Active; 'I' for Inactive)
ROOT
ATOM      1  C   UNL d   1       2.617  -0.766   0.440  0.00  0.00     0.077 C 
ATOM      2  C1  UNL d   1       1.307  -0.807  -0.290  0.00  0.00    -0.074 A 
ATOM      3  C2  UNL d   1       0.517   0.340  -0.415  0.00  0.00    -0.005 A 
ATOM      4  C3  UNL d   1      -0.694   0.288  -1.105  0.00  0.00     0.006 A 
ATOM      5  C4  UNL d   1      -1.127  -0.909  -1.675  0.00  0.00    -0.005 A 
ATOM      6  C5  UNL d   1      -0.350  -2.067  -1.561  0.00  0.00    -0.074 A 
ATOM      7  C6  UNL d   1      -0.797  -3.360  -2.176  0.00  0.00     0.077 C 
ATOM      8  C7  UNL d   1       0.869  -2.005  -0.872  0.00  0.00    -0.001 A 
ENDROOT
TORSDOF 0
ENDMDL
