MODEL 1
REMARK minimizedAffinity 0.125407249
REMARK minimizedRMSD -1
REMARK  0 active torsions:
REMARK  status: ('A' for Active; 'I' for Inactive)
ROOT
ATOM      1  C   UNL d   1      -2.304   3.004   1.501  0.00  0.00     0.077 C 
ATOM      2  C1  UNL d   1      -3.593   2.238   1.535  0.00  0.00    -0.074 A 
ATOM      3  C2  UNL d   1      -4.624   2.604   2.406  0.00  0.00    -0.005 A 
ATOM      4  C3  UNL d   1      -5.821   1.888   2.419  0.00  0.00     0.006 A 
ATOM      5  C4  UNL d   1      -5.999   0.801   1.562  0.00  0.00    -0.005 A 
ATOM      6  C5  UNL d   1      -4.980   0.421   0.683  0.00  0.00    -0.074 A 
ATOM      7  C6  UNL d   1      -5.159  -0.738  -0.251  0.00  0.00     0.077 C 
ATOM      8  C7  UNL d   1      -3.783   1.150   0.671  0.00  0.00    -0.001 A 
ENDROOT
TORSDOF 0
ENDMDL
