MODEL 1
REMARK minimizedAffinity -4.4227376
REMARK minimizedRMSD -1
REMARK  0 active torsions:
REMARK  status: ('A' for Active; 'I' for Inactive)
ROOT
ATOM      1  C   UNL d   1      -1.607  -2.326  -0.338  0.00  0.00     0.077 C 
ATOM      2  C1  UNL d   1      -1.334  -3.612   0.385  0.00  0.00    -0.074 A 
ATOM      3  C2  UNL d   1      -1.141  -4.805  -0.317  0.00  0.00    -0.005 A 
ATOM      4  C3  UNL d   1      -0.879  -5.991   0.369  0.00  0.00     0.006 A 
ATOM      5  C4  UNL d   1      -0.808  -5.995   1.763  0.00  0.00    -0.005 A 
ATOM      6  C5  UNL d   1      -0.998  -4.811   2.482  0.00  0.00    -0.074 A 
ATOM      7  C6  UNL d   1      -0.915  -4.796   3.980  0.00  0.00     0.077 C 
ATOM      8  C7  UNL d   1      -1.254  -3.622   1.785  0.00  0.00    -0.001 A 
ENDROOT
TORSDOF 0
ENDMDL
