MODEL 1
REMARK minimizedAffinity 2.85193348
REMARK minimizedRMSD -1
REMARK  0 active torsions:
REMARK  status: ('A' for Active; 'I' for Inactive)
ROOT
ATOM      1  C   UNL d   1      -1.478  -4.271   5.983  0.00  0.00     0.077 C 
ATOM      2  C1  UNL d   1      -0.135  -3.603   5.996  0.00  0.00    -0.074 A 
ATOM      3  C2  UNL d   1       1.043  -4.357   5.997  0.00  0.00    -0.005 A 
ATOM      4  C3  UNL d   1       2.285  -3.721   5.999  0.00  0.00     0.006 A 
ATOM      5  C4  UNL d   1       2.361  -2.328   6.000  0.00  0.00    -0.005 A 
ATOM      6  C5  UNL d   1       1.194  -1.558   5.998  0.00  0.00    -0.074 A 
ATOM      7  C6  UNL d   1       1.258  -0.059   5.988  0.00  0.00     0.077 C 
ATOM      8  C7  UNL d   1      -0.050  -2.204   5.988  0.00  0.00    -0.001 A 
ENDROOT
TORSDOF 0
ENDMDL
