MODEL 1
REMARK minimizedAffinity -5.34533501
REMARK minimizedRMSD -1
REMARK  1 active torsions:
REMARK  status: ('A' for Active; 'I' for Inactive)
REMARK    1  A    between atoms: C1_2  and  C2_3 
ROOT
ATOM      1  C2  UNL d   1      -0.164   0.587   0.194  0.00  0.00    -0.081 A 
ATOM      2  C3  UNL d   1       0.626  -0.558   0.032  0.00  0.00     0.006 A 
ATOM      3  C4  UNL d   1       0.113  -1.821   0.335  0.00  0.00     0.002 A 
ATOM      4  C5  UNL d   1      -1.200  -1.962   0.798  0.00  0.00    -0.080 A 
ATOM      5  C6  UNL d   1      -1.773  -3.315   1.098  0.00  0.00     0.076 C 
ATOM      6  C7  UNL d   1      -1.983  -0.816   0.977  0.00  0.00     0.002 A 
ATOM      7  C8  UNL d   1      -1.470   0.447   0.674  0.00  0.00     0.006 A 
ENDROOT
BRANCH   1   8
ATOM      8  C1  UNL d   1       0.365   1.944  -0.193  0.00  0.00     0.054 C 
ATOM      9  C   UNL d   1       0.441   2.098  -1.705  0.00  0.00     0.018 C 
ENDBRANCH   1   8
TORSDOF 1
ENDMDL
