MODEL 1
REMARK minimizedAffinity -5.75825739
REMARK minimizedRMSD -1
REMARK  1 active torsions:
REMARK  status: ('A' for Active; 'I' for Inactive)
REMARK    1  A    between atoms: C1_2  and  C2_3 
ROOT
ATOM      1  C2  UNL d   1       0.513   0.601  -0.602  0.00  0.00    -0.081 A 
ATOM      2  C3  UNL d   1       0.992  -0.701  -0.413  0.00  0.00     0.006 A 
ATOM      3  C4  UNL d   1       0.191  -1.668   0.199  0.00  0.00     0.002 A 
ATOM      4  C5  UNL d   1      -1.104  -1.352   0.624  0.00  0.00    -0.080 A 
ATOM      5  C6  UNL d   1      -1.985  -2.389   1.254  0.00  0.00     0.076 C 
ATOM      6  C7  UNL d   1      -1.576  -0.046   0.450  0.00  0.00     0.002 A 
ATOM      7  C8  UNL d   1      -0.775   0.921  -0.161  0.00  0.00     0.006 A 
ENDROOT
BRANCH   1   8
ATOM      8  C1  UNL d   1       1.351   1.629  -1.320  0.00  0.00     0.054 C 
ATOM      9  C   UNL d   1       0.839   1.872  -2.732  0.00  0.00     0.018 C 
ENDBRANCH   1   8
TORSDOF 1
ENDMDL
