MODEL 1
REMARK minimizedAffinity -1.15903175
REMARK minimizedRMSD -1
REMARK  1 active torsions:
REMARK  status: ('A' for Active; 'I' for Inactive)
REMARK    1  A    between atoms: C1_2  and  C2_3 
ROOT
ATOM      1  C2  UNL d   1       0.256   0.514  -0.536  0.00  0.00    -0.081 A 
ATOM      2  C3  UNL d   1      -1.087   0.817  -0.282  0.00  0.00     0.006 A 
ATOM      3  C4  UNL d   1      -1.894  -0.080   0.423  0.00  0.00     0.002 A 
ATOM      4  C5  UNL d   1      -1.370  -1.290   0.891  0.00  0.00    -0.080 A 
ATOM      5  C6  UNL d   1      -2.217  -2.247   1.675  0.00  0.00     0.076 C 
ATOM      6  C7  UNL d   1      -0.032  -1.600   0.622  0.00  0.00     0.002 A 
ATOM      7  C8  UNL d   1       0.775  -0.704  -0.083  0.00  0.00     0.006 A 
ENDROOT
BRANCH   1   8
ATOM      8  C1  UNL d   1       1.145   1.507  -1.239  0.00  0.00     0.054 C 
ATOM      9  C   UNL d   1       0.715   1.709  -2.685  0.00  0.00     0.018 C 
ENDBRANCH   1   8
TORSDOF 1
ENDMDL
