MODEL 1
REMARK minimizedAffinity -5.80123758
REMARK minimizedRMSD -1
REMARK  1 active torsions:
REMARK  status: ('A' for Active; 'I' for Inactive)
REMARK    1  A    between atoms: C1_2  and  C2_3 
ROOT
ATOM      1  C2  UNL d   1       0.671   0.764  -0.126  0.00  0.00    -0.081 A 
ATOM      2  C3  UNL d   1       1.245  -0.511  -0.053  0.00  0.00     0.006 A 
ATOM      3  C4  UNL d   1       0.480  -1.611   0.341  0.00  0.00     0.002 A 
ATOM      4  C5  UNL d   1      -0.874  -1.456   0.660  0.00  0.00    -0.080 A 
ATOM      5  C6  UNL d   1      -1.714  -2.634   1.055  0.00  0.00     0.076 C 
ATOM      6  C7  UNL d   1      -1.443  -0.180   0.604  0.00  0.00     0.002 A 
ATOM      7  C8  UNL d   1      -0.678   0.920   0.211  0.00  0.00     0.006 A 
ENDROOT
BRANCH   1   8
ATOM      8  C1  UNL d   1       1.477   1.941  -0.613  0.00  0.00     0.054 C 
ATOM      9  C   UNL d   1       1.412   2.068  -2.128  0.00  0.00     0.018 C 
ENDBRANCH   1   8
TORSDOF 1
ENDMDL
