MODEL 1
REMARK minimizedAffinity -0.532302618
REMARK minimizedRMSD -1
REMARK  1 active torsions:
REMARK  status: ('A' for Active; 'I' for Inactive)
REMARK    1  A    between atoms: C1_2  and  C2_3 
ROOT
ATOM      1  C2  UNL d   1       4.124   2.480  -3.214  0.00  0.00    -0.081 A 
ATOM      2  C3  UNL d   1       3.586   2.632  -4.498  0.00  0.00     0.006 A 
ATOM      3  C4  UNL d   1       2.205   2.575  -4.698  0.00  0.00     0.002 A 
ATOM      4  C5  UNL d   1       1.338   2.373  -3.619  0.00  0.00    -0.080 A 
ATOM      5  C6  UNL d   1      -0.148   2.341  -3.816  0.00  0.00     0.076 C 
ATOM      6  C7  UNL d   1       1.876   2.203  -2.339  0.00  0.00     0.002 A 
ATOM      7  C8  UNL d   1       3.257   2.259  -2.137  0.00  0.00     0.006 A 
ENDROOT
BRANCH   1   8
ATOM      8  C1  UNL d   1       5.608   2.605  -2.985  0.00  0.00     0.054 C 
ATOM      9  C   UNL d   1       6.000   4.040  -2.665  0.00  0.00     0.018 C 
ENDBRANCH   1   8
TORSDOF 1
ENDMDL
