MODEL 1
REMARK minimizedAffinity -6.1048398
REMARK minimizedRMSD -1
REMARK  1 active torsions:
REMARK  status: ('A' for Active; 'I' for Inactive)
REMARK    1  A    between atoms: C1_2  and  C2_3 
ROOT
ATOM      1  C2  UNL d   1      -0.097   0.688  -0.097  0.00  0.00    -0.081 A 
ATOM      2  C3  UNL d   1       0.606  -0.523  -0.116  0.00  0.00     0.006 A 
ATOM      3  C4  UNL d   1       0.014  -1.693   0.365  0.00  0.00     0.002 A 
ATOM      4  C5  UNL d   1      -1.293  -1.674   0.865  0.00  0.00    -0.080 A 
ATOM      5  C6  UNL d   1      -1.951  -2.929   1.356  0.00  0.00     0.076 C 
ATOM      6  C7  UNL d   1      -1.989  -0.461   0.900  0.00  0.00     0.002 A 
ATOM      7  C8  UNL d   1      -1.397   0.710   0.420  0.00  0.00     0.006 A 
ENDROOT
BRANCH   1   8
ATOM      8  C1  UNL d   1       0.516   1.939  -0.674  0.00  0.00     0.054 C 
ATOM      9  C   UNL d   1       0.424   1.949  -2.193  0.00  0.00     0.018 C 
ENDBRANCH   1   8
TORSDOF 1
ENDMDL
