MODEL 1
REMARK minimizedAffinity -4.78037453
REMARK minimizedRMSD -1
REMARK  1 active torsions:
REMARK  status: ('A' for Active; 'I' for Inactive)
REMARK    1  A    between atoms: C1_2  and  C2_3 
ROOT
ATOM      1  C2  UNL d   1       0.846   0.972  -0.899  0.00  0.00    -0.081 A 
ATOM      2  C3  UNL d   1       1.318  -0.344  -0.825  0.00  0.00     0.006 A 
ATOM      3  C4  UNL d   1       0.649  -1.294  -0.050  0.00  0.00     0.002 A 
ATOM      4  C5  UNL d   1      -0.506  -0.947   0.658  0.00  0.00    -0.080 A 
ATOM      5  C6  UNL d   1      -1.251  -1.964   1.470  0.00  0.00     0.076 C 
ATOM      6  C7  UNL d   1      -0.968   0.373   0.599  0.00  0.00     0.002 A 
ATOM      7  C8  UNL d   1      -0.299   1.323  -0.176  0.00  0.00     0.006 A 
ENDROOT
BRANCH   1   8
ATOM      8  C1  UNL d   1       1.528   1.983  -1.785  0.00  0.00     0.054 C 
ATOM      9  C   UNL d   1       0.900   2.016  -3.171  0.00  0.00     0.018 C 
ENDBRANCH   1   8
TORSDOF 1
ENDMDL
