MODEL 1
REMARK minimizedAffinity -5.46937227
REMARK minimizedRMSD -1
REMARK  1 active torsions:
REMARK  status: ('A' for Active; 'I' for Inactive)
REMARK    1  A    between atoms: C1_2  and  C2_3 
ROOT
ATOM      1  C2  UNL d   1       0.669   0.268  -0.167  0.00  0.00    -0.081 A 
ATOM      2  C3  UNL d   1       1.034  -1.073   0.002  0.00  0.00     0.006 A 
ATOM      3  C4  UNL d   1       0.149  -1.979   0.592  0.00  0.00     0.002 A 
ATOM      4  C5  UNL d   1      -1.117  -1.561   1.015  0.00  0.00    -0.080 A 
ATOM      5  C6  UNL d   1      -2.088  -2.529   1.622  0.00  0.00     0.076 C 
ATOM      6  C7  UNL d   1      -1.475  -0.217   0.862  0.00  0.00     0.002 A 
ATOM      7  C8  UNL d   1      -0.591   0.689   0.273  0.00  0.00     0.006 A 
ENDROOT
BRANCH   1   8
ATOM      8  C1  UNL d   1       1.596   1.233  -0.861  0.00  0.00     0.054 C 
ATOM      9  C   UNL d   1       1.026   1.682  -2.199  0.00  0.00     0.018 C 
ENDBRANCH   1   8
TORSDOF 1
ENDMDL
