MODEL 1
REMARK minimizedAffinity -4.46249628
REMARK minimizedRMSD -1
REMARK  1 active torsions:
REMARK  status: ('A' for Active; 'I' for Inactive)
REMARK    1  A    between atoms: C1_2  and  C2_3 
ROOT
ATOM      1  C2  UNL d   1       0.182   0.476  -0.163  0.00  0.00    -0.081 A 
ATOM      2  C3  UNL d   1       0.801  -0.769   0.009  0.00  0.00     0.006 A 
ATOM      3  C4  UNL d   1       0.073  -1.861   0.488  0.00  0.00     0.002 A 
ATOM      4  C5  UNL d   1      -1.285  -1.730   0.794  0.00  0.00    -0.080 A 
ATOM      5  C6  UNL d   1      -2.085  -2.902   1.280  0.00  0.00     0.076 C 
ATOM      6  C7  UNL d   1      -1.899  -0.482   0.639  0.00  0.00     0.002 A 
ATOM      7  C8  UNL d   1      -1.172   0.610   0.161  0.00  0.00     0.006 A 
ENDROOT
BRANCH   1   8
ATOM      8  C1  UNL d   1       0.948   1.639  -0.739  0.00  0.00     0.054 C 
ATOM      9  C   UNL d   1       0.879   1.648  -2.260  0.00  0.00     0.018 C 
ENDBRANCH   1   8
TORSDOF 1
ENDMDL
