MODEL 1
REMARK minimizedAffinity -0.94214195
REMARK minimizedRMSD -1
REMARK  1 active torsions:
REMARK  status: ('A' for Active; 'I' for Inactive)
REMARK    1  A    between atoms: C1_2  and  C2_3 
ROOT
ATOM      1  C2  UNL d   1      -1.338  -0.092   0.537  0.00  0.00    -0.081 A 
ATOM      2  C3  UNL d   1      -1.103  -1.294   1.215  0.00  0.00     0.006 A 
ATOM      3  C4  UNL d   1       0.180  -1.845   1.255  0.00  0.00     0.002 A 
ATOM      4  C5  UNL d   1       1.249  -1.201   0.625  0.00  0.00    -0.080 A 
ATOM      5  C6  UNL d   1       2.637  -1.766   0.685  0.00  0.00     0.076 C 
ATOM      6  C7  UNL d   1       1.011  -0.008  -0.068  0.00  0.00     0.002 A 
ATOM      7  C8  UNL d   1      -0.271   0.543  -0.108  0.00  0.00     0.006 A 
ENDROOT
BRANCH   1   8
ATOM      8  C1  UNL d   1      -2.707   0.539   0.548  0.00  0.00     0.054 C 
ATOM      9  C   UNL d   1      -2.719   1.824   1.364  0.00  0.00     0.018 C 
ENDBRANCH   1   8
TORSDOF 1
ENDMDL
