MODEL 1
REMARK minimizedAffinity 7.18908501
REMARK minimizedRMSD -1
REMARK  1 active torsions:
REMARK  status: ('A' for Active; 'I' for Inactive)
REMARK    1  A    between atoms: C1_2  and  C2_3 
ROOT
ATOM      1  C2  UNL d   1      -4.360  -2.695  -4.032  0.00  0.00    -0.081 A 
ATOM      2  C3  UNL d   1      -3.292  -3.263  -3.327  0.00  0.00     0.006 A 
ATOM      3  C4  UNL d   1      -2.426  -4.162  -3.955  0.00  0.00     0.002 A 
ATOM      4  C5  UNL d   1      -2.609  -4.500  -5.300  0.00  0.00    -0.080 A 
ATOM      5  C6  UNL d   1      -1.669  -5.440  -5.995  0.00  0.00     0.076 C 
ATOM      6  C7  UNL d   1      -3.686  -3.946  -6.000  0.00  0.00     0.002 A 
ATOM      7  C8  UNL d   1      -4.553  -3.049  -5.372  0.00  0.00     0.006 A 
ENDROOT
BRANCH   1   8
ATOM      8  C1  UNL d   1      -5.257  -1.677  -3.375  0.00  0.00     0.054 C 
ATOM      9  C   UNL d   1      -4.905  -1.497  -1.905  0.00  0.00     0.018 C 
ENDBRANCH   1   8
TORSDOF 1
ENDMDL
