MODEL 1
REMARK minimizedAffinity 2.50497651
REMARK minimizedRMSD -1
REMARK  2 active torsions:
REMARK  status: ('A' for Active; 'I' for Inactive)
REMARK    1  A    between atoms: C2'_3  and  C1'_4 
REMARK    2  A    between atoms: C1'_4  and  C1_5 
ROOT
ATOM      1  C1  I4B d   1      -4.907  -2.229   3.379  0.00  0.00    -0.075 A 
ATOM      2  C2  I4B d   1      -4.605  -1.119   4.128  0.00  0.00     0.003 A 
ATOM      3  C3  I4B d   1      -4.121  -1.262   5.451  0.00  0.00     0.002 A 
ATOM      4  C4  I4B d   1      -4.004  -2.523   5.999  0.00  0.00    -0.004 A 
ATOM      5  C5  I4B d   1      -4.289  -3.648   5.231  0.00  0.00     0.002 A 
ATOM      6  C6  I4B d   1      -4.732  -3.501   3.908  0.00  0.00     0.003 A 
ENDROOT
BRANCH   1   7
ATOM      7  C1' I4B d   1      -5.447  -2.041   1.997  0.00  0.00     0.060 C 
BRANCH   7   8
ATOM      8  C2' I4B d   1      -4.275  -2.010   1.038  0.00  0.00    -0.013 C 
ATOM      9  C4' I4B d   1      -4.611  -2.702  -0.257  0.00  0.00     0.013 C 
ATOM     10  C3' I4B d   1      -3.904  -0.576   0.805  0.00  0.00     0.013 C 
ENDBRANCH   7   8
ENDBRANCH   1   7
TORSDOF 2
ENDMDL
