MODEL 1
REMARK minimizedAffinity 2.83413315
REMARK minimizedRMSD -1
REMARK  2 active torsions:
REMARK  status: ('A' for Active; 'I' for Inactive)
REMARK    1  A    between atoms: C2'_3  and  C1'_4 
REMARK    2  A    between atoms: C1'_4  and  C1_5 
ROOT
ATOM      1  C1  I4B d   1       3.574  -5.901   2.583  0.00  0.00    -0.075 A 
ATOM      2  C2  I4B d   1       4.884  -5.923   2.174  0.00  0.00     0.003 A 
ATOM      3  C3  I4B d   1       5.928  -5.998   3.127  0.00  0.00     0.002 A 
ATOM      4  C4  I4B d   1       5.621  -5.998   4.473  0.00  0.00    -0.004 A 
ATOM      5  C5  I4B d   1       4.291  -5.999   4.885  0.00  0.00     0.002 A 
ATOM      6  C6  I4B d   1       3.261  -5.963   3.935  0.00  0.00     0.003 A 
ENDROOT
BRANCH   1   7
ATOM      7  C1' I4B d   1       2.498  -5.789   1.550  0.00  0.00     0.060 C 
BRANCH   7   8
ATOM      8  C2' I4B d   1       1.349  -5.010   2.157  0.00  0.00    -0.013 C 
ATOM      9  C4' I4B d   1       0.606  -4.228   1.106  0.00  0.00     0.013 C 
ATOM     10  C3' I4B d   1       0.442  -5.985   2.848  0.00  0.00     0.013 C 
ENDBRANCH   7   8
ENDBRANCH   1   7
TORSDOF 2
ENDMDL
