MODEL 1
REMARK minimizedAffinity 6.45752573
REMARK minimizedRMSD -1
REMARK  2 active torsions:
REMARK  status: ('A' for Active; 'I' for Inactive)
REMARK    1  A    between atoms: C2'_3  and  C1'_4 
REMARK    2  A    between atoms: C1'_4  and  C1_5 
ROOT
ATOM      1  C1  I4B d   1       3.890  -5.185   2.654  0.00  0.00    -0.075 A 
ATOM      2  C2  I4B d   1       3.801  -6.000   3.755  0.00  0.00     0.003 A 
ATOM      3  C3  I4B d   1       4.812  -5.974   4.746  0.00  0.00     0.002 A 
ATOM      4  C4  I4B d   1       5.914  -5.161   4.571  0.00  0.00    -0.004 A 
ATOM      5  C5  I4B d   1       5.992  -4.319   3.465  0.00  0.00     0.002 A 
ATOM      6  C6  I4B d   1       4.968  -4.322   2.507  0.00  0.00     0.003 A 
ENDROOT
BRANCH   1   7
ATOM      7  C1' I4B d   1       2.820  -5.262   1.612  0.00  0.00     0.060 C 
BRANCH   7   8
ATOM      8  C2' I4B d   1       1.523  -4.792   2.238  0.00  0.00    -0.013 C 
ATOM      9  C4' I4B d   1       0.648  -4.102   1.226  0.00  0.00     0.013 C 
ATOM     10  C3' I4B d   1       0.833  -5.987   2.826  0.00  0.00     0.013 C 
ENDBRANCH   7   8
ENDBRANCH   1   7
TORSDOF 2
ENDMDL
