MODEL 1
REMARK minimizedAffinity -1.20947313
REMARK minimizedRMSD -1
REMARK  2 active torsions:
REMARK  status: ('A' for Active; 'I' for Inactive)
REMARK    1  A    between atoms: C2'_3  and  C1'_4 
REMARK    2  A    between atoms: C1'_4  and  C1_5 
ROOT
ATOM      1  C1  I4B d   1       3.590  -5.388   2.140  0.00  0.00    -0.075 A 
ATOM      2  C2  I4B d   1       4.159  -4.301   1.524  0.00  0.00     0.003 A 
ATOM      3  C3  I4B d   1       5.396  -3.788   1.984  0.00  0.00     0.002 A 
ATOM      4  C4  I4B d   1       6.000  -4.357   3.086  0.00  0.00    -0.004 A 
ATOM      5  C5  I4B d   1       5.433  -5.473   3.695  0.00  0.00     0.002 A 
ATOM      6  C6  I4B d   1       4.227  -6.000   3.212  0.00  0.00     0.003 A 
ENDROOT
BRANCH   1   7
ATOM      7  C1' I4B d   1       2.266  -5.883   1.649  0.00  0.00     0.060 C 
BRANCH   7   8
ATOM      8  C2' I4B d   1       1.183  -5.059   2.314  0.00  0.00    -0.013 C 
ATOM      9  C4' I4B d   1       0.438  -4.223   1.307  0.00  0.00     0.013 C 
ATOM     10  C3' I4B d   1       0.259  -6.000   3.028  0.00  0.00     0.013 C 
ENDBRANCH   7   8
ENDBRANCH   1   7
TORSDOF 2
ENDMDL
