MODEL 1
REMARK minimizedAffinity -3.62054229
REMARK minimizedRMSD -1
REMARK  2 active torsions:
REMARK  status: ('A' for Active; 'I' for Inactive)
REMARK    1  A    between atoms: C2'_3  and  C1'_4 
REMARK    2  A    between atoms: C1'_4  and  C1_5 
ROOT
ATOM      1  C1  I4B d   1       3.518  -5.658   2.238  0.00  0.00    -0.075 A 
ATOM      2  C2  I4B d   1       3.733  -6.000   3.549  0.00  0.00     0.003 A 
ATOM      3  C3  I4B d   1       4.977  -5.719   4.165  0.00  0.00     0.002 A 
ATOM      4  C4  I4B d   1       5.988  -5.145   3.422  0.00  0.00    -0.004 A 
ATOM      5  C5  I4B d   1       5.761  -4.778   2.099  0.00  0.00     0.002 A 
ATOM      6  C6  I4B d   1       4.514  -5.025   1.506  0.00  0.00     0.003 A 
ENDROOT
BRANCH   1   7
ATOM      7  C1' I4B d   1       2.204  -6.000   1.610  0.00  0.00     0.060 C 
BRANCH   7   8
ATOM      8  C2' I4B d   1       1.141  -5.129   2.248  0.00  0.00    -0.013 C 
ATOM      9  C4' I4B d   1       0.274  -4.474   1.205  0.00  0.00     0.013 C 
ATOM     10  C3' I4B d   1       0.327  -5.990   3.166  0.00  0.00     0.013 C 
ENDBRANCH   7   8
ENDBRANCH   1   7
TORSDOF 2
ENDMDL
