MODEL 1
REMARK minimizedAffinity -0.0741316527
REMARK minimizedRMSD -1
REMARK  2 active torsions:
REMARK  status: ('A' for Active; 'I' for Inactive)
REMARK    1  A    between atoms: C2'_3  and  C1'_4 
REMARK    2  A    between atoms: C1'_4  and  C1_5 
ROOT
ATOM      1  C1  I4B d   1      -2.923   3.021   2.416  0.00  0.00    -0.075 A 
ATOM      2  C2  I4B d   1      -2.205   4.046   2.980  0.00  0.00     0.003 A 
ATOM      3  C3  I4B d   1      -0.794   4.080   2.858  0.00  0.00     0.002 A 
ATOM      4  C4  I4B d   1      -0.143   3.049   2.212  0.00  0.00    -0.004 A 
ATOM      5  C5  I4B d   1      -0.875   2.023   1.621  0.00  0.00     0.002 A 
ATOM      6  C6  I4B d   1      -2.274   2.015   1.712  0.00  0.00     0.003 A 
ENDROOT
BRANCH   1   7
ATOM      7  C1' I4B d   1      -4.408   3.000   2.592  0.00  0.00     0.060 C 
BRANCH   7   8
ATOM      8  C2' I4B d   1      -4.904   4.431   2.546  0.00  0.00    -0.013 C 
ATOM      9  C4' I4B d   1      -5.988   4.599   1.515  0.00  0.00     0.013 C 
ATOM     10  C3' I4B d   1      -5.398   4.793   3.915  0.00  0.00     0.013 C 
ENDBRANCH   7   8
ENDBRANCH   1   7
TORSDOF 2
ENDMDL
