MODEL 1
REMARK minimizedAffinity 0.0556530468
REMARK minimizedRMSD -1
REMARK  2 active torsions:
REMARK  status: ('A' for Active; 'I' for Inactive)
REMARK    1  A    between atoms: C2'_3  and  C1'_4 
REMARK    2  A    between atoms: C1'_4  and  C1_5 
ROOT
ATOM      1  C1  I4B d   1      -5.017   4.541   3.162  0.00  0.00    -0.075 A 
ATOM      2  C2  I4B d   1      -5.695   3.360   3.335  0.00  0.00     0.003 A 
ATOM      3  C3  I4B d   1      -5.133   2.142   2.881  0.00  0.00     0.002 A 
ATOM      4  C4  I4B d   1      -3.923   2.158   2.217  0.00  0.00    -0.004 A 
ATOM      5  C5  I4B d   1      -3.227   3.353   2.062  0.00  0.00     0.002 A 
ATOM      6  C6  I4B d   1      -3.771   4.550   2.548  0.00  0.00     0.003 A 
ENDROOT
BRANCH   1   7
ATOM      7  C1' I4B d   1      -5.655   5.812   3.625  0.00  0.00     0.060 C 
BRANCH   7   8
ATOM      8  C2' I4B d   1      -5.359   5.971   5.102  0.00  0.00    -0.013 C 
ATOM      9  C4' I4B d   1      -5.979   4.858   5.905  0.00  0.00     0.013 C 
ATOM     10  C3' I4B d   1      -3.870   6.000   5.276  0.00  0.00     0.013 C 
ENDBRANCH   7   8
ENDBRANCH   1   7
TORSDOF 2
ENDMDL
