MODEL 1
REMARK minimizedAffinity 3.31580067
REMARK minimizedRMSD -1
REMARK  2 active torsions:
REMARK  status: ('A' for Active; 'I' for Inactive)
REMARK    1  A    between atoms: C2'_3  and  C1'_4 
REMARK    2  A    between atoms: C1'_4  and  C1_5 
ROOT
ATOM      1  C1  I4B d   1      -3.659  -5.277   1.896  0.00  0.00    -0.075 A 
ATOM      2  C2  I4B d   1      -4.927  -5.802   1.938  0.00  0.00     0.003 A 
ATOM      3  C3  I4B d   1      -5.998  -5.127   1.305  0.00  0.00     0.002 A 
ATOM      4  C4  I4B d   1      -5.769  -3.913   0.689  0.00  0.00    -0.004 A 
ATOM      5  C5  I4B d   1      -4.479  -3.394   0.629  0.00  0.00     0.002 A 
ATOM      6  C6  I4B d   1      -3.414  -4.086   1.225  0.00  0.00     0.003 A 
ENDROOT
BRANCH   1   7
ATOM      7  C1' I4B d   1      -2.556  -5.999   2.603  0.00  0.00     0.060 C 
BRANCH   7   8
ATOM      8  C2' I4B d   1      -1.242  -5.380   2.175  0.00  0.00    -0.013 C 
ATOM      9  C4' I4B d   1      -0.177  -5.582   3.221  0.00  0.00     0.013 C 
ATOM     10  C3' I4B d   1      -0.842  -5.998   0.869  0.00  0.00     0.013 C 
ENDBRANCH   7   8
ENDBRANCH   1   7
TORSDOF 2
ENDMDL
