MODEL 1
REMARK minimizedAffinity 9.86146355
REMARK minimizedRMSD -1
REMARK  2 active torsions:
REMARK  status: ('A' for Active; 'I' for Inactive)
REMARK    1  A    between atoms: C2'_3  and  C1'_4 
REMARK    2  A    between atoms: C1'_4  and  C1_5 
ROOT
ATOM      1  C1  I4B d   1      -5.948   0.980   3.554  0.00  0.00    -0.075 A 
ATOM      2  C2  I4B d   1      -6.000   1.695   4.725  0.00  0.00     0.003 A 
ATOM      3  C3  I4B d   1      -6.000   1.022   5.971  0.00  0.00     0.002 A 
ATOM      4  C4  I4B d   1      -5.999  -0.357   5.999  0.00  0.00    -0.004 A 
ATOM      5  C5  I4B d   1      -5.924  -1.080   4.812  0.00  0.00     0.002 A 
ATOM      6  C6  I4B d   1      -5.886  -0.407   3.582  0.00  0.00     0.003 A 
ENDROOT
BRANCH   1   7
ATOM      7  C1' I4B d   1      -5.983   1.721   2.255  0.00  0.00     0.060 C 
BRANCH   7   8
ATOM      8  C2' I4B d   1      -4.563   2.116   1.906  0.00  0.00    -0.013 C 
ATOM      9  C4' I4B d   1      -3.810   2.580   3.125  0.00  0.00     0.013 C 
ATOM     10  C3' I4B d   1      -3.894   0.932   1.274  0.00  0.00     0.013 C 
ENDBRANCH   7   8
ENDBRANCH   1   7
TORSDOF 2
ENDMDL
