MODEL 1
REMARK minimizedAffinity 7.02491665
REMARK minimizedRMSD -1
REMARK  2 active torsions:
REMARK  status: ('A' for Active; 'I' for Inactive)
REMARK    1  A    between atoms: C2'_3  and  C1'_4 
REMARK    2  A    between atoms: C1'_4  and  C1_5 
ROOT
ATOM      1  C1  I4B d   1      -1.528   0.899   1.070  0.00  0.00    -0.075 A 
ATOM      2  C2  I4B d   1      -0.244   1.299   1.344  0.00  0.00     0.003 A 
ATOM      3  C3  I4B d   1       0.016   2.159   2.438  0.00  0.00     0.002 A 
ATOM      4  C4  I4B d   1      -1.035   2.632   3.196  0.00  0.00    -0.004 A 
ATOM      5  C5  I4B d   1      -2.334   2.207   2.931  0.00  0.00     0.002 A 
ATOM      6  C6  I4B d   1      -2.581   1.325   1.870  0.00  0.00     0.003 A 
ENDROOT
BRANCH   1   7
ATOM      7  C1' I4B d   1      -1.771   0.016  -0.113  0.00  0.00     0.060 C 
BRANCH   7   8
ATOM      8  C2' I4B d   1      -2.420  -1.260   0.383  0.00  0.00    -0.013 C 
ATOM      9  C4' I4B d   1      -3.200  -1.937  -0.714  0.00  0.00     0.013 C 
ATOM     10  C3' I4B d   1      -1.339  -2.155   0.910  0.00  0.00     0.013 C 
ENDBRANCH   7   8
ENDBRANCH   1   7
TORSDOF 2
ENDMDL
