MODEL 1
REMARK minimizedAffinity 5.89194059
REMARK minimizedRMSD -1
REMARK  2 active torsions:
REMARK  status: ('A' for Active; 'I' for Inactive)
REMARK    1  A    between atoms: C2'_3  and  C1'_4 
REMARK    2  A    between atoms: C1'_4  and  C1_5 
ROOT
ATOM      1  C1  I4B d   1      -1.294   0.452   1.092  0.00  0.00    -0.075 A 
ATOM      2  C2  I4B d   1      -1.030  -0.634   1.890  0.00  0.00     0.003 A 
ATOM      3  C3  I4B d   1       0.266  -0.824   2.429  0.00  0.00     0.002 A 
ATOM      4  C4  I4B d   1       1.273   0.063   2.107  0.00  0.00    -0.004 A 
ATOM      5  C5  I4B d   1       0.997   1.176   1.317  0.00  0.00     0.002 A 
ATOM      6  C6  I4B d   1      -0.297   1.378   0.816  0.00  0.00     0.003 A 
ENDROOT
BRANCH   1   7
ATOM      7  C1' I4B d   1      -2.664   0.603   0.512  0.00  0.00     0.060 C 
BRANCH   7   8
ATOM      8  C2' I4B d   1      -3.492  -0.587   0.953  0.00  0.00    -0.013 C 
ATOM      9  C4' I4B d   1      -4.822  -0.150   1.507  0.00  0.00     0.013 C 
ATOM     10  C3' I4B d   1      -3.669  -1.491  -0.231  0.00  0.00     0.013 C 
ENDBRANCH   7   8
ENDBRANCH   1   7
TORSDOF 2
ENDMDL
