MODEL 1
REMARK minimizedAffinity 12.0943146
REMARK minimizedRMSD -1
REMARK  1 active torsions:
REMARK  status: ('A' for Active; 'I' for Inactive)
REMARK    1  A    between atoms: C3_4  and  O_7 
ROOT
ATOM      1  C   UNL d   1      -4.857   2.794   5.629  0.00  0.00    -0.033 A 
ATOM      2  C1  UNL d   1      -5.385   2.772   4.337  0.00  0.00     0.039 A 
ATOM      3  C2  UNL d   1      -4.922   1.838   3.408  0.00  0.00    -0.080 A 
ATOM      4  C3  UNL d   1      -3.933   0.933   3.783  0.00  0.00     0.150 A 
ATOM      5  C4  UNL d   1      -3.405   0.947   5.070  0.00  0.00    -0.007 A 
ATOM      6  C5  UNL d   1      -3.868   1.880   5.996  0.00  0.00     0.039 A 
ENDROOT
BRANCH   4   7
ATOM      7  O   UNL d   1      -3.446   0.007   2.909  0.00  0.00    -0.526 OA
ATOM      8  H5  UNL d   1      -3.883   0.134   2.050  0.00  0.00     0.418 HD
ENDBRANCH   4   7
TORSDOF 1
ENDMDL
