MODEL 1
REMARK minimizedAffinity 3.9542892
REMARK minimizedRMSD -1
REMARK  1 active torsions:
REMARK  status: ('A' for Active; 'I' for Inactive)
REMARK    1  A    between atoms: C3_4  and  O_7 
ROOT
ATOM      1  C   UNL d   1      -3.374   0.340   5.108  0.00  0.00    -0.033 A 
ATOM      2  C1  UNL d   1      -3.747   1.380   5.961  0.00  0.00     0.039 A 
ATOM      3  C2  UNL d   1      -4.631   2.366   5.519  0.00  0.00    -0.080 A 
ATOM      4  C3  UNL d   1      -5.136   2.299   4.223  0.00  0.00     0.150 A 
ATOM      5  C4  UNL d   1      -4.772   1.263   3.369  0.00  0.00    -0.007 A 
ATOM      6  C5  UNL d   1      -3.888   0.280   3.812  0.00  0.00     0.039 A 
ENDROOT
BRANCH   4   7
ATOM      7  O   UNL d   1      -5.998   3.240   3.745  0.00  0.00    -0.526 OA
ATOM      8  H5  UNL d   1      -6.137   3.909   4.435  0.00  0.00     0.418 HD
ENDBRANCH   4   7
TORSDOF 1
ENDMDL
