MODEL 1
REMARK minimizedAffinity 2.56470728
REMARK minimizedRMSD -1
REMARK  1 active torsions:
REMARK  status: ('A' for Active; 'I' for Inactive)
REMARK    1  A    between atoms: C3_4  and  O_7 
ROOT
ATOM      1  C   UNL d   1      -0.718   2.982  -5.237  0.00  0.00    -0.033 A 
ATOM      2  C1  UNL d   1      -1.076   4.109  -5.979  0.00  0.00     0.039 A 
ATOM      3  C2  UNL d   1      -2.403   4.541  -6.000  0.00  0.00    -0.080 A 
ATOM      4  C3  UNL d   1      -3.362   3.839  -5.275  0.00  0.00     0.150 A 
ATOM      5  C4  UNL d   1      -3.012   2.717  -4.530  0.00  0.00    -0.007 A 
ATOM      6  C5  UNL d   1      -1.686   2.287  -4.511  0.00  0.00     0.039 A 
ENDROOT
BRANCH   4   7
ATOM      7  O   UNL d   1      -4.671   4.220  -5.269  0.00  0.00    -0.526 OA
ATOM      8  H5  UNL d   1      -4.769   4.993  -5.850  0.00  0.00     0.418 HD
ENDBRANCH   4   7
TORSDOF 1
ENDMDL
