MODEL 1
REMARK minimizedAffinity 15.5596933
REMARK minimizedRMSD -1
REMARK  1 active torsions:
REMARK  status: ('A' for Active; 'I' for Inactive)
REMARK    1  A    between atoms: C3_4  and  O_7 
ROOT
ATOM      1  C   UNL d   1       2.655   0.523  -1.709  0.00  0.00    -0.033 A 
ATOM      2  C1  UNL d   1       1.697  -0.268  -2.347  0.00  0.00     0.039 A 
ATOM      3  C2  UNL d   1       1.290  -1.474  -1.772  0.00  0.00    -0.080 A 
ATOM      4  C3  UNL d   1       1.846  -1.875  -0.560  0.00  0.00     0.150 A 
ATOM      5  C4  UNL d   1       2.798  -1.090   0.082  0.00  0.00    -0.007 A 
ATOM      6  C5  UNL d   1       3.204   0.113  -0.494  0.00  0.00     0.039 A 
ENDROOT
BRANCH   4   7
ATOM      7  O   UNL d   1       1.484  -3.046   0.037  0.00  0.00    -0.526 OA
ATOM      8  H5  UNL d   1       0.840  -3.497  -0.535  0.00  0.00     0.418 HD
ENDBRANCH   4   7
TORSDOF 1
ENDMDL
