MODEL 1
REMARK minimizedAffinity 5.7544446
REMARK minimizedRMSD -1
REMARK  1 active torsions:
REMARK  status: ('A' for Active; 'I' for Inactive)
REMARK    1  A    between atoms: C3_4  and  O_7 
ROOT
ATOM      1  C   UNL d   1      -1.963  -0.955   2.348  0.00  0.00    -0.033 A 
ATOM      2  C1  UNL d   1      -3.212  -1.308   2.864  0.00  0.00     0.039 A 
ATOM      3  C2  UNL d   1      -4.078  -0.321   3.338  0.00  0.00    -0.080 A 
ATOM      4  C3  UNL d   1      -3.685   1.013   3.289  0.00  0.00     0.150 A 
ATOM      5  C4  UNL d   1      -2.444   1.373   2.773  0.00  0.00    -0.007 A 
ATOM      6  C5  UNL d   1      -1.580   0.385   2.301  0.00  0.00     0.039 A 
ENDROOT
BRANCH   4   7
ATOM      7  O   UNL d   1      -4.494   2.012   3.744  0.00  0.00    -0.526 OA
ATOM      8  H5  UNL d   1      -5.306   1.612   4.099  0.00  0.00     0.418 HD
ENDBRANCH   4   7
TORSDOF 1
ENDMDL
