MODEL 1
REMARK minimizedAffinity 8.40302467
REMARK minimizedRMSD -1
REMARK  1 active torsions:
REMARK  status: ('A' for Active; 'I' for Inactive)
REMARK    1  A    between atoms: C3_4  and  O_7 
ROOT
ATOM      1  C   UNL d   1      -4.804  -5.154   0.574  0.00  0.00    -0.033 A 
ATOM      2  C1  UNL d   1      -3.624  -5.019   1.308  0.00  0.00     0.039 A 
ATOM      3  C2  UNL d   1      -3.386  -3.856   2.043  0.00  0.00    -0.080 A 
ATOM      4  C3  UNL d   1      -4.336  -2.838   2.037  0.00  0.00     0.150 A 
ATOM      5  C4  UNL d   1      -5.515  -2.967   1.312  0.00  0.00    -0.007 A 
ATOM      6  C5  UNL d   1      -5.750  -4.129   0.577  0.00  0.00     0.039 A 
ENDROOT
BRANCH   4   7
ATOM      7  O   UNL d   1      -4.146  -1.683   2.736  0.00  0.00    -0.526 OA
ATOM      8  H5  UNL d   1      -3.275  -1.722   3.166  0.00  0.00     0.418 HD
ENDBRANCH   4   7
TORSDOF 1
ENDMDL
