MODEL 1
REMARK minimizedAffinity 4.17849207
REMARK minimizedRMSD -1
REMARK  1 active torsions:
REMARK  status: ('A' for Active; 'I' for Inactive)
REMARK    1  A    between atoms: C3_4  and  O_7 
ROOT
ATOM      1  C   UNL d   1      -1.885   0.742  -3.878  0.00  0.00    -0.033 A 
ATOM      2  C1  UNL d   1      -1.941   0.686  -5.272  0.00  0.00     0.039 A 
ATOM      3  C2  UNL d   1      -2.382   1.793  -6.000  0.00  0.00    -0.080 A 
ATOM      4  C3  UNL d   1      -2.761   2.949  -5.323  0.00  0.00     0.150 A 
ATOM      5  C4  UNL d   1      -2.704   3.013  -3.934  0.00  0.00    -0.007 A 
ATOM      6  C5  UNL d   1      -2.265   1.906  -3.209  0.00  0.00     0.039 A 
ENDROOT
BRANCH   4   7
ATOM      7  O   UNL d   1      -3.203   4.053  -5.989  0.00  0.00    -0.526 OA
ATOM      8  H5  UNL d   1      -3.216   3.853  -6.940  0.00  0.00     0.418 HD
ENDBRANCH   4   7
TORSDOF 1
ENDMDL
