MODEL 1
REMARK minimizedAffinity 1.90990436
REMARK minimizedRMSD -1
REMARK  1 active torsions:
REMARK  status: ('A' for Active; 'I' for Inactive)
REMARK    1  A    between atoms: C3_4  and  O_7 
ROOT
ATOM      1  C   UNL d   1      -5.990  -5.071  -5.973  0.00  0.00    -0.033 A 
ATOM      2  C1  UNL d   1      -5.737  -3.698  -5.949  0.00  0.00     0.039 A 
ATOM      3  C2  UNL d   1      -4.422  -3.229  -5.948  0.00  0.00    -0.080 A 
ATOM      4  C3  UNL d   1      -3.371  -4.141  -5.972  0.00  0.00     0.150 A 
ATOM      5  C4  UNL d   1      -3.616  -5.510  -5.999  0.00  0.00    -0.007 A 
ATOM      6  C5  UNL d   1      -4.929  -5.977  -5.999  0.00  0.00     0.039 A 
ENDROOT
BRANCH   4   7
ATOM      7  O   UNL d   1      -2.071  -3.731  -5.967  0.00  0.00    -0.526 OA
ATOM      8  H5  UNL d   1      -2.055  -2.760  -5.918  0.00  0.00     0.418 HD
ENDBRANCH   4   7
TORSDOF 1
ENDMDL
