MODEL 1
REMARK minimizedAffinity 6.54720163
REMARK minimizedRMSD -1
REMARK  1 active torsions:
REMARK  status: ('A' for Active; 'I' for Inactive)
REMARK    1  A    between atoms: C3_4  and  O_7 
ROOT
ATOM      1  C   UNL d   1      -2.891   0.160   3.463  0.00  0.00    -0.033 A 
ATOM      2  C1  UNL d   1      -3.449  -0.983   4.038  0.00  0.00     0.039 A 
ATOM      3  C2  UNL d   1      -4.497  -1.649   3.398  0.00  0.00    -0.080 A 
ATOM      4  C3  UNL d   1      -4.976  -1.162   2.185  0.00  0.00     0.150 A 
ATOM      5  C4  UNL d   1      -4.422  -0.026   1.604  0.00  0.00    -0.007 A 
ATOM      6  C5  UNL d   1      -3.377   0.638   2.245  0.00  0.00     0.039 A 
ENDROOT
BRANCH   4   7
ATOM      7  O   UNL d   1      -6.000  -1.775   1.526  0.00  0.00    -0.526 OA
ATOM      8  H5  UNL d   1      -6.301  -2.529   2.059  0.00  0.00     0.418 HD
ENDBRANCH   4   7
TORSDOF 1
ENDMDL
