MODEL 1
REMARK minimizedAffinity 3.59458065
REMARK minimizedRMSD -1
REMARK  1 active torsions:
REMARK  status: ('A' for Active; 'I' for Inactive)
REMARK    1  A    between atoms: C3_4  and  O_7 
ROOT
ATOM      1  C   UNL d   1       1.993  -0.083  -2.232  0.00  0.00    -0.033 A 
ATOM      2  C1  UNL d   1       2.726   0.186  -1.075  0.00  0.00     0.039 A 
ATOM      3  C2  UNL d   1       3.093  -0.855  -0.221  0.00  0.00    -0.080 A 
ATOM      4  C3  UNL d   1       2.723  -2.160  -0.535  0.00  0.00     0.150 A 
ATOM      5  C4  UNL d   1       1.996  -2.436  -1.689  0.00  0.00    -0.007 A 
ATOM      6  C5  UNL d   1       1.630  -1.394  -2.540  0.00  0.00     0.039 A 
ENDROOT
BRANCH   4   7
ATOM      7  O   UNL d   1       3.054  -3.209   0.270  0.00  0.00    -0.526 OA
ATOM      8  H5  UNL d   1       3.530  -2.864   1.044  0.00  0.00     0.418 HD
ENDBRANCH   4   7
TORSDOF 1
ENDMDL
