MODEL 1
REMARK minimizedAffinity 1.62880743
REMARK minimizedRMSD -1
REMARK  1 active torsions:
REMARK  status: ('A' for Active; 'I' for Inactive)
REMARK    1  A    between atoms: C3_4  and  O_7 
ROOT
ATOM      1  C   UNL d   1       1.957  -1.679  -0.748  0.00  0.00    -0.033 A 
ATOM      2  C1  UNL d   1       1.723  -3.055  -0.758  0.00  0.00     0.039 A 
ATOM      3  C2  UNL d   1       1.907  -3.788  -1.933  0.00  0.00    -0.080 A 
ATOM      4  C3  UNL d   1       2.325  -3.133  -3.088  0.00  0.00     0.150 A 
ATOM      5  C4  UNL d   1       2.564  -1.763  -3.084  0.00  0.00    -0.007 A 
ATOM      6  C5  UNL d   1       2.379  -1.033  -1.910  0.00  0.00     0.039 A 
ENDROOT
BRANCH   4   7
ATOM      7  O   UNL d   1       2.513  -3.805  -4.259  0.00  0.00    -0.526 OA
ATOM      8  H5  UNL d   1       2.283  -4.738  -4.119  0.00  0.00     0.418 HD
ENDBRANCH   4   7
TORSDOF 1
ENDMDL
