MODEL 1
REMARK minimizedAffinity 1.21556866
REMARK minimizedRMSD -1
REMARK  1 active torsions:
REMARK  status: ('A' for Active; 'I' for Inactive)
REMARK    1  A    between atoms: C3_4  and  O_7 
ROOT
ATOM      1  C   UNL d   1       1.015  -2.360  -2.154  0.00  0.00    -0.033 A 
ATOM      2  C1  UNL d   1       1.833  -1.228  -2.138  0.00  0.00     0.039 A 
ATOM      3  C2  UNL d   1       2.934  -1.173  -1.280  0.00  0.00    -0.080 A 
ATOM      4  C3  UNL d   1       3.206  -2.255  -0.447  0.00  0.00     0.150 A 
ATOM      5  C4  UNL d   1       2.397  -3.387  -0.461  0.00  0.00    -0.007 A 
ATOM      6  C5  UNL d   1       1.298  -3.439  -1.317  0.00  0.00     0.039 A 
ENDROOT
BRANCH   4   7
ATOM      7  O   UNL d   1       4.266  -2.245   0.410  0.00  0.00    -0.526 OA
ATOM      8  H5  UNL d   1       4.718  -1.388   0.331  0.00  0.00     0.418 HD
ENDBRANCH   4   7
TORSDOF 1
ENDMDL
