MODEL 1
REMARK minimizedAffinity 0.00869195163
REMARK minimizedRMSD -1
REMARK  1 active torsions:
REMARK  status: ('A' for Active; 'I' for Inactive)
REMARK    1  A    between atoms: C3_4  and  O_7 
ROOT
ATOM      1  C   UNL d   1       3.518  -3.505  -4.158  0.00  0.00    -0.033 A 
ATOM      2  C1  UNL d   1       4.167  -4.464  -3.378  0.00  0.00     0.039 A 
ATOM      3  C2  UNL d   1       3.807  -4.638  -2.040  0.00  0.00    -0.080 A 
ATOM      4  C3  UNL d   1       2.798  -3.850  -1.496  0.00  0.00     0.150 A 
ATOM      5  C4  UNL d   1       2.144  -2.895  -2.268  0.00  0.00    -0.007 A 
ATOM      6  C5  UNL d   1       2.505  -2.722  -3.604  0.00  0.00     0.039 A 
ENDROOT
BRANCH   4   7
ATOM      7  O   UNL d   1       2.415  -3.981  -0.194  0.00  0.00    -0.526 OA
ATOM      8  H5  UNL d   1       2.973  -4.658   0.224  0.00  0.00     0.418 HD
ENDBRANCH   4   7
TORSDOF 1
ENDMDL
