MODEL 1
REMARK minimizedAffinity 6.18185282
REMARK minimizedRMSD -1
REMARK  1 active torsions:
REMARK  status: ('A' for Active; 'I' for Inactive)
REMARK    1  A    between atoms: C3_4  and  O_7 
ROOT
ATOM      1  C   UNL d   1       2.090  -0.964  -2.869  0.00  0.00    -0.033 A 
ATOM      2  C1  UNL d   1       2.208  -0.494  -1.560  0.00  0.00     0.039 A 
ATOM      3  C2  UNL d   1       2.790  -1.298  -0.578  0.00  0.00    -0.080 A 
ATOM      4  C3  UNL d   1       3.251  -2.566  -0.918  0.00  0.00     0.150 A 
ATOM      5  C4  UNL d   1       3.141  -3.039  -2.221  0.00  0.00    -0.007 A 
ATOM      6  C5  UNL d   1       2.558  -2.236  -3.200  0.00  0.00     0.039 A 
ENDROOT
BRANCH   4   7
ATOM      7  O   UNL d   1       3.823  -3.389   0.008  0.00  0.00    -0.526 OA
ATOM      8  H5  UNL d   1       3.806  -2.941   0.870  0.00  0.00     0.418 HD
ENDBRANCH   4   7
TORSDOF 1
ENDMDL
