MODEL 1
REMARK minimizedAffinity 7.70320559
REMARK minimizedRMSD -1
REMARK  1 active torsions:
REMARK  status: ('A' for Active; 'I' for Inactive)
REMARK    1  A    between atoms: C3_4  and  O_7 
ROOT
ATOM      1  C   UNL d   1       1.570  -1.255  -3.314  0.00  0.00    -0.033 A 
ATOM      2  C1  UNL d   1       1.858  -0.470  -2.196  0.00  0.00     0.039 A 
ATOM      3  C2  UNL d   1       2.245  -1.075  -0.998  0.00  0.00    -0.080 A 
ATOM      4  C3  UNL d   1       2.342  -2.462  -0.933  0.00  0.00     0.150 A 
ATOM      5  C4  UNL d   1       2.060  -3.249  -2.044  0.00  0.00    -0.007 A 
ATOM      6  C5  UNL d   1       1.672  -2.644  -3.239  0.00  0.00     0.039 A 
ENDROOT
BRANCH   4   7
ATOM      7  O   UNL d   1       2.712  -3.097   0.215  0.00  0.00    -0.526 OA
ATOM      8  H5  UNL d   1       2.847  -2.428   0.907  0.00  0.00     0.418 HD
ENDBRANCH   4   7
TORSDOF 1
ENDMDL
