MODEL 1
REMARK minimizedAffinity 3.43596601
REMARK minimizedRMSD -1
REMARK  1 active torsions:
REMARK  status: ('A' for Active; 'I' for Inactive)
REMARK    1  A    between atoms: C3_4  and  O_7 
ROOT
ATOM      1  C   UNL d   1       1.444  -1.450  -2.795  0.00  0.00    -0.033 A 
ATOM      2  C1  UNL d   1       1.457  -2.841  -2.924  0.00  0.00     0.039 A 
ATOM      3  C2  UNL d   1       1.948  -3.636  -1.886  0.00  0.00    -0.080 A 
ATOM      4  C3  UNL d   1       2.420  -3.029  -0.726  0.00  0.00     0.150 A 
ATOM      5  C4  UNL d   1       2.407  -1.645  -0.589  0.00  0.00    -0.007 A 
ATOM      6  C5  UNL d   1       1.918  -0.853  -1.626  0.00  0.00     0.039 A 
ENDROOT
BRANCH   4   7
ATOM      7  O   UNL d   1       2.913  -3.763   0.312  0.00  0.00    -0.526 OA
ATOM      8  H5  UNL d   1       2.887  -4.702   0.064  0.00  0.00     0.418 HD
ENDBRANCH   4   7
TORSDOF 1
ENDMDL
