MODEL 1
REMARK minimizedAffinity 4.55664062
REMARK minimizedRMSD -1
REMARK  0 active torsions:
REMARK  status: ('A' for Active; 'I' for Inactive)
ROOT
ATOM      1  C   UNL d   1      -0.203   2.777   1.111  0.00  0.00     0.078 C 
ATOM      2  C1  UNL d   1      -0.454   3.639  -0.090  0.00  0.00    -0.077 A 
ATOM      3  C2  UNL d   1      -1.547   4.513  -0.134  0.00  0.00    -0.001 A 
ATOM      4  C3  UNL d   1      -1.775   5.303  -1.262  0.00  0.00     0.003 A 
ATOM      5  C4  UNL d   1      -0.915   5.225  -2.356  0.00  0.00    -0.005 A 
ATOM      6  C5  UNL d   1       0.174   4.356  -2.322  0.00  0.00     0.003 A 
ATOM      7  C6  UNL d   1       0.404   3.566  -1.195  0.00  0.00    -0.001 A 
ENDROOT
TORSDOF 0
ENDMDL
