MODEL 1
REMARK minimizedAffinity 1.8191036
REMARK minimizedRMSD -1
REMARK  0 active torsions:
REMARK  status: ('A' for Active; 'I' for Inactive)
ROOT
ATOM      1  C   UNL d   1       0.124   5.719  -3.238  0.00  0.00     0.078 C 
ATOM      2  C1  UNL d   1       0.166   4.798  -2.055  0.00  0.00    -0.077 A 
ATOM      3  C2  UNL d   1       1.007   5.061  -0.967  0.00  0.00    -0.001 A 
ATOM      4  C3  UNL d   1       1.043   4.191   0.124  0.00  0.00     0.003 A 
ATOM      5  C4  UNL d   1       0.242   3.051   0.136  0.00  0.00    -0.005 A 
ATOM      6  C5  UNL d   1      -0.597   2.780  -0.944  0.00  0.00     0.003 A 
ATOM      7  C6  UNL d   1      -0.634   3.649  -2.035  0.00  0.00    -0.001 A 
ENDROOT
TORSDOF 0
ENDMDL
