MODEL 1
REMARK minimizedAffinity 7.12552547
REMARK minimizedRMSD -1
REMARK  0 active torsions:
REMARK  status: ('A' for Active; 'I' for Inactive)
ROOT
ATOM      1  C   UNL d   1       0.858  -5.692  -1.403  0.00  0.00     0.078 C 
ATOM      2  C1  UNL d   1       0.190  -4.462  -1.940  0.00  0.00    -0.077 A 
ATOM      3  C2  UNL d   1       0.000  -3.333  -1.133  0.00  0.00    -0.001 A 
ATOM      4  C3  UNL d   1      -0.632  -2.198  -1.644  0.00  0.00     0.003 A 
ATOM      5  C4  UNL d   1      -1.080  -2.181  -2.963  0.00  0.00    -0.005 A 
ATOM      6  C5  UNL d   1      -0.897  -3.300  -3.773  0.00  0.00     0.003 A 
ATOM      7  C6  UNL d   1      -0.266  -4.436  -3.264  0.00  0.00    -0.001 A 
ENDROOT
TORSDOF 0
ENDMDL
