MODEL 1
REMARK minimizedAffinity -1.11720359
REMARK minimizedRMSD -1
REMARK  0 active torsions:
REMARK  status: ('A' for Active; 'I' for Inactive)
ROOT
ATOM      1  C   UNL d   1      -4.135   5.681  -4.626  0.00  0.00     0.078 C 
ATOM      2  C1  UNL d   1      -4.781   4.517  -3.936  0.00  0.00    -0.077 A 
ATOM      3  C2  UNL d   1      -5.393   3.493  -4.670  0.00  0.00    -0.001 A 
ATOM      4  C3  UNL d   1      -5.999   2.420  -4.015  0.00  0.00     0.003 A 
ATOM      5  C4  UNL d   1      -6.000   2.361  -2.622  0.00  0.00    -0.005 A 
ATOM      6  C5  UNL d   1      -5.395   3.376  -1.884  0.00  0.00     0.003 A 
ATOM      7  C6  UNL d   1      -4.788   4.450  -2.537  0.00  0.00    -0.001 A 
ENDROOT
TORSDOF 0
ENDMDL
