MODEL 1
REMARK minimizedAffinity 7.01597261
REMARK minimizedRMSD -1
REMARK  0 active torsions:
REMARK  status: ('A' for Active; 'I' for Inactive)
ROOT
ATOM      1  C   UNL d   1       2.562  -1.900   0.133  0.00  0.00     0.078 C 
ATOM      2  C1  UNL d   1       3.703  -2.767  -0.310  0.00  0.00    -0.077 A 
ATOM      3  C2  UNL d   1       3.656  -4.157  -0.152  0.00  0.00    -0.001 A 
ATOM      4  C3  UNL d   1       4.729  -4.951  -0.559  0.00  0.00     0.003 A 
ATOM      5  C4  UNL d   1       5.858  -4.363  -1.126  0.00  0.00    -0.005 A 
ATOM      6  C5  UNL d   1       5.915  -2.980  -1.285  0.00  0.00     0.003 A 
ATOM      7  C6  UNL d   1       4.843  -2.184  -0.878  0.00  0.00    -0.001 A 
ENDROOT
TORSDOF 0
ENDMDL
