MODEL 1
REMARK minimizedAffinity 1.63910353
REMARK minimizedRMSD -1
REMARK  0 active torsions:
REMARK  status: ('A' for Active; 'I' for Inactive)
ROOT
ATOM      1  C   UNL d   1      -6.000   2.607  -0.638  0.00  0.00     0.078 C 
ATOM      2  C1  UNL d   1      -5.736   2.968  -2.070  0.00  0.00    -0.077 A 
ATOM      3  C2  UNL d   1      -5.998   2.059  -3.103  0.00  0.00    -0.001 A 
ATOM      4  C3  UNL d   1      -5.739   2.405  -4.430  0.00  0.00     0.003 A 
ATOM      5  C4  UNL d   1      -5.215   3.659  -4.736  0.00  0.00    -0.005 A 
ATOM      6  C5  UNL d   1      -4.948   4.569  -3.715  0.00  0.00     0.003 A 
ATOM      7  C6  UNL d   1      -5.207   4.225  -2.388  0.00  0.00    -0.001 A 
ENDROOT
TORSDOF 0
ENDMDL
