MODEL 1
REMARK minimizedAffinity -0.079948239
REMARK minimizedRMSD -1
REMARK  0 active torsions:
REMARK  status: ('A' for Active; 'I' for Inactive)
ROOT
ATOM      1  C   UNL d   1      -0.001   2.347   0.723  0.00  0.00     0.078 C 
ATOM      2  C1  UNL d   1      -0.390   3.597  -0.008  0.00  0.00    -0.077 A 
ATOM      3  C2  UNL d   1      -0.750   3.559  -1.361  0.00  0.00    -0.001 A 
ATOM      4  C3  UNL d   1      -1.100   4.732  -2.031  0.00  0.00     0.003 A 
ATOM      5  C4  UNL d   1      -1.092   5.952  -1.357  0.00  0.00    -0.005 A 
ATOM      6  C5  UNL d   1      -0.733   6.000  -0.012  0.00  0.00     0.003 A 
ATOM      7  C6  UNL d   1      -0.383   4.828   0.660  0.00  0.00    -0.001 A 
ENDROOT
TORSDOF 0
ENDMDL
