MODEL 1
REMARK minimizedAffinity 0.450648069
REMARK minimizedRMSD -1
REMARK  0 active torsions:
REMARK  status: ('A' for Active; 'I' for Inactive)
ROOT
ATOM      1  C   UNL d   1       0.321   2.988   0.082  0.00  0.00     0.078 C 
ATOM      2  C1  UNL d   1      -0.308   4.040  -0.782  0.00  0.00    -0.077 A 
ATOM      3  C2  UNL d   1      -1.126   5.033  -0.230  0.00  0.00    -0.001 A 
ATOM      4  C3  UNL d   1      -1.712   6.000  -1.048  0.00  0.00     0.003 A 
ATOM      5  C4  UNL d   1      -1.488   5.983  -2.423  0.00  0.00    -0.005 A 
ATOM      6  C5  UNL d   1      -0.677   4.997  -2.982  0.00  0.00     0.003 A 
ATOM      7  C6  UNL d   1      -0.089   4.029  -2.166  0.00  0.00    -0.001 A 
ENDROOT
TORSDOF 0
ENDMDL
