MODEL 1
REMARK minimizedAffinity 3.44443011
REMARK minimizedRMSD -1
REMARK  0 active torsions:
REMARK  status: ('A' for Active; 'I' for Inactive)
ROOT
ATOM      1  C   UNL d   1      -1.180   5.294  -1.626  0.00  0.00     0.078 C 
ATOM      2  C1  UNL d   1      -0.119   4.768  -0.705  0.00  0.00    -0.077 A 
ATOM      3  C2  UNL d   1      -0.427   3.834   0.291  0.00  0.00    -0.001 A 
ATOM      4  C3  UNL d   1       0.568   3.361   1.147  0.00  0.00     0.003 A 
ATOM      5  C4  UNL d   1       1.878   3.818   1.018  0.00  0.00    -0.005 A 
ATOM      6  C5  UNL d   1       2.194   4.750   0.031  0.00  0.00     0.003 A 
ATOM      7  C6  UNL d   1       1.200   5.224  -0.826  0.00  0.00    -0.001 A 
ENDROOT
TORSDOF 0
ENDMDL
