MODEL 1
REMARK minimizedAffinity -1.61515963
REMARK minimizedRMSD -1
REMARK  0 active torsions:
REMARK  status: ('A' for Active; 'I' for Inactive)
ROOT
ATOM      1  C   UNL d   1      -1.383  -1.402   0.796  0.00  0.00    -0.002 A 
ATOM      2  C1  UNL d   1      -1.226  -2.769   0.974  0.00  0.00     0.010 A 
ATOM      3  C2  UNL d   1       0.028  -3.365   0.826  0.00  0.00     0.041 A 
ATOM      4  C3  UNL d   1       1.132  -2.556   0.495  0.00  0.00    -0.075 A 
ATOM      5  S   UNL d   1       2.763  -3.066   0.264  0.00  0.00     0.015 SA
ATOM      6  C4  UNL d   1       3.289  -1.481  -0.075  0.00  0.00     0.022 A 
ATOM      7  C5  UNL d   1       2.259  -0.572  -0.018  0.00  0.00     0.026 A 
ATOM      8  C6  UNL d   1       0.999  -1.176   0.312  0.00  0.00    -0.082 A 
ATOM      9  C7  UNL d   1      -0.285  -0.602   0.468  0.00  0.00     0.045 A 
ENDROOT
TORSDOF 0
ENDMDL
