MODEL 1
REMARK minimizedAffinity 1.26223111
REMARK minimizedRMSD -1
REMARK  0 active torsions:
REMARK  status: ('A' for Active; 'I' for Inactive)
ROOT
ATOM      1  C   UNL d   1      -0.679  -2.002   0.833  0.00  0.00    -0.002 A 
ATOM      2  C1  UNL d   1       0.029  -0.815   0.960  0.00  0.00     0.010 A 
ATOM      3  C2  UNL d   1       1.412  -0.789   0.769  0.00  0.00     0.041 A 
ATOM      4  C3  UNL d   1       2.077  -1.987   0.443  0.00  0.00    -0.075 A 
ATOM      5  S   UNL d   1       3.766  -2.196   0.163  0.00  0.00     0.015 SA
ATOM      6  C4  UNL d   1       3.587  -3.864  -0.133  0.00  0.00     0.022 A 
ATOM      7  C5  UNL d   1       2.277  -4.270  -0.024  0.00  0.00     0.026 A 
ATOM      8  C6  UNL d   1       1.386  -3.195   0.309  0.00  0.00    -0.082 A 
ATOM      9  C7  UNL d   1      -0.016  -3.188   0.510  0.00  0.00     0.045 A 
ENDROOT
TORSDOF 0
ENDMDL
