MODEL 1
REMARK minimizedAffinity 2.68178844
REMARK minimizedRMSD -1
REMARK  0 active torsions:
REMARK  status: ('A' for Active; 'I' for Inactive)
ROOT
ATOM      1  C   UNL d   1      -0.682  -0.173   0.986  0.00  0.00    -0.002 A 
ATOM      2  C1  UNL d   1       0.590   0.338   1.206  0.00  0.00     0.010 A 
ATOM      3  C2  UNL d   1       1.710  -0.493   1.143  0.00  0.00     0.041 A 
ATOM      4  C3  UNL d   1       1.530  -1.859   0.849  0.00  0.00    -0.075 A 
ATOM      5  S   UNL d   1       2.755  -3.064   0.719  0.00  0.00     0.015 SA
ATOM      6  C4  UNL d   1       1.620  -4.286   0.366  0.00  0.00     0.022 A 
ATOM      7  C5  UNL d   1       0.333  -3.804   0.345  0.00  0.00     0.026 A 
ATOM      8  C6  UNL d   1       0.260  -2.397   0.623  0.00  0.00    -0.082 A 
ATOM      9  C7  UNL d   1      -0.856  -1.529   0.695  0.00  0.00     0.045 A 
ENDROOT
TORSDOF 0
ENDMDL
