MODEL 1
REMARK minimizedAffinity -0.743649662
REMARK minimizedRMSD -1
REMARK  0 active torsions:
REMARK  status: ('A' for Active; 'I' for Inactive)
ROOT
ATOM      1  C   UNL d   1       3.029  -3.059  -0.408  0.00  0.00    -0.002 A 
ATOM      2  C1  UNL d   1       1.988  -3.975  -0.452  0.00  0.00     0.010 A 
ATOM      3  C2  UNL d   1       0.699  -3.605  -0.061  0.00  0.00     0.041 A 
ATOM      4  C3  UNL d   1       0.473  -2.285   0.377  0.00  0.00    -0.075 A 
ATOM      5  S   UNL d   1      -1.022  -1.606   0.903  0.00  0.00     0.015 SA
ATOM      6  C4  UNL d   1      -0.314  -0.084   1.197  0.00  0.00     0.022 A 
ATOM      7  C5  UNL d   1       1.030  -0.076   0.907  0.00  0.00     0.026 A 
ATOM      8  C6  UNL d   1       1.505  -1.344   0.429  0.00  0.00    -0.082 A 
ATOM      9  C7  UNL d   1       2.800  -1.750   0.027  0.00  0.00     0.045 A 
ENDROOT
TORSDOF 0
ENDMDL
