MODEL 1
REMARK minimizedAffinity 5.88846827
REMARK minimizedRMSD -1
REMARK  0 active torsions:
REMARK  status: ('A' for Active; 'I' for Inactive)
ROOT
ATOM      1  C   UNL d   1      -1.924   0.910   2.301  0.00  0.00    -0.002 A 
ATOM      2  C1  UNL d   1      -2.834   0.335   1.426  0.00  0.00     0.010 A 
ATOM      3  C2  UNL d   1      -2.481  -0.784   0.668  0.00  0.00     0.041 A 
ATOM      4  C3  UNL d   1      -1.187  -1.322   0.809  0.00  0.00    -0.075 A 
ATOM      5  S   UNL d   1      -0.534  -2.688  -0.015  0.00  0.00     0.015 SA
ATOM      6  C4  UNL d   1       0.968  -2.542   0.777  0.00  0.00     0.022 A 
ATOM      7  C5  UNL d   1       0.989  -1.481   1.651  0.00  0.00     0.026 A 
ATOM      8  C6  UNL d   1      -0.253  -0.761   1.685  0.00  0.00    -0.082 A 
ATOM      9  C7  UNL d   1      -0.640   0.374   2.438  0.00  0.00     0.045 A 
ENDROOT
TORSDOF 0
ENDMDL
