MODEL 1
REMARK minimizedAffinity 5.6794672
REMARK minimizedRMSD -1
REMARK  0 active torsions:
REMARK  status: ('A' for Active; 'I' for Inactive)
ROOT
ATOM      1  C   UNL d   1      -0.665  -0.280   1.320  0.00  0.00    -0.002 A 
ATOM      2  C1  UNL d   1       0.568   0.353   1.251  0.00  0.00     0.010 A 
ATOM      3  C2  UNL d   1       1.708  -0.354   0.861  0.00  0.00     0.041 A 
ATOM      4  C3  UNL d   1       1.586  -1.720   0.538  0.00  0.00    -0.075 A 
ATOM      5  S   UNL d   1       2.844  -2.785   0.035  0.00  0.00     0.015 SA
ATOM      6  C4  UNL d   1       1.774  -4.105  -0.100  0.00  0.00     0.022 A 
ATOM      7  C5  UNL d   1       0.485  -3.759   0.227  0.00  0.00     0.026 A 
ATOM      8  C6  UNL d   1       0.355  -2.378   0.600  0.00  0.00    -0.082 A 
ATOM      9  C7  UNL d   1      -0.782  -1.635   0.999  0.00  0.00     0.045 A 
ENDROOT
TORSDOF 0
ENDMDL
