MODEL 1
REMARK minimizedAffinity -0.498895794
REMARK minimizedRMSD -1
REMARK  0 active torsions:
REMARK  status: ('A' for Active; 'I' for Inactive)
ROOT
ATOM      1  C   UNL d   1      -0.733  -1.173   0.971  0.00  0.00    -0.002 A 
ATOM      2  C1  UNL d   1       0.193  -0.143   1.062  0.00  0.00     0.010 A 
ATOM      3  C2  UNL d   1       1.552  -0.390   0.862  0.00  0.00     0.041 A 
ATOM      4  C3  UNL d   1       1.970  -1.702   0.565  0.00  0.00    -0.075 A 
ATOM      5  S   UNL d   1       3.584  -2.240   0.280  0.00  0.00     0.015 SA
ATOM      6  C4  UNL d   1       3.082  -3.849   0.030  0.00  0.00     0.022 A 
ATOM      7  C5  UNL d   1       1.721  -3.991   0.157  0.00  0.00     0.026 A 
ATOM      8  C6  UNL d   1       1.057  -2.756   0.467  0.00  0.00    -0.082 A 
ATOM      9  C7  UNL d   1      -0.314  -2.473   0.675  0.00  0.00     0.045 A 
ENDROOT
TORSDOF 0
ENDMDL
