MODEL 1
REMARK minimizedAffinity 3.95698333
REMARK minimizedRMSD -1
REMARK  0 active torsions:
REMARK  status: ('A' for Active; 'I' for Inactive)
ROOT
ATOM      1  O1  BZF d   1       4.154   1.284  -2.850  0.00  0.00    -0.204 OA
ATOM      2  C2  BZF d   1       4.402   2.173  -1.822  0.00  0.00     0.174 A 
ATOM      3  C3  BZF d   1       3.751   1.802  -0.701  0.00  0.00    -0.012 A 
ATOM      4  C3A BZF d   1       3.126   0.557  -1.024  0.00  0.00    -0.107 A 
ATOM      5  C4  BZF d   1       2.349  -0.315  -0.315  0.00  0.00     0.055 A 
ATOM      6  C5  BZF d   1       1.837  -1.405  -0.945  0.00  0.00    -0.016 A 
ATOM      7  C6  BZF d   1       2.076  -1.651  -2.281  0.00  0.00     0.022 A 
ATOM      8  C7  BZF d   1       2.845  -0.817  -3.024  0.00  0.00     0.029 A 
ATOM      9  C7A BZF d   1       3.391   0.267  -2.382  0.00  0.00     0.058 A 
ENDROOT
TORSDOF 0
ENDMDL
