MODEL 1
REMARK minimizedAffinity -3.70220923
REMARK minimizedRMSD -1
REMARK  0 active torsions:
REMARK  status: ('A' for Active; 'I' for Inactive)
ROOT
ATOM      1  O1  BZF d   1       3.945   0.959  -2.602  0.00  0.00    -0.204 OA
ATOM      2  C2  BZF d   1       3.972  -0.190  -3.367  0.00  0.00     0.174 A 
ATOM      3  C3  BZF d   1       3.175  -1.139  -2.833  0.00  0.00    -0.012 A 
ATOM      4  C3A BZF d   1       2.544  -0.514  -1.712  0.00  0.00    -0.107 A 
ATOM      5  C4  BZF d   1       1.632  -0.940  -0.790  0.00  0.00     0.055 A 
ATOM      6  C5  BZF d   1       1.276  -0.105   0.222  0.00  0.00    -0.016 A 
ATOM      7  C6  BZF d   1       1.816   1.158   0.345  0.00  0.00     0.022 A 
ATOM      8  C7  BZF d   1       2.721   1.627  -0.548  0.00  0.00     0.029 A 
ATOM      9  C7A BZF d   1       3.058   0.798  -1.590  0.00  0.00     0.058 A 
ENDROOT
TORSDOF 0
ENDMDL
