MODEL 1
REMARK minimizedAffinity 7.73443413
REMARK minimizedRMSD -1
REMARK  0 active torsions:
REMARK  status: ('A' for Active; 'I' for Inactive)
ROOT
ATOM      1  O1  BZF d   1       3.596   0.353  -0.965  0.00  0.00    -0.204 OA
ATOM      2  C2  BZF d   1       2.249   0.566  -0.744  0.00  0.00     0.174 A 
ATOM      3  C3  BZF d   1       2.032   1.810  -0.272  0.00  0.00    -0.012 A 
ATOM      4  C3A BZF d   1       3.315   2.444  -0.279  0.00  0.00    -0.107 A 
ATOM      5  C4  BZF d   1       3.746   3.694   0.064  0.00  0.00     0.055 A 
ATOM      6  C5  BZF d   1       5.075   3.971   0.009  0.00  0.00    -0.016 A 
ATOM      7  C6  BZF d   1       6.000   3.024  -0.378  0.00  0.00     0.022 A 
ATOM      8  C7  BZF d   1       5.619   1.772  -0.733  0.00  0.00     0.029 A 
ATOM      9  C7A BZF d   1       4.273   1.498  -0.710  0.00  0.00     0.058 A 
ENDROOT
TORSDOF 0
ENDMDL
