MODEL 1
REMARK minimizedAffinity 0.922324002
REMARK minimizedRMSD -1
REMARK  0 active torsions:
REMARK  status: ('A' for Active; 'I' for Inactive)
ROOT
ATOM      1  O1  BZF d   1       3.915   0.873  -2.625  0.00  0.00    -0.204 OA
ATOM      2  C2  BZF d   1       4.005   1.916  -1.723  0.00  0.00     0.174 A 
ATOM      3  C3  BZF d   1       3.272   1.659  -0.620  0.00  0.00    -0.012 A 
ATOM      4  C3A BZF d   1       2.761   0.336  -0.808  0.00  0.00    -0.107 A 
ATOM      5  C4  BZF d   1       1.976  -0.484  -0.048  0.00  0.00     0.055 A 
ATOM      6  C5  BZF d   1       1.598  -1.689  -0.552  0.00  0.00    -0.016 A 
ATOM      7  C6  BZF d   1       1.983  -2.103  -1.810  0.00  0.00     0.022 A 
ATOM      8  C7  BZF d   1       2.766  -1.326  -2.598  0.00  0.00     0.029 A 
ATOM      9  C7A BZF d   1       3.176  -0.123  -2.079  0.00  0.00     0.058 A 
ENDROOT
TORSDOF 0
ENDMDL
