MODEL 1
REMARK minimizedAffinity 8.68733501
REMARK minimizedRMSD -1
REMARK  0 active torsions:
REMARK  status: ('A' for Active; 'I' for Inactive)
ROOT
ATOM      1  O1  BZF d   1       1.022  -1.318   2.142  0.00  0.00    -0.204 OA
ATOM      2  C2  BZF d   1       0.051  -1.829   2.981  0.00  0.00     0.174 A 
ATOM      3  C3  BZF d   1      -1.035  -2.211   2.278  0.00  0.00    -0.012 A 
ATOM      4  C3A BZF d   1      -0.687  -2.005   0.906  0.00  0.00    -0.107 A 
ATOM      5  C4  BZF d   1      -1.347  -2.214  -0.272  0.00  0.00     0.055 A 
ATOM      6  C5  BZF d   1      -0.755  -1.839  -1.436  0.00  0.00    -0.016 A 
ATOM      7  C6  BZF d   1       0.492  -1.250  -1.460  0.00  0.00     0.022 A 
ATOM      8  C7  BZF d   1       1.188  -1.028  -0.318  0.00  0.00     0.029 A 
ATOM      9  C7A BZF d   1       0.606  -1.435   0.858  0.00  0.00     0.058 A 
ENDROOT
TORSDOF 0
ENDMDL
