MODEL 1
REMARK minimizedAffinity 1.56475806
REMARK minimizedRMSD -1
REMARK  0 active torsions:
REMARK  status: ('A' for Active; 'I' for Inactive)
ROOT
ATOM      1  O1  BZF d   1       3.369   2.570  -0.533  0.00  0.00    -0.204 OA
ATOM      2  C2  BZF d   1       4.671   2.184  -0.787  0.00  0.00     0.174 A 
ATOM      3  C3  BZF d   1       4.763   0.842  -0.884  0.00  0.00    -0.012 A 
ATOM      4  C3A BZF d   1       3.419   0.364  -0.771  0.00  0.00    -0.107 A 
ATOM      5  C4  BZF d   1       2.859  -0.881  -0.807  0.00  0.00     0.055 A 
ATOM      6  C5  BZF d   1       1.523  -1.011  -0.591  0.00  0.00    -0.016 A 
ATOM      7  C6  BZF d   1       0.720   0.080  -0.332  0.00  0.00     0.022 A 
ATOM      8  C7  BZF d   1       1.229   1.336  -0.291  0.00  0.00     0.029 A 
ATOM      9  C7A BZF d   1       2.573   1.474  -0.541  0.00  0.00     0.058 A 
ENDROOT
TORSDOF 0
ENDMDL
