MODEL 1
REMARK minimizedAffinity 5.29008245
REMARK minimizedRMSD -1
REMARK  0 active torsions:
REMARK  status: ('A' for Active; 'I' for Inactive)
ROOT
ATOM      1  O1  BZF d   1       2.461   1.888  -0.786  0.00  0.00    -0.204 OA
ATOM      2  C2  BZF d   1       1.628   1.857   0.317  0.00  0.00     0.174 A 
ATOM      3  C3  BZF d   1       1.220   0.598   0.572  0.00  0.00    -0.012 A 
ATOM      4  C3A BZF d   1       1.909  -0.221  -0.377  0.00  0.00    -0.107 A 
ATOM      5  C4  BZF d   1       1.931  -1.566  -0.616  0.00  0.00     0.055 A 
ATOM      6  C5  BZF d   1       2.653  -2.038  -1.666  0.00  0.00    -0.016 A 
ATOM      7  C6  BZF d   1       3.359  -1.195  -2.499  0.00  0.00     0.022 A 
ATOM      8  C7  BZF d   1       3.372   0.145  -2.299  0.00  0.00     0.029 A 
ATOM      9  C7A BZF d   1       2.670   0.622  -1.219  0.00  0.00     0.058 A 
ENDROOT
TORSDOF 0
ENDMDL
