MODEL 1
REMARK minimizedAffinity 10.8903694
REMARK minimizedRMSD -1
REMARK  2 active torsions:
REMARK  status: ('A' for Active; 'I' for Inactive)
REMARK    1  A    between atoms: C2'_3  and  C1'_4 
REMARK    2  A    between atoms: C1'_4  and  C1_5 
ROOT
ATOM      1  C1  I4B d   1       1.717   0.096  -0.042  0.00  0.00    -0.075 A 
ATOM      2  C2  I4B d   1       2.482   0.546  -1.090  0.00  0.00     0.003 A 
ATOM      3  C3  I4B d   1       3.579   1.409  -0.852  0.00  0.00     0.002 A 
ATOM      4  C4  I4B d   1       3.842   1.835   0.433  0.00  0.00    -0.004 A 
ATOM      5  C5  I4B d   1       3.080   1.361   1.497  0.00  0.00     0.002 A 
ATOM      6  C6  I4B d   1       2.018   0.476   1.260  0.00  0.00     0.003 A 
ENDROOT
BRANCH   1   7
ATOM      7  C1' I4B d   1       0.546  -0.789  -0.332  0.00  0.00     0.060 C 
BRANCH   7   8
ATOM      8  C2' I4B d   1      -0.674   0.093  -0.503  0.00  0.00    -0.013 C 
ATOM      9  C4' I4B d   1      -1.837  -0.687  -1.058  0.00  0.00     0.013 C 
ATOM     10  C3' I4B d   1      -1.008   0.686   0.833  0.00  0.00     0.013 C 
ENDBRANCH   7   8
ENDBRANCH   1   7
TORSDOF 2
ENDMDL
