MODEL 1
REMARK minimizedAffinity 0.490836293
REMARK minimizedRMSD -1
REMARK  2 active torsions:
REMARK  status: ('A' for Active; 'I' for Inactive)
REMARK    1  A    between atoms: C2'_3  and  C1'_4 
REMARK    2  A    between atoms: C1'_4  and  C1_5 
ROOT
ATOM      1  C1  I4B d   1       0.055  -0.451   1.956  0.00  0.00    -0.075 A 
ATOM      2  C2  I4B d   1       0.234  -0.689   0.616  0.00  0.00     0.003 A 
ATOM      3  C3  I4B d   1      -0.797  -0.385  -0.306  0.00  0.00     0.002 A 
ATOM      4  C4  I4B d   1      -2.001   0.105   0.158  0.00  0.00    -0.004 A 
ATOM      5  C5  I4B d   1      -2.172   0.368   1.515  0.00  0.00     0.002 A 
ATOM      6  C6  I4B d   1      -1.133   0.100   2.418  0.00  0.00     0.003 A 
ENDROOT
BRANCH   1   7
ATOM      7  C1' I4B d   1       1.153  -0.815   2.905  0.00  0.00     0.060 C 
BRANCH   7   8
ATOM      8  C2' I4B d   1       0.524  -1.129   4.247  0.00  0.00    -0.013 C 
ATOM      9  C4' I4B d   1      -0.265  -2.411   4.194  0.00  0.00     0.013 C 
ATOM     10  C3' I4B d   1       1.622  -1.211   5.265  0.00  0.00     0.013 C 
ENDBRANCH   7   8
ENDBRANCH   1   7
TORSDOF 2
ENDMDL
