MODEL 1
REMARK minimizedAffinity 6.48293066
REMARK minimizedRMSD -1
REMARK  2 active torsions:
REMARK  status: ('A' for Active; 'I' for Inactive)
REMARK    1  A    between atoms: C2'_3  and  C1'_4 
REMARK    2  A    between atoms: C1'_4  and  C1_5 
ROOT
ATOM      1  C1  I4B d   1       0.117  -0.044   0.541  0.00  0.00    -0.075 A 
ATOM      2  C2  I4B d   1      -0.722   0.577   1.433  0.00  0.00     0.003 A 
ATOM      3  C3  I4B d   1      -2.105   0.691   1.150  0.00  0.00     0.002 A 
ATOM      4  C4  I4B d   1      -2.594   0.218  -0.050  0.00  0.00    -0.004 A 
ATOM      5  C5  I4B d   1      -1.746  -0.431  -0.943  0.00  0.00     0.002 A 
ATOM      6  C6  I4B d   1      -0.385  -0.575  -0.640  0.00  0.00     0.003 A 
ENDROOT
BRANCH   1   7
ATOM      7  C1' I4B d   1       1.577  -0.117   0.857  0.00  0.00     0.060 C 
BRANCH   7   8
ATOM      8  C2' I4B d   1       2.225   1.164   0.372  0.00  0.00    -0.013 C 
ATOM      9  C4' I4B d   1       2.885   1.904   1.505  0.00  0.00     0.013 C 
ATOM     10  C3' I4B d   1       3.218   0.805  -0.693  0.00  0.00     0.013 C 
ENDBRANCH   7   8
ENDBRANCH   1   7
TORSDOF 2
ENDMDL
