MODEL 1
REMARK minimizedAffinity 8.52704525
REMARK minimizedRMSD -1
REMARK  0 active torsions:
REMARK  status: ('A' for Active; 'I' for Inactive)
ROOT
ATOM      1  C   UNL d   1       0.197   0.251   1.504  0.00  0.00    -0.002 A 
ATOM      2  C1  UNL d   1       0.872   1.300   0.895  0.00  0.00     0.010 A 
ATOM      3  C2  UNL d   1       1.875   1.049  -0.043  0.00  0.00     0.041 A 
ATOM      4  C3  UNL d   1       2.191  -0.286  -0.364  0.00  0.00    -0.075 A 
ATOM      5  S   UNL d   1       3.382  -0.832  -1.484  0.00  0.00     0.015 SA
ATOM      6  C4  UNL d   1       3.022  -2.470  -1.182  0.00  0.00     0.022 A 
ATOM      7  C5  UNL d   1       2.020  -2.615  -0.251  0.00  0.00     0.026 A 
ATOM      8  C6  UNL d   1       1.524  -1.358   0.235  0.00  0.00    -0.082 A 
ATOM      9  C7  UNL d   1       0.512  -1.072   1.183  0.00  0.00     0.045 A 
ENDROOT
TORSDOF 0
ENDMDL
