MODEL 1
REMARK minimizedAffinity 1.91686869
REMARK minimizedRMSD -1
REMARK  0 active torsions:
REMARK  status: ('A' for Active; 'I' for Inactive)
ROOT
ATOM      1  C   UNL d   1       4.205   0.064  -2.205  0.00  0.00    -0.002 A 
ATOM      2  C1  UNL d   1       3.662   1.297  -1.871  0.00  0.00     0.010 A 
ATOM      3  C2  UNL d   1       2.677   1.397  -0.887  0.00  0.00     0.041 A 
ATOM      4  C3  UNL d   1       2.243   0.226  -0.236  0.00  0.00    -0.075 A 
ATOM      5  S   UNL d   1       1.049   0.106   1.002  0.00  0.00     0.015 SA
ATOM      6  C4  UNL d   1       1.232  -1.585   1.118  0.00  0.00     0.022 A 
ATOM      7  C5  UNL d   1       2.176  -2.063   0.242  0.00  0.00     0.026 A 
ATOM      8  C6  UNL d   1       2.775  -1.027  -0.553  0.00  0.00    -0.082 A 
ATOM      9  C7  UNL d   1       3.772  -1.095  -1.556  0.00  0.00     0.045 A 
ENDROOT
TORSDOF 0
ENDMDL
