MODEL 1
REMARK minimizedAffinity 2.10283327
REMARK minimizedRMSD -1
REMARK  0 active torsions:
REMARK  status: ('A' for Active; 'I' for Inactive)
ROOT
ATOM      1  C   UNL d   1       0.212   0.182   0.939  0.00  0.00    -0.002 A 
ATOM      2  C1  UNL d   1       1.168   1.166   0.724  0.00  0.00     0.010 A 
ATOM      3  C2  UNL d   1       2.392   0.849   0.131  0.00  0.00     0.041 A 
ATOM      4  C3  UNL d   1       2.641  -0.485  -0.247  0.00  0.00    -0.075 A 
ATOM      5  S   UNL d   1       4.068  -1.106  -0.990  0.00  0.00     0.015 SA
ATOM      6  C4  UNL d   1       3.442  -2.690  -1.040  0.00  0.00     0.022 A 
ATOM      7  C5  UNL d   1       2.177  -2.762  -0.506  0.00  0.00     0.026 A 
ATOM      8  C6  UNL d   1       1.694  -1.493  -0.041  0.00  0.00    -0.082 A 
ATOM      9  C7  UNL d   1       0.463  -1.140   0.563  0.00  0.00     0.045 A 
ENDROOT
TORSDOF 0
ENDMDL
