MODEL 1
REMARK minimizedAffinity -4.03397894
REMARK minimizedRMSD -1
REMARK  0 active torsions:
REMARK  status: ('A' for Active; 'I' for Inactive)
ROOT
ATOM      1  C   UNL d   1      -0.222  -0.030   1.479  0.00  0.00    -0.002 A 
ATOM      2  C1  UNL d   1      -0.057  -1.403   1.364  0.00  0.00     0.010 A 
ATOM      3  C2  UNL d   1       0.975  -1.931   0.586  0.00  0.00     0.041 A 
ATOM      4  C3  UNL d   1       1.848  -1.048  -0.079  0.00  0.00    -0.075 A 
ATOM      5  S   UNL d   1       3.183  -1.468  -1.086  0.00  0.00     0.015 SA
ATOM      6  C4  UNL d   1       3.566   0.165  -1.387  0.00  0.00     0.022 A 
ATOM      7  C5  UNL d   1       2.707   1.023  -0.743  0.00  0.00     0.026 A 
ATOM      8  C6  UNL d   1       1.702   0.338   0.022  0.00  0.00    -0.082 A 
ATOM      9  C7  UNL d   1       0.646   0.843   0.817  0.00  0.00     0.045 A 
ENDROOT
TORSDOF 0
ENDMDL
