MODEL 1
REMARK minimizedAffinity -4.03207731
REMARK minimizedRMSD -1
REMARK  0 active torsions:
REMARK  status: ('A' for Active; 'I' for Inactive)
ROOT
ATOM      1  C   UNL d   1       0.379  -1.238   0.889  0.00  0.00    -0.002 A 
ATOM      2  C1  UNL d   1       0.131   0.124   0.784  0.00  0.00     0.010 A 
ATOM      3  C2  UNL d   1       0.954   0.938   0.004  0.00  0.00     0.041 A 
ATOM      4  C3  UNL d   1       2.040   0.355  -0.677  0.00  0.00    -0.075 A 
ATOM      5  S   UNL d   1       3.182   1.155  -1.692  0.00  0.00     0.015 SA
ATOM      6  C4  UNL d   1       4.025  -0.291  -2.010  0.00  0.00     0.022 A 
ATOM      7  C5  UNL d   1       3.464  -1.368  -1.367  0.00  0.00     0.026 A 
ATOM      8  C6  UNL d   1       2.310  -1.014  -0.588  0.00  0.00    -0.082 A 
ATOM      9  C7  UNL d   1       1.458  -1.812   0.212  0.00  0.00     0.045 A 
ENDROOT
TORSDOF 0
ENDMDL
