MODEL 1
REMARK minimizedAffinity 2.41889286
REMARK minimizedRMSD -1
REMARK  0 active torsions:
REMARK  status: ('A' for Active; 'I' for Inactive)
ROOT
ATOM      1  C   UNL d   1       3.912  -1.213  -1.827  0.00  0.00    -0.002 A 
ATOM      2  C1  UNL d   1       4.081   0.155  -1.994  0.00  0.00     0.010 A 
ATOM      3  C2  UNL d   1       3.253   1.060  -1.328  0.00  0.00     0.041 A 
ATOM      4  C3  UNL d   1       2.241   0.563  -0.482  0.00  0.00    -0.075 A 
ATOM      5  S   UNL d   1       1.109   1.483   0.436  0.00  0.00     0.015 SA
ATOM      6  C4  UNL d   1       0.373   0.083   1.071  0.00  0.00     0.022 A 
ATOM      7  C5  UNL d   1       0.965  -1.067   0.605  0.00  0.00     0.026 A 
ATOM      8  C6  UNL d   1       2.051  -0.810  -0.298  0.00  0.00    -0.082 A 
ATOM      9  C7  UNL d   1       2.908  -1.702  -0.987  0.00  0.00     0.045 A 
ENDROOT
TORSDOF 0
ENDMDL
