MODEL 1
REMARK minimizedAffinity 6.28823709
REMARK minimizedRMSD -1
REMARK  0 active torsions:
REMARK  status: ('A' for Active; 'I' for Inactive)
ROOT
ATOM      1  C   UNL d   1       2.014  -3.070   0.430  0.00  0.00    -0.002 A 
ATOM      2  C1  UNL d   1       3.223  -2.692  -0.137  0.00  0.00     0.010 A 
ATOM      3  C2  UNL d   1       3.479  -1.353  -0.437  0.00  0.00     0.041 A 
ATOM      4  C3  UNL d   1       2.490  -0.390  -0.153  0.00  0.00    -0.075 A 
ATOM      5  S   UNL d   1       2.582   1.308  -0.434  0.00  0.00     0.015 SA
ATOM      6  C4  UNL d   1       1.019   1.572   0.192  0.00  0.00     0.022 A 
ATOM      7  C5  UNL d   1       0.427   0.404   0.609  0.00  0.00     0.026 A 
ATOM      8  C6  UNL d   1       1.265  -0.746   0.418  0.00  0.00    -0.082 A 
ATOM      9  C7  UNL d   1       1.036  -2.112   0.709  0.00  0.00     0.045 A 
ENDROOT
TORSDOF 0
ENDMDL
