MODEL 1
REMARK minimizedAffinity 1.40692627
REMARK minimizedRMSD -1
REMARK  0 active torsions:
REMARK  status: ('A' for Active; 'I' for Inactive)
ROOT
ATOM      1  C   UNL d   1       1.090  -0.105   0.496  0.00  0.00    -0.002 A 
ATOM      2  C1  UNL d   1       1.518  -1.411   0.309  0.00  0.00     0.010 A 
ATOM      3  C2  UNL d   1       2.582  -1.694  -0.551  0.00  0.00     0.041 A 
ATOM      4  C3  UNL d   1       3.215  -0.631  -1.224  0.00  0.00    -0.075 A 
ATOM      5  S   UNL d   1       4.538  -0.738  -2.324  0.00  0.00     0.015 SA
ATOM      6  C4  UNL d   1       4.566   0.948  -2.571  0.00  0.00     0.022 A 
ATOM      7  C5  UNL d   1       3.597   1.593  -1.840  0.00  0.00     0.026 A 
ATOM      8  C6  UNL d   1       2.802   0.694  -1.051  0.00  0.00    -0.082 A 
ATOM      9  C7  UNL d   1       1.720   0.947  -0.174  0.00  0.00     0.045 A 
ENDROOT
TORSDOF 0
ENDMDL
