MODEL 1
REMARK minimizedAffinity -2.41082168
REMARK minimizedRMSD -1
REMARK  0 active torsions:
REMARK  status: ('A' for Active; 'I' for Inactive)
ROOT
ATOM      1  C   UNL d   1       0.420  -0.274   1.061  0.00  0.00    -0.002 A 
ATOM      2  C1  UNL d   1       0.563   1.042   0.645  0.00  0.00     0.010 A 
ATOM      3  C2  UNL d   1       1.530   1.387  -0.301  0.00  0.00     0.041 A 
ATOM      4  C3  UNL d   1       2.358   0.376  -0.828  0.00  0.00    -0.075 A 
ATOM      5  S   UNL d   1       3.611   0.564  -1.998  0.00  0.00     0.015 SA
ATOM      6  C4  UNL d   1       3.985  -1.099  -1.973  0.00  0.00     0.022 A 
ATOM      7  C5  UNL d   1       3.184  -1.795  -1.099  0.00  0.00     0.026 A 
ATOM      8  C6  UNL d   1       2.233  -0.956  -0.425  0.00  0.00    -0.082 A 
ATOM      9  C7  UNL d   1       1.243  -1.273   0.536  0.00  0.00     0.045 A 
ENDROOT
TORSDOF 0
ENDMDL
