MODEL 1
REMARK minimizedAffinity 4.14386129
REMARK minimizedRMSD -1
REMARK  0 active torsions:
REMARK  status: ('A' for Active; 'I' for Inactive)
ROOT
ATOM      1  C   UNL d   1       0.873  -0.281   0.697  0.00  0.00    -0.002 A 
ATOM      2  C1  UNL d   1       1.057   1.082   0.510  0.00  0.00     0.010 A 
ATOM      3  C2  UNL d   1       2.108   1.555  -0.278  0.00  0.00     0.041 A 
ATOM      4  C3  UNL d   1       2.978   0.626  -0.883  0.00  0.00    -0.075 A 
ATOM      5  S   UNL d   1       4.333   0.975  -1.890  0.00  0.00     0.015 SA
ATOM      6  C4  UNL d   1       4.699  -0.677  -2.097  0.00  0.00     0.022 A 
ATOM      7  C5  UNL d   1       3.820  -1.488  -1.420  0.00  0.00     0.026 A 
ATOM      8  C6  UNL d   1       2.813  -0.751  -0.710  0.00  0.00    -0.082 A 
ATOM      9  C7  UNL d   1       1.739  -1.199   0.096  0.00  0.00     0.045 A 
ENDROOT
TORSDOF 0
ENDMDL
