MODEL 1
REMARK minimizedAffinity -5.084373
REMARK minimizedRMSD -1
REMARK  0 active torsions:
REMARK  status: ('A' for Active; 'I' for Inactive)
ROOT
ATOM      1  C   UNL d   1       0.677  -1.377   0.445  0.00  0.00    -0.002 A 
ATOM      2  C1  UNL d   1       0.526  -0.005   0.590  0.00  0.00     0.010 A 
ATOM      3  C2  UNL d   1       1.425   0.876  -0.014  0.00  0.00     0.041 A 
ATOM      4  C3  UNL d   1       2.487   0.350  -0.775  0.00  0.00    -0.075 A 
ATOM      5  S   UNL d   1       3.708   1.238  -1.607  0.00  0.00     0.015 SA
ATOM      6  C4  UNL d   1       4.459  -0.183  -2.176  0.00  0.00     0.022 A 
ATOM      7  C5  UNL d   1       3.807  -1.316  -1.751  0.00  0.00     0.026 A 
ATOM      8  C6  UNL d   1       2.659  -1.028  -0.937  0.00  0.00    -0.082 A 
ATOM      9  C7  UNL d   1       1.732  -1.895  -0.311  0.00  0.00     0.045 A 
ENDROOT
TORSDOF 0
ENDMDL
