MODEL 1
REMARK minimizedAffinity 8.72121334
REMARK minimizedRMSD -1
REMARK  0 active torsions:
REMARK  status: ('A' for Active; 'I' for Inactive)
ROOT
ATOM      1  C   UNL d   1       0.422   0.039   1.711  0.00  0.00    -0.002 A 
ATOM      2  C1  UNL d   1       0.852   1.301   1.330  0.00  0.00     0.010 A 
ATOM      3  C2  UNL d   1       1.733   1.458   0.258  0.00  0.00     0.041 A 
ATOM      4  C3  UNL d   1       2.178   0.313  -0.432  0.00  0.00    -0.075 A 
ATOM      5  S   UNL d   1       3.257   0.262  -1.775  0.00  0.00     0.015 SA
ATOM      6  C4  UNL d   1       3.171  -1.438  -1.875  0.00  0.00     0.022 A 
ATOM      7  C5  UNL d   1       2.344  -1.970  -0.914  0.00  0.00     0.026 A 
ATOM      8  C6  UNL d   1       1.757  -0.970  -0.067  0.00  0.00    -0.082 A 
ATOM      9  C7  UNL d   1       0.865  -1.095   1.025  0.00  0.00     0.045 A 
ENDROOT
TORSDOF 0
ENDMDL
