MODEL 1
REMARK minimizedAffinity -0.442323565
REMARK minimizedRMSD -1
REMARK  0 active torsions:
REMARK  status: ('A' for Active; 'I' for Inactive)
ROOT
ATOM      1  C   UNL d   1       4.080  -1.472  -1.573  0.00  0.00    -0.002 A 
ATOM      2  C1  UNL d   1       4.119  -0.158  -2.016  0.00  0.00     0.010 A 
ATOM      3  C2  UNL d   1       3.224   0.789  -1.513  0.00  0.00     0.041 A 
ATOM      4  C3  UNL d   1       2.281   0.388  -0.545  0.00  0.00    -0.075 A 
ATOM      5  S   UNL d   1       1.088   1.374   0.213  0.00  0.00     0.015 SA
ATOM      6  C4  UNL d   1       0.498   0.074   1.145  0.00  0.00     0.022 A 
ATOM      7  C5  UNL d   1       1.184  -1.091   0.895  0.00  0.00     0.026 A 
ATOM      8  C6  UNL d   1       2.223  -0.930  -0.083  0.00  0.00    -0.082 A 
ATOM      9  C7  UNL d   1       3.143  -1.866  -0.613  0.00  0.00     0.045 A 
ENDROOT
TORSDOF 0
ENDMDL
