MODEL 1
REMARK minimizedAffinity 4.24624252
REMARK minimizedRMSD -1
REMARK  0 active torsions:
REMARK  status: ('A' for Active; 'I' for Inactive)
ROOT
ATOM      1  C   UNL d   1       0.810  -0.970   0.502  0.00  0.00    -0.002 A 
ATOM      2  C1  UNL d   1       0.727   0.415   0.517  0.00  0.00     0.010 A 
ATOM      3  C2  UNL d   1       1.670   1.190  -0.161  0.00  0.00     0.041 A 
ATOM      4  C3  UNL d   1       2.706   0.543  -0.863  0.00  0.00    -0.075 A 
ATOM      5  S   UNL d   1       3.973   1.287  -1.765  0.00  0.00     0.015 SA
ATOM      6  C4  UNL d   1       4.653  -0.216  -2.192  0.00  0.00     0.022 A 
ATOM      7  C5  UNL d   1       3.944  -1.270  -1.667  0.00  0.00     0.026 A 
ATOM      8  C6  UNL d   1       2.810  -0.850  -0.892  0.00  0.00    -0.082 A 
ATOM      9  C7  UNL d   1       1.840  -1.608  -0.194  0.00  0.00     0.045 A 
ENDROOT
TORSDOF 0
ENDMDL
