MODEL 1
REMARK minimizedAffinity -2.20001602
REMARK minimizedRMSD -1
REMARK  1 active torsions:
REMARK  status: ('A' for Active; 'I' for Inactive)
REMARK    1  A    between atoms: N_2  and  C1_3 
ROOT
ATOM      1  C1  UNL d   1       1.090   0.009  -0.309  0.00  0.00     0.143 A 
ATOM      2  C2  UNL d   1       1.801   1.208  -0.185  0.00  0.00    -0.057 A 
ATOM      3  C3  UNL d   1       3.190   1.249  -0.358  0.00  0.00     0.033 A 
ATOM      4  C4  UNL d   1       3.898   0.084  -0.631  0.00  0.00    -0.042 A 
ATOM      5  C5  UNL d   1       3.215  -1.123  -0.734  0.00  0.00     0.033 A 
ATOM      6  C6  UNL d   1       1.827  -1.157  -0.567  0.00  0.00    -0.057 A 
ENDROOT
BRANCH   1   7
ATOM      7  N   UNL d   1      -0.278  -0.114  -0.051  0.00  0.00    -0.732 N 
ATOM      8  C   UNL d   1      -1.227   0.793  -0.659  0.00  0.00     0.284 C 
ATOM      9  H3  UNL d   1      -0.583  -1.085  -0.033  0.00  0.00     0.395 HD
ENDBRANCH   1   7
TORSDOF 1
ENDMDL
