MODEL 1
REMARK minimizedAffinity -5.13841343
REMARK minimizedRMSD -1
REMARK  1 active torsions:
REMARK  status: ('A' for Active; 'I' for Inactive)
REMARK    1  A    between atoms: N_2  and  C1_3 
ROOT
ATOM      1  C1  UNL d   1       0.868  -0.139  -0.057  0.00  0.00     0.143 A 
ATOM      2  C2  UNL d   1       1.502   1.042   0.341  0.00  0.00    -0.057 A 
ATOM      3  C3  UNL d   1       2.873   1.069   0.628  0.00  0.00     0.033 A 
ATOM      4  C4  UNL d   1       3.629  -0.096   0.549  0.00  0.00    -0.042 A 
ATOM      5  C5  UNL d   1       3.014  -1.287   0.179  0.00  0.00     0.033 A 
ATOM      6  C6  UNL d   1       1.647  -1.306  -0.112  0.00  0.00    -0.057 A 
ENDROOT
BRANCH   1   7
ATOM      7  N   UNL d   1      -0.510  -0.252  -0.261  0.00  0.00    -0.732 N 
ATOM      8  C   UNL d   1      -1.401   0.824   0.118  0.00  0.00     0.284 C 
ATOM      9  H3  UNL d   1      -0.737  -0.685  -1.153  0.00  0.00     0.395 HD
ENDBRANCH   1   7
TORSDOF 1
ENDMDL
