MODEL 1
REMARK minimizedAffinity -1.81444085
REMARK minimizedRMSD -1
REMARK  1 active torsions:
REMARK  status: ('A' for Active; 'I' for Inactive)
REMARK    1  A    between atoms: N_2  and  C1_3 
ROOT
ATOM      1  C1  UNL d   1      -0.677   0.738  -0.319  0.00  0.00     0.143 A 
ATOM      2  C2  UNL d   1      -0.006   1.889  -0.747  0.00  0.00    -0.057 A 
ATOM      3  C3  UNL d   1       1.361   2.066  -0.503  0.00  0.00     0.033 A 
ATOM      4  C4  UNL d   1       2.078   1.104   0.201  0.00  0.00    -0.042 A 
ATOM      5  C5  UNL d   1       1.427  -0.036   0.658  0.00  0.00     0.033 A 
ATOM      6  C6  UNL d   1       0.063  -0.210   0.405  0.00  0.00    -0.057 A 
ENDROOT
BRANCH   1   7
ATOM      7  N   UNL d   1      -2.055   0.549  -0.445  0.00  0.00    -0.732 N 
ATOM      8  C   UNL d   1      -2.965   1.076   0.549  0.00  0.00     0.284 C 
ATOM      9  H3  UNL d   1      -2.377   0.661  -1.404  0.00  0.00     0.395 HD
ENDBRANCH   1   7
TORSDOF 1
ENDMDL
