MODEL 1
REMARK minimizedAffinity -0.385770977
REMARK minimizedRMSD -1
REMARK  1 active torsions:
REMARK  status: ('A' for Active; 'I' for Inactive)
REMARK    1  A    between atoms: N_2  and  C1_3 
ROOT
ATOM      1  C1  UNL d   1       0.894  -0.707  -0.498  0.00  0.00     0.143 A 
ATOM      2  C2  UNL d   1       1.318   0.516   0.033  0.00  0.00    -0.057 A 
ATOM      3  C3  UNL d   1       0.558   1.681  -0.130  0.00  0.00     0.033 A 
ATOM      4  C4  UNL d   1      -0.629   1.648  -0.853  0.00  0.00    -0.042 A 
ATOM      5  C5  UNL d   1      -1.058   0.449  -1.411  0.00  0.00     0.033 A 
ATOM      6  C6  UNL d   1      -0.298  -0.712  -1.239  0.00  0.00    -0.057 A 
ENDROOT
BRANCH   1   7
ATOM      7  N   UNL d   1       1.653  -1.879  -0.455  0.00  0.00    -0.732 N 
ATOM      8  C   UNL d   1       3.045  -1.871  -0.851  0.00  0.00     0.284 C 
ATOM      9  H3  UNL d   1       1.460  -2.437   0.374  0.00  0.00     0.395 HD
ENDBRANCH   1   7
TORSDOF 1
ENDMDL
