MODEL 1
REMARK minimizedAffinity -4.37791681
REMARK minimizedRMSD -1
REMARK  0 active torsions:
REMARK  status: ('A' for Active; 'I' for Inactive)
ROOT
ATOM      1  C   UNL d   1      -0.303  -0.022  -0.365  0.00  0.00     0.172 C 
ATOM      2  N   UNL d   1       0.814   0.250  -1.238  0.00  0.00    -0.070 N 
ATOM      3  C1  UNL d   1       1.869  -0.592  -1.471  0.00  0.00    -0.004 A 
ATOM      4  C2  UNL d   1       2.718   0.031  -2.360  0.00  0.00    -0.047 A 
ATOM      5  C3  UNL d   1       2.155   1.291  -2.671  0.00  0.00    -0.047 A 
ATOM      6  C4  UNL d   1       0.977   1.401  -1.963  0.00  0.00    -0.004 A 
ENDROOT
TORSDOF 0
ENDMDL
