MODEL 1
REMARK minimizedAffinity -4.05496788
REMARK minimizedRMSD -1
REMARK  0 active torsions:
REMARK  status: ('A' for Active; 'I' for Inactive)
ROOT
ATOM      1  C   UNL d   1      -0.485   0.559   0.375  0.00  0.00     0.172 C 
ATOM      2  N   UNL d   1       0.662   0.321  -0.468  0.00  0.00    -0.070 N 
ATOM      3  C1  UNL d   1       1.254   1.242  -1.291  0.00  0.00    -0.004 A 
ATOM      4  C2  UNL d   1       2.314   0.626  -1.921  0.00  0.00    -0.047 A 
ATOM      5  C3  UNL d   1       2.360  -0.712  -1.462  0.00  0.00    -0.047 A 
ATOM      6  C4  UNL d   1       1.326  -0.874  -0.564  0.00  0.00    -0.004 A 
ENDROOT
TORSDOF 0
ENDMDL
