MODEL 1
REMARK minimizedAffinity -1.13335943
REMARK minimizedRMSD -1
REMARK  0 active torsions:
REMARK  status: ('A' for Active; 'I' for Inactive)
ROOT
ATOM      1  C   UNL d   1       0.631  -1.354  -0.101  0.00  0.00     0.172 C 
ATOM      2  N   UNL d   1       0.221   0.018   0.084  0.00  0.00    -0.070 N 
ATOM      3  C1  UNL d   1      -0.192   0.576   1.264  0.00  0.00    -0.004 A 
ATOM      4  C2  UNL d   1      -0.493   1.899   1.024  0.00  0.00    -0.047 A 
ATOM      5  C3  UNL d   1      -0.253   2.145  -0.349  0.00  0.00    -0.047 A 
ATOM      6  C4  UNL d   1       0.188   0.964  -0.907  0.00  0.00    -0.004 A 
ENDROOT
TORSDOF 0
ENDMDL
