MODEL 1
REMARK minimizedAffinity -2.2465713
REMARK minimizedRMSD -1
REMARK  0 active torsions:
REMARK  status: ('A' for Active; 'I' for Inactive)
ROOT
ATOM      1  C   UNL d   1       2.013  -1.454  -1.358  0.00  0.00     0.172 C 
ATOM      2  N   UNL d   1       0.889  -0.738  -0.802  0.00  0.00    -0.070 N 
ATOM      3  C1  UNL d   1       0.515   0.539  -1.126  0.00  0.00    -0.004 A 
ATOM      4  C2  UNL d   1      -0.600   0.855  -0.381  0.00  0.00    -0.047 A 
ATOM      5  C3  UNL d   1      -0.907  -0.271   0.419  0.00  0.00    -0.047 A 
ATOM      6  C4  UNL d   1       0.030  -1.242   0.139  0.00  0.00    -0.004 A 
ENDROOT
TORSDOF 0
ENDMDL
