MODEL 1
REMARK minimizedAffinity -1.27806556
REMARK minimizedRMSD -1
REMARK  0 active torsions:
REMARK  status: ('A' for Active; 'I' for Inactive)
ROOT
ATOM      1  C   UNL d   1      -1.964   1.306   2.266  0.00  0.00     0.172 C 
ATOM      2  N   UNL d   1      -1.327   0.492   1.258  0.00  0.00    -0.070 N 
ATOM      3  C1  UNL d   1      -0.353  -0.444   1.486  0.00  0.00    -0.004 A 
ATOM      4  C2  UNL d   1      -0.010  -1.000   0.272  0.00  0.00    -0.047 A 
ATOM      5  C3  UNL d   1      -0.804  -0.377  -0.719  0.00  0.00    -0.047 A 
ATOM      6  C4  UNL d   1      -1.610   0.543  -0.082  0.00  0.00    -0.004 A 
ENDROOT
TORSDOF 0
ENDMDL
