MODEL 1
REMARK minimizedAffinity -3.1227138
REMARK minimizedRMSD -1
REMARK  0 active torsions:
REMARK  status: ('A' for Active; 'I' for Inactive)
ROOT
ATOM      1  C   UNL d   1      -1.617   0.708   0.149  0.00  0.00     0.172 C 
ATOM      2  N   UNL d   1      -0.447  -0.087   0.438  0.00  0.00    -0.070 N 
ATOM      3  C1  UNL d   1       0.386   0.080   1.512  0.00  0.00    -0.004 A 
ATOM      4  C2  UNL d   1       1.378  -0.873   1.429  0.00  0.00    -0.047 A 
ATOM      5  C3  UNL d   1       1.132  -1.640   0.265  0.00  0.00    -0.047 A 
ATOM      6  C4  UNL d   1      -0.003  -1.132  -0.329  0.00  0.00    -0.004 A 
ENDROOT
TORSDOF 0
ENDMDL
