MODEL 1
REMARK minimizedAffinity -2.48656559
REMARK minimizedRMSD -1
REMARK  0 active torsions:
REMARK  status: ('A' for Active; 'I' for Inactive)
ROOT
ATOM      1  C   UNL d   1      -1.510   1.959   3.123  0.00  0.00     0.172 C 
ATOM      2  N   UNL d   1      -1.172   1.169   1.962  0.00  0.00    -0.070 N 
ATOM      3  C1  UNL d   1       0.083   0.739   1.627  0.00  0.00    -0.004 A 
ATOM      4  C2  UNL d   1      -0.016   0.019   0.456  0.00  0.00    -0.047 A 
ATOM      5  C3  UNL d   1      -1.379   0.017   0.074  0.00  0.00    -0.047 A 
ATOM      6  C4  UNL d   1      -2.072   0.737   1.024  0.00  0.00    -0.004 A 
ENDROOT
TORSDOF 0
ENDMDL
