MODEL 1
REMARK minimizedAffinity -0.231930301
REMARK minimizedRMSD -1
REMARK  0 active torsions:
REMARK  status: ('A' for Active; 'I' for Inactive)
ROOT
ATOM      1  C   UNL d   1       1.785  -1.437  -2.124  0.00  0.00     0.172 C 
ATOM      2  N   UNL d   1       0.822  -1.131  -1.093  0.00  0.00    -0.070 N 
ATOM      3  C1  UNL d   1      -0.081  -2.010  -0.557  0.00  0.00    -0.004 A 
ATOM      4  C2  UNL d   1      -0.815  -1.334   0.393  0.00  0.00    -0.047 A 
ATOM      5  C3  UNL d   1      -0.338  -0.002   0.429  0.00  0.00    -0.047 A 
ATOM      6  C4  UNL d   1       0.675   0.096  -0.501  0.00  0.00    -0.004 A 
ENDROOT
TORSDOF 0
ENDMDL
