MODEL 1
REMARK minimizedAffinity -3.77362585
REMARK minimizedRMSD -1
REMARK  0 active torsions:
REMARK  status: ('A' for Active; 'I' for Inactive)
ROOT
ATOM      1  C   UNL d   1      -0.540   0.350   0.293  0.00  0.00     0.172 C 
ATOM      2  N   UNL d   1       0.636  -0.233  -0.309  0.00  0.00    -0.070 N 
ATOM      3  C1  UNL d   1       1.712   0.461  -0.794  0.00  0.00    -0.004 A 
ATOM      4  C2  UNL d   1       2.619  -0.455  -1.283  0.00  0.00    -0.047 A 
ATOM      5  C3  UNL d   1       2.068  -1.743  -1.086  0.00  0.00    -0.047 A 
ATOM      6  C4  UNL d   1       0.840  -1.577  -0.482  0.00  0.00    -0.004 A 
ENDROOT
TORSDOF 0
ENDMDL
