MODEL 1
REMARK minimizedAffinity -3.41956067
REMARK minimizedRMSD -1
REMARK  0 active torsions:
REMARK  status: ('A' for Active; 'I' for Inactive)
ROOT
ATOM      1  C   UNL d   1       1.216  -0.650   0.196  0.00  0.00     0.172 C 
ATOM      2  N   UNL d   1       0.146   0.259  -0.143  0.00  0.00    -0.070 N 
ATOM      3  C1  UNL d   1      -1.165   0.123   0.227  0.00  0.00    -0.004 A 
ATOM      4  C2  UNL d   1      -1.863   1.192  -0.291  0.00  0.00    -0.047 A 
ATOM      5  C3  UNL d   1      -0.940   1.998  -0.998  0.00  0.00    -0.047 A 
ATOM      6  C4  UNL d   1       0.297   1.398  -0.890  0.00  0.00    -0.004 A 
ENDROOT
TORSDOF 0
ENDMDL
