MODEL 1
REMARK minimizedAffinity -2.47176194
REMARK minimizedRMSD -1
REMARK  0 active torsions:
REMARK  status: ('A' for Active; 'I' for Inactive)
ROOT
ATOM      1  C   UNL d   1      -0.881   1.070  -1.122  0.00  0.00     0.172 C 
ATOM      2  N   UNL d   1      -0.092   0.047  -0.477  0.00  0.00    -0.070 N 
ATOM      3  C1  UNL d   1       0.562  -0.975  -1.112  0.00  0.00    -0.004 A 
ATOM      4  C2  UNL d   1       1.197  -1.731  -0.150  0.00  0.00    -0.047 A 
ATOM      5  C3  UNL d   1       0.913  -1.144   1.106  0.00  0.00    -0.047 A 
ATOM      6  C4  UNL d   1       0.113  -0.045   0.874  0.00  0.00    -0.004 A 
ENDROOT
TORSDOF 0
ENDMDL
