MODEL 1
REMARK minimizedAffinity -2.51737523
REMARK minimizedRMSD -1
REMARK  0 active torsions:
REMARK  status: ('A' for Active; 'I' for Inactive)
ROOT
ATOM      1  C   UNL d   1      -1.517   0.885   2.164  0.00  0.00     0.172 C 
ATOM      2  N   UNL d   1      -0.781   0.048   1.246  0.00  0.00    -0.070 N 
ATOM      3  C1  UNL d   1       0.002  -1.021   1.592  0.00  0.00    -0.004 A 
ATOM      4  C2  UNL d   1       0.528  -1.551   0.434  0.00  0.00    -0.047 A 
ATOM      5  C3  UNL d   1       0.046  -0.774  -0.645  0.00  0.00    -0.047 A 
ATOM      6  C4  UNL d   1      -0.762   0.209  -0.115  0.00  0.00    -0.004 A 
ENDROOT
TORSDOF 0
ENDMDL
