MODEL 1
REMARK minimizedAffinity -0.558698475
REMARK minimizedRMSD -1
REMARK  0 active torsions:
REMARK  status: ('A' for Active; 'I' for Inactive)
ROOT
ATOM      1  C   UNL d   1      -1.090   0.370   0.789  0.00  0.00     0.172 C 
ATOM      2  N   UNL d   1      -0.108  -0.338   0.001  0.00  0.00    -0.070 N 
ATOM      3  C1  UNL d   1       0.365   0.052  -1.223  0.00  0.00    -0.004 A 
ATOM      4  C2  UNL d   1       1.284  -0.886  -1.639  0.00  0.00    -0.047 A 
ATOM      5  C3  UNL d   1       1.365  -1.876  -0.630  0.00  0.00    -0.047 A 
ATOM      6  C4  UNL d   1       0.493  -1.511   0.373  0.00  0.00    -0.004 A 
ENDROOT
TORSDOF 0
ENDMDL
