MODEL 1
REMARK minimizedAffinity -3.69328642
REMARK minimizedRMSD -1
REMARK  0 active torsions:
REMARK  status: ('A' for Active; 'I' for Inactive)
ROOT
ATOM      1  C   UNL d   1      -0.957   0.333  -0.007  0.00  0.00     0.172 C 
ATOM      2  N   UNL d   1       0.130   0.155  -0.941  0.00  0.00    -0.070 N 
ATOM      3  C1  UNL d   1       0.487   1.034  -1.928  0.00  0.00    -0.004 A 
ATOM      4  C2  UNL d   1       1.567   0.501  -2.598  0.00  0.00    -0.047 A 
ATOM      5  C3  UNL d   1       1.869  -0.742  -1.993  0.00  0.00    -0.047 A 
ATOM      6  C4  UNL d   1       0.964  -0.931  -0.970  0.00  0.00    -0.004 A 
ENDROOT
TORSDOF 0
ENDMDL
