MODEL 1
REMARK minimizedAffinity -3.11391115
REMARK minimizedRMSD -1
REMARK  0 active torsions:
REMARK  status: ('A' for Active; 'I' for Inactive)
ROOT
ATOM      1  C   UNL d   1      -1.073   1.391   1.967  0.00  0.00     0.172 C 
ATOM      2  N   UNL d   1      -0.448   0.569   0.957  0.00  0.00    -0.070 N 
ATOM      3  C1  UNL d   1      -0.765   0.563  -0.376  0.00  0.00    -0.004 A 
ATOM      4  C2  UNL d   1       0.054  -0.353  -1.000  0.00  0.00    -0.047 A 
ATOM      5  C3  UNL d   1       0.891  -0.918  -0.008  0.00  0.00    -0.047 A 
ATOM      6  C4  UNL d   1       0.559  -0.329   1.193  0.00  0.00    -0.004 A 
ENDROOT
TORSDOF 0
ENDMDL
