MODEL 1
REMARK minimizedAffinity -2.09301114
REMARK minimizedRMSD -1
REMARK  0 active torsions:
REMARK  status: ('A' for Active; 'I' for Inactive)
ROOT
ATOM      1  C   UNL d   1      -1.081   1.412   2.399  0.00  0.00     0.172 C 
ATOM      2  N   UNL d   1      -0.449   0.616   1.373  0.00  0.00    -0.070 N 
ATOM      3  C1  UNL d   1       0.548  -0.300   1.574  0.00  0.00    -0.004 A 
ATOM      4  C2  UNL d   1       0.876  -0.842   0.350  0.00  0.00    -0.047 A 
ATOM      5  C3  UNL d   1       0.048  -0.229  -0.620  0.00  0.00    -0.047 A 
ATOM      6  C4  UNL d   1      -0.762   0.669   0.040  0.00  0.00    -0.004 A 
ENDROOT
TORSDOF 0
ENDMDL
