MODEL 1
REMARK minimizedAffinity 6.24815798
REMARK minimizedRMSD -1
REMARK  1 active torsions:
REMARK  status: ('A' for Active; 'I' for Inactive)
REMARK    1  A    between atoms: C3_4  and  O_7 
ROOT
ATOM      1  C   UNL d   1      -5.611   5.998   4.515  0.00  0.00    -0.033 A 
ATOM      2  C1  UNL d   1      -5.619   4.878   3.681  0.00  0.00     0.039 A 
ATOM      3  C2  UNL d   1      -4.848   3.759   4.004  0.00  0.00    -0.080 A 
ATOM      4  C3  UNL d   1      -4.076   3.773   5.162  0.00  0.00     0.150 A 
ATOM      5  C4  UNL d   1      -4.066   4.884   6.000  0.00  0.00    -0.007 A 
ATOM      6  C5  UNL d   1      -4.835   6.000   5.675  0.00  0.00     0.039 A 
ENDROOT
BRANCH   4   7
ATOM      7  O   UNL d   1      -3.304   2.707   5.517  0.00  0.00    -0.526 OA
ATOM      8  H5  UNL d   1      -3.388   2.024   4.830  0.00  0.00     0.418 HD
ENDBRANCH   4   7
TORSDOF 1
ENDMDL
