MODEL 1
REMARK minimizedAffinity 5.28480768
REMARK minimizedRMSD -1
REMARK  1 active torsions:
REMARK  status: ('A' for Active; 'I' for Inactive)
REMARK    1  A    between atoms: C3_4  and  O_7 
ROOT
ATOM      1  C   UNL d   1      -5.066  -2.186   4.497  0.00  0.00    -0.033 A 
ATOM      2  C1  UNL d   1      -4.981  -0.801   4.339  0.00  0.00     0.039 A 
ATOM      3  C2  UNL d   1      -3.874  -0.236   3.703  0.00  0.00    -0.080 A 
ATOM      4  C3  UNL d   1      -2.860  -1.065   3.230  0.00  0.00     0.150 A 
ATOM      5  C4  UNL d   1      -2.940  -2.446   3.380  0.00  0.00    -0.007 A 
ATOM      6  C5  UNL d   1      -4.046  -3.008   4.017  0.00  0.00     0.039 A 
ENDROOT
BRANCH   4   7
ATOM      7  O   UNL d   1      -1.758  -0.559   2.607  0.00  0.00    -0.526 OA
ATOM      8  H5  UNL d   1      -1.827   0.410   2.600  0.00  0.00     0.418 HD
ENDBRANCH   4   7
TORSDOF 1
ENDMDL
