MODEL 1
REMARK minimizedAffinity -1.86762631
REMARK minimizedRMSD -1
REMARK  1 active torsions:
REMARK  status: ('A' for Active; 'I' for Inactive)
REMARK    1  A    between atoms: C3_4  and  O_7 
ROOT
ATOM      1  C   UNL d   1       1.981   1.803  -3.561  0.00  0.00    -0.033 A 
ATOM      2  C1  UNL d   1       2.614   2.929  -3.032  0.00  0.00     0.039 A 
ATOM      3  C2  UNL d   1       2.294   3.373  -1.747  0.00  0.00    -0.080 A 
ATOM      4  C3  UNL d   1       1.342   2.683  -1.003  0.00  0.00     0.150 A 
ATOM      5  C4  UNL d   1       0.710   1.558  -1.523  0.00  0.00    -0.007 A 
ATOM      6  C5  UNL d   1       1.030   1.116  -2.806  0.00  0.00     0.039 A 
ENDROOT
BRANCH   4   7
ATOM      7  O   UNL d   1       0.993   3.081   0.253  0.00  0.00    -0.526 OA
ATOM      8  H5  UNL d   1       1.489   3.888   0.469  0.00  0.00     0.418 HD
ENDBRANCH   4   7
TORSDOF 1
ENDMDL
