MODEL 1
REMARK minimizedAffinity 6.41734552
REMARK minimizedRMSD -1
REMARK  1 active torsions:
REMARK  status: ('A' for Active; 'I' for Inactive)
REMARK    1  A    between atoms: C3_4  and  O_7 
ROOT
ATOM      1  C   UNL d   1       3.085   1.500  -5.195  0.00  0.00    -0.033 A 
ATOM      2  C1  UNL d   1       3.608   1.058  -3.979  0.00  0.00     0.039 A 
ATOM      3  C2  UNL d   1       2.753   0.748  -2.920  0.00  0.00    -0.080 A 
ATOM      4  C3  UNL d   1       1.378   0.884  -3.090  0.00  0.00     0.150 A 
ATOM      5  C4  UNL d   1       0.849   1.320  -4.301  0.00  0.00    -0.007 A 
ATOM      6  C5  UNL d   1       1.705   1.630  -5.357  0.00  0.00     0.039 A 
ENDROOT
BRANCH   4   7
ATOM      7  O   UNL d   1       0.503   0.599  -2.084  0.00  0.00    -0.526 OA
ATOM      8  H5  UNL d   1       1.012   0.337  -1.299  0.00  0.00     0.418 HD
ENDBRANCH   4   7
TORSDOF 1
ENDMDL
