MODEL 1
REMARK minimizedAffinity 0.122391634
REMARK minimizedRMSD -1
REMARK  1 active torsions:
REMARK  status: ('A' for Active; 'I' for Inactive)
REMARK    1  A    between atoms: C3_4  and  O_7 
ROOT
ATOM      1  C   UNL d   1       5.605  -0.535   5.999  0.00  0.00    -0.033 A 
ATOM      2  C1  UNL d   1       6.000   0.804   5.998  0.00  0.00     0.039 A 
ATOM      3  C2  UNL d   1       5.636   1.641   4.941  0.00  0.00    -0.080 A 
ATOM      4  C3  UNL d   1       4.878   1.126   3.893  0.00  0.00     0.150 A 
ATOM      5  C4  UNL d   1       4.478  -0.206   3.889  0.00  0.00    -0.007 A 
ATOM      6  C5  UNL d   1       4.843  -1.040   4.945  0.00  0.00     0.039 A 
ENDROOT
BRANCH   4   7
ATOM      7  O   UNL d   1       4.502   1.903   2.837  0.00  0.00    -0.526 OA
ATOM      8  H5  UNL d   1       4.874   2.792   2.961  0.00  0.00     0.418 HD
ENDBRANCH   4   7
TORSDOF 1
ENDMDL
