MODEL 1
REMARK minimizedAffinity 3.03945947
REMARK minimizedRMSD -1
REMARK  1 active torsions:
REMARK  status: ('A' for Active; 'I' for Inactive)
REMARK    1  A    between atoms: C3_4  and  O_7 
ROOT
ATOM      1  C   UNL d   1       1.802   3.685   0.461  0.00  0.00    -0.033 A 
ATOM      2  C1  UNL d   1       1.375   2.478   1.017  0.00  0.00     0.039 A 
ATOM      3  C2  UNL d   1       2.253   1.715   1.790  0.00  0.00    -0.080 A 
ATOM      4  C3  UNL d   1       3.552   2.170   1.999  0.00  0.00     0.150 A 
ATOM      5  C4  UNL d   1       3.982   3.374   1.451  0.00  0.00    -0.007 A 
ATOM      6  C5  UNL d   1       3.104   4.134   0.679  0.00  0.00     0.039 A 
ENDROOT
BRANCH   4   7
ATOM      7  O   UNL d   1       4.446   1.458   2.742  0.00  0.00    -0.526 OA
ATOM      8  H5  UNL d   1       4.018   0.635   3.032  0.00  0.00     0.418 HD
ENDBRANCH   4   7
TORSDOF 1
ENDMDL
