MODEL 1
REMARK minimizedAffinity 6.86525202
REMARK minimizedRMSD -1
REMARK  1 active torsions:
REMARK  status: ('A' for Active; 'I' for Inactive)
REMARK    1  A    between atoms: C3_4  and  O_7 
ROOT
ATOM      1  C   UNL d   1      -2.420   0.847   3.783  0.00  0.00    -0.033 A 
ATOM      2  C1  UNL d   1      -2.105  -0.439   3.338  0.00  0.00     0.039 A 
ATOM      3  C2  UNL d   1      -3.058  -1.457   3.411  0.00  0.00    -0.080 A 
ATOM      4  C3  UNL d   1      -4.319  -1.177   3.929  0.00  0.00     0.150 A 
ATOM      5  C4  UNL d   1      -4.641   0.102   4.370  0.00  0.00    -0.007 A 
ATOM      6  C5  UNL d   1      -3.688   1.118   4.298  0.00  0.00     0.039 A 
ENDROOT
BRANCH   4   7
ATOM      7  O   UNL d   1      -5.280  -2.140   4.024  0.00  0.00    -0.526 OA
ATOM      8  H5  UNL d   1      -4.907  -2.979   3.708  0.00  0.00     0.418 HD
ENDBRANCH   4   7
TORSDOF 1
ENDMDL
