MODEL 1
REMARK minimizedAffinity 0.925418258
REMARK minimizedRMSD -1
REMARK  1 active torsions:
REMARK  status: ('A' for Active; 'I' for Inactive)
REMARK    1  A    between atoms: C3_4  and  O_7 
ROOT
ATOM      1  C   UNL d   1      -0.393  -2.874  -0.013  0.00  0.00    -0.033 A 
ATOM      2  C1  UNL d   1       0.769  -2.308  -0.542  0.00  0.00     0.039 A 
ATOM      3  C2  UNL d   1       0.826  -0.936  -0.795  0.00  0.00    -0.080 A 
ATOM      4  C3  UNL d   1      -0.283  -0.143  -0.514  0.00  0.00     0.150 A 
ATOM      5  C4  UNL d   1      -1.442  -0.699   0.016  0.00  0.00    -0.007 A 
ATOM      6  C5  UNL d   1      -1.498  -2.070   0.268  0.00  0.00     0.039 A 
ENDROOT
BRANCH   4   7
ATOM      7  O   UNL d   1      -0.276   1.200  -0.749  0.00  0.00    -0.526 OA
ATOM      8  H5  UNL d   1       0.580   1.439  -1.142  0.00  0.00     0.418 HD
ENDBRANCH   4   7
TORSDOF 1
ENDMDL
