MODEL 1
REMARK minimizedAffinity 4.03561497
REMARK minimizedRMSD -1
REMARK  1 active torsions:
REMARK  status: ('A' for Active; 'I' for Inactive)
REMARK    1  A    between atoms: C3_4  and  O_7 
ROOT
ATOM      1  C   UNL d   1      -0.912  -1.855   0.209  0.00  0.00    -0.033 A 
ATOM      2  C1  UNL d   1      -0.245  -3.066   0.013  0.00  0.00     0.039 A 
ATOM      3  C2  UNL d   1       0.970  -3.093  -0.675  0.00  0.00    -0.080 A 
ATOM      4  C3  UNL d   1       1.506  -1.903  -1.161  0.00  0.00     0.150 A 
ATOM      5  C4  UNL d   1       0.848  -0.693  -0.967  0.00  0.00    -0.007 A 
ATOM      6  C5  UNL d   1      -0.365  -0.669  -0.281  0.00  0.00     0.039 A 
ENDROOT
BRANCH   4   7
ATOM      7  O   UNL d   1       2.686  -1.880  -1.844  0.00  0.00    -0.526 OA
ATOM      8  H5  UNL d   1       3.012  -2.792  -1.926  0.00  0.00     0.418 HD
ENDBRANCH   4   7
TORSDOF 1
ENDMDL
