MODEL 1
REMARK minimizedAffinity -0.467647135
REMARK minimizedRMSD -1
REMARK  1 active torsions:
REMARK  status: ('A' for Active; 'I' for Inactive)
REMARK    1  A    between atoms: C3_4  and  O_7 
ROOT
ATOM      1  C   UNL d   1       1.558  -0.784  -1.915  0.00  0.00    -0.033 A 
ATOM      2  C1  UNL d   1       0.642   0.267  -1.993  0.00  0.00     0.039 A 
ATOM      3  C2  UNL d   1      -0.542   0.220  -1.256  0.00  0.00    -0.080 A 
ATOM      4  C3  UNL d   1      -0.799  -0.882  -0.445  0.00  0.00     0.150 A 
ATOM      5  C4  UNL d   1       0.110  -1.931  -0.359  0.00  0.00    -0.007 A 
ATOM      6  C5  UNL d   1       1.292  -1.883  -1.097  0.00  0.00     0.039 A 
ENDROOT
BRANCH   4   7
ATOM      7  O   UNL d   1      -1.944  -0.975   0.290  0.00  0.00    -0.526 OA
ATOM      8  H5  UNL d   1      -2.490  -0.192   0.109  0.00  0.00     0.418 HD
ENDBRANCH   4   7
TORSDOF 1
ENDMDL
