MODEL 1
REMARK minimizedAffinity 2.64794183
REMARK minimizedRMSD -1
REMARK  1 active torsions:
REMARK  status: ('A' for Active; 'I' for Inactive)
REMARK    1  A    between atoms: C3_4  and  O_7 
ROOT
ATOM      1  C   UNL d   1       1.553  -3.358  -3.157  0.00  0.00    -0.033 A 
ATOM      2  C1  UNL d   1       1.023  -3.119  -4.427  0.00  0.00     0.039 A 
ATOM      3  C2  UNL d   1       0.990  -1.821  -4.938  0.00  0.00    -0.080 A 
ATOM      4  C3  UNL d   1       1.490  -0.771  -4.172  0.00  0.00     0.150 A 
ATOM      5  C4  UNL d   1       2.023  -1.003  -2.908  0.00  0.00    -0.007 A 
ATOM      6  C5  UNL d   1       2.054  -2.300  -2.398  0.00  0.00     0.039 A 
ENDROOT
BRANCH   4   7
ATOM      7  O   UNL d   1       1.474   0.514  -4.627  0.00  0.00    -0.526 OA
ATOM      8  H5  UNL d   1       1.051   0.525  -5.501  0.00  0.00     0.418 HD
ENDBRANCH   4   7
TORSDOF 1
ENDMDL
