MODEL 1
REMARK minimizedAffinity 0.783638418
REMARK minimizedRMSD -1
REMARK  1 active torsions:
REMARK  status: ('A' for Active; 'I' for Inactive)
REMARK    1  A    between atoms: C3_4  and  O_7 
ROOT
ATOM      1  C   UNL d   1       0.138  -3.055  -0.277  0.00  0.00    -0.033 A 
ATOM      2  C1  UNL d   1       1.195  -2.382  -0.893  0.00  0.00     0.039 A 
ATOM      3  C2  UNL d   1       1.127  -1.001  -1.087  0.00  0.00    -0.080 A 
ATOM      4  C3  UNL d   1      -0.002  -0.306  -0.660  0.00  0.00     0.150 A 
ATOM      5  C4  UNL d   1      -1.057  -0.969  -0.043  0.00  0.00    -0.007 A 
ATOM      6  C5  UNL d   1      -0.987  -2.349   0.149  0.00  0.00     0.039 A 
ENDROOT
BRANCH   4   7
ATOM      7  O   UNL d   1      -0.116   1.042  -0.832  0.00  0.00    -0.526 OA
ATOM      8  H5  UNL d   1       0.675   1.361  -1.298  0.00  0.00     0.418 HD
ENDBRANCH   4   7
TORSDOF 1
ENDMDL
