MODEL 1
REMARK minimizedAffinity 1.94871187
REMARK minimizedRMSD -1
REMARK  1 active torsions:
REMARK  status: ('A' for Active; 'I' for Inactive)
REMARK    1  A    between atoms: C3_4  and  O_7 
ROOT
ATOM      1  C   UNL d   1       1.084  -1.389  -1.136  0.00  0.00    -0.033 A 
ATOM      2  C1  UNL d   1       0.485  -0.128  -1.173  0.00  0.00     0.039 A 
ATOM      3  C2  UNL d   1       0.665   0.700  -2.283  0.00  0.00    -0.080 A 
ATOM      4  C3  UNL d   1       1.444   0.255  -3.348  0.00  0.00     0.150 A 
ATOM      5  C4  UNL d   1       2.040  -1.001  -3.319  0.00  0.00    -0.007 A 
ATOM      6  C5  UNL d   1       1.860  -1.826  -2.209  0.00  0.00     0.039 A 
ENDROOT
BRANCH   4   7
ATOM      7  O   UNL d   1       1.652   1.029  -4.451  0.00  0.00    -0.526 OA
ATOM      8  H5  UNL d   1       1.204   1.881  -4.318  0.00  0.00     0.418 HD
ENDBRANCH   4   7
TORSDOF 1
ENDMDL
