MODEL 1
REMARK minimizedAffinity -0.243068323
REMARK minimizedRMSD -1
REMARK  1 active torsions:
REMARK  status: ('A' for Active; 'I' for Inactive)
REMARK    1  A    between atoms: C3_4  and  O_7 
ROOT
ATOM      1  C   UNL d   1       5.999  -0.676   4.771  0.00  0.00    -0.033 A 
ATOM      2  C1  UNL d   1       5.653  -0.039   3.578  0.00  0.00     0.039 A 
ATOM      3  C2  UNL d   1       5.302   1.313   3.583  0.00  0.00    -0.080 A 
ATOM      4  C3  UNL d   1       5.302   2.014   4.785  0.00  0.00     0.150 A 
ATOM      5  C4  UNL d   1       5.650   1.387   5.977  0.00  0.00    -0.007 A 
ATOM      6  C5  UNL d   1       5.999   0.037   5.970  0.00  0.00     0.039 A 
ENDROOT
BRANCH   4   7
ATOM      7  O   UNL d   1       4.963   3.334   4.840  0.00  0.00    -0.526 OA
ATOM      8  H5  UNL d   1       4.719   3.626   3.946  0.00  0.00     0.418 HD
ENDBRANCH   4   7
TORSDOF 1
ENDMDL
