MODEL 1
REMARK minimizedAffinity -0.125578329
REMARK minimizedRMSD -1
REMARK  1 active torsions:
REMARK  status: ('A' for Active; 'I' for Inactive)
REMARK    1  A    between atoms: C3_4  and  O_7 
ROOT
ATOM      1  C   UNL d   1       1.527  -2.500  -0.341  0.00  0.00    -0.033 A 
ATOM      2  C1  UNL d   1       0.569  -1.929   0.498  0.00  0.00     0.039 A 
ATOM      3  C2  UNL d   1      -0.092  -0.761   0.112  0.00  0.00    -0.080 A 
ATOM      4  C3  UNL d   1       0.214  -0.176  -1.114  0.00  0.00     0.150 A 
ATOM      5  C4  UNL d   1       1.165  -0.742  -1.956  0.00  0.00    -0.007 A 
ATOM      6  C5  UNL d   1       1.824  -1.908  -1.569  0.00  0.00     0.039 A 
ENDROOT
BRANCH   4   7
ATOM      7  O   UNL d   1      -0.402   0.967  -1.531  0.00  0.00    -0.526 OA
ATOM      8  H5  UNL d   1      -1.013   1.259  -0.835  0.00  0.00     0.418 HD
ENDBRANCH   4   7
TORSDOF 1
ENDMDL
