MODEL 1
REMARK minimizedAffinity -0.150304794
REMARK minimizedRMSD -1
REMARK  1 active torsions:
REMARK  status: ('A' for Active; 'I' for Inactive)
REMARK    1  A    between atoms: C3_4  and  O_7 
ROOT
ATOM      1  C   UNL d   1       0.716  -2.879   0.126  0.00  0.00    -0.033 A 
ATOM      2  C1  UNL d   1       1.716  -2.386  -0.715  0.00  0.00     0.039 A 
ATOM      3  C2  UNL d   1       1.582  -1.124  -1.296  0.00  0.00    -0.080 A 
ATOM      4  C3  UNL d   1       0.446  -0.365  -1.028  0.00  0.00     0.150 A 
ATOM      5  C4  UNL d   1      -0.552  -0.848  -0.188  0.00  0.00    -0.007 A 
ATOM      6  C5  UNL d   1      -0.417  -2.109   0.391  0.00  0.00     0.039 A 
ENDROOT
BRANCH   4   7
ATOM      7  O   UNL d   1       0.269   0.871  -1.576  0.00  0.00    -0.526 OA
ATOM      8  H5  UNL d   1       1.024   1.061  -2.157  0.00  0.00     0.418 HD
ENDBRANCH   4   7
TORSDOF 1
ENDMDL
