MODEL 1
REMARK minimizedAffinity 7.21633005
REMARK minimizedRMSD -1
REMARK  1 active torsions:
REMARK  status: ('A' for Active; 'I' for Inactive)
REMARK    1  A    between atoms: C3_4  and  O_7 
ROOT
ATOM      1  C   UNL d   1      -1.860   0.813   3.317  0.00  0.00    -0.033 A 
ATOM      2  C1  UNL d   1      -1.756  -0.499   2.851  0.00  0.00     0.039 A 
ATOM      3  C2  UNL d   1      -2.804  -1.399   3.054  0.00  0.00    -0.080 A 
ATOM      4  C3  UNL d   1      -3.949  -0.976   3.723  0.00  0.00     0.150 A 
ATOM      5  C4  UNL d   1      -4.061   0.331   4.187  0.00  0.00    -0.007 A 
ATOM      6  C5  UNL d   1      -3.013   1.228   3.984  0.00  0.00     0.039 A 
ENDROOT
BRANCH   4   7
ATOM      7  O   UNL d   1      -4.996  -1.819   3.949  0.00  0.00    -0.526 OA
ATOM      8  H5  UNL d   1      -4.765  -2.696   3.599  0.00  0.00     0.418 HD
ENDBRANCH   4   7
TORSDOF 1
ENDMDL
