MODEL 1
REMARK minimizedAffinity -2.65621233
REMARK minimizedRMSD -1
REMARK  1 active torsions:
REMARK  status: ('A' for Active; 'I' for Inactive)
REMARK    1  A    between atoms: C3_4  and  O_7 
ROOT
ATOM      1  C   UNL d   1       5.290   1.527   5.067  0.00  0.00    -0.033 A 
ATOM      2  C1  UNL d   1       4.503   0.893   4.104  0.00  0.00     0.039 A 
ATOM      3  C2  UNL d   1       4.427  -0.501   4.069  0.00  0.00    -0.080 A 
ATOM      4  C3  UNL d   1       5.141  -1.248   5.002  0.00  0.00     0.150 A 
ATOM      5  C4  UNL d   1       5.925  -0.623   5.966  0.00  0.00    -0.007 A 
ATOM      6  C5  UNL d   1       6.000   0.769   5.999  0.00  0.00     0.039 A 
ENDROOT
BRANCH   4   7
ATOM      7  O   UNL d   1       5.102  -2.611   5.004  0.00  0.00    -0.526 OA
ATOM      8  H5  UNL d   1       4.545  -2.904   4.264  0.00  0.00     0.418 HD
ENDBRANCH   4   7
TORSDOF 1
ENDMDL
