MODEL 1
REMARK minimizedAffinity 2.23176599
REMARK minimizedRMSD -1
REMARK  3 active torsions:
REMARK  status: ('A' for Active; 'I' for Inactive)
REMARK    1  A    between atoms: C3'_2  and  C2'_3 
REMARK    2  A    between atoms: C2'_3  and  C1'_4 
REMARK    3  A    between atoms: C1'_4  and  C1_5 
ROOT
ATOM      1  C1  N4B d   1       0.136  -1.067   2.838  0.00  0.00    -0.075 A 
ATOM      2  C2  N4B d   1      -1.274  -0.993   2.880  0.00  0.00     0.002 A 
ATOM      3  C3  N4B d   1      -1.944  -0.163   2.014  0.00  0.00     0.002 A 
ATOM      4  C4  N4B d   1      -1.227   0.613   1.115  0.00  0.00    -0.004 A 
ATOM      5  C5  N4B d   1       0.132   0.516   1.064  0.00  0.00     0.002 A 
ATOM      6  C6  N4B d   1       0.819  -0.316   1.925  0.00  0.00     0.002 A 
ENDROOT
BRANCH   1   7
ATOM      7  C1' N4B d   1       0.917  -1.895   3.821  0.00  0.00     0.057 C 
BRANCH   7   8
ATOM      8  C2' N4B d   1       2.323  -1.318   3.956  0.00  0.00     0.009 C 
BRANCH   8   9
ATOM      9  C3' N4B d   1       2.334  -0.031   4.764  0.00  0.00     0.004 C 
ATOM     10  C4' N4B d   1       3.671   0.648   4.757  0.00  0.00     0.003 C 
ENDBRANCH   8   9
ENDBRANCH   7   8
ENDBRANCH   1   7
TORSDOF 3
ENDMDL
