MODEL 1
REMARK minimizedAffinity 0.690054774
REMARK minimizedRMSD -1
REMARK  3 active torsions:
REMARK  status: ('A' for Active; 'I' for Inactive)
REMARK    1  A    between atoms: C3'_2  and  C2'_3 
REMARK    2  A    between atoms: C2'_3  and  C1'_4 
REMARK    3  A    between atoms: C1'_4  and  C1_5 
ROOT
ATOM      1  C1  N4B d   1      -1.248  -0.084   1.741  0.00  0.00    -0.075 A 
ATOM      2  C2  N4B d   1      -1.825  -1.159   1.030  0.00  0.00     0.002 A 
ATOM      3  C3  N4B d   1      -2.312  -0.960  -0.239  0.00  0.00     0.002 A 
ATOM      4  C4  N4B d   1      -2.251   0.304  -0.806  0.00  0.00    -0.004 A 
ATOM      5  C5  N4B d   1      -1.670   1.331  -0.122  0.00  0.00     0.002 A 
ATOM      6  C6  N4B d   1      -1.173   1.145   1.152  0.00  0.00     0.002 A 
ENDROOT
BRANCH   1   7
ATOM      7  C1' N4B d   1      -0.780  -0.233   3.163  0.00  0.00     0.057 C 
BRANCH   7   8
ATOM      8  C2' N4B d   1       0.395  -1.206   3.204  0.00  0.00     0.009 C 
BRANCH   8   9
ATOM      9  C3' N4B d   1       0.884  -1.446   4.622  0.00  0.00     0.004 C 
ATOM     10  C4' N4B d   1       2.377  -1.555   4.711  0.00  0.00     0.003 C 
ENDBRANCH   8   9
ENDBRANCH   7   8
ENDBRANCH   1   7
TORSDOF 3
ENDMDL
