MODEL 1
REMARK minimizedAffinity 0.669585586
REMARK minimizedRMSD -1
REMARK  3 active torsions:
REMARK  status: ('A' for Active; 'I' for Inactive)
REMARK    1  A    between atoms: C3'_2  and  C2'_3 
REMARK    2  A    between atoms: C2'_3  and  C1'_4 
REMARK    3  A    between atoms: C1'_4  and  C1_5 
ROOT
ATOM      1  C1  N4B d   1       0.236  -1.320   3.562  0.00  0.00    -0.075 A 
ATOM      2  C2  N4B d   1      -0.149  -0.412   2.551  0.00  0.00     0.002 A 
ATOM      3  C3  N4B d   1      -1.460  -0.348   2.149  0.00  0.00     0.002 A 
ATOM      4  C4  N4B d   1      -2.397  -1.191   2.728  0.00  0.00    -0.004 A 
ATOM      5  C5  N4B d   1      -2.022  -2.047   3.722  0.00  0.00     0.002 A 
ATOM      6  C6  N4B d   1      -0.708  -2.119   4.139  0.00  0.00     0.002 A 
ENDROOT
BRANCH   1   7
ATOM      7  C1' N4B d   1       1.673  -1.486   3.975  0.00  0.00     0.057 C 
BRANCH   7   8
ATOM      8  C2' N4B d   1       1.762  -1.471   5.498  0.00  0.00     0.009 C 
BRANCH   8   9
ATOM      9  C3' N4B d   1       3.066  -2.069   5.997  0.00  0.00     0.004 C 
ATOM     10  C4' N4B d   1       4.194  -1.081   6.000  0.00  0.00     0.003 C 
ENDBRANCH   8   9
ENDBRANCH   7   8
ENDBRANCH   1   7
TORSDOF 3
ENDMDL
