MODEL 1
REMARK minimizedAffinity 4.92711639
REMARK minimizedRMSD -1
REMARK  3 active torsions:
REMARK  status: ('A' for Active; 'I' for Inactive)
REMARK    1  A    between atoms: C3'_2  and  C2'_3 
REMARK    2  A    between atoms: C2'_3  and  C1'_4 
REMARK    3  A    between atoms: C1'_4  and  C1_5 
ROOT
ATOM      1  C1  N4B d   1       1.857  -4.887  -4.535  0.00  0.00    -0.075 A 
ATOM      2  C2  N4B d   1       0.752  -5.471  -5.191  0.00  0.00     0.002 A 
ATOM      3  C3  N4B d   1      -0.281  -6.000  -4.457  0.00  0.00     0.002 A 
ATOM      4  C4  N4B d   1      -0.222  -5.972  -3.071  0.00  0.00    -0.004 A 
ATOM      5  C5  N4B d   1       0.837  -5.383  -2.446  0.00  0.00     0.002 A 
ATOM      6  C6  N4B d   1       1.881  -4.844  -3.171  0.00  0.00     0.002 A 
ENDROOT
BRANCH   1   7
ATOM      7  C1' N4B d   1       3.050  -4.373  -5.294  0.00  0.00     0.057 C 
BRANCH   7   8
ATOM      8  C2' N4B d   1       3.821  -3.395  -4.413  0.00  0.00     0.009 C 
BRANCH   8   9
ATOM      9  C3' N4B d   1       4.119  -2.092  -5.136  0.00  0.00     0.004 C 
ATOM     10  C4' N4B d   1       3.705  -0.885  -4.349  0.00  0.00     0.003 C 
ENDBRANCH   8   9
ENDBRANCH   7   8
ENDBRANCH   1   7
TORSDOF 3
ENDMDL
