MODEL 1
REMARK minimizedAffinity 1.77797544
REMARK minimizedRMSD -1
REMARK  3 active torsions:
REMARK  status: ('A' for Active; 'I' for Inactive)
REMARK    1  A    between atoms: C3'_2  and  C2'_3 
REMARK    2  A    between atoms: C2'_3  and  C1'_4 
REMARK    3  A    between atoms: C1'_4  and  C1_5 
ROOT
ATOM      1  C1  N4B d   1      -0.101  -1.126   2.883  0.00  0.00    -0.075 A 
ATOM      2  C2  N4B d   1      -1.452  -0.756   2.700  0.00  0.00     0.002 A 
ATOM      3  C3  N4B d   1      -1.768   0.317   1.904  0.00  0.00     0.002 A 
ATOM      4  C4  N4B d   1      -0.754   1.044   1.298  0.00  0.00    -0.004 A 
ATOM      5  C5  N4B d   1       0.546   0.665   1.459  0.00  0.00     0.002 A 
ATOM      6  C6  N4B d   1       0.879  -0.414   2.253  0.00  0.00     0.002 A 
ENDROOT
BRANCH   1   7
ATOM      7  C1' N4B d   1       0.299  -2.239   3.812  0.00  0.00     0.057 C 
BRANCH   7   8
ATOM      8  C2' N4B d   1       1.780  -2.101   4.150  0.00  0.00     0.009 C 
BRANCH   8   9
ATOM      9  C3' N4B d   1       2.004  -1.850   5.632  0.00  0.00     0.004 C 
ATOM     10  C4' N4B d   1       3.457  -1.797   5.999  0.00  0.00     0.003 C 
ENDBRANCH   8   9
ENDBRANCH   7   8
ENDBRANCH   1   7
TORSDOF 3
ENDMDL
