MODEL 1
REMARK minimizedAffinity 2.04669356
REMARK minimizedRMSD -1
REMARK  3 active torsions:
REMARK  status: ('A' for Active; 'I' for Inactive)
REMARK    1  A    between atoms: C3'_2  and  C2'_3 
REMARK    2  A    between atoms: C2'_3  and  C1'_4 
REMARK    3  A    between atoms: C1'_4  and  C1_5 
ROOT
ATOM      1  C1  N4B d   1       0.601  -1.551   3.391  0.00  0.00    -0.075 A 
ATOM      2  C2  N4B d   1       1.565  -1.191   2.423  0.00  0.00     0.002 A 
ATOM      3  C3  N4B d   1       1.221  -0.353   1.391  0.00  0.00     0.002 A 
ATOM      4  C4  N4B d   1      -0.079   0.120   1.295  0.00  0.00    -0.004 A 
ATOM      5  C5  N4B d   1      -0.997  -0.212   2.248  0.00  0.00     0.002 A 
ATOM      6  C6  N4B d   1      -0.665  -1.050   3.293  0.00  0.00     0.002 A 
ENDROOT
BRANCH   1   7
ATOM      7  C1' N4B d   1       0.906  -2.532   4.489  0.00  0.00     0.057 C 
BRANCH   7   8
ATOM      8  C2' N4B d   1       1.522  -1.786   5.670  0.00  0.00     0.009 C 
BRANCH   8   9
ATOM      9  C3' N4B d   1       2.920  -2.286   5.991  0.00  0.00     0.004 C 
ATOM     10  C4' N4B d   1       3.942  -1.189   6.000  0.00  0.00     0.003 C 
ENDBRANCH   8   9
ENDBRANCH   7   8
ENDBRANCH   1   7
TORSDOF 3
ENDMDL
