MODEL 1
REMARK minimizedAffinity 11.4062891
REMARK minimizedRMSD -1
REMARK  0 active torsions:
REMARK  status: ('A' for Active; 'I' for Inactive)
ROOT
ATOM      1  C   UNL d   1       2.034   2.747  -0.283  0.00  0.00    -0.002 A 
ATOM      2  C1  UNL d   1       1.757   2.522  -1.624  0.00  0.00     0.010 A 
ATOM      3  C2  UNL d   1       1.986   1.269  -2.196  0.00  0.00     0.041 A 
ATOM      4  C3  UNL d   1       2.501   0.235  -1.389  0.00  0.00    -0.075 A 
ATOM      5  S   UNL d   1       2.861  -1.380  -1.872  0.00  0.00     0.015 SA
ATOM      6  C4  UNL d   1       3.389  -1.809  -0.309  0.00  0.00     0.022 A 
ATOM      7  C5  UNL d   1       3.300  -0.758   0.572  0.00  0.00     0.026 A 
ATOM      8  C6  UNL d   1       2.787   0.438  -0.035  0.00  0.00    -0.082 A 
ATOM      9  C7  UNL d   1       2.545   1.720   0.514  0.00  0.00     0.045 A 
ENDROOT
TORSDOF 0
ENDMDL
