MODEL 1
REMARK minimizedAffinity 6.40189552
REMARK minimizedRMSD -1
REMARK  0 active torsions:
REMARK  status: ('A' for Active; 'I' for Inactive)
ROOT
ATOM      1  C   UNL d   1      -0.560  -0.324   3.107  0.00  0.00    -0.002 A 
ATOM      2  C1  UNL d   1      -1.206  -0.851   1.998  0.00  0.00     0.010 A 
ATOM      3  C2  UNL d   1      -0.489  -1.554   1.027  0.00  0.00     0.041 A 
ATOM      4  C3  UNL d   1       0.900  -1.720   1.192  0.00  0.00    -0.075 A 
ATOM      5  S   UNL d   1       1.981  -2.544   0.132  0.00  0.00     0.015 SA
ATOM      6  C4  UNL d   1       3.325  -2.215   1.127  0.00  0.00     0.022 A 
ATOM      7  C5  UNL d   1       2.976  -1.495   2.245  0.00  0.00     0.026 A 
ATOM      8  C6  UNL d   1       1.572  -1.198   2.301  0.00  0.00    -0.082 A 
ATOM      9  C7  UNL d   1       0.818  -0.490   3.267  0.00  0.00     0.045 A 
ENDROOT
TORSDOF 0
ENDMDL
