MODEL 1
REMARK minimizedAffinity 6.17738581
REMARK minimizedRMSD -1
REMARK  0 active torsions:
REMARK  status: ('A' for Active; 'I' for Inactive)
ROOT
ATOM      1  C   UNL d   1      -0.205  -0.287   2.672  0.00  0.00    -0.002 A 
ATOM      2  C1  UNL d   1      -0.845  -0.546   1.468  0.00  0.00     0.010 A 
ATOM      3  C2  UNL d   1      -0.183  -1.227   0.445  0.00  0.00     0.041 A 
ATOM      4  C3  UNL d   1       1.144  -1.650   0.654  0.00  0.00    -0.075 A 
ATOM      5  S   UNL d   1       2.152  -2.501  -0.456  0.00  0.00     0.015 SA
ATOM      6  C4  UNL d   1       3.455  -2.542   0.642  0.00  0.00     0.022 A 
ATOM      7  C5  UNL d   1       3.146  -1.926   1.832  0.00  0.00     0.026 A 
ATOM      8  C6  UNL d   1       1.809  -1.402   1.859  0.00  0.00    -0.082 A 
ATOM      9  C7  UNL d   1       1.112  -0.708   2.877  0.00  0.00     0.045 A 
ENDROOT
TORSDOF 0
ENDMDL
