MODEL 1
REMARK minimizedAffinity 9.01115894
REMARK minimizedRMSD -1
REMARK  0 active torsions:
REMARK  status: ('A' for Active; 'I' for Inactive)
ROOT
ATOM      1  C   UNL d   1       2.913  -1.185   2.876  0.00  0.00    -0.002 A 
ATOM      2  C1  UNL d   1       2.815  -1.967   1.734  0.00  0.00     0.010 A 
ATOM      3  C2  UNL d   1       1.568  -2.271   1.185  0.00  0.00     0.041 A 
ATOM      4  C3  UNL d   1       0.409  -1.768   1.808  0.00  0.00    -0.075 A 
ATOM      5  S   UNL d   1      -1.225  -2.009   1.314  0.00  0.00     0.015 SA
ATOM      6  C4  UNL d   1      -1.832  -1.079   2.606  0.00  0.00     0.022 A 
ATOM      7  C5  UNL d   1      -0.827  -0.589   3.406  0.00  0.00     0.026 A 
ATOM      8  C6  UNL d   1       0.481  -0.978   2.959  0.00  0.00    -0.082 A 
ATOM      9  C7  UNL d   1       1.761  -0.689   3.492  0.00  0.00     0.045 A 
ENDROOT
TORSDOF 0
ENDMDL
