MODEL 1
REMARK minimizedAffinity 15.6786232
REMARK minimizedRMSD -1
REMARK  0 active torsions:
REMARK  status: ('A' for Active; 'I' for Inactive)
ROOT
ATOM      1  C   UNL d   1      -3.724  -5.618  -4.845  0.00  0.00     0.020 A 
ATOM      2  C1  UNL d   1      -3.031  -5.999  -5.992  0.00  0.00     0.020 A 
ATOM      3  C2  UNL d   1      -1.634  -5.991  -5.999  0.00  0.00     0.034 A 
ATOM      4  C3  UNL d   1      -0.927  -5.601  -4.856  0.00  0.00     0.017 A 
ATOM      5  C4  UNL d   1      -1.624  -5.218  -3.705  0.00  0.00     0.017 A 
ATOM      6  C5  UNL d   1      -3.022  -5.228  -3.703  0.00  0.00     0.034 A 
ATOM      7 Cl   UNL d   1      -0.821  -4.724  -2.256  0.00  0.00    -0.070 Cl
ATOM      8 Cl1  UNL d   1       0.799  -5.615  -4.936  0.00  0.00    -0.070 Cl
ENDROOT
TORSDOF 0
ENDMDL
