MODEL 1
REMARK minimizedAffinity 6.73737478
REMARK minimizedRMSD -1
REMARK  0 active torsions:
REMARK  status: ('A' for Active; 'I' for Inactive)
ROOT
ATOM      1  C   UNL d   1       1.503   4.446  -1.435  0.00  0.00     0.020 A 
ATOM      2  C1  UNL d   1       0.117   4.506  -1.566  0.00  0.00     0.020 A 
ATOM      3  C2  UNL d   1      -0.697   3.735  -0.735  0.00  0.00     0.034 A 
ATOM      4  C3  UNL d   1      -0.125   2.899   0.232  0.00  0.00     0.017 A 
ATOM      5  C4  UNL d   1       1.267   2.840   0.363  0.00  0.00     0.017 A 
ATOM      6  C5  UNL d   1       2.077   3.615  -0.473  0.00  0.00     0.034 A 
ATOM      7 Cl   UNL d   1       2.046   1.833   1.532  0.00  0.00    -0.070 Cl
ATOM      8 Cl1  UNL d   1      -1.192   1.973   1.227  0.00  0.00    -0.070 Cl
ENDROOT
TORSDOF 0
ENDMDL
