MODEL 1
REMARK minimizedAffinity 8.6261692
REMARK minimizedRMSD -1
REMARK  0 active torsions:
REMARK  status: ('A' for Active; 'I' for Inactive)
ROOT
ATOM      1  C   UNL d   1       5.651  -4.766  -0.473  0.00  0.00     0.020 A 
ATOM      2  C1  UNL d   1       4.884  -5.814  -0.980  0.00  0.00     0.020 A 
ATOM      3  C2  UNL d   1       3.538  -5.608  -1.290  0.00  0.00     0.034 A 
ATOM      4  C3  UNL d   1       2.955  -4.350  -1.094  0.00  0.00     0.017 A 
ATOM      5  C4  UNL d   1       3.726  -3.299  -0.585  0.00  0.00     0.017 A 
ATOM      6  C5  UNL d   1       5.073  -3.511  -0.276  0.00  0.00     0.034 A 
ATOM      7 Cl   UNL d   1       3.078  -1.720  -0.316  0.00  0.00    -0.070 Cl
ATOM      8 Cl1  UNL d   1       1.286  -4.166  -1.501  0.00  0.00    -0.070 Cl
ENDROOT
TORSDOF 0
ENDMDL
