MODEL 1
REMARK minimizedAffinity 8.13850021
REMARK minimizedRMSD -1
REMARK  0 active torsions:
REMARK  status: ('A' for Active; 'I' for Inactive)
ROOT
ATOM      1  C   UNL d   1      -1.148   2.447  -0.516  0.00  0.00     0.020 A 
ATOM      2  C1  UNL d   1      -0.920   1.755   0.674  0.00  0.00     0.020 A 
ATOM      3  C2  UNL d   1       0.266   1.957   1.383  0.00  0.00     0.034 A 
ATOM      4  C3  UNL d   1       1.229   2.853   0.903  0.00  0.00     0.017 A 
ATOM      5  C4  UNL d   1       1.000   3.546  -0.291  0.00  0.00     0.017 A 
ATOM      6  C5  UNL d   1      -0.190   3.340  -0.997  0.00  0.00     0.034 A 
ATOM      7 Cl   UNL d   1       2.141   4.667  -0.946  0.00  0.00    -0.070 Cl
ATOM      8 Cl1  UNL d   1       2.673   3.054   1.831  0.00  0.00    -0.070 Cl
ENDROOT
TORSDOF 0
ENDMDL
