MODEL 1
REMARK minimizedAffinity 14.4748716
REMARK minimizedRMSD -1
REMARK  0 active torsions:
REMARK  status: ('A' for Active; 'I' for Inactive)
ROOT
ATOM      1  C   UNL d   1      -0.969   1.903  -0.874  0.00  0.00     0.020 A 
ATOM      2  C1  UNL d   1       0.394   2.157  -1.020  0.00  0.00     0.020 A 
ATOM      3  C2  UNL d   1       0.830   3.429  -1.399  0.00  0.00     0.034 A 
ATOM      4  C3  UNL d   1      -0.097   4.450  -1.634  0.00  0.00     0.017 A 
ATOM      5  C4  UNL d   1      -1.465   4.193  -1.488  0.00  0.00     0.017 A 
ATOM      6  C5  UNL d   1      -1.896   2.919  -1.107  0.00  0.00     0.034 A 
ATOM      7 Cl   UNL d   1      -2.670   5.403  -1.760  0.00  0.00    -0.070 Cl
ATOM      8 Cl1  UNL d   1       0.513   5.998  -2.100  0.00  0.00    -0.070 Cl
ENDROOT
TORSDOF 0
ENDMDL
