MODEL 1
REMARK minimizedAffinity 8.61662292
REMARK minimizedRMSD -1
REMARK  0 active torsions:
REMARK  status: ('A' for Active; 'I' for Inactive)
ROOT
ATOM      1  C   UNL d   1       0.547   4.815  -2.000  0.00  0.00     0.020 A 
ATOM      2  C1  UNL d   1      -0.261   5.944  -1.869  0.00  0.00     0.020 A 
ATOM      3  C2  UNL d   1      -1.225   6.000  -0.861  0.00  0.00     0.034 A 
ATOM      4  C3  UNL d   1      -1.384   4.925   0.022  0.00  0.00     0.017 A 
ATOM      5  C4  UNL d   1      -0.573   3.792  -0.110  0.00  0.00     0.017 A 
ATOM      6  C5  UNL d   1       0.391   3.742  -1.122  0.00  0.00     0.034 A 
ATOM      7 Cl   UNL d   1      -0.710   2.427   0.941  0.00  0.00    -0.070 Cl
ATOM      8 Cl1  UNL d   1      -2.596   5.062   1.246  0.00  0.00    -0.070 Cl
ENDROOT
TORSDOF 0
ENDMDL
