MODEL 1
REMARK minimizedAffinity 11.4372416
REMARK minimizedRMSD -1
REMARK  0 active torsions:
REMARK  status: ('A' for Active; 'I' for Inactive)
ROOT
ATOM      1  C   UNL d   1       4.613  -5.999  -3.306  0.00  0.00     0.020 A 
ATOM      2  C1  UNL d   1       5.586  -5.096  -3.732  0.00  0.00     0.020 A 
ATOM      3  C2  UNL d   1       5.999  -4.064  -2.887  0.00  0.00     0.034 A 
ATOM      4  C3  UNL d   1       5.439  -3.933  -1.611  0.00  0.00     0.017 A 
ATOM      5  C4  UNL d   1       4.462  -4.840  -1.184  0.00  0.00     0.017 A 
ATOM      6  C5  UNL d   1       4.052  -5.871  -2.035  0.00  0.00     0.034 A 
ATOM      7 Cl   UNL d   1       3.725  -4.742   0.376  0.00  0.00    -0.070 Cl
ATOM      8 Cl1  UNL d   1       5.997  -2.633  -0.618  0.00  0.00    -0.070 Cl
ENDROOT
TORSDOF 0
ENDMDL
