MODEL 1
REMARK minimizedAffinity 9.18389893
REMARK minimizedRMSD -1
REMARK  0 active torsions:
REMARK  status: ('A' for Active; 'I' for Inactive)
ROOT
ATOM      1  C   UNL d   1       0.317  -3.646  -1.144  0.00  0.00     0.020 A 
ATOM      2  C1  UNL d   1       1.224  -4.603  -0.689  0.00  0.00     0.020 A 
ATOM      3  C2  UNL d   1       2.298  -4.985  -1.496  0.00  0.00     0.034 A 
ATOM      4  C3  UNL d   1       2.468  -4.411  -2.761  0.00  0.00     0.017 A 
ATOM      5  C4  UNL d   1       1.556  -3.451  -3.216  0.00  0.00     0.017 A 
ATOM      6  C5  UNL d   1       0.483  -3.072  -2.405  0.00  0.00     0.034 A 
ATOM      7 Cl   UNL d   1       1.700  -2.699  -4.766  0.00  0.00    -0.070 Cl
ATOM      8 Cl1  UNL d   1       3.819  -4.931  -3.705  0.00  0.00    -0.070 Cl
ENDROOT
TORSDOF 0
ENDMDL
