MODEL 1
REMARK minimizedAffinity 6.52582312
REMARK minimizedRMSD -1
REMARK  0 active torsions:
REMARK  status: ('A' for Active; 'I' for Inactive)
ROOT
ATOM      1  C   UNL d   1      -1.094   3.643   0.075  0.00  0.00     0.020 A 
ATOM      2  C1  UNL d   1      -0.914   3.013  -1.156  0.00  0.00     0.020 A 
ATOM      3  C2  UNL d   1       0.040   2.002  -1.289  0.00  0.00     0.034 A 
ATOM      4  C3  UNL d   1       0.818   1.618  -0.191  0.00  0.00     0.017 A 
ATOM      5  C4  UNL d   1       0.636   2.252   1.044  0.00  0.00     0.017 A 
ATOM      6  C5  UNL d   1      -0.321   3.263   1.172  0.00  0.00     0.034 A 
ATOM      7 Cl   UNL d   1       1.558   1.832   2.445  0.00  0.00    -0.070 Cl
ATOM      8 Cl1  UNL d   1       1.979   0.361  -0.428  0.00  0.00    -0.070 Cl
ENDROOT
TORSDOF 0
ENDMDL
