MODEL 1
REMARK minimizedAffinity 7.82019997
REMARK minimizedRMSD -1
REMARK  0 active torsions:
REMARK  status: ('A' for Active; 'I' for Inactive)
ROOT
ATOM      1  C   UNL d   1       0.468   1.744   1.014  0.00  0.00     0.020 A 
ATOM      2  C1  UNL d   1      -0.920   1.683   1.137  0.00  0.00     0.020 A 
ATOM      3  C2  UNL d   1      -1.724   2.568   0.415  0.00  0.00     0.034 A 
ATOM      4  C3  UNL d   1      -1.141   3.518  -0.432  0.00  0.00     0.017 A 
ATOM      5  C4  UNL d   1       0.252   3.578  -0.554  0.00  0.00     0.017 A 
ATOM      6  C5  UNL d   1       1.052   2.689   0.170  0.00  0.00     0.034 A 
ATOM      7 Cl   UNL d   1       1.044   4.722  -1.580  0.00  0.00    -0.070 Cl
ATOM      8 Cl1  UNL d   1      -2.196   4.581  -1.294  0.00  0.00    -0.070 Cl
ENDROOT
TORSDOF 0
ENDMDL
