MODEL 1
REMARK minimizedAffinity -5.69566488
REMARK minimizedRMSD -1
REMARK  0 active torsions:
REMARK  status: ('A' for Active; 'I' for Inactive)
ROOT
ATOM      1  O1  BZF d   1       0.425  -0.520  -0.166  0.00  0.00    -0.204 OA
ATOM      2  C2  BZF d   1      -0.828  -0.481  -0.748  0.00  0.00     0.174 A 
ATOM      3  C3  BZF d   1      -1.765  -0.129   0.156  0.00  0.00    -0.012 A 
ATOM      4  C3A BZF d   1      -1.041   0.154   1.357  0.00  0.00    -0.107 A 
ATOM      5  C4  BZF d   1      -1.416   0.569   2.603  0.00  0.00     0.055 A 
ATOM      6  C5  BZF d   1      -0.471   0.681   3.574  0.00  0.00    -0.016 A 
ATOM      7  C6  BZF d   1       0.854   0.381   3.335  0.00  0.00     0.022 A 
ATOM      8  C7  BZF d   1       1.275  -0.029   2.114  0.00  0.00     0.029 A 
ATOM      9  C7A BZF d   1       0.328  -0.111   1.122  0.00  0.00     0.058 A 
ENDROOT
TORSDOF 0
ENDMDL
