MODEL 1
REMARK minimizedAffinity -3.86232519
REMARK minimizedRMSD -1
REMARK  0 active torsions:
REMARK  status: ('A' for Active; 'I' for Inactive)
ROOT
ATOM      1  O1  BZF d   1      -1.415   0.656   2.091  0.00  0.00    -0.204 OA
ATOM      2  C2  BZF d   1      -1.003   1.483   3.119  0.00  0.00     0.174 A 
ATOM      3  C3  BZF d   1       0.312   1.763   3.010  0.00  0.00    -0.012 A 
ATOM      4  C3A BZF d   1       0.729   1.143   1.790  0.00  0.00    -0.107 A 
ATOM      5  C4  BZF d   1       1.922   1.079   1.129  0.00  0.00     0.055 A 
ATOM      6  C5  BZF d   1       2.012   0.331  -0.002  0.00  0.00    -0.016 A 
ATOM      7  C6  BZF d   1       0.931  -0.369  -0.497  0.00  0.00     0.022 A 
ATOM      8  C7  BZF d   1      -0.275  -0.332   0.120  0.00  0.00     0.029 A 
ATOM      9  C7A BZF d   1      -0.377   0.450   1.245  0.00  0.00     0.058 A 
ENDROOT
TORSDOF 0
ENDMDL
