MODEL 1
REMARK minimizedAffinity -0.270643443
REMARK minimizedRMSD -1
REMARK  0 active torsions:
REMARK  status: ('A' for Active; 'I' for Inactive)
ROOT
ATOM      1  O1  BZF d   1       0.506  -1.558  -0.239  0.00  0.00    -0.204 OA
ATOM      2  C2  BZF d   1       0.574  -0.259   0.224  0.00  0.00     0.174 A 
ATOM      3  C3  BZF d   1      -0.644   0.319   0.211  0.00  0.00    -0.012 A 
ATOM      4  C3A BZF d   1      -1.545  -0.712  -0.206  0.00  0.00    -0.107 A 
ATOM      5  C4  BZF d   1      -2.896  -0.758  -0.397  0.00  0.00     0.055 A 
ATOM      6  C5  BZF d   1      -3.457  -1.899  -0.879  0.00  0.00    -0.016 A 
ATOM      7  C6  BZF d   1      -2.696  -3.008  -1.185  0.00  0.00     0.022 A 
ATOM      8  C7  BZF d   1      -1.353  -3.012  -1.007  0.00  0.00     0.029 A 
ATOM      9  C7A BZF d   1      -0.787  -1.873  -0.489  0.00  0.00     0.058 A 
ENDROOT
TORSDOF 0
ENDMDL
