MODEL 1
REMARK minimizedAffinity 3.88327479
REMARK minimizedRMSD -1
REMARK  0 active torsions:
REMARK  status: ('A' for Active; 'I' for Inactive)
ROOT
ATOM      1  O1  BZF d   1      -2.046  -1.065   0.971  0.00  0.00    -0.204 OA
ATOM      2  C2  BZF d   1      -1.632  -1.521  -0.266  0.00  0.00     0.174 A 
ATOM      3  C3  BZF d   1      -0.402  -1.054  -0.561  0.00  0.00    -0.012 A 
ATOM      4  C3A BZF d   1       0.015  -0.331   0.601  0.00  0.00    -0.107 A 
ATOM      5  C4  BZF d   1       1.153   0.351   0.924  0.00  0.00     0.055 A 
ATOM      6  C5  BZF d   1       1.215   1.007   2.112  0.00  0.00    -0.016 A 
ATOM      7  C6  BZF d   1       0.157   1.008   2.997  0.00  0.00     0.022 A 
ATOM      8  C7  BZF d   1      -0.991   0.341   2.723  0.00  0.00     0.029 A 
ATOM      9  C7A BZF d   1      -1.044  -0.350   1.538  0.00  0.00     0.058 A 
ENDROOT
TORSDOF 0
ENDMDL
