MODEL 1
REMARK minimizedAffinity 3.38674951
REMARK minimizedRMSD -1
REMARK  0 active torsions:
REMARK  status: ('A' for Active; 'I' for Inactive)
ROOT
ATOM      1  O1  BZF d   1      -1.055   0.205   1.370  0.00  0.00    -0.204 OA
ATOM      2  C2  BZF d   1      -0.548   0.648   2.576  0.00  0.00     0.174 A 
ATOM      3  C3  BZF d   1       0.787   0.465   2.630  0.00  0.00    -0.012 A 
ATOM      4  C3A BZF d   1       1.150  -0.045   1.344  0.00  0.00    -0.107 A 
ATOM      5  C4  BZF d   1       2.338  -0.410   0.779  0.00  0.00     0.055 A 
ATOM      6  C5  BZF d   1       2.340  -0.938  -0.473  0.00  0.00    -0.016 A 
ATOM      7  C6  BZF d   1       1.173  -1.121  -1.186  0.00  0.00     0.022 A 
ATOM      8  C7  BZF d   1      -0.030  -0.770  -0.669  0.00  0.00     0.029 A 
ATOM      9  C7A BZF d   1      -0.031  -0.205   0.583  0.00  0.00     0.058 A 
ENDROOT
TORSDOF 0
ENDMDL
