MODEL 1
REMARK minimizedAffinity 0.751519918
REMARK minimizedRMSD -1
REMARK  0 active torsions:
REMARK  status: ('A' for Active; 'I' for Inactive)
ROOT
ATOM      1  O1  BZF d   1       0.543  -1.707  -0.641  0.00  0.00    -0.204 OA
ATOM      2  C2  BZF d   1       0.546  -0.526   0.077  0.00  0.00     0.174 A 
ATOM      3  C3  BZF d   1      -0.711  -0.071   0.253  0.00  0.00    -0.012 A 
ATOM      4  C3A BZF d   1      -1.558  -1.074  -0.314  0.00  0.00    -0.107 A 
ATOM      5  C4  BZF d   1      -2.913  -1.203  -0.432  0.00  0.00     0.055 A 
ATOM      6  C5  BZF d   1      -3.419  -2.269  -1.105  0.00  0.00    -0.016 A 
ATOM      7  C6  BZF d   1      -2.602  -3.221  -1.678  0.00  0.00     0.022 A 
ATOM      8  C7  BZF d   1      -1.252  -3.139  -1.584  0.00  0.00     0.029 A 
ATOM      9  C7A BZF d   1      -0.738  -2.080  -0.875  0.00  0.00     0.058 A 
ENDROOT
TORSDOF 0
ENDMDL
