MODEL 1
REMARK minimizedAffinity -3.92704892
REMARK minimizedRMSD -1
REMARK  0 active torsions:
REMARK  status: ('A' for Active; 'I' for Inactive)
ROOT
ATOM      1  O1  BZF d   1      -2.905  -0.015   1.145  0.00  0.00    -0.204 OA
ATOM      2  C2  BZF d   1      -2.962  -0.818   0.023  0.00  0.00     0.174 A 
ATOM      3  C3  BZF d   1      -1.731  -1.005  -0.495  0.00  0.00    -0.012 A 
ATOM      4  C3A BZF d   1      -0.838  -0.349   0.410  0.00  0.00    -0.107 A 
ATOM      5  C4  BZF d   1       0.518  -0.197   0.447  0.00  0.00     0.055 A 
ATOM      6  C5  BZF d   1       1.072   0.563   1.428  0.00  0.00    -0.016 A 
ATOM      7  C6  BZF d   1       0.300   1.189   2.384  0.00  0.00     0.022 A 
ATOM      8  C7  BZF d   1      -1.050   1.064   2.392  0.00  0.00     0.029 A 
ATOM      9  C7A BZF d   1      -1.610   0.270   1.422  0.00  0.00     0.058 A 
ENDROOT
TORSDOF 0
ENDMDL
