MODEL 1
REMARK minimizedAffinity -2.39789414
REMARK minimizedRMSD -1
REMARK  0 active torsions:
REMARK  status: ('A' for Active; 'I' for Inactive)
ROOT
ATOM      1  O1  BZF d   1       1.543  -0.451  -2.117  0.00  0.00    -0.204 OA
ATOM      2  C2  BZF d   1       0.877   0.669  -2.574  0.00  0.00     0.174 A 
ATOM      3  C3  BZF d   1       0.493   1.451  -1.544  0.00  0.00    -0.012 A 
ATOM      4  C3A BZF d   1       1.029   0.823  -0.375  0.00  0.00    -0.107 A 
ATOM      5  C4  BZF d   1       0.999   1.134   0.955  0.00  0.00     0.055 A 
ATOM      6  C5  BZF d   1       1.557   0.273   1.846  0.00  0.00    -0.016 A 
ATOM      7  C6  BZF d   1       2.147  -0.907   1.445  0.00  0.00     0.022 A 
ATOM      8  C7  BZF d   1       2.206  -1.255   0.136  0.00  0.00     0.029 A 
ATOM      9  C7A BZF d   1       1.672  -0.372  -0.770  0.00  0.00     0.058 A 
ENDROOT
TORSDOF 0
ENDMDL
