MODEL 1
REMARK minimizedAffinity 0.456613332
REMARK minimizedRMSD -1
REMARK  0 active torsions:
REMARK  status: ('A' for Active; 'I' for Inactive)
ROOT
ATOM      1  O1  BZF d   1       0.700  -0.211  -2.522  0.00  0.00    -0.204 OA
ATOM      2  C2  BZF d   1       0.123   0.938  -3.027  0.00  0.00     0.174 A 
ATOM      3  C3  BZF d   1      -0.278   1.751  -2.028  0.00  0.00    -0.012 A 
ATOM      4  C3A BZF d   1       0.154   1.109  -0.825  0.00  0.00    -0.107 A 
ATOM      5  C4  BZF d   1       0.064   1.435   0.498  0.00  0.00     0.055 A 
ATOM      6  C5  BZF d   1       0.522   0.557   1.428  0.00  0.00    -0.016 A 
ATOM      7  C6  BZF d   1       1.071  -0.657   1.072  0.00  0.00     0.022 A 
ATOM      8  C7  BZF d   1       1.187  -1.023  -0.228  0.00  0.00     0.029 A 
ATOM      9  C7A BZF d   1       0.755  -0.123  -1.172  0.00  0.00     0.058 A 
ENDROOT
TORSDOF 0
ENDMDL
