MODEL 1
REMARK minimizedAffinity 3.1736517
REMARK minimizedRMSD -1
REMARK  0 active torsions:
REMARK  status: ('A' for Active; 'I' for Inactive)
ROOT
ATOM      1  O1  BZF d   1       1.317   0.036  -0.497  0.00  0.00    -0.204 OA
ATOM      2  C2  BZF d   1       0.006   0.155  -0.078  0.00  0.00     0.174 A 
ATOM      3  C3  BZF d   1      -0.788   0.545  -1.096  0.00  0.00    -0.012 A 
ATOM      4  C3A BZF d   1       0.065   0.588  -2.243  0.00  0.00    -0.107 A 
ATOM      5  C4  BZF d   1      -0.144   0.891  -3.558  0.00  0.00     0.055 A 
ATOM      6  C5  BZF d   1       0.915   0.909  -4.409  0.00  0.00    -0.016 A 
ATOM      7  C6  BZF d   1       2.197   0.634  -3.979  0.00  0.00     0.022 A 
ATOM      8  C7  BZF d   1       2.454   0.324  -2.685  0.00  0.00     0.029 A 
ATOM      9  C7A BZF d   1       1.380   0.272  -1.829  0.00  0.00     0.058 A 
ENDROOT
TORSDOF 0
ENDMDL
