MODEL 1
REMARK minimizedAffinity 4.08694315
REMARK minimizedRMSD -1
REMARK  0 active torsions:
REMARK  status: ('A' for Active; 'I' for Inactive)
ROOT
ATOM      1  O1  BZF d   1       4.547  -0.903   5.721  0.00  0.00    -0.204 OA
ATOM      2  C2  BZF d   1       4.489  -2.255   5.999  0.00  0.00     0.174 A 
ATOM      3  C3  BZF d   1       3.239  -2.728   5.814  0.00  0.00    -0.012 A 
ATOM      4  C3A BZF d   1       2.490  -1.620   5.305  0.00  0.00    -0.107 A 
ATOM      5  C4  BZF d   1       1.191  -1.467   4.912  0.00  0.00     0.055 A 
ATOM      6  C5  BZF d   1       0.756  -0.236   4.534  0.00  0.00    -0.016 A 
ATOM      7  C6  BZF d   1       1.590   0.862   4.541  0.00  0.00     0.022 A 
ATOM      8  C7  BZF d   1       2.888   0.759   4.918  0.00  0.00     0.029 A 
ATOM      9  C7A BZF d   1       3.339  -0.490   5.269  0.00  0.00     0.058 A 
ENDROOT
TORSDOF 0
ENDMDL
