MODEL 1
REMARK minimizedAffinity 0.566839695
REMARK minimizedRMSD -1
REMARK  0 active torsions:
REMARK  status: ('A' for Active; 'I' for Inactive)
ROOT
ATOM      1  C   UNL d   1       0.216   0.598   0.672  0.00  0.00     0.124 A 
ATOM      2  C1  UNL d   1      -0.662  -0.235  -0.007  0.00  0.00     0.062 A 
ATOM      3  C2  UNL d   1      -1.736  -0.814   0.662  0.00  0.00     0.162 A 
ATOM      4  C3  UNL d   1      -1.939  -0.562   2.019  0.00  0.00    -0.034 A 
ATOM      5  C4  UNL d   1      -1.051   0.276   2.696  0.00  0.00     0.162 A 
ATOM      6  C5  UNL d   1       0.021   0.853   2.022  0.00  0.00     0.062 A 
ATOM      7  F   UNL d   1       0.869   1.657   2.680  0.00  0.00    -0.097 F 
ATOM      8  F1  UNL d   1      -1.216   0.540   4.000  0.00  0.00    -0.096 F 
ATOM      9  I   UNL d   1      -3.544  -1.426   3.023  0.00  0.00    -0.060 I 
ATOM     10  F2  UNL d   1      -2.569  -1.615  -0.019  0.00  0.00    -0.096 F 
ATOM     11  F3  UNL d   1      -0.475  -0.483  -1.311  0.00  0.00    -0.097 F 
ATOM     12  F4  UNL d   1       1.250   1.153   0.026  0.00  0.00    -0.092 F 
ENDROOT
TORSDOF 0
ENDMDL
