MODEL 1
REMARK minimizedAffinity -1.94171011
REMARK minimizedRMSD -1
REMARK  0 active torsions:
REMARK  status: ('A' for Active; 'I' for Inactive)
ROOT
ATOM      1  C   UNL d   1       1.386   0.458   1.883  0.00  0.00     0.124 A 
ATOM      2  C1  UNL d   1       0.239   1.008   1.327  0.00  0.00     0.062 A 
ATOM      3  C2  UNL d   1      -0.149   0.661   0.037  0.00  0.00     0.162 A 
ATOM      4  C3  UNL d   1       0.610  -0.242  -0.708  0.00  0.00    -0.034 A 
ATOM      5  C4  UNL d   1       1.763  -0.790  -0.143  0.00  0.00     0.162 A 
ATOM      6  C5  UNL d   1       2.147  -0.441   1.147  0.00  0.00     0.062 A 
ATOM      7  F   UNL d   1       3.255  -0.973   1.682  0.00  0.00    -0.097 F 
ATOM      8  F1  UNL d   1       2.515  -1.661  -0.832  0.00  0.00    -0.096 F 
ATOM      9  I   UNL d   1       0.032  -0.763  -2.639  0.00  0.00    -0.060 I 
ATOM     10  F2  UNL d   1      -1.262   1.208  -0.475  0.00  0.00    -0.096 F 
ATOM     11  F3  UNL d   1      -0.497   1.876   2.036  0.00  0.00    -0.097 F 
ATOM     12  F4  UNL d   1       1.758   0.794   3.124  0.00  0.00    -0.092 F 
ENDROOT
TORSDOF 0
ENDMDL
