MODEL 1
REMARK minimizedAffinity -4.01971912
REMARK minimizedRMSD -1
REMARK  0 active torsions:
REMARK  status: ('A' for Active; 'I' for Inactive)
ROOT
ATOM      1  C   UNL d   1      -2.037   0.342   1.467  0.00  0.00     0.124 A 
ATOM      2  C1  UNL d   1      -2.153   0.069   0.111  0.00  0.00     0.062 A 
ATOM      3  C2  UNL d   1      -1.036  -0.317  -0.623  0.00  0.00     0.162 A 
ATOM      4  C3  UNL d   1       0.208  -0.433  -0.003  0.00  0.00    -0.034 A 
ATOM      5  C4  UNL d   1       0.317  -0.156   1.361  0.00  0.00     0.162 A 
ATOM      6  C5  UNL d   1      -0.803   0.229   2.091  0.00  0.00     0.062 A 
ATOM      7  F   UNL d   1      -0.688   0.493   3.400  0.00  0.00    -0.097 F 
ATOM      8  F1  UNL d   1       1.498  -0.257   1.988  0.00  0.00    -0.096 F 
ATOM      9  I   UNL d   1       1.882  -1.009  -1.098  0.00  0.00    -0.060 I 
ATOM     10  F2  UNL d   1      -1.177  -0.574  -1.932  0.00  0.00    -0.096 F 
ATOM     11  F3  UNL d   1      -3.345   0.178  -0.493  0.00  0.00    -0.097 F 
ATOM     12  F4  UNL d   1      -3.114   0.714   2.172  0.00  0.00    -0.092 F 
ENDROOT
TORSDOF 0
ENDMDL
