MODEL 1
REMARK minimizedAffinity 0.168628663
REMARK minimizedRMSD -1
REMARK  0 active torsions:
REMARK  status: ('A' for Active; 'I' for Inactive)
ROOT
ATOM      1  C   UNL d   1      -0.634   0.242   1.845  0.00  0.00     0.124 A 
ATOM      2  C1  UNL d   1      -1.670   0.688   1.036  0.00  0.00     0.062 A 
ATOM      3  C2  UNL d   1      -1.559   0.614  -0.349  0.00  0.00     0.162 A 
ATOM      4  C3  UNL d   1      -0.406   0.090  -0.935  0.00  0.00    -0.034 A 
ATOM      5  C4  UNL d   1       0.632  -0.356  -0.115  0.00  0.00     0.162 A 
ATOM      6  C5  UNL d   1       0.516  -0.279   1.269  0.00  0.00     0.062 A 
ATOM      7  F   UNL d   1       1.518  -0.710   2.049  0.00  0.00    -0.097 F 
ATOM      8  F1  UNL d   1       1.754  -0.865  -0.646  0.00  0.00    -0.096 F 
ATOM      9  I   UNL d   1      -0.235  -0.023  -3.006  0.00  0.00    -0.060 I 
ATOM     10  F2  UNL d   1      -2.575   1.052  -1.106  0.00  0.00    -0.096 F 
ATOM     11  F3  UNL d   1      -2.782   1.193   1.590  0.00  0.00    -0.097 F 
ATOM     12  F4  UNL d   1      -0.744   0.316   3.178  0.00  0.00    -0.092 F 
ENDROOT
TORSDOF 0
ENDMDL
