MODEL 1
REMARK minimizedAffinity -0.606617808
REMARK minimizedRMSD -1
REMARK  0 active torsions:
REMARK  status: ('A' for Active; 'I' for Inactive)
ROOT
ATOM      1  C   UNL d   1       0.218   0.503   0.473  0.00  0.00     0.124 A 
ATOM      2  C1  UNL d   1      -0.700  -0.364  -0.104  0.00  0.00     0.062 A 
ATOM      3  C2  UNL d   1      -1.821  -0.774   0.612  0.00  0.00     0.162 A 
ATOM      4  C3  UNL d   1      -2.032  -0.318   1.913  0.00  0.00    -0.034 A 
ATOM      5  C4  UNL d   1      -1.104   0.553   2.487  0.00  0.00     0.162 A 
ATOM      6  C5  UNL d   1       0.015   0.960   1.768  0.00  0.00     0.062 A 
ATOM      7  F   UNL d   1       0.901   1.797   2.327  0.00  0.00    -0.097 F 
ATOM      8  F1  UNL d   1      -1.276   1.011   3.736  0.00  0.00    -0.096 F 
ATOM      9  I   UNL d   1      -3.707  -0.929   2.986  0.00  0.00    -0.060 I 
ATOM     10  F2  UNL d   1      -2.692  -1.612   0.029  0.00  0.00    -0.096 F 
ATOM     11  F3  UNL d   1      -0.506  -0.808  -1.354  0.00  0.00    -0.097 F 
ATOM     12  F4  UNL d   1       1.296   0.895  -0.217  0.00  0.00    -0.092 F 
ENDROOT
TORSDOF 0
ENDMDL
