MODEL 1
REMARK minimizedAffinity -2.5642457
REMARK minimizedRMSD -1
REMARK  1 active torsions:
REMARK  status: ('A' for Active; 'I' for Inactive)
REMARK    1  A    between atoms: N_2  and  C1_3 
ROOT
ATOM      1  C1  UNL d   1       0.374   1.002  -1.009  0.00  0.00     0.143 A 
ATOM      2  C2  UNL d   1       1.616   1.646  -1.019  0.00  0.00    -0.057 A 
ATOM      3  C3  UNL d   1       2.089   2.291  -2.168  0.00  0.00     0.033 A 
ATOM      4  C4  UNL d   1       1.339   2.279  -3.339  0.00  0.00    -0.042 A 
ATOM      5  C5  UNL d   1       0.113   1.624  -3.359  0.00  0.00     0.033 A 
ATOM      6  C6  UNL d   1      -0.357   0.987  -2.207  0.00  0.00    -0.057 A 
ENDROOT
BRANCH   1   7
ATOM      7  N   UNL d   1      -0.108   0.259   0.072  0.00  0.00    -0.732 N 
ATOM      8  C   UNL d   1       0.513  -0.996   0.439  0.00  0.00     0.284 C 
ATOM      9  H3  UNL d   1      -0.362   0.845   0.864  0.00  0.00     0.395 HD
ENDBRANCH   1   7
TORSDOF 1
ENDMDL
