MODEL 1
REMARK minimizedAffinity -1.38583469
REMARK minimizedRMSD -1
REMARK  1 active torsions:
REMARK  status: ('A' for Active; 'I' for Inactive)
REMARK    1  A    between atoms: N_2  and  C1_3 
ROOT
ATOM      1  C1  UNL d   1       0.304  -1.479   1.147  0.00  0.00     0.143 A 
ATOM      2  C2  UNL d   1      -0.863  -0.930   0.606  0.00  0.00    -0.057 A 
ATOM      3  C3  UNL d   1      -0.832   0.263  -0.127  0.00  0.00     0.033 A 
ATOM      4  C4  UNL d   1       0.367   0.944  -0.307  0.00  0.00    -0.042 A 
ATOM      5  C5  UNL d   1       1.535   0.430   0.243  0.00  0.00     0.033 A 
ATOM      6  C6  UNL d   1       1.499  -0.765   0.968  0.00  0.00    -0.057 A 
ENDROOT
BRANCH   1   7
ATOM      7  N   UNL d   1       0.324  -2.609   1.968  0.00  0.00    -0.732 N 
ATOM      8  C   UNL d   1       0.814  -2.525   3.327  0.00  0.00     0.284 C 
ATOM      9  H3  UNL d   1      -0.511  -3.181   1.863  0.00  0.00     0.395 HD
ENDBRANCH   1   7
TORSDOF 1
ENDMDL
