MODEL 1
REMARK minimizedAffinity -1.62470806
REMARK minimizedRMSD -1
REMARK  1 active torsions:
REMARK  status: ('A' for Active; 'I' for Inactive)
REMARK    1  A    between atoms: N_2  and  C1_3 
ROOT
ATOM      1  C1  UNL d   1       0.458  -0.312   0.269  0.00  0.00     0.143 A 
ATOM      2  C2  UNL d   1      -0.224  -0.839   1.371  0.00  0.00    -0.057 A 
ATOM      3  C3  UNL d   1      -0.156  -2.202   1.684  0.00  0.00     0.033 A 
ATOM      4  C4  UNL d   1       0.574  -3.071   0.880  0.00  0.00    -0.042 A 
ATOM      5  C5  UNL d   1       1.239  -2.574  -0.235  0.00  0.00     0.033 A 
ATOM      6  C6  UNL d   1       1.173  -1.211  -0.539  0.00  0.00    -0.057 A 
ENDROOT
BRANCH   1   7
ATOM      7  N   UNL d   1       0.350   1.016  -0.151  0.00  0.00    -0.732 N 
ATOM      8  C   UNL d   1       0.871   1.426  -1.438  0.00  0.00     0.284 C 
ATOM      9  H3  UNL d   1      -0.552   1.425   0.082  0.00  0.00     0.395 HD
ENDBRANCH   1   7
TORSDOF 1
ENDMDL
