MODEL 1
REMARK minimizedAffinity -2.65157413
REMARK minimizedRMSD -1
REMARK  1 active torsions:
REMARK  status: ('A' for Active; 'I' for Inactive)
REMARK    1  A    between atoms: N_2  and  C1_3 
ROOT
ATOM      1  C1  UNL d   1      -1.429  -0.917   1.711  0.00  0.00     0.143 A 
ATOM      2  C2  UNL d   1      -0.844  -2.188   1.709  0.00  0.00    -0.057 A 
ATOM      3  C3  UNL d   1       0.285  -2.466   0.930  0.00  0.00     0.033 A 
ATOM      4  C4  UNL d   1       0.834  -1.483   0.113  0.00  0.00    -0.042 A 
ATOM      5  C5  UNL d   1       0.254  -0.219   0.080  0.00  0.00     0.033 A 
ATOM      6  C6  UNL d   1      -0.869   0.054   0.866  0.00  0.00    -0.057 A 
ENDROOT
BRANCH   1   7
ATOM      7  N   UNL d   1      -2.610  -0.605   2.388  0.00  0.00    -0.732 N 
ATOM      8  C   UNL d   1      -3.132   0.744   2.377  0.00  0.00     0.284 C 
ATOM      9  H3  UNL d   1      -3.320  -1.327   2.283  0.00  0.00     0.395 HD
ENDBRANCH   1   7
TORSDOF 1
ENDMDL
