MODEL 1
REMARK minimizedAffinity -3.64505076
REMARK minimizedRMSD -1
REMARK  1 active torsions:
REMARK  status: ('A' for Active; 'I' for Inactive)
REMARK    1  A    between atoms: N_2  and  C1_3 
ROOT
ATOM      1  C1  UNL d   1      -1.191  -1.055   1.437  0.00  0.00     0.143 A 
ATOM      2  C2  UNL d   1      -0.464   0.017   0.907  0.00  0.00    -0.057 A 
ATOM      3  C3  UNL d   1       0.649  -0.197   0.084  0.00  0.00     0.033 A 
ATOM      4  C4  UNL d   1       1.073  -1.491  -0.200  0.00  0.00    -0.042 A 
ATOM      5  C5  UNL d   1       0.381  -2.571   0.337  0.00  0.00     0.033 A 
ATOM      6  C6  UNL d   1      -0.733  -2.351   1.152  0.00  0.00    -0.057 A 
ENDROOT
BRANCH   1   7
ATOM      7  N   UNL d   1      -2.246  -0.908   2.341  0.00  0.00    -0.732 N 
ATOM      8  C   UNL d   1      -2.934   0.359   2.470  0.00  0.00     0.284 C 
ATOM      9  H3  UNL d   1      -2.860  -1.718   2.356  0.00  0.00     0.395 HD
ENDBRANCH   1   7
TORSDOF 1
ENDMDL
