MODEL 1
REMARK minimizedAffinity -3.7204237
REMARK minimizedRMSD -1
REMARK  1 active torsions:
REMARK  status: ('A' for Active; 'I' for Inactive)
REMARK    1  A    between atoms: N_2  and  C1_3 
ROOT
ATOM      1  C1  UNL d   1       0.491   0.154  -0.542  0.00  0.00     0.143 A 
ATOM      2  C2  UNL d   1       1.087  -1.089  -0.779  0.00  0.00    -0.057 A 
ATOM      3  C3  UNL d   1       0.887  -2.169   0.090  0.00  0.00     0.033 A 
ATOM      4  C4  UNL d   1       0.108  -2.015   1.232  0.00  0.00    -0.042 A 
ATOM      5  C5  UNL d   1      -0.475  -0.781   1.501  0.00  0.00     0.033 A 
ATOM      6  C6  UNL d   1      -0.277   0.291   0.626  0.00  0.00    -0.057 A 
ENDROOT
BRANCH   1   7
ATOM      7  N   UNL d   1       0.731   1.292  -1.315  0.00  0.00    -0.732 N 
ATOM      8  C   UNL d   1       0.458   1.289  -2.736  0.00  0.00     0.284 C 
ATOM      9  H3  UNL d   1       0.455   2.149  -0.841  0.00  0.00     0.395 HD
ENDBRANCH   1   7
TORSDOF 1
ENDMDL
