MODEL 1
REMARK minimizedAffinity -1.15522254
REMARK minimizedRMSD -1
REMARK  1 active torsions:
REMARK  status: ('A' for Active; 'I' for Inactive)
REMARK    1  A    between atoms: N_2  and  C1_3 
ROOT
ATOM      1  C1  UNL d   1       0.918   1.602  -0.919  0.00  0.00     0.143 A 
ATOM      2  C2  UNL d   1       2.187   1.453  -1.488  0.00  0.00    -0.057 A 
ATOM      3  C3  UNL d   1       2.438   1.827  -2.814  0.00  0.00     0.033 A 
ATOM      4  C4  UNL d   1       1.411   2.331  -3.606  0.00  0.00    -0.042 A 
ATOM      5  C5  UNL d   1       0.136   2.465  -3.069  0.00  0.00     0.033 A 
ATOM      6  C6  UNL d   1      -0.106   2.096  -1.743  0.00  0.00    -0.057 A 
ENDROOT
BRANCH   1   7
ATOM      7  N   UNL d   1       0.583   1.157   0.362  0.00  0.00    -0.732 N 
ATOM      8  C   UNL d   1       0.704  -0.241   0.712  0.00  0.00     0.284 C 
ATOM      9  H3  UNL d   1       0.895   1.797   1.089  0.00  0.00     0.395 HD
ENDBRANCH   1   7
TORSDOF 1
ENDMDL
