MODEL 1
REMARK minimizedAffinity -1.29189217
REMARK minimizedRMSD -1
REMARK  1 active torsions:
REMARK  status: ('A' for Active; 'I' for Inactive)
REMARK    1  A    between atoms: N_2  and  C1_3 
ROOT
ATOM      1  C1  UNL d   1      -0.547  -0.732   1.102  0.00  0.00     0.143 A 
ATOM      2  C2  UNL d   1      -1.116   0.531   1.300  0.00  0.00    -0.057 A 
ATOM      3  C3  UNL d   1      -0.490   1.691   0.827  0.00  0.00     0.033 A 
ATOM      4  C4  UNL d   1       0.734   1.611   0.172  0.00  0.00    -0.042 A 
ATOM      5  C5  UNL d   1       1.330   0.369  -0.014  0.00  0.00     0.033 A 
ATOM      6  C6  UNL d   1       0.697  -0.787   0.455  0.00  0.00    -0.057 A 
ENDROOT
BRANCH   1   7
ATOM      7  N   UNL d   1      -1.071  -1.912   1.634  0.00  0.00    -0.732 N 
ATOM      8  C   UNL d   1      -0.635  -2.396   2.926  0.00  0.00     0.284 C 
ATOM      9  H3  UNL d   1      -2.072  -2.000   1.473  0.00  0.00     0.395 HD
ENDBRANCH   1   7
TORSDOF 1
ENDMDL
