MODEL 1
REMARK minimizedAffinity -1.67642033
REMARK minimizedRMSD -1
REMARK  1 active torsions:
REMARK  status: ('A' for Active; 'I' for Inactive)
REMARK    1  A    between atoms: C1_2  and  C2_3 
ROOT
ATOM      1  C2  UNL d   1      -0.097  -0.075   0.458  0.00  0.00    -0.076 A 
ATOM      2  C3  UNL d   1       0.703  -1.038  -0.179  0.00  0.00     0.004 A 
ATOM      3  C4  UNL d   1       0.493  -2.400   0.032  0.00  0.00    -0.003 A 
ATOM      4  C5  UNL d   1      -0.522  -2.820   0.885  0.00  0.00     0.000 A 
ATOM      5  C6  UNL d   1      -1.337  -1.878   1.512  0.00  0.00     0.000 A 
ATOM      6  C7  UNL d   1      -1.149  -0.502   1.297  0.00  0.00    -0.073 A 
ATOM      7  C8  UNL d   1      -2.053   0.470   2.004  0.00  0.00     0.078 C 
ENDROOT
BRANCH   1   8
ATOM      8  C1  UNL d   1       0.196   1.388   0.212  0.00  0.00     0.053 C 
ATOM      9  C   UNL d   1       0.997   1.616  -1.061  0.00  0.00     0.018 C 
ENDBRANCH   1   8
TORSDOF 1
ENDMDL
