MODEL 1
REMARK minimizedAffinity -4.83367777
REMARK minimizedRMSD -1
REMARK  1 active torsions:
REMARK  status: ('A' for Active; 'I' for Inactive)
REMARK    1  A    between atoms: C1_2  and  C2_3 
ROOT
ATOM      1  C2  UNL d   1      -0.467  -0.711  -0.069  0.00  0.00    -0.076 A 
ATOM      2  C3  UNL d   1      -1.841  -1.004  -0.094  0.00  0.00     0.004 A 
ATOM      3  C4  UNL d   1      -2.341  -2.153   0.516  0.00  0.00    -0.003 A 
ATOM      4  C5  UNL d   1      -1.474  -3.028   1.161  0.00  0.00     0.000 A 
ATOM      5  C6  UNL d   1      -0.109  -2.745   1.211  0.00  0.00     0.000 A 
ATOM      6  C7  UNL d   1       0.409  -1.582   0.615  0.00  0.00    -0.073 A 
ATOM      7  C8  UNL d   1       1.889  -1.328   0.693  0.00  0.00     0.078 C 
ENDROOT
BRANCH   1   8
ATOM      8  C1  UNL d   1       0.021   0.536  -0.772  0.00  0.00     0.053 C 
ATOM      9  C   UNL d   1      -0.035   1.767   0.121  0.00  0.00     0.018 C 
ENDBRANCH   1   8
TORSDOF 1
ENDMDL
