MODEL 1
REMARK minimizedAffinity -1.85019064
REMARK minimizedRMSD -1
REMARK  1 active torsions:
REMARK  status: ('A' for Active; 'I' for Inactive)
REMARK    1  A    between atoms: C1_2  and  C2_3 
ROOT
ATOM      1  C2  UNL d   1      -0.226  -0.533   0.094  0.00  0.00    -0.076 A 
ATOM      2  C3  UNL d   1      -1.438  -0.979  -0.461  0.00  0.00     0.004 A 
ATOM      3  C4  UNL d   1      -1.946  -2.241  -0.156  0.00  0.00    -0.003 A 
ATOM      4  C5  UNL d   1      -1.250  -3.077   0.710  0.00  0.00     0.000 A 
ATOM      5  C6  UNL d   1      -0.055  -2.645   1.283  0.00  0.00     0.000 A 
ATOM      6  C7  UNL d   1       0.463  -1.369   0.999  0.00  0.00    -0.073 A 
ATOM      7  C8  UNL d   1       1.759  -0.956   1.641  0.00  0.00     0.078 C 
ENDROOT
BRANCH   1   8
ATOM      8  C1  UNL d   1       0.289   0.834  -0.294  0.00  0.00     0.053 C 
ATOM      9  C   UNL d   1       0.472   0.983  -1.797  0.00  0.00     0.018 C 
ENDBRANCH   1   8
TORSDOF 1
ENDMDL
