MODEL 1
REMARK minimizedAffinity -6.07475805
REMARK minimizedRMSD -1
REMARK  1 active torsions:
REMARK  status: ('A' for Active; 'I' for Inactive)
REMARK    1  A    between atoms: C1_2  and  C2_3 
ROOT
ATOM      1  C2  UNL d   1      -0.252   0.174  -0.052  0.00  0.00    -0.076 A 
ATOM      2  C3  UNL d   1      -1.617   0.268   0.268  0.00  0.00     0.004 A 
ATOM      3  C4  UNL d   1      -2.323  -0.841   0.731  0.00  0.00    -0.003 A 
ATOM      4  C5  UNL d   1      -1.676  -2.062   0.882  0.00  0.00     0.000 A 
ATOM      5  C6  UNL d   1      -0.317  -2.169   0.586  0.00  0.00     0.000 A 
ATOM      6  C7  UNL d   1       0.414  -1.057   0.133  0.00  0.00    -0.073 A 
ATOM      7  C8  UNL d   1       1.875  -1.231  -0.177  0.00  0.00     0.078 C 
ENDROOT
BRANCH   1   8
ATOM      8  C1  UNL d   1       0.456   1.403  -0.576  0.00  0.00     0.053 C 
ATOM      9  C   UNL d   1       0.325   1.552  -2.084  0.00  0.00     0.018 C 
ENDBRANCH   1   8
TORSDOF 1
ENDMDL
