MODEL 1
REMARK minimizedAffinity -0.384572744
REMARK minimizedRMSD -1
REMARK  1 active torsions:
REMARK  status: ('A' for Active; 'I' for Inactive)
REMARK    1  A    between atoms: C1_2  and  C2_3 
ROOT
ATOM      1  C2  UNL d   1      -0.275  -2.126   1.652  0.00  0.00    -0.076 A 
ATOM      2  C3  UNL d   1      -1.608  -2.265   2.077  0.00  0.00     0.004 A 
ATOM      3  C4  UNL d   1      -2.627  -1.509   1.500  0.00  0.00    -0.003 A 
ATOM      4  C5  UNL d   1      -2.331  -0.602   0.489  0.00  0.00     0.000 A 
ATOM      5  C6  UNL d   1      -1.017  -0.464   0.043  0.00  0.00     0.000 A 
ATOM      6  C7  UNL d   1       0.020  -1.230   0.602  0.00  0.00    -0.073 A 
ATOM      7  C8  UNL d   1       1.420  -1.036   0.087  0.00  0.00     0.078 C 
ENDROOT
BRANCH   1   8
ATOM      8  C1  UNL d   1       0.792  -2.953   2.332  0.00  0.00     0.053 C 
ATOM      9  C   UNL d   1       0.654  -2.950   3.847  0.00  0.00     0.018 C 
ENDBRANCH   1   8
TORSDOF 1
ENDMDL
