MODEL 1
REMARK minimizedAffinity 1.32624364
REMARK minimizedRMSD -1
REMARK  1 active torsions:
REMARK  status: ('A' for Active; 'I' for Inactive)
REMARK    1  A    between atoms: C1_2  and  C2_3 
ROOT
ATOM      1  C2  UNL d   1      -1.233  -0.669   0.975  0.00  0.00    -0.076 A 
ATOM      2  C3  UNL d   1      -0.042  -0.061   0.542  0.00  0.00     0.004 A 
ATOM      3  C4  UNL d   1       1.172  -0.743   0.595  0.00  0.00    -0.003 A 
ATOM      4  C5  UNL d   1       1.215  -2.045   1.081  0.00  0.00     0.000 A 
ATOM      5  C6  UNL d   1       0.040  -2.670   1.498  0.00  0.00     0.000 A 
ATOM      6  C7  UNL d   1      -1.195  -2.002   1.436  0.00  0.00    -0.073 A 
ATOM      7  C8  UNL d   1      -2.429  -2.723   1.904  0.00  0.00     0.078 C 
ENDROOT
BRANCH   1   8
ATOM      8  C1  UNL d   1      -2.516   0.129   0.919  0.00  0.00     0.053 C 
ATOM      9  C   UNL d   1      -2.341   1.550   1.432  0.00  0.00     0.018 C 
ENDBRANCH   1   8
TORSDOF 1
ENDMDL
