MODEL 1
REMARK minimizedAffinity -4.8418417
REMARK minimizedRMSD -1
REMARK  1 active torsions:
REMARK  status: ('A' for Active; 'I' for Inactive)
REMARK    1  A    between atoms: C1_2  and  C2_3 
ROOT
ATOM      1  C2  UNL d   1      -0.187  -0.195   0.352  0.00  0.00    -0.076 A 
ATOM      2  C3  UNL d   1       0.620  -1.345   0.305  0.00  0.00     0.004 A 
ATOM      3  C4  UNL d   1       0.117  -2.591   0.674  0.00  0.00    -0.003 A 
ATOM      4  C5  UNL d   1      -1.203  -2.708   1.096  0.00  0.00     0.000 A 
ATOM      5  C6  UNL d   1      -2.023  -1.581   1.132  0.00  0.00     0.000 A 
ATOM      6  C7  UNL d   1      -1.536  -0.320   0.748  0.00  0.00    -0.073 A 
ATOM      7  C8  UNL d   1      -2.463   0.863   0.812  0.00  0.00     0.078 C 
ENDROOT
BRANCH   1   8
ATOM      8  C1  UNL d   1       0.421   1.134  -0.035  0.00  0.00     0.053 C 
ATOM      9  C   UNL d   1       0.504   1.321  -1.542  0.00  0.00     0.018 C 
ENDBRANCH   1   8
TORSDOF 1
ENDMDL
