MODEL 1
REMARK minimizedAffinity -0.282009542
REMARK minimizedRMSD -1
REMARK  1 active torsions:
REMARK  status: ('A' for Active; 'I' for Inactive)
REMARK    1  A    between atoms: C1_2  and  C2_3 
ROOT
ATOM      1  C2  UNL d   1       0.840  -0.041  -0.044  0.00  0.00    -0.076 A 
ATOM      2  C3  UNL d   1      -0.506   0.285   0.195  0.00  0.00     0.004 A 
ATOM      3  C4  UNL d   1      -1.335  -0.572   0.916  0.00  0.00    -0.003 A 
ATOM      4  C5  UNL d   1      -0.830  -1.770   1.411  0.00  0.00     0.000 A 
ATOM      5  C6  UNL d   1       0.507  -2.102   1.199  0.00  0.00     0.000 A 
ATOM      6  C7  UNL d   1       1.361  -1.241   0.487  0.00  0.00    -0.073 A 
ATOM      7  C8  UNL d   1       2.793  -1.651   0.282  0.00  0.00     0.078 C 
ENDROOT
BRANCH   1   8
ATOM      8  C1  UNL d   1       1.684   0.915  -0.857  0.00  0.00     0.053 C 
ATOM      9  C   UNL d   1       1.073   1.221  -2.216  0.00  0.00     0.018 C 
ENDBRANCH   1   8
TORSDOF 1
ENDMDL
