MODEL 1
REMARK minimizedAffinity -1.78204489
REMARK minimizedRMSD -1
REMARK  1 active torsions:
REMARK  status: ('A' for Active; 'I' for Inactive)
REMARK    1  A    between atoms: C1_2  and  C2_3 
ROOT
ATOM      1  C2  UNL d   1      -0.442   0.083   0.306  0.00  0.00    -0.076 A 
ATOM      2  C3  UNL d   1      -0.451   1.368   0.875  0.00  0.00     0.004 A 
ATOM      3  C4  UNL d   1      -1.639   1.950   1.315  0.00  0.00    -0.003 A 
ATOM      4  C5  UNL d   1      -2.837   1.255   1.194  0.00  0.00     0.000 A 
ATOM      5  C6  UNL d   1      -2.845  -0.028   0.648  0.00  0.00     0.000 A 
ATOM      6  C7  UNL d   1      -1.654  -0.635   0.214  0.00  0.00    -0.073 A 
ATOM      7  C8  UNL d   1      -1.721  -2.019  -0.372  0.00  0.00     0.078 C 
ENDROOT
BRANCH   1   8
ATOM      8  C1  UNL d   1       0.872  -0.485  -0.179  0.00  0.00     0.053 C 
ATOM      9  C   UNL d   1       1.579  -1.309   0.887  0.00  0.00     0.018 C 
ENDBRANCH   1   8
TORSDOF 1
ENDMDL
