MODEL 1
REMARK minimizedAffinity -3.82904768
REMARK minimizedRMSD -1
REMARK  1 active torsions:
REMARK  status: ('A' for Active; 'I' for Inactive)
REMARK    1  A    between atoms: C1_2  and  C2_3 
ROOT
ATOM      1  C2  UNL d   1       0.272   0.056   0.021  0.00  0.00    -0.076 A 
ATOM      2  C3  UNL d   1      -1.081   0.309   0.309  0.00  0.00     0.004 A 
ATOM      3  C4  UNL d   1      -1.855  -0.627   0.993  0.00  0.00    -0.003 A 
ATOM      4  C5  UNL d   1      -1.289  -1.830   1.401  0.00  0.00     0.000 A 
ATOM      5  C6  UNL d   1       0.056  -2.089   1.139  0.00  0.00     0.000 A 
ATOM      6  C7  UNL d   1       0.855  -1.150   0.465  0.00  0.00    -0.073 A 
ATOM      7  C8  UNL d   1       2.298  -1.484   0.205  0.00  0.00     0.078 C 
ENDROOT
BRANCH   1   8
ATOM      8  C1  UNL d   1       1.055   1.097  -0.747  0.00  0.00     0.053 C 
ATOM      9  C   UNL d   1       0.338   1.551  -2.009  0.00  0.00     0.018 C 
ENDBRANCH   1   8
TORSDOF 1
ENDMDL
