MODEL 1
REMARK minimizedAffinity -2.45500088
REMARK minimizedRMSD -1
REMARK  1 active torsions:
REMARK  status: ('A' for Active; 'I' for Inactive)
REMARK    1  A    between atoms: C1_2  and  C2_3 
ROOT
ATOM      1  C2  UNL d   1       0.287   1.268  -0.430  0.00  0.00    -0.076 A 
ATOM      2  C3  UNL d   1      -0.452   2.386  -0.005  0.00  0.00     0.004 A 
ATOM      3  C4  UNL d   1      -1.439   2.265   0.971  0.00  0.00    -0.003 A 
ATOM      4  C5  UNL d   1      -1.703   1.024   1.540  0.00  0.00     0.000 A 
ATOM      5  C6  UNL d   1      -0.967  -0.092   1.144  0.00  0.00     0.000 A 
ATOM      6  C7  UNL d   1       0.043   0.016   0.172  0.00  0.00    -0.073 A 
ATOM      7  C8  UNL d   1       0.801  -1.223  -0.222  0.00  0.00     0.078 C 
ENDROOT
BRANCH   1   8
ATOM      8  C1  UNL d   1       1.327   1.455  -1.512  0.00  0.00     0.053 C 
ATOM      9  C   UNL d   1       0.751   2.088  -2.769  0.00  0.00     0.018 C 
ENDBRANCH   1   8
TORSDOF 1
ENDMDL
