MODEL 1
REMARK minimizedAffinity -2.15889382
REMARK minimizedRMSD -1
REMARK  1 active torsions:
REMARK  status: ('A' for Active; 'I' for Inactive)
REMARK    1  A    between atoms: C1_2  and  C2_3 
ROOT
ATOM      1  C2  UNL d   1      -0.683  -0.983   0.491  0.00  0.00    -0.076 A 
ATOM      2  C3  UNL d   1      -1.639   0.018   0.736  0.00  0.00     0.004 A 
ATOM      3  C4  UNL d   1      -1.339   1.363   0.526  0.00  0.00    -0.003 A 
ATOM      4  C5  UNL d   1      -0.079   1.728   0.066  0.00  0.00     0.000 A 
ATOM      5  C6  UNL d   1       0.876   0.747  -0.199  0.00  0.00     0.000 A 
ATOM      6  C7  UNL d   1       0.585  -0.614  -0.008  0.00  0.00    -0.073 A 
ATOM      7  C8  UNL d   1       1.654  -1.630  -0.305  0.00  0.00     0.078 C 
ENDROOT
BRANCH   1   8
ATOM      8  C1  UNL d   1      -1.056  -2.423   0.763  0.00  0.00     0.053 C 
ATOM      9  C   UNL d   1      -1.001  -2.770   2.243  0.00  0.00     0.018 C 
ENDBRANCH   1   8
TORSDOF 1
ENDMDL
