MODEL 1
REMARK minimizedAffinity -4.1981039
REMARK minimizedRMSD -1
REMARK  1 active torsions:
REMARK  status: ('A' for Active; 'I' for Inactive)
REMARK    1  A    between atoms: C1_2  and  C2_3 
ROOT
ATOM      1  C2  UNL d   1      -0.753  -1.249   1.093  0.00  0.00    -0.076 A 
ATOM      2  C3  UNL d   1      -0.599  -1.972   2.289  0.00  0.00     0.004 A 
ATOM      3  C4  UNL d   1      -1.708  -2.387   3.023  0.00  0.00    -0.003 A 
ATOM      4  C5  UNL d   1      -2.989  -2.088   2.574  0.00  0.00     0.000 A 
ATOM      5  C6  UNL d   1      -3.161  -1.387   1.381  0.00  0.00     0.000 A 
ATOM      6  C7  UNL d   1      -2.054  -0.974   0.619  0.00  0.00    -0.073 A 
ATOM      7  C8  UNL d   1      -2.297  -0.216  -0.657  0.00  0.00     0.078 C 
ENDROOT
BRANCH   1   8
ATOM      8  C1  UNL d   1       0.487  -0.801   0.353  0.00  0.00     0.053 C 
ATOM      9  C   UNL d   1       1.769  -1.229   1.050  0.00  0.00     0.018 C 
ENDBRANCH   1   8
TORSDOF 1
ENDMDL
