MODEL 1
REMARK minimizedAffinity 7.28612041
REMARK minimizedRMSD -1
REMARK  1 active torsions:
REMARK  status: ('A' for Active; 'I' for Inactive)
REMARK    1  A    between atoms: C1_2  and  C2_3 
ROOT
ATOM      1  C2  UNL d   1      -5.067  -1.537  -3.017  0.00  0.00    -0.076 A 
ATOM      2  C3  UNL d   1      -5.999  -0.596  -2.547  0.00  0.00     0.004 A 
ATOM      3  C4  UNL d   1      -5.993  -0.183  -1.215  0.00  0.00    -0.003 A 
ATOM      4  C5  UNL d   1      -5.054  -0.705  -0.332  0.00  0.00     0.000 A 
ATOM      5  C6  UNL d   1      -4.111  -1.627  -0.785  0.00  0.00     0.000 A 
ATOM      6  C7  UNL d   1      -4.093  -2.041  -2.128  0.00  0.00    -0.073 A 
ATOM      7  C8  UNL d   1      -3.058  -3.043  -2.561  0.00  0.00     0.078 C 
ENDROOT
BRANCH   1   8
ATOM      8  C1  UNL d   1      -5.140  -1.967  -4.464  0.00  0.00     0.053 C 
ATOM      9  C   UNL d   1      -5.848  -0.946  -5.341  0.00  0.00     0.018 C 
ENDBRANCH   1   8
TORSDOF 1
ENDMDL
