MODEL 1
REMARK minimizedAffinity 0.485565633
REMARK minimizedRMSD -1
REMARK  0 active torsions:
REMARK  status: ('A' for Active; 'I' for Inactive)
ROOT
ATOM      1  C   UNL d   1       0.594   5.922  -0.706  0.00  0.00     0.078 C 
ATOM      2  C1  UNL d   1      -0.325   4.842  -0.217  0.00  0.00    -0.077 A 
ATOM      3  C2  UNL d   1      -1.475   5.153   0.519  0.00  0.00    -0.001 A 
ATOM      4  C3  UNL d   1      -2.317   4.138   0.976  0.00  0.00     0.003 A 
ATOM      5  C4  UNL d   1      -2.017   2.805   0.702  0.00  0.00    -0.005 A 
ATOM      6  C5  UNL d   1      -0.874   2.486  -0.027  0.00  0.00     0.003 A 
ATOM      7  C6  UNL d   1      -0.031   3.500  -0.485  0.00  0.00    -0.001 A 
ENDROOT
TORSDOF 0
ENDMDL
