MODEL 1
REMARK minimizedAffinity 1.63538539
REMARK minimizedRMSD -1
REMARK  0 active torsions:
REMARK  status: ('A' for Active; 'I' for Inactive)
ROOT
ATOM      1  C   UNL d   1      -1.297   2.111   1.863  0.00  0.00     0.078 C 
ATOM      2  C1  UNL d   1      -0.271   1.176   1.296  0.00  0.00    -0.077 A 
ATOM      3  C2  UNL d   1      -0.304   0.803  -0.053  0.00  0.00    -0.001 A 
ATOM      4  C3  UNL d   1       0.651  -0.076  -0.566  0.00  0.00     0.003 A 
ATOM      5  C4  UNL d   1       1.646  -0.591   0.264  0.00  0.00    -0.005 A 
ATOM      6  C5  UNL d   1       1.685  -0.227   1.608  0.00  0.00     0.003 A 
ATOM      7  C6  UNL d   1       0.730   0.652   2.123  0.00  0.00    -0.001 A 
ENDROOT
TORSDOF 0
ENDMDL
