MODEL 1
REMARK minimizedAffinity 1.03938532
REMARK minimizedRMSD -1
REMARK  0 active torsions:
REMARK  status: ('A' for Active; 'I' for Inactive)
ROOT
ATOM      1  C   UNL d   1       2.632  -0.737  -0.033  0.00  0.00     0.078 C 
ATOM      2  C1  UNL d   1       1.374  -0.456  -0.800  0.00  0.00    -0.077 A 
ATOM      3  C2  UNL d   1       0.858   0.843  -0.887  0.00  0.00    -0.001 A 
ATOM      4  C3  UNL d   1      -0.319   1.088  -1.596  0.00  0.00     0.003 A 
ATOM      5  C4  UNL d   1      -0.990   0.040  -2.222  0.00  0.00    -0.005 A 
ATOM      6  C5  UNL d   1      -0.485  -1.256  -2.140  0.00  0.00     0.003 A 
ATOM      7  C6  UNL d   1       0.692  -1.503  -1.431  0.00  0.00    -0.001 A 
ENDROOT
TORSDOF 0
ENDMDL
