MODEL 1
REMARK minimizedAffinity 2.47579122
REMARK minimizedRMSD -1
REMARK  0 active torsions:
REMARK  status: ('A' for Active; 'I' for Inactive)
ROOT
ATOM      1  C   UNL d   1       0.407   3.722  -1.271  0.00  0.00     0.078 C 
ATOM      2  C1  UNL d   1      -0.372   3.282  -0.068  0.00  0.00    -0.077 A 
ATOM      3  C2  UNL d   1       0.276   2.940   1.126  0.00  0.00    -0.001 A 
ATOM      4  C3  UNL d   1      -0.462   2.522   2.235  0.00  0.00     0.003 A 
ATOM      5  C4  UNL d   1      -1.851   2.441   2.161  0.00  0.00    -0.005 A 
ATOM      6  C5  UNL d   1      -2.504   2.776   0.977  0.00  0.00     0.003 A 
ATOM      7  C6  UNL d   1      -1.768   3.194  -0.133  0.00  0.00    -0.001 A 
ENDROOT
TORSDOF 0
ENDMDL
