MODEL 1
REMARK minimizedAffinity 7.49676752
REMARK minimizedRMSD -1
REMARK  0 active torsions:
REMARK  status: ('A' for Active; 'I' for Inactive)
ROOT
ATOM      1  C   UNL d   1      -0.472   3.491  -0.505  0.00  0.00     0.078 C 
ATOM      2  C1  UNL d   1      -0.948   2.716   0.687  0.00  0.00    -0.077 A 
ATOM      3  C2  UNL d   1      -0.041   2.059   1.528  0.00  0.00    -0.001 A 
ATOM      4  C3  UNL d   1      -0.499   1.333   2.629  0.00  0.00     0.003 A 
ATOM      5  C4  UNL d   1      -1.864   1.256   2.898  0.00  0.00    -0.005 A 
ATOM      6  C5  UNL d   1      -2.773   1.905   2.066  0.00  0.00     0.003 A 
ATOM      7  C6  UNL d   1      -2.318   2.631   0.964  0.00  0.00    -0.001 A 
ENDROOT
TORSDOF 0
ENDMDL
