MODEL 1
REMARK minimizedAffinity 4.69734001
REMARK minimizedRMSD -1
REMARK  0 active torsions:
REMARK  status: ('A' for Active; 'I' for Inactive)
ROOT
ATOM      1  C   UNL d   1       1.433  -4.510  -0.521  0.00  0.00     0.078 C 
ATOM      2  C1  UNL d   1       2.666  -3.756  -0.121  0.00  0.00    -0.077 A 
ATOM      3  C2  UNL d   1       2.593  -2.419   0.288  0.00  0.00    -0.001 A 
ATOM      4  C3  UNL d   1       3.751  -1.727   0.648  0.00  0.00     0.003 A 
ATOM      5  C4  UNL d   1       4.990  -2.363   0.601  0.00  0.00    -0.005 A 
ATOM      6  C5  UNL d   1       5.072  -3.693   0.192  0.00  0.00     0.003 A 
ATOM      7  C6  UNL d   1       3.916  -4.386  -0.168  0.00  0.00    -0.001 A 
ENDROOT
TORSDOF 0
ENDMDL
