MODEL 1
REMARK minimizedAffinity 2.23981357
REMARK minimizedRMSD -1
REMARK  0 active torsions:
REMARK  status: ('A' for Active; 'I' for Inactive)
ROOT
ATOM      1  C   UNL d   1       1.818  -4.513   0.256  0.00  0.00     0.078 C 
ATOM      2  C1  UNL d   1       2.854  -3.430   0.290  0.00  0.00    -0.077 A 
ATOM      3  C2  UNL d   1       2.504  -2.090   0.086  0.00  0.00    -0.001 A 
ATOM      4  C3  UNL d   1       3.481  -1.093   0.111  0.00  0.00     0.003 A 
ATOM      5  C4  UNL d   1       4.815  -1.426   0.338  0.00  0.00    -0.005 A 
ATOM      6  C5  UNL d   1       5.173  -2.758   0.540  0.00  0.00     0.003 A 
ATOM      7  C6  UNL d   1       4.198  -3.756   0.516  0.00  0.00    -0.001 A 
ENDROOT
TORSDOF 0
ENDMDL
