MODEL 1
REMARK minimizedAffinity 8.8721447
REMARK minimizedRMSD -1
REMARK  0 active torsions:
REMARK  status: ('A' for Active; 'I' for Inactive)
ROOT
ATOM      1  C   UNL d   1      -0.744   2.284   0.596  0.00  0.00     0.078 C 
ATOM      2  C1  UNL d   1      -0.724   1.248  -0.488  0.00  0.00    -0.077 A 
ATOM      3  C2  UNL d   1       0.478   0.853  -1.086  0.00  0.00    -0.001 A 
ATOM      4  C3  UNL d   1       0.481  -0.106  -2.101  0.00  0.00     0.003 A 
ATOM      5  C4  UNL d   1      -0.717  -0.676  -2.528  0.00  0.00    -0.005 A 
ATOM      6  C5  UNL d   1      -1.919  -0.287  -1.941  0.00  0.00     0.003 A 
ATOM      7  C6  UNL d   1      -1.923   0.672  -0.926  0.00  0.00    -0.001 A 
ENDROOT
TORSDOF 0
ENDMDL
