MODEL 1
REMARK minimizedAffinity 5.90483141
REMARK minimizedRMSD -1
REMARK  0 active torsions:
REMARK  status: ('A' for Active; 'I' for Inactive)
ROOT
ATOM      1  C   UNL d   1      -1.136   2.174   1.377  0.00  0.00     0.078 C 
ATOM      2  C1  UNL d   1       0.072   1.315   1.153  0.00  0.00    -0.077 A 
ATOM      3  C2  UNL d   1       0.817   0.821   2.231  0.00  0.00    -0.001 A 
ATOM      4  C3  UNL d   1       1.945   0.030   2.006  0.00  0.00     0.003 A 
ATOM      5  C4  UNL d   1       2.340  -0.272   0.705  0.00  0.00    -0.005 A 
ATOM      6  C5  UNL d   1       1.607   0.217  -0.375  0.00  0.00     0.003 A 
ATOM      7  C6  UNL d   1       0.478   1.007  -0.152  0.00  0.00    -0.001 A 
ENDROOT
TORSDOF 0
ENDMDL
