MODEL 1
REMARK minimizedAffinity 0.252623528
REMARK minimizedRMSD -1
REMARK  0 active torsions:
REMARK  status: ('A' for Active; 'I' for Inactive)
ROOT
ATOM      1  C   UNL d   1      -2.545   0.122   2.842  0.00  0.00     0.078 C 
ATOM      2  C1  UNL d   1      -2.401   1.446   2.154  0.00  0.00    -0.077 A 
ATOM      3  C2  UNL d   1      -1.144   1.921   1.761  0.00  0.00    -0.001 A 
ATOM      4  C3  UNL d   1      -1.023   3.160   1.129  0.00  0.00     0.003 A 
ATOM      5  C4  UNL d   1      -2.156   3.935   0.886  0.00  0.00    -0.005 A 
ATOM      6  C5  UNL d   1      -3.411   3.471   1.276  0.00  0.00     0.003 A 
ATOM      7  C6  UNL d   1      -3.533   2.232   1.907  0.00  0.00    -0.001 A 
ENDROOT
TORSDOF 0
ENDMDL
