MODEL 1
REMARK minimizedAffinity 2.77769423
REMARK minimizedRMSD -1
REMARK  0 active torsions:
REMARK  status: ('A' for Active; 'I' for Inactive)
ROOT
ATOM      1  C   UNL d   1       0.384   0.633  -1.879  0.00  0.00     0.078 C 
ATOM      2  C1  UNL d   1       0.140   1.878  -1.079  0.00  0.00    -0.077 A 
ATOM      3  C2  UNL d   1       0.538   3.132  -1.558  0.00  0.00    -0.001 A 
ATOM      4  C3  UNL d   1       0.313   4.281  -0.798  0.00  0.00     0.003 A 
ATOM      5  C4  UNL d   1      -0.311   4.187   0.445  0.00  0.00    -0.005 A 
ATOM      6  C5  UNL d   1      -0.709   2.943   0.930  0.00  0.00     0.003 A 
ATOM      7  C6  UNL d   1      -0.484   1.793   0.172  0.00  0.00    -0.001 A 
ENDROOT
TORSDOF 0
ENDMDL
