MODEL 1
REMARK minimizedAffinity 0.279013604
REMARK minimizedRMSD -1
REMARK  0 active torsions:
REMARK  status: ('A' for Active; 'I' for Inactive)
ROOT
ATOM      1  C   UNL d   1      -1.537   0.589   3.079  0.00  0.00     0.078 C 
ATOM      2  C1  UNL d   1      -1.646   1.564   1.945  0.00  0.00    -0.077 A 
ATOM      3  C2  UNL d   1      -2.877   2.136   1.601  0.00  0.00    -0.001 A 
ATOM      4  C3  UNL d   1      -2.965   3.035   0.537  0.00  0.00     0.003 A 
ATOM      5  C4  UNL d   1      -1.826   3.369  -0.193  0.00  0.00    -0.005 A 
ATOM      6  C5  UNL d   1      -0.597   2.804   0.140  0.00  0.00     0.003 A 
ATOM      7  C6  UNL d   1      -0.507   1.905   1.204  0.00  0.00    -0.001 A 
ENDROOT
TORSDOF 0
ENDMDL
