MODEL 1
REMARK minimizedAffinity 3.96374154
REMARK minimizedRMSD -1
REMARK  0 active torsions:
REMARK  status: ('A' for Active; 'I' for Inactive)
ROOT
ATOM      1  C   UNL d   1      -1.165   1.921   2.196  0.00  0.00     0.078 C 
ATOM      2  C1  UNL d   1      -0.703   2.225   0.802  0.00  0.00    -0.077 A 
ATOM      3  C2  UNL d   1      -0.421   1.196  -0.105  0.00  0.00    -0.001 A 
ATOM      4  C3  UNL d   1       0.017   1.493  -1.396  0.00  0.00     0.003 A 
ATOM      5  C4  UNL d   1       0.179   2.820  -1.792  0.00  0.00    -0.005 A 
ATOM      6  C5  UNL d   1      -0.097   3.850  -0.896  0.00  0.00     0.003 A 
ATOM      7  C6  UNL d   1      -0.535   3.555   0.396  0.00  0.00    -0.001 A 
ENDROOT
TORSDOF 0
ENDMDL
