MODEL 1
REMARK minimizedAffinity 8.38339233
REMARK minimizedRMSD -1
REMARK  0 active torsions:
REMARK  status: ('A' for Active; 'I' for Inactive)
ROOT
ATOM      1  C   UNL d   1      -3.613  -0.294  -1.642  0.00  0.00     0.078 C 
ATOM      2  C1  UNL d   1      -2.184   0.036  -1.955  0.00  0.00    -0.077 A 
ATOM      3  C2  UNL d   1      -1.461  -0.710  -2.894  0.00  0.00    -0.001 A 
ATOM      4  C3  UNL d   1      -0.128  -0.397  -3.168  0.00  0.00     0.003 A 
ATOM      5  C4  UNL d   1       0.492   0.661  -2.506  0.00  0.00    -0.005 A 
ATOM      6  C5  UNL d   1      -0.219   1.407  -1.569  0.00  0.00     0.003 A 
ATOM      7  C6  UNL d   1      -1.551   1.096  -1.294  0.00  0.00    -0.001 A 
ENDROOT
TORSDOF 0
ENDMDL
