MODEL 1
REMARK minimizedAffinity 6.81226063
REMARK minimizedRMSD -1
REMARK  0 active torsions:
REMARK  status: ('A' for Active; 'I' for Inactive)
ROOT
ATOM      1  C   UNL d   1       2.250  -0.720   1.517  0.00  0.00     0.078 C 
ATOM      2  C1  UNL d   1       3.041  -1.966   1.256  0.00  0.00    -0.077 A 
ATOM      3  C2  UNL d   1       2.405  -3.201   1.083  0.00  0.00    -0.001 A 
ATOM      4  C3  UNL d   1       3.154  -4.356   0.850  0.00  0.00     0.003 A 
ATOM      5  C4  UNL d   1       4.545  -4.286   0.790  0.00  0.00    -0.005 A 
ATOM      6  C5  UNL d   1       5.187  -3.062   0.964  0.00  0.00     0.003 A 
ATOM      7  C6  UNL d   1       4.439  -1.907   1.197  0.00  0.00    -0.001 A 
ENDROOT
TORSDOF 0
ENDMDL
