MODEL 1
REMARK minimizedAffinity -1.34570539
REMARK minimizedRMSD -1
REMARK  0 active torsions:
REMARK  status: ('A' for Active; 'I' for Inactive)
ROOT
ATOM      1  C   UNL d   1      -2.643   5.778   0.689  0.00  0.00     0.078 C 
ATOM      2  C1  UNL d   1      -1.877   4.612   0.140  0.00  0.00    -0.077 A 
ATOM      3  C2  UNL d   1      -0.992   4.772  -0.934  0.00  0.00    -0.001 A 
ATOM      4  C3  UNL d   1      -0.293   3.676  -1.442  0.00  0.00     0.003 A 
ATOM      5  C4  UNL d   1      -0.472   2.412  -0.883  0.00  0.00    -0.005 A 
ATOM      6  C5  UNL d   1      -1.352   2.243   0.184  0.00  0.00     0.003 A 
ATOM      7  C6  UNL d   1      -2.052   3.338   0.693  0.00  0.00    -0.001 A 
ENDROOT
TORSDOF 0
ENDMDL
