MODEL 1
REMARK minimizedAffinity 14.2367973
REMARK minimizedRMSD -1
REMARK  0 active torsions:
REMARK  status: ('A' for Active; 'I' for Inactive)
ROOT
ATOM      1  C   UNL d   1       0.572   4.247  -1.428  0.00  0.00    -0.002 A 
ATOM      2  C1  UNL d   1       0.301   3.144  -2.226  0.00  0.00     0.010 A 
ATOM      3  C2  UNL d   1      -0.787   2.315  -1.947  0.00  0.00     0.041 A 
ATOM      4  C3  UNL d   1      -1.607   2.617  -0.842  0.00  0.00    -0.075 A 
ATOM      5  S   UNL d   1      -2.995   1.744  -0.308  0.00  0.00     0.015 SA
ATOM      6  C4  UNL d   1      -3.262   2.814   0.991  0.00  0.00     0.022 A 
ATOM      7  C5  UNL d   1      -2.324   3.819   1.032  0.00  0.00     0.026 A 
ATOM      8  C6  UNL d   1      -1.355   3.722  -0.024  0.00  0.00    -0.082 A 
ATOM      9  C7  UNL d   1      -0.244   4.543  -0.333  0.00  0.00     0.045 A 
ENDROOT
TORSDOF 0
ENDMDL
