MODEL 1
REMARK minimizedAffinity 2.86194491
REMARK minimizedRMSD -1
REMARK  0 active torsions:
REMARK  status: ('A' for Active; 'I' for Inactive)
ROOT
ATOM      1  C   UNL d   1      -4.085   2.325  -2.515  0.00  0.00    -0.002 A 
ATOM      2  C1  UNL d   1      -3.868   1.054  -2.002  0.00  0.00     0.010 A 
ATOM      3  C2  UNL d   1      -2.706   0.767  -1.283  0.00  0.00     0.041 A 
ATOM      4  C3  UNL d   1      -1.757   1.789  -1.085  0.00  0.00    -0.075 A 
ATOM      5  S   UNL d   1      -0.261   1.668  -0.237  0.00  0.00     0.015 SA
ATOM      6  C4  UNL d   1       0.125   3.301  -0.535  0.00  0.00     0.022 A 
ATOM      7  C5  UNL d   1      -0.852   3.938  -1.262  0.00  0.00     0.026 A 
ATOM      8  C6  UNL d   1      -1.953   3.077  -1.592  0.00  0.00    -0.082 A 
ATOM      9  C7  UNL d   1      -3.141   3.336  -2.316  0.00  0.00     0.045 A 
ENDROOT
TORSDOF 0
ENDMDL
