MODEL 1
REMARK minimizedAffinity 10.4868259
REMARK minimizedRMSD -1
REMARK  0 active torsions:
REMARK  status: ('A' for Active; 'I' for Inactive)
ROOT
ATOM      1  C   UNL d   1      -1.860   1.949  -0.430  0.00  0.00    -0.002 A 
ATOM      2  C1  UNL d   1      -1.236   1.607   0.762  0.00  0.00     0.010 A 
ATOM      3  C2  UNL d   1      -0.054   2.240   1.151  0.00  0.00     0.041 A 
ATOM      4  C3  UNL d   1       0.495   3.233   0.316  0.00  0.00    -0.075 A 
ATOM      5  S   UNL d   1       1.934   4.143   0.590  0.00  0.00     0.015 SA
ATOM      6  C4  UNL d   1       1.753   5.008  -0.868  0.00  0.00     0.022 A 
ATOM      7  C5  UNL d   1       0.628   4.624  -1.559  0.00  0.00     0.026 A 
ATOM      8  C6  UNL d   1      -0.116   3.595  -0.888  0.00  0.00    -0.082 A 
ATOM      9  C7  UNL d   1      -1.313   2.935  -1.255  0.00  0.00     0.045 A 
ENDROOT
TORSDOF 0
ENDMDL
