MODEL 1
REMARK minimizedAffinity 26.3260021
REMARK minimizedRMSD -1
REMARK  0 active torsions:
REMARK  status: ('A' for Active; 'I' for Inactive)
ROOT
ATOM      1  C   UNL d   1       4.998  -5.990  -1.994  0.00  0.00    -0.002 A 
ATOM      2  C1  UNL d   1       5.581  -5.143  -1.062  0.00  0.00     0.010 A 
ATOM      3  C2  UNL d   1       4.793  -4.284  -0.293  0.00  0.00     0.041 A 
ATOM      4  C3  UNL d   1       3.397  -4.292  -0.476  0.00  0.00    -0.075 A 
ATOM      5  S   UNL d   1       2.233  -3.327   0.354  0.00  0.00     0.015 SA
ATOM      6  C4  UNL d   1       0.935  -4.017  -0.509  0.00  0.00     0.022 A 
ATOM      7  C5  UNL d   1       1.361  -4.962  -1.412  0.00  0.00     0.026 A 
ATOM      8  C6  UNL d   1       2.786  -5.136  -1.408  0.00  0.00    -0.082 A 
ATOM      9  C7  UNL d   1       3.612  -5.995  -2.173  0.00  0.00     0.045 A 
ENDROOT
TORSDOF 0
ENDMDL
