MODEL 1
REMARK minimizedAffinity 7.26036453
REMARK minimizedRMSD -1
REMARK  0 active torsions:
REMARK  status: ('A' for Active; 'I' for Inactive)
ROOT
ATOM      1  C   UNL d   1      -1.045   2.664   1.273  0.00  0.00    -0.002 A 
ATOM      2  C1  UNL d   1      -0.029   2.261   2.128  0.00  0.00     0.010 A 
ATOM      3  C2  UNL d   1       0.979   1.406   1.679  0.00  0.00     0.041 A 
ATOM      4  C3  UNL d   1       0.951   0.960   0.343  0.00  0.00    -0.075 A 
ATOM      5  S   UNL d   1       2.081  -0.090  -0.427  0.00  0.00     0.015 SA
ATOM      6  C4  UNL d   1       1.242  -0.028  -1.909  0.00  0.00     0.022 A 
ATOM      7  C5  UNL d   1       0.125   0.770  -1.836  0.00  0.00     0.026 A 
ATOM      8  C6  UNL d   1      -0.061   1.353  -0.537  0.00  0.00    -0.082 A 
ATOM      9  C7  UNL d   1      -1.070   2.220  -0.052  0.00  0.00     0.045 A 
ENDROOT
TORSDOF 0
ENDMDL
