MODEL 1
REMARK minimizedAffinity 3.4454062
REMARK minimizedRMSD -1
REMARK  0 active torsions:
REMARK  status: ('A' for Active; 'I' for Inactive)
ROOT
ATOM      1  C   UNL d   1      -0.343   2.473   1.786  0.00  0.00    -0.002 A 
ATOM      2  C1  UNL d   1       0.679   1.568   2.037  0.00  0.00     0.010 A 
ATOM      3  C2  UNL d   1       1.145   0.725   1.026  0.00  0.00     0.041 A 
ATOM      4  C3  UNL d   1       0.562   0.808  -0.254  0.00  0.00    -0.075 A 
ATOM      5  S   UNL d   1       0.971  -0.123  -1.646  0.00  0.00     0.015 SA
ATOM      6  C4  UNL d   1      -0.201   0.658  -2.606  0.00  0.00     0.022 A 
ATOM      7  C5  UNL d   1      -0.896   1.610  -1.898  0.00  0.00     0.026 A 
ATOM      8  C6  UNL d   1      -0.468   1.712  -0.531  0.00  0.00    -0.082 A 
ATOM      9  C7  UNL d   1      -0.919   2.553   0.515  0.00  0.00     0.045 A 
ENDROOT
TORSDOF 0
ENDMDL
