MODEL 1
REMARK minimizedAffinity 0.3298406
REMARK minimizedRMSD -1
REMARK  0 active torsions:
REMARK  status: ('A' for Active; 'I' for Inactive)
ROOT
ATOM      1  C   UNL d   1       1.274   5.436  -1.124  0.00  0.00    -0.002 A 
ATOM      2  C1  UNL d   1       0.241   4.551  -1.395  0.00  0.00     0.010 A 
ATOM      3  C2  UNL d   1      -0.013   3.473  -0.546  0.00  0.00     0.041 A 
ATOM      4  C3  UNL d   1       0.797   3.298   0.594  0.00  0.00    -0.075 A 
ATOM      5  S   UNL d   1       0.671   2.050   1.777  0.00  0.00     0.015 SA
ATOM      6  C4  UNL d   1       1.986   2.662   2.671  0.00  0.00     0.022 A 
ATOM      7  C5  UNL d   1       2.520   3.791   2.096  0.00  0.00     0.026 A 
ATOM      8  C6  UNL d   1       1.843   4.176   0.889  0.00  0.00    -0.082 A 
ATOM      9  C7  UNL d   1       2.075   5.259   0.008  0.00  0.00     0.045 A 
ENDROOT
TORSDOF 0
ENDMDL
