MODEL 1
REMARK minimizedAffinity 12.4126282
REMARK minimizedRMSD -1
REMARK  0 active torsions:
REMARK  status: ('A' for Active; 'I' for Inactive)
ROOT
ATOM      1  C   UNL d   1      -0.292   5.999  -3.426  0.00  0.00    -0.002 A 
ATOM      2  C1  UNL d   1      -1.620   5.998  -3.022  0.00  0.00     0.010 A 
ATOM      3  C2  UNL d   1      -2.015   5.292  -1.884  0.00  0.00     0.041 A 
ATOM      4  C3  UNL d   1      -1.043   4.583  -1.150  0.00  0.00    -0.075 A 
ATOM      5  S   UNL d   1      -1.295   3.649   0.277  0.00  0.00     0.015 SA
ATOM      6  C4  UNL d   1       0.354   3.231   0.384  0.00  0.00     0.022 A 
ATOM      7  C5  UNL d   1       1.093   3.782  -0.636  0.00  0.00     0.026 A 
ATOM      8  C6  UNL d   1       0.300   4.570  -1.537  0.00  0.00    -0.082 A 
ATOM      9  C7  UNL d   1       0.669   5.294  -2.696  0.00  0.00     0.045 A 
ENDROOT
TORSDOF 0
ENDMDL
