MODEL 1
REMARK minimizedAffinity 7.72766924
REMARK minimizedRMSD -1
REMARK  0 active torsions:
REMARK  status: ('A' for Active; 'I' for Inactive)
ROOT
ATOM      1  C   UNL d   1      -5.609  -2.838   5.134  0.00  0.00    -0.002 A 
ATOM      2  C1  UNL d   1      -5.976  -1.806   5.986  0.00  0.00     0.010 A 
ATOM      3  C2  UNL d   1      -5.987  -0.484   5.536  0.00  0.00     0.041 A 
ATOM      4  C3  UNL d   1      -5.622  -0.215   4.202  0.00  0.00    -0.075 A 
ATOM      5  S   UNL d   1      -5.564   1.326   3.431  0.00  0.00     0.015 SA
ATOM      6  C4  UNL d   1      -5.052   0.651   1.953  0.00  0.00     0.022 A 
ATOM      7  C5  UNL d   1      -4.923  -0.716   2.028  0.00  0.00     0.026 A 
ATOM      8  C6  UNL d   1      -5.250  -1.238   3.325  0.00  0.00    -0.082 A 
ATOM      9  C7  UNL d   1      -5.247  -2.567   3.811  0.00  0.00     0.045 A 
ENDROOT
TORSDOF 0
ENDMDL
