MODEL 1
REMARK minimizedAffinity -5.30917025
REMARK minimizedRMSD -1
REMARK  2 active torsions:
REMARK  status: ('A' for Active; 'I' for Inactive)
REMARK    1  A    between atoms: C1_2  and  C2_3 
REMARK    2  A    between atoms: C2_3  and  C3_4 
ROOT
ATOM      1  C3  UNL d   1      -0.046   0.407   0.102  0.00  0.00    -0.075 A 
ATOM      2  C4  UNL d   1       0.920   0.155   1.087  0.00  0.00     0.002 A 
ATOM      3  C5  UNL d   1       0.569   0.144   2.437  0.00  0.00     0.002 A 
ATOM      4  C6  UNL d   1      -0.746   0.396   2.820  0.00  0.00    -0.004 A 
ATOM      5  C7  UNL d   1      -1.711   0.665   1.851  0.00  0.00     0.002 A 
ATOM      6  C8  UNL d   1      -1.364   0.671   0.499  0.00  0.00     0.002 A 
ENDROOT
BRANCH   1   7
ATOM      7  C2  UNL d   1       0.321   0.391  -1.363  0.00  0.00     0.056 C 
BRANCH   7   8
ATOM      8  C1  UNL d   1       0.398  -1.014  -1.971  0.00  0.00     0.007 C 
ATOM      9  C   UNL d   1       1.071  -1.040  -3.337  0.00  0.00     0.009 C 
ENDBRANCH   7   8
ENDBRANCH   1   7
TORSDOF 2
ENDMDL
