MODEL 1
REMARK minimizedAffinity -5.40970421
REMARK minimizedRMSD -1
REMARK  2 active torsions:
REMARK  status: ('A' for Active; 'I' for Inactive)
REMARK    1  A    between atoms: C1_2  and  C2_3 
REMARK    2  A    between atoms: C2_3  and  C3_4 
ROOT
ATOM      1  C3  UNL d   1       0.601  -0.067  -1.642  0.00  0.00    -0.075 A 
ATOM      2  C4  UNL d   1      -0.155  -0.976  -2.397  0.00  0.00     0.002 A 
ATOM      3  C5  UNL d   1       0.455  -1.769  -3.369  0.00  0.00     0.002 A 
ATOM      4  C6  UNL d   1       1.823  -1.658  -3.605  0.00  0.00    -0.004 A 
ATOM      5  C7  UNL d   1       2.581  -0.747  -2.872  0.00  0.00     0.002 A 
ATOM      6  C8  UNL d   1       1.974   0.045  -1.896  0.00  0.00     0.002 A 
ENDROOT
BRANCH   1   7
ATOM      7  C2  UNL d   1      -0.048   0.774  -0.568  0.00  0.00     0.056 C 
BRANCH   7   8
ATOM      8  C1  UNL d   1       0.645   0.688   0.795  0.00  0.00     0.007 C 
ATOM      9  C   UNL d   1      -0.172  -0.064   1.838  0.00  0.00     0.009 C 
ENDBRANCH   7   8
ENDBRANCH   1   7
TORSDOF 2
ENDMDL
