MODEL 1
REMARK minimizedAffinity -3.88853836
REMARK minimizedRMSD -1
REMARK  2 active torsions:
REMARK  status: ('A' for Active; 'I' for Inactive)
REMARK    1  A    between atoms: C1_2  and  C2_3 
REMARK    2  A    between atoms: C2_3  and  C3_4 
ROOT
ATOM      1  C3  UNL d   1      -0.030  -0.007   0.147  0.00  0.00    -0.075 A 
ATOM      2  C4  UNL d   1      -0.979  -0.777   0.836  0.00  0.00     0.002 A 
ATOM      3  C5  UNL d   1      -1.014  -0.775   2.230  0.00  0.00     0.002 A 
ATOM      4  C6  UNL d   1      -0.098  -0.014   2.953  0.00  0.00    -0.004 A 
ATOM      5  C7  UNL d   1       0.859   0.742   2.279  0.00  0.00     0.002 A 
ATOM      6  C8  UNL d   1       0.894   0.746   0.884  0.00  0.00     0.002 A 
ENDROOT
BRANCH   1   7
ATOM      7  C2  UNL d   1      -0.005   0.019  -1.363  0.00  0.00     0.056 C 
BRANCH   7   8
ATOM      8  C1  UNL d   1       1.346  -0.371  -1.971  0.00  0.00     0.007 C 
ATOM      9  C   UNL d   1       1.218  -1.289  -3.179  0.00  0.00     0.009 C 
ENDBRANCH   7   8
ENDBRANCH   1   7
TORSDOF 2
ENDMDL
