MODEL 1
REMARK minimizedAffinity -4.82680273
REMARK minimizedRMSD -1
REMARK  2 active torsions:
REMARK  status: ('A' for Active; 'I' for Inactive)
REMARK    1  A    between atoms: C1_2  and  C2_3 
REMARK    2  A    between atoms: C2_3  and  C3_4 
ROOT
ATOM      1  C3  UNL d   1       0.133   0.456   0.338  0.00  0.00    -0.075 A 
ATOM      2  C4  UNL d   1      -0.692  -0.044   1.357  0.00  0.00     0.002 A 
ATOM      3  C5  UNL d   1      -0.374   0.177   2.698  0.00  0.00     0.002 A 
ATOM      4  C6  UNL d   1       0.774   0.890   3.036  0.00  0.00    -0.004 A 
ATOM      5  C7  UNL d   1       1.609   1.376   2.033  0.00  0.00     0.002 A 
ATOM      6  C8  UNL d   1       1.291   1.161   0.691  0.00  0.00     0.002 A 
ENDROOT
BRANCH   1   7
ATOM      7  C2  UNL d   1      -0.221   0.246  -1.114  0.00  0.00     0.056 C 
BRANCH   7   8
ATOM      8  C1  UNL d   1       0.994   0.118  -2.040  0.00  0.00     0.007 C 
ATOM      9  C   UNL d   1       0.863  -1.013  -3.050  0.00  0.00     0.009 C 
ENDBRANCH   7   8
ENDBRANCH   1   7
TORSDOF 2
ENDMDL
