MODEL 1
REMARK minimizedAffinity -4.22276306
REMARK minimizedRMSD -1
REMARK  2 active torsions:
REMARK  status: ('A' for Active; 'I' for Inactive)
REMARK    1  A    between atoms: C1_2  and  C2_3 
REMARK    2  A    between atoms: C2_3  and  C3_4 
ROOT
ATOM      1  C3  UNL d   1       0.465  -0.314  -1.705  0.00  0.00    -0.075 A 
ATOM      2  C4  UNL d   1      -0.476  -0.999  -2.489  0.00  0.00     0.002 A 
ATOM      3  C5  UNL d   1      -0.128  -1.485  -3.749  0.00  0.00     0.002 A 
ATOM      4  C6  UNL d   1       1.158  -1.284  -4.246  0.00  0.00    -0.004 A 
ATOM      5  C7  UNL d   1       2.096  -0.591  -3.483  0.00  0.00     0.002 A 
ATOM      6  C8  UNL d   1       1.752  -0.107  -2.220  0.00  0.00     0.002 A 
ENDROOT
BRANCH   1   7
ATOM      7  C2  UNL d   1       0.103   0.189  -0.328  0.00  0.00     0.056 C 
BRANCH   7   8
ATOM      8  C1  UNL d   1       0.929  -0.437   0.801  0.00  0.00     0.007 C 
ATOM      9  C   UNL d   1       0.429  -0.062   2.190  0.00  0.00     0.009 C 
ENDBRANCH   7   8
ENDBRANCH   1   7
TORSDOF 2
ENDMDL
