MODEL 1
REMARK minimizedAffinity -4.67664337
REMARK minimizedRMSD -1
REMARK  2 active torsions:
REMARK  status: ('A' for Active; 'I' for Inactive)
REMARK    1  A    between atoms: C1_2  and  C2_3 
REMARK    2  A    between atoms: C2_3  and  C3_4 
ROOT
ATOM      1  C3  UNL d   1       0.851   0.479  -0.916  0.00  0.00    -0.075 A 
ATOM      2  C4  UNL d   1       1.605   1.541  -0.396  0.00  0.00     0.002 A 
ATOM      3  C5  UNL d   1       2.084   1.496   0.913  0.00  0.00     0.002 A 
ATOM      4  C6  UNL d   1       1.808   0.396   1.722  0.00  0.00    -0.004 A 
ATOM      5  C7  UNL d   1       1.046  -0.658   1.221  0.00  0.00     0.002 A 
ATOM      6  C8  UNL d   1       0.569  -0.617  -0.090  0.00  0.00     0.002 A 
ENDROOT
BRANCH   1   7
ATOM      7  C2  UNL d   1       0.355   0.509  -2.342  0.00  0.00     0.056 C 
BRANCH   7   8
ATOM      8  C1  UNL d   1       1.263  -0.225  -3.334  0.00  0.00     0.007 C 
ATOM      9  C   UNL d   1       0.500  -1.139  -4.284  0.00  0.00     0.009 C 
ENDBRANCH   7   8
ENDBRANCH   1   7
TORSDOF 2
ENDMDL
