MODEL 1
REMARK minimizedAffinity -5.38245153
REMARK minimizedRMSD -1
REMARK  2 active torsions:
REMARK  status: ('A' for Active; 'I' for Inactive)
REMARK    1  A    between atoms: C1_2  and  C2_3 
REMARK    2  A    between atoms: C2_3  and  C3_4 
ROOT
ATOM      1  C3  UNL d   1      -0.426  -0.052   2.324  0.00  0.00    -0.075 A 
ATOM      2  C4  UNL d   1       0.656   0.590   2.944  0.00  0.00     0.002 A 
ATOM      3  C5  UNL d   1       1.740   1.039   2.190  0.00  0.00     0.002 A 
ATOM      4  C6  UNL d   1       1.762   0.843   0.811  0.00  0.00    -0.004 A 
ATOM      5  C7  UNL d   1       0.701   0.191   0.187  0.00  0.00     0.002 A 
ATOM      6  C8  UNL d   1      -0.387  -0.255   0.938  0.00  0.00     0.002 A 
ENDROOT
BRANCH   1   7
ATOM      7  C2  UNL d   1      -1.616  -0.514   3.131  0.00  0.00     0.056 C 
BRANCH   7   8
ATOM      8  C1  UNL d   1      -2.851   0.381   2.989  0.00  0.00     0.007 C 
ATOM      9  C   UNL d   1      -3.471   0.333   1.599  0.00  0.00     0.009 C 
ENDBRANCH   7   8
ENDBRANCH   1   7
TORSDOF 2
ENDMDL
