MODEL 1
REMARK minimizedAffinity -6.0433135
REMARK minimizedRMSD -1
REMARK  2 active torsions:
REMARK  status: ('A' for Active; 'I' for Inactive)
REMARK    1  A    between atoms: C1_2  and  C2_3 
REMARK    2  A    between atoms: C2_3  and  C3_4 
ROOT
ATOM      1  C3  UNL d   1      -0.053  -0.089   0.439  0.00  0.00    -0.075 A 
ATOM      2  C4  UNL d   1       1.024   0.264   1.265  0.00  0.00     0.002 A 
ATOM      3  C5  UNL d   1       1.063  -0.156   2.595  0.00  0.00     0.002 A 
ATOM      4  C6  UNL d   1       0.025  -0.923   3.117  0.00  0.00    -0.004 A 
ATOM      5  C7  UNL d   1      -1.058  -1.265   2.311  0.00  0.00     0.002 A 
ATOM      6  C8  UNL d   1      -1.099  -0.850   0.978  0.00  0.00     0.002 A 
ENDROOT
BRANCH   1   7
ATOM      7  C2  UNL d   1      -0.088   0.338  -1.010  0.00  0.00     0.056 C 
BRANCH   7   8
ATOM      8  C1  UNL d   1       0.386  -0.742  -1.989  0.00  0.00     0.007 C 
ATOM      9  C   UNL d   1       1.470  -0.254  -2.941  0.00  0.00     0.009 C 
ENDBRANCH   7   8
ENDBRANCH   1   7
TORSDOF 2
ENDMDL
