MODEL 1
REMARK minimizedAffinity -3.51180577
REMARK minimizedRMSD -1
REMARK  0 active torsions:
REMARK  status: ('A' for Active; 'I' for Inactive)
ROOT
ATOM      1  C   UNL d   1       2.207   2.237   0.332  0.00  0.00    -0.002 A 
ATOM      2  C1  UNL d   1       1.382   2.804   1.293  0.00  0.00     0.010 A 
ATOM      3  C2  UNL d   1       0.184   2.184   1.655  0.00  0.00     0.041 A 
ATOM      4  C3  UNL d   1      -0.172   0.973   1.030  0.00  0.00    -0.075 A 
ATOM      5  S   UNL d   1      -1.591   0.035   1.315  0.00  0.00     0.015 SA
ATOM      6  C4  UNL d   1      -1.134  -1.140   0.168  0.00  0.00     0.022 A 
ATOM      7  C5  UNL d   1       0.068  -0.840  -0.427  0.00  0.00     0.026 A 
ATOM      8  C6  UNL d   1       0.643   0.383   0.060  0.00  0.00    -0.082 A 
ATOM      9  C7  UNL d   1       1.850   1.036  -0.286  0.00  0.00     0.045 A 
ENDROOT
TORSDOF 0
ENDMDL
