MODEL 1
REMARK minimizedAffinity 0.016639689
REMARK minimizedRMSD -1
REMARK  0 active torsions:
REMARK  status: ('A' for Active; 'I' for Inactive)
ROOT
ATOM      1  C   UNL d   1       2.463  -0.943  -0.859  0.00  0.00    -0.002 A 
ATOM      2  C1  UNL d   1       1.240  -1.572  -0.671  0.00  0.00     0.010 A 
ATOM      3  C2  UNL d   1       0.189  -0.905  -0.037  0.00  0.00     0.041 A 
ATOM      4  C3  UNL d   1       0.390   0.416   0.407  0.00  0.00    -0.075 A 
ATOM      5  S   UNL d   1      -0.753   1.428   1.208  0.00  0.00     0.015 SA
ATOM      6  C4  UNL d   1       0.354   2.719   1.319  0.00  0.00     0.022 A 
ATOM      7  C5  UNL d   1       1.572   2.402   0.764  0.00  0.00     0.026 A 
ATOM      8  C6  UNL d   1       1.612   1.070   0.229  0.00  0.00    -0.082 A 
ATOM      9  C7  UNL d   1       2.658   0.368  -0.417  0.00  0.00     0.045 A 
ENDROOT
TORSDOF 0
ENDMDL
