MODEL 1
REMARK minimizedAffinity -5.01249123
REMARK minimizedRMSD -1
REMARK  0 active torsions:
REMARK  status: ('A' for Active; 'I' for Inactive)
ROOT
ATOM      1  C   UNL d   1       1.292   2.842   1.489  0.00  0.00    -0.002 A 
ATOM      2  C1  UNL d   1       2.213   2.487   0.514  0.00  0.00     0.010 A 
ATOM      3  C2  UNL d   1       1.976   1.396  -0.324  0.00  0.00     0.041 A 
ATOM      4  C3  UNL d   1       0.784   0.661  -0.166  0.00  0.00    -0.075 A 
ATOM      5  S   UNL d   1       0.281  -0.712  -1.078  0.00  0.00     0.015 SA
ATOM      6  C4  UNL d   1      -1.170  -0.859  -0.196  0.00  0.00     0.022 A 
ATOM      7  C5  UNL d   1      -1.284   0.108   0.775  0.00  0.00     0.026 A 
ATOM      8  C6  UNL d   1      -0.160   1.000   0.808  0.00  0.00    -0.082 A 
ATOM      9  C7  UNL d   1       0.111   2.111   1.643  0.00  0.00     0.045 A 
ENDROOT
TORSDOF 0
ENDMDL
