MODEL 1
REMARK minimizedAffinity -2.04620481
REMARK minimizedRMSD -1
REMARK  0 active torsions:
REMARK  status: ('A' for Active; 'I' for Inactive)
ROOT
ATOM      1  C   UNL d   1       2.048   2.450   0.218  0.00  0.00    -0.002 A 
ATOM      2  C1  UNL d   1       1.322   2.907   1.309  0.00  0.00     0.010 A 
ATOM      3  C2  UNL d   1       0.145   2.264   1.698  0.00  0.00     0.041 A 
ATOM      4  C3  UNL d   1      -0.293   1.142   0.967  0.00  0.00    -0.075 A 
ATOM      5  S   UNL d   1      -1.703   0.196   1.262  0.00  0.00     0.015 SA
ATOM      6  C4  UNL d   1      -1.375  -0.838  -0.053  0.00  0.00     0.022 A 
ATOM      7  C5  UNL d   1      -0.221  -0.484  -0.712  0.00  0.00     0.026 A 
ATOM      8  C6  UNL d   1       0.422   0.663  -0.134  0.00  0.00    -0.082 A 
ATOM      9  C7  UNL d   1       1.610   1.337  -0.505  0.00  0.00     0.045 A 
ENDROOT
TORSDOF 0
ENDMDL
