MODEL 1
REMARK minimizedAffinity -3.68642879
REMARK minimizedRMSD -1
REMARK  0 active torsions:
REMARK  status: ('A' for Active; 'I' for Inactive)
ROOT
ATOM      1  C   UNL d   1       1.099   2.423   2.111  0.00  0.00    -0.002 A 
ATOM      2  C1  UNL d   1       1.989   2.011   1.129  0.00  0.00     0.010 A 
ATOM      3  C2  UNL d   1       1.546   1.259   0.039  0.00  0.00     0.041 A 
ATOM      4  C3  UNL d   1       0.180   0.927  -0.049  0.00  0.00    -0.075 A 
ATOM      5  S   UNL d   1      -0.589   0.015  -1.294  0.00  0.00     0.015 SA
ATOM      6  C4  UNL d   1      -2.117   0.152  -0.553  0.00  0.00     0.022 A 
ATOM      7  C5  UNL d   1      -2.061   0.872   0.616  0.00  0.00     0.026 A 
ATOM      8  C6  UNL d   1      -0.736   1.331   0.926  0.00  0.00    -0.082 A 
ATOM      9  C7  UNL d   1      -0.256   2.092   2.019  0.00  0.00     0.045 A 
ENDROOT
TORSDOF 0
ENDMDL
