MODEL 1
REMARK minimizedAffinity 0.417397052
REMARK minimizedRMSD -1
REMARK  0 active torsions:
REMARK  status: ('A' for Active; 'I' for Inactive)
ROOT
ATOM      1  C   UNL d   1      -2.972  -1.318  -3.426  0.00  0.00    -0.002 A 
ATOM      2  C1  UNL d   1      -1.774  -1.513  -4.098  0.00  0.00     0.010 A 
ATOM      3  C2  UNL d   1      -0.558  -1.448  -3.415  0.00  0.00     0.041 A 
ATOM      4  C3  UNL d   1      -0.567  -1.183  -2.031  0.00  0.00    -0.075 A 
ATOM      5  S   UNL d   1       0.800  -1.059  -0.988  0.00  0.00     0.015 SA
ATOM      6  C4  UNL d   1      -0.175  -0.744   0.374  0.00  0.00     0.022 A 
ATOM      7  C5  UNL d   1      -1.513  -0.731   0.059  0.00  0.00     0.026 A 
ATOM      8  C6  UNL d   1      -1.761  -0.984  -1.332  0.00  0.00    -0.082 A 
ATOM      9  C7  UNL d   1      -2.977  -1.056  -2.054  0.00  0.00     0.045 A 
ENDROOT
TORSDOF 0
ENDMDL
