MODEL 1
REMARK minimizedAffinity -2.15455675
REMARK minimizedRMSD -1
REMARK  2 active torsions:
REMARK  status: ('A' for Active; 'I' for Inactive)
REMARK    1  A    between atoms: C2'_3  and  C1'_4 
REMARK    2  A    between atoms: C1'_4  and  C1_5 
ROOT
ATOM      1  C1  I4B d   1       0.450  -0.036  -0.323  0.00  0.00    -0.075 A 
ATOM      2  C2  I4B d   1       1.187  -1.155  -0.024  0.00  0.00     0.003 A 
ATOM      3  C3  I4B d   1       1.612  -1.394   1.305  0.00  0.00     0.002 A 
ATOM      4  C4  I4B d   1       1.323  -0.470   2.288  0.00  0.00    -0.004 A 
ATOM      5  C5  I4B d   1       0.555   0.652   1.988  0.00  0.00     0.002 A 
ATOM      6  C6  I4B d   1       0.105   0.864   0.677  0.00  0.00     0.003 A 
ENDROOT
BRANCH   1   7
ATOM      7  C1' I4B d   1       0.046   0.203  -1.743  0.00  0.00     0.060 C 
BRANCH   7   8
ATOM      8  C2' I4B d   1       0.893  -0.691  -2.626  0.00  0.00    -0.013 C 
ATOM      9  C4' I4B d   1       0.069  -1.313  -3.723  0.00  0.00     0.013 C 
ATOM     10  C3' I4B d   1       2.008   0.138  -3.190  0.00  0.00     0.013 C 
ENDBRANCH   7   8
ENDBRANCH   1   7
TORSDOF 2
ENDMDL
