MODEL 1
REMARK minimizedAffinity -3.22119927
REMARK minimizedRMSD -1
REMARK  2 active torsions:
REMARK  status: ('A' for Active; 'I' for Inactive)
REMARK    1  A    between atoms: C2'_3  and  C1'_4 
REMARK    2  A    between atoms: C1'_4  and  C1_5 
ROOT
ATOM      1  C1  I4B d   1       0.450   0.136  -0.644  0.00  0.00    -0.075 A 
ATOM      2  C2  I4B d   1       0.345  -1.165  -0.221  0.00  0.00     0.003 A 
ATOM      3  C3  I4B d   1       0.581  -1.496   1.135  0.00  0.00     0.002 A 
ATOM      4  C4  I4B d   1       0.968  -0.508   2.018  0.00  0.00    -0.004 A 
ATOM      5  C5  I4B d   1       1.052   0.814   1.593  0.00  0.00     0.002 A 
ATOM      6  C6  I4B d   1       0.780   1.141   0.257  0.00  0.00     0.003 A 
ENDROOT
BRANCH   1   7
ATOM      7  C1' I4B d   1       0.226   0.445  -2.090  0.00  0.00     0.060 C 
BRANCH   7   8
ATOM      8  C2' I4B d   1       1.171  -0.416  -2.903  0.00  0.00    -0.013 C 
ATOM      9  C4' I4B d   1       0.416  -1.300  -3.860  0.00  0.00     0.013 C 
ATOM     10  C3' I4B d   1       2.113   0.494  -3.634  0.00  0.00     0.013 C 
ENDBRANCH   7   8
ENDBRANCH   1   7
TORSDOF 2
ENDMDL
