MODEL 1
REMARK minimizedAffinity -1.05008256
REMARK minimizedRMSD -1
REMARK  2 active torsions:
REMARK  status: ('A' for Active; 'I' for Inactive)
REMARK    1  A    between atoms: C2'_3  and  C1'_4 
REMARK    2  A    between atoms: C1'_4  and  C1_5 
ROOT
ATOM      1  C1  I4B d   1      -0.475  -0.190   0.658  0.00  0.00    -0.075 A 
ATOM      2  C2  I4B d   1      -1.798   0.100   0.436  0.00  0.00     0.003 A 
ATOM      3  C3  I4B d   1      -2.563   0.748   1.436  0.00  0.00     0.002 A 
ATOM      4  C4  I4B d   1      -1.982   1.040   2.653  0.00  0.00    -0.004 A 
ATOM      5  C5  I4B d   1      -0.635   0.765   2.868  0.00  0.00     0.002 A 
ATOM      6  C6  I4B d   1       0.127   0.157   1.860  0.00  0.00     0.003 A 
ENDROOT
BRANCH   1   7
ATOM      7  C1' I4B d   1       0.294  -0.905  -0.408  0.00  0.00     0.060 C 
BRANCH   7   8
ATOM      8  C2' I4B d   1       0.040  -0.196  -1.722  0.00  0.00    -0.013 C 
ATOM      9  C4' I4B d   1       0.356   1.273  -1.620  0.00  0.00     0.013 C 
ATOM     10  C3' I4B d   1       0.877  -0.858  -2.775  0.00  0.00     0.013 C 
ENDBRANCH   7   8
ENDBRANCH   1   7
TORSDOF 2
ENDMDL
