MODEL 1
REMARK minimizedAffinity -2.20595288
REMARK minimizedRMSD -1
REMARK  2 active torsions:
REMARK  status: ('A' for Active; 'I' for Inactive)
REMARK    1  A    between atoms: C2'_3  and  C1'_4 
REMARK    2  A    between atoms: C1'_4  and  C1_5 
ROOT
ATOM      1  C1  I4B d   1      -0.551   0.439  -0.123  0.00  0.00    -0.075 A 
ATOM      2  C2  I4B d   1       0.650   0.188   0.494  0.00  0.00     0.003 A 
ATOM      3  C3  I4B d   1       0.724   0.115   1.906  0.00  0.00     0.002 A 
ATOM      4  C4  I4B d   1      -0.408   0.348   2.659  0.00  0.00    -0.004 A 
ATOM      5  C5  I4B d   1      -1.629   0.580   2.032  0.00  0.00     0.002 A 
ATOM      6  C6  I4B d   1      -1.704   0.614   0.632  0.00  0.00     0.003 A 
ENDROOT
BRANCH   1   7
ATOM      7  C1' I4B d   1      -0.587   0.542  -1.615  0.00  0.00     0.060 C 
BRANCH   7   8
ATOM      8  C2' I4B d   1       0.554  -0.287  -2.168  0.00  0.00    -0.013 C 
ATOM      9  C4' I4B d   1       0.048  -1.551  -2.811  0.00  0.00     0.013 C 
ATOM     10  C3' I4B d   1       1.306   0.558  -3.152  0.00  0.00     0.013 C 
ENDBRANCH   7   8
ENDBRANCH   1   7
TORSDOF 2
ENDMDL
