MODEL 1
REMARK minimizedAffinity -4.15490389
REMARK minimizedRMSD -1
REMARK  2 active torsions:
REMARK  status: ('A' for Active; 'I' for Inactive)
REMARK    1  A    between atoms: C2'_3  and  C1'_4 
REMARK    2  A    between atoms: C1'_4  and  C1_5 
ROOT
ATOM      1  C1  I4B d   1       0.425  -0.200  -1.519  0.00  0.00    -0.075 A 
ATOM      2  C2  I4B d   1       1.111   0.784  -2.187  0.00  0.00     0.003 A 
ATOM      3  C3  I4B d   1       1.666   0.525  -3.463  0.00  0.00     0.002 A 
ATOM      4  C4  I4B d   1       1.557  -0.738  -4.009  0.00  0.00    -0.004 A 
ATOM      5  C5  I4B d   1       0.841  -1.728  -3.341  0.00  0.00     0.002 A 
ATOM      6  C6  I4B d   1       0.261  -1.454  -2.094  0.00  0.00     0.003 A 
ENDROOT
BRANCH   1   7
ATOM      7  C1' I4B d   1      -0.121   0.098  -0.159  0.00  0.00     0.060 C 
BRANCH   7   8
ATOM      8  C2' I4B d   1       0.998  -0.093   0.845  0.00  0.00    -0.013 C 
ATOM      9  C4' I4B d   1       0.573   0.340   2.224  0.00  0.00     0.013 C 
ATOM     10  C3' I4B d   1       1.392  -1.540   0.829  0.00  0.00     0.013 C 
ENDBRANCH   7   8
ENDBRANCH   1   7
TORSDOF 2
ENDMDL
