MODEL 1
REMARK minimizedAffinity -3.92062163
REMARK minimizedRMSD -1
REMARK  2 active torsions:
REMARK  status: ('A' for Active; 'I' for Inactive)
REMARK    1  A    between atoms: C2'_3  and  C1'_4 
REMARK    2  A    between atoms: C1'_4  and  C1_5 
ROOT
ATOM      1  C1  I4B d   1      -0.066   0.639  -0.352  0.00  0.00    -0.075 A 
ATOM      2  C2  I4B d   1       1.106   0.568   0.359  0.00  0.00     0.003 A 
ATOM      3  C3  I4B d   1       1.077   0.449   1.770  0.00  0.00     0.002 A 
ATOM      4  C4  I4B d   1      -0.136   0.457   2.428  0.00  0.00    -0.004 A 
ATOM      5  C5  I4B d   1      -1.323   0.507   1.703  0.00  0.00     0.002 A 
ATOM      6  C6  I4B d   1      -1.289   0.586   0.304  0.00  0.00     0.003 A 
ENDROOT
BRANCH   1   7
ATOM      7  C1' I4B d   1       0.002   0.797  -1.838  0.00  0.00     0.060 C 
BRANCH   7   8
ATOM      8  C2' I4B d   1       1.032  -0.181  -2.365  0.00  0.00    -0.013 C 
ATOM      9  C4' I4B d   1       0.381  -1.292  -3.146  0.00  0.00     0.013 C 
ATOM     10  C3' I4B d   1       2.003   0.582  -3.216  0.00  0.00     0.013 C 
ENDBRANCH   7   8
ENDBRANCH   1   7
TORSDOF 2
ENDMDL
