MODEL 1
REMARK minimizedAffinity -3.49627519
REMARK minimizedRMSD -1
REMARK  2 active torsions:
REMARK  status: ('A' for Active; 'I' for Inactive)
REMARK    1  A    between atoms: C2'_3  and  C1'_4 
REMARK    2  A    between atoms: C1'_4  and  C1_5 
ROOT
ATOM      1  C1  I4B d   1      -0.305   0.501  -0.007  0.00  0.00    -0.075 A 
ATOM      2  C2  I4B d   1       0.853   0.344   0.714  0.00  0.00     0.003 A 
ATOM      3  C3  I4B d   1       0.799   0.160   2.117  0.00  0.00     0.002 A 
ATOM      4  C4  I4B d   1      -0.421   0.189   2.760  0.00  0.00    -0.004 A 
ATOM      5  C5  I4B d   1      -1.595   0.326   2.025  0.00  0.00     0.002 A 
ATOM      6  C6  I4B d   1      -1.538   0.470   0.631  0.00  0.00     0.003 A 
ENDROOT
BRANCH   1   7
ATOM      7  C1' I4B d   1      -0.210   0.727  -1.483  0.00  0.00     0.060 C 
BRANCH   7   8
ATOM      8  C2' I4B d   1       0.710  -0.330  -2.058  0.00  0.00    -0.013 C 
ATOM      9  C4' I4B d   1      -0.048  -1.586  -2.398  0.00  0.00     0.013 C 
ATOM     10  C3' I4B d   1       1.375   0.246  -3.273  0.00  0.00     0.013 C 
ENDBRANCH   7   8
ENDBRANCH   1   7
TORSDOF 2
ENDMDL
