MODEL 1
REMARK minimizedAffinity -0.860408545
REMARK minimizedRMSD -1
REMARK  2 active torsions:
REMARK  status: ('A' for Active; 'I' for Inactive)
REMARK    1  A    between atoms: C2'_3  and  C1'_4 
REMARK    2  A    between atoms: C1'_4  and  C1_5 
ROOT
ATOM      1  C1  I4B d   1       0.386  -0.183  -0.396  0.00  0.00    -0.075 A 
ATOM      2  C2  I4B d   1       1.108  -1.190   0.193  0.00  0.00     0.003 A 
ATOM      3  C3  I4B d   1       1.471  -1.102   1.559  0.00  0.00     0.002 A 
ATOM      4  C4  I4B d   1       1.136   0.027   2.280  0.00  0.00    -0.004 A 
ATOM      5  C5  I4B d   1       0.384   1.037   1.687  0.00  0.00     0.002 A 
ATOM      6  C6  I4B d   1      -0.005   0.926   0.344  0.00  0.00     0.003 A 
ENDROOT
BRANCH   1   7
ATOM      7  C1' I4B d   1       0.048  -0.293  -1.849  0.00  0.00     0.060 C 
BRANCH   7   8
ATOM      8  C2' I4B d   1       1.239  -0.901  -2.561  0.00  0.00    -0.013 C 
ATOM      9  C4' I4B d   1       0.802  -1.887  -3.612  0.00  0.00     0.013 C 
ATOM     10  C3' I4B d   1       2.037   0.216  -3.165  0.00  0.00     0.013 C 
ENDBRANCH   7   8
ENDBRANCH   1   7
TORSDOF 2
ENDMDL
