MODEL 1
REMARK minimizedAffinity -1.23723471
REMARK minimizedRMSD -1
REMARK  2 active torsions:
REMARK  status: ('A' for Active; 'I' for Inactive)
REMARK    1  A    between atoms: C2'_3  and  C1'_4 
REMARK    2  A    between atoms: C1'_4  and  C1_5 
ROOT
ATOM      1  C1  I4B d   1       0.117   0.318   0.073  0.00  0.00    -0.075 A 
ATOM      2  C2  I4B d   1       1.289  -0.124   0.635  0.00  0.00     0.003 A 
ATOM      3  C3  I4B d   1       1.396  -0.267   2.039  0.00  0.00     0.002 A 
ATOM      4  C4  I4B d   1       0.331   0.088   2.842  0.00  0.00    -0.004 A 
ATOM      5  C5  I4B d   1      -0.864   0.514   2.269  0.00  0.00     0.002 A 
ATOM      6  C6  I4B d   1      -0.976   0.618   0.875  0.00  0.00     0.003 A 
ENDROOT
BRANCH   1   7
ATOM      7  C1' I4B d   1       0.049   0.489  -1.412  0.00  0.00     0.060 C 
BRANCH   7   8
ATOM      8  C2' I4B d   1       1.195  -0.291  -2.024  0.00  0.00    -0.013 C 
ATOM      9  C4' I4B d   1       0.690  -1.445  -2.850  0.00  0.00     0.013 C 
ATOM     10  C3' I4B d   1       2.007   0.656  -2.857  0.00  0.00     0.013 C 
ENDBRANCH   7   8
ENDBRANCH   1   7
TORSDOF 2
ENDMDL
