MODEL 1
REMARK minimizedAffinity -3.44292688
REMARK minimizedRMSD -1
REMARK  2 active torsions:
REMARK  status: ('A' for Active; 'I' for Inactive)
REMARK    1  A    between atoms: C2'_3  and  C1'_4 
REMARK    2  A    between atoms: C1'_4  and  C1_5 
ROOT
ATOM      1  C1  I4B d   1       0.501  -0.043  -1.213  0.00  0.00    -0.075 A 
ATOM      2  C2  I4B d   1       0.319   0.392  -2.502  0.00  0.00     0.003 A 
ATOM      3  C3  I4B d   1       0.768  -0.395  -3.590  0.00  0.00     0.002 A 
ATOM      4  C4  I4B d   1       1.436  -1.578  -3.344  0.00  0.00    -0.004 A 
ATOM      5  C5  I4B d   1       1.599  -2.028  -2.037  0.00  0.00     0.002 A 
ATOM      6  C6  I4B d   1       1.118  -1.262  -0.965  0.00  0.00     0.003 A 
ENDROOT
BRANCH   1   7
ATOM      7  C1' I4B d   1       0.043   0.828  -0.087  0.00  0.00     0.060 C 
BRANCH   7   8
ATOM      8  C2' I4B d   1      -0.533  -0.066   0.992  0.00  0.00    -0.013 C 
ATOM      9  C4' I4B d   1       0.148   0.167   2.315  0.00  0.00     0.013 C 
ATOM     10  C3' I4B d   1      -2.004   0.208   1.084  0.00  0.00     0.013 C 
ENDBRANCH   7   8
ENDBRANCH   1   7
TORSDOF 2
ENDMDL
