MODEL 1
REMARK minimizedAffinity -4.02710009
REMARK minimizedRMSD -1
REMARK  2 active torsions:
REMARK  status: ('A' for Active; 'I' for Inactive)
REMARK    1  A    between atoms: C2'_3  and  C1'_4 
REMARK    2  A    between atoms: C1'_4  and  C1_5 
ROOT
ATOM      1  C1  I4B d   1       0.434  -0.296  -1.934  0.00  0.00    -0.075 A 
ATOM      2  C2  I4B d   1       1.231   0.264  -2.901  0.00  0.00     0.003 A 
ATOM      3  C3  I4B d   1       1.587  -0.481  -4.051  0.00  0.00     0.002 A 
ATOM      4  C4  I4B d   1       1.170  -1.791  -4.169  0.00  0.00    -0.004 A 
ATOM      5  C5  I4B d   1       0.343  -2.350  -3.199  0.00  0.00     0.002 A 
ATOM      6  C6  I4B d   1      -0.037  -1.595  -2.080  0.00  0.00     0.003 A 
ENDROOT
BRANCH   1   7
ATOM      7  C1' I4B d   1       0.104   0.508  -0.717  0.00  0.00     0.060 C 
BRANCH   7   8
ATOM      8  C2' I4B d   1       0.993   0.030   0.413  0.00  0.00    -0.013 C 
ATOM      9  C4' I4B d   1       2.157   0.962   0.622  0.00  0.00     0.013 C 
ATOM     10  C3' I4B d   1       0.153  -0.073   1.651  0.00  0.00     0.013 C 
ENDBRANCH   7   8
ENDBRANCH   1   7
TORSDOF 2
ENDMDL
