MODEL 1
REMARK minimizedAffinity -0.87424612
REMARK minimizedRMSD -1
REMARK  2 active torsions:
REMARK  status: ('A' for Active; 'I' for Inactive)
REMARK    1  A    between atoms: C2'_3  and  C1'_4 
REMARK    2  A    between atoms: C1'_4  and  C1_5 
ROOT
ATOM      1  C1  I4B d   1       0.356   0.218  -0.360  0.00  0.00    -0.075 A 
ATOM      2  C2  I4B d   1       1.464  -0.514  -0.013  0.00  0.00     0.003 A 
ATOM      3  C3  I4B d   1       1.879  -0.584   1.339  0.00  0.00     0.002 A 
ATOM      4  C4  I4B d   1       1.190   0.130   2.298  0.00  0.00    -0.004 A 
ATOM      5  C5  I4B d   1       0.054   0.854   1.949  0.00  0.00     0.002 A 
ATOM      6  C6  I4B d   1      -0.374   0.888   0.614  0.00  0.00     0.003 A 
ENDROOT
BRANCH   1   7
ATOM      7  C1' I4B d   1      -0.034   0.297  -1.801  0.00  0.00     0.060 C 
BRANCH   7   8
ATOM      8  C2' I4B d   1       0.997  -0.467  -2.607  0.00  0.00    -0.013 C 
ATOM      9  C4' I4B d   1       0.355  -1.563  -3.415  0.00  0.00     0.013 C 
ATOM     10  C3' I4B d   1       1.711   0.511  -3.491  0.00  0.00     0.013 C 
ENDBRANCH   7   8
ENDBRANCH   1   7
TORSDOF 2
ENDMDL
