MODEL 1
REMARK minimizedAffinity -4.9177599
REMARK minimizedRMSD -1
REMARK  2 active torsions:
REMARK  status: ('A' for Active; 'I' for Inactive)
REMARK    1  A    between atoms: C2'_3  and  C1'_4 
REMARK    2  A    between atoms: C1'_4  and  C1_5 
ROOT
ATOM      1  C1  I4B d   1       0.672   0.177  -1.242  0.00  0.00    -0.075 A 
ATOM      2  C2  I4B d   1      -0.480   0.399  -1.954  0.00  0.00     0.003 A 
ATOM      3  C3  I4B d   1      -0.617  -0.116  -3.266  0.00  0.00     0.002 A 
ATOM      4  C4  I4B d   1       0.434  -0.799  -3.842  0.00  0.00    -0.004 A 
ATOM      5  C5  I4B d   1       1.593  -1.043  -3.109  0.00  0.00     0.002 A 
ATOM      6  C6  I4B d   1       1.708  -0.563  -1.797  0.00  0.00     0.003 A 
ENDROOT
BRANCH   1   7
ATOM      7  C1' I4B d   1       0.796   0.763   0.129  0.00  0.00     0.060 C 
BRANCH   7   8
ATOM      8  C2' I4B d   1       0.190  -0.217   1.112  0.00  0.00    -0.013 C 
ATOM      9  C4' I4B d   1       1.133  -1.356   1.398  0.00  0.00     0.013 C 
ATOM     10  C3' I4B d   1      -0.147   0.534   2.366  0.00  0.00     0.013 C 
ENDBRANCH   7   8
ENDBRANCH   1   7
TORSDOF 2
ENDMDL
