MODEL 1
REMARK minimizedAffinity -4.90812063
REMARK minimizedRMSD -1
REMARK  0 active torsions:
REMARK  status: ('A' for Active; 'I' for Inactive)
ROOT
ATOM      1  C2' OXE d   1       1.226  -0.373   1.341  0.00  0.00     0.078 C 
ATOM      2  C1' OXE d   1      -0.070  -0.147  -1.138  0.00  0.00     0.078 C 
ATOM      3  C1  OXE d   1      -0.343   0.915  -0.103  0.00  0.00    -0.078 A 
ATOM      4  C2  OXE d   1       0.259   0.771   1.124  0.00  0.00    -0.078 A 
ATOM      5  C3  OXE d   1       0.085   1.751   2.097  0.00  0.00     0.003 A 
ATOM      6  C4  OXE d   1      -0.818   2.801   1.892  0.00  0.00    -0.002 A 
ATOM      7  C5  OXE d   1      -1.473   2.944   0.664  0.00  0.00    -0.002 A 
ATOM      8  C6  OXE d   1      -1.214   2.036  -0.357  0.00  0.00     0.003 A 
ENDROOT
TORSDOF 0
ENDMDL
