MODEL 1
REMARK minimizedAffinity 0.231455907
REMARK minimizedRMSD -1
REMARK  0 active torsions:
REMARK  status: ('A' for Active; 'I' for Inactive)
ROOT
ATOM      1  C2' OXE d   1      -0.489   2.686  -1.531  0.00  0.00     0.078 C 
ATOM      2  C1' OXE d   1      -0.007   2.925   1.225  0.00  0.00     0.078 C 
ATOM      3  C1  OXE d   1       0.220   1.578   0.585  0.00  0.00    -0.078 A 
ATOM      4  C2  OXE d   1      -0.063   1.458  -0.755  0.00  0.00    -0.078 A 
ATOM      5  C3  OXE d   1       0.181   0.253  -1.406  0.00  0.00     0.003 A 
ATOM      6  C4  OXE d   1       0.566  -0.880  -0.679  0.00  0.00    -0.002 A 
ATOM      7  C5  OXE d   1       0.821  -0.790   0.694  0.00  0.00    -0.002 A 
ATOM      8  C6  OXE d   1       0.695   0.439   1.331  0.00  0.00     0.003 A 
ENDROOT
TORSDOF 0
ENDMDL
