MODEL 1
REMARK minimizedAffinity -1.91739583
REMARK minimizedRMSD -1
REMARK  0 active torsions:
REMARK  status: ('A' for Active; 'I' for Inactive)
ROOT
ATOM      1  C2' OXE d   1      -0.695   2.389   1.858  0.00  0.00     0.078 C 
ATOM      2  C1' OXE d   1      -1.004   2.292  -0.931  0.00  0.00     0.078 C 
ATOM      3  C1  OXE d   1      -0.360   1.109  -0.253  0.00  0.00    -0.078 A 
ATOM      4  C2  OXE d   1      -0.170   1.185   1.106  0.00  0.00    -0.078 A 
ATOM      5  C3  OXE d   1       0.370   0.098   1.788  0.00  0.00     0.003 A 
ATOM      6  C4  OXE d   1       0.862  -1.007   1.084  0.00  0.00    -0.002 A 
ATOM      7  C5  OXE d   1       0.715  -1.088  -0.305  0.00  0.00    -0.002 A 
ATOM      8  C6  OXE d   1       0.069  -0.059  -0.982  0.00  0.00     0.003 A 
ENDROOT
TORSDOF 0
ENDMDL
