MODEL 1
REMARK minimizedAffinity -3.30474019
REMARK minimizedRMSD -1
REMARK  0 active torsions:
REMARK  status: ('A' for Active; 'I' for Inactive)
ROOT
ATOM      1  C2' OXE d   1      -1.267   1.902  -1.549  0.00  0.00     0.078 C 
ATOM      2  C1' OXE d   1      -1.080   2.255   1.229  0.00  0.00     0.078 C 
ATOM      3  C1  OXE d   1      -0.433   1.031   0.630  0.00  0.00    -0.078 A 
ATOM      4  C2  OXE d   1      -0.569   0.843  -0.724  0.00  0.00    -0.078 A 
ATOM      5  C3  OXE d   1       0.055  -0.241  -1.336  0.00  0.00     0.003 A 
ATOM      6  C4  OXE d   1       0.690  -1.221  -0.564  0.00  0.00    -0.002 A 
ATOM      7  C5  OXE d   1       0.806  -1.069   0.822  0.00  0.00    -0.002 A 
ATOM      8  C6  OXE d   1       0.289   0.070   1.428  0.00  0.00     0.003 A 
ENDROOT
TORSDOF 0
ENDMDL
