MODEL 1
REMARK minimizedAffinity -4.12480783
REMARK minimizedRMSD -1
REMARK  0 active torsions:
REMARK  status: ('A' for Active; 'I' for Inactive)
ROOT
ATOM      1  C2' OXE d   1      -0.545   3.491  -1.812  0.00  0.00     0.078 C 
ATOM      2  C1' OXE d   1       1.182   4.794  -0.023  0.00  0.00     0.078 C 
ATOM      3  C1  OXE d   1       0.329   3.672   0.514  0.00  0.00    -0.078 A 
ATOM      4  C2  OXE d   1      -0.546   3.071  -0.358  0.00  0.00    -0.078 A 
ATOM      5  C3  OXE d   1      -1.316   1.993   0.072  0.00  0.00     0.003 A 
ATOM      6  C4  OXE d   1      -1.319   1.617   1.420  0.00  0.00    -0.002 A 
ATOM      7  C5  OXE d   1      -0.464   2.243   2.334  0.00  0.00    -0.002 A 
ATOM      8  C6  OXE d   1       0.396   3.241   1.888  0.00  0.00     0.003 A 
ENDROOT
TORSDOF 0
ENDMDL
