MODEL 1
REMARK minimizedAffinity -4.79547119
REMARK minimizedRMSD -1
REMARK  0 active torsions:
REMARK  status: ('A' for Active; 'I' for Inactive)
ROOT
ATOM      1  C2' OXE d   1      -1.508   2.054   1.431  0.00  0.00     0.078 C 
ATOM      2  C1' OXE d   1      -1.448   1.740  -1.358  0.00  0.00     0.078 C 
ATOM      3  C1  OXE d   1      -0.593   0.815  -0.527  0.00  0.00    -0.078 A 
ATOM      4  C2  OXE d   1      -0.593   1.007   0.834  0.00  0.00    -0.078 A 
ATOM      5  C3  OXE d   1       0.135   0.147   1.651  0.00  0.00     0.003 A 
ATOM      6  C4  OXE d   1       0.987  -0.812   1.090  0.00  0.00    -0.002 A 
ATOM      7  C5  OXE d   1       1.032  -0.998  -0.296  0.00  0.00    -0.002 A 
ATOM      8  C6  OXE d   1       0.218  -0.222  -1.114  0.00  0.00     0.003 A 
ENDROOT
TORSDOF 0
ENDMDL
