MODEL 1
REMARK minimizedAffinity -1.20525062
REMARK minimizedRMSD -1
REMARK  0 active torsions:
REMARK  status: ('A' for Active; 'I' for Inactive)
ROOT
ATOM      1  C2' OXE d   1       0.124  -0.588   2.287  0.00  0.00     0.078 C 
ATOM      2  C1' OXE d   1      -0.038   2.196   1.968  0.00  0.00     0.078 C 
ATOM      3  C1  OXE d   1       0.006   1.347   0.722  0.00  0.00    -0.078 A 
ATOM      4  C2  OXE d   1       0.133  -0.012   0.888  0.00  0.00    -0.078 A 
ATOM      5  C3  OXE d   1       0.123  -0.845  -0.227  0.00  0.00     0.003 A 
ATOM      6  C4  OXE d   1       0.141  -0.304  -1.518  0.00  0.00    -0.002 A 
ATOM      7  C5  OXE d   1       0.053   1.079  -1.709  0.00  0.00    -0.002 A 
ATOM      8  C6  OXE d   1      -0.058   1.914  -0.602  0.00  0.00     0.003 A 
ENDROOT
TORSDOF 0
ENDMDL
