MODEL 1
REMARK minimizedAffinity -2.88635635
REMARK minimizedRMSD -1
REMARK  0 active torsions:
REMARK  status: ('A' for Active; 'I' for Inactive)
ROOT
ATOM      1  C1  DEN d   1      -0.693  -1.682  -0.115  0.00  0.00     0.130 A 
ATOM      2  C2  DEN d   1       0.324  -0.646  -0.269  0.00  0.00    -0.031 A 
ATOM      3  C3  DEN d   1       0.099   0.027  -1.564  0.00  0.00     0.027 A 
ATOM      4  C4  DEN d   1      -1.720  -0.430  -3.335  0.00  0.00     0.027 A 
ATOM      5  C5  DEN d   1      -2.801  -1.220  -3.655  0.00  0.00    -0.003 A 
ATOM      6  C6  DEN d   1      -3.232  -2.234  -2.840  0.00  0.00     0.001 A 
ATOM      7  C7  DEN d   1      -2.605  -2.455  -1.643  0.00  0.00     0.017 A 
ATOM      8  C8  DEN d   1      -1.509  -1.667  -1.316  0.00  0.00    -0.094 A 
ATOM      9  C9  DEN d   1      -1.096  -0.639  -2.148  0.00  0.00    -0.072 A 
ENDROOT
TORSDOF 0
ENDMDL
