MODEL 1
REMARK minimizedAffinity -3.18172026
REMARK minimizedRMSD -1
REMARK  0 active torsions:
REMARK  status: ('A' for Active; 'I' for Inactive)
ROOT
ATOM      1  C1  DEN d   1       2.819   0.132  -0.020  0.00  0.00     0.130 A 
ATOM      2  C2  DEN d   1       3.649   0.919   0.888  0.00  0.00    -0.031 A 
ATOM      3  C3  DEN d   1       2.755   1.754   1.715  0.00  0.00     0.027 A 
ATOM      4  C4  DEN d   1       0.180   1.903   1.680  0.00  0.00     0.027 A 
ATOM      5  C5  DEN d   1      -0.963   1.433   1.072  0.00  0.00    -0.003 A 
ATOM      6  C6  DEN d   1      -0.924   0.531   0.042  0.00  0.00     0.001 A 
ATOM      7  C7  DEN d   1       0.281   0.034  -0.380  0.00  0.00     0.017 A 
ATOM      8  C8  DEN d   1       1.438   0.508   0.223  0.00  0.00    -0.094 A 
ATOM      9  C9  DEN d   1       1.377   1.411   1.271  0.00  0.00    -0.072 A 
ENDROOT
TORSDOF 0
ENDMDL
