MODEL 1
REMARK minimizedAffinity -5.20474291
REMARK minimizedRMSD -1
REMARK  0 active torsions:
REMARK  status: ('A' for Active; 'I' for Inactive)
ROOT
ATOM      1  C1  DEN d   1       0.721  -0.909  -0.473  0.00  0.00     0.130 A 
ATOM      2  C2  DEN d   1      -0.669  -0.936  -0.028  0.00  0.00    -0.031 A 
ATOM      3  C3  DEN d   1      -0.921   0.291   0.755  0.00  0.00     0.027 A 
ATOM      4  C4  DEN d   1       0.696   2.221   1.313  0.00  0.00     0.027 A 
ATOM      5  C5  DEN d   1       1.985   2.684   1.164  0.00  0.00    -0.003 A 
ATOM      6  C6  DEN d   1       2.944   1.972   0.493  0.00  0.00     0.001 A 
ATOM      7  C7  DEN d   1       2.617   0.778  -0.093  0.00  0.00     0.017 A 
ATOM      8  C8  DEN d   1       1.322   0.301   0.060  0.00  0.00    -0.094 A 
ATOM      9  C9  DEN d   1       0.363   1.041   0.731  0.00  0.00    -0.072 A 
ENDROOT
TORSDOF 0
ENDMDL
