MODEL 1
REMARK minimizedAffinity -4.25810099
REMARK minimizedRMSD -1
REMARK  0 active torsions:
REMARK  status: ('A' for Active; 'I' for Inactive)
ROOT
ATOM      1  C1  DEN d   1       0.706   0.088  -0.640  0.00  0.00     0.130 A 
ATOM      2  C2  DEN d   1      -0.713   0.077  -0.293  0.00  0.00    -0.031 A 
ATOM      3  C3  DEN d   1      -0.924   1.057   0.792  0.00  0.00     0.027 A 
ATOM      4  C4  DEN d   1       0.796   2.583   1.959  0.00  0.00     0.027 A 
ATOM      5  C5  DEN d   1       2.126   2.939   2.014  0.00  0.00    -0.003 A 
ATOM      6  C6  DEN d   1       3.073   2.349   1.219  0.00  0.00     0.001 A 
ATOM      7  C7  DEN d   1       2.697   1.404   0.302  0.00  0.00     0.017 A 
ATOM      8  C8  DEN d   1       1.359   1.035   0.245  0.00  0.00    -0.094 A 
ATOM      9  C9  DEN d   1       0.415   1.651   1.049  0.00  0.00    -0.072 A 
ENDROOT
TORSDOF 0
ENDMDL
