MODEL 1
REMARK minimizedAffinity -5.59028149
REMARK minimizedRMSD -1
REMARK  0 active torsions:
REMARK  status: ('A' for Active; 'I' for Inactive)
ROOT
ATOM      1  C1  DEN d   1       0.713  -1.018  -0.602  0.00  0.00     0.130 A 
ATOM      2  C2  DEN d   1      -0.694  -0.868  -0.242  0.00  0.00    -0.031 A 
ATOM      3  C3  DEN d   1      -0.834   0.372   0.547  0.00  0.00     0.027 A 
ATOM      4  C4  DEN d   1       0.980   2.069   1.240  0.00  0.00     0.027 A 
ATOM      5  C5  DEN d   1       2.325   2.362   1.178  0.00  0.00    -0.003 A 
ATOM      6  C6  DEN d   1       3.224   1.539   0.553  0.00  0.00     0.001 A 
ATOM      7  C7  DEN d   1       2.783   0.404  -0.075  0.00  0.00     0.017 A 
ATOM      8  C8  DEN d   1       1.430   0.098  -0.010  0.00  0.00    -0.094 A 
ATOM      9  C9  DEN d   1       0.535   0.949   0.616  0.00  0.00    -0.072 A 
ENDROOT
TORSDOF 0
ENDMDL
