MODEL 1
REMARK minimizedAffinity -4.9929924
REMARK minimizedRMSD -1
REMARK  0 active torsions:
REMARK  status: ('A' for Active; 'I' for Inactive)
ROOT
ATOM      1  C1  DEN d   1       0.625  -0.179  -0.552  0.00  0.00     0.130 A 
ATOM      2  C2  DEN d   1      -0.530  -0.648   0.209  0.00  0.00    -0.031 A 
ATOM      3  C3  DEN d   1      -0.590   0.121   1.468  0.00  0.00     0.027 A 
ATOM      4  C4  DEN d   1       0.983   1.986   2.306  0.00  0.00     0.027 A 
ATOM      5  C5  DEN d   1       2.111   2.720   2.012  0.00  0.00    -0.003 A 
ATOM      6  C6  DEN d   1       2.836   2.517   0.868  0.00  0.00     0.001 A 
ATOM      7  C7  DEN d   1       2.415   1.588  -0.047  0.00  0.00     0.017 A 
ATOM      8  C8  DEN d   1       1.283   0.839   0.247  0.00  0.00    -0.094 A 
ATOM      9  C9  DEN d   1       0.557   1.067   1.403  0.00  0.00    -0.072 A 
ENDROOT
TORSDOF 0
ENDMDL
