MODEL 1
REMARK minimizedAffinity -4.15093803
REMARK minimizedRMSD -1
REMARK  0 active torsions:
REMARK  status: ('A' for Active; 'I' for Inactive)
ROOT
ATOM      1  C1  DEN d   1      -1.041   0.250   0.417  0.00  0.00     0.130 A 
ATOM      2  C2  DEN d   1      -1.018  -0.895  -0.489  0.00  0.00    -0.031 A 
ATOM      3  C3  DEN d   1       0.360  -1.047  -0.997  0.00  0.00     0.027 A 
ATOM      4  C4  DEN d   1       2.450   0.370  -0.469  0.00  0.00     0.027 A 
ATOM      5  C5  DEN d   1       2.921   1.455   0.236  0.00  0.00    -0.003 A 
ATOM      6  C6  DEN d   1       2.105   2.229   1.017  0.00  0.00     0.001 A 
ATOM      7  C7  DEN d   1       0.781   1.902   1.148  0.00  0.00     0.017 A 
ATOM      8  C8  DEN d   1       0.297   0.813   0.435  0.00  0.00    -0.094 A 
ATOM      9  C9  DEN d   1       1.141   0.035  -0.340  0.00  0.00    -0.072 A 
ENDROOT
TORSDOF 0
ENDMDL
