MODEL 1
REMARK minimizedAffinity -0.773922265
REMARK minimizedRMSD -1
REMARK  0 active torsions:
REMARK  status: ('A' for Active; 'I' for Inactive)
ROOT
ATOM      1  C1  DEN d   1      -1.199  -1.854  -2.415  0.00  0.00     0.130 A 
ATOM      2  C2  DEN d   1      -2.524  -1.414  -2.842  0.00  0.00    -0.031 A 
ATOM      3  C3  DEN d   1      -2.918  -0.268  -1.998  0.00  0.00     0.027 A 
ATOM      4  C4  DEN d   1      -1.609   0.865  -0.086  0.00  0.00     0.027 A 
ATOM      5  C5  DEN d   1      -0.443   0.836   0.647  0.00  0.00    -0.003 A 
ATOM      6  C6  DEN d   1       0.529  -0.105   0.436  0.00  0.00     0.001 A 
ATOM      7  C7  DEN d   1       0.374  -1.029  -0.564  0.00  0.00     0.017 A 
ATOM      8  C8  DEN d   1      -0.802  -1.011  -1.303  0.00  0.00    -0.094 A 
ATOM      9  C9  DEN d   1      -1.768  -0.044  -1.082  0.00  0.00    -0.072 A 
ENDROOT
TORSDOF 0
ENDMDL
