MODEL 1
REMARK minimizedAffinity 0.311438948
REMARK minimizedRMSD -1
REMARK  0 active torsions:
REMARK  status: ('A' for Active; 'I' for Inactive)
ROOT
ATOM      1  C1  DEN d   1       0.292  -1.651  -0.321  0.00  0.00     0.130 A 
ATOM      2  C2  DEN d   1      -0.987  -1.931  -0.967  0.00  0.00    -0.031 A 
ATOM      3  C3  DEN d   1      -1.861  -0.755  -0.779  0.00  0.00     0.027 A 
ATOM      4  C4  DEN d   1      -1.357   1.461   0.440  0.00  0.00     0.027 A 
ATOM      5  C5  DEN d   1      -0.410   2.158   1.157  0.00  0.00    -0.003 A 
ATOM      6  C6  DEN d   1       0.816   1.625   1.458  0.00  0.00     0.001 A 
ATOM      7  C7  DEN d   1       1.143   0.376   1.002  0.00  0.00     0.017 A 
ATOM      8  C8  DEN d   1       0.190  -0.336   0.285  0.00  0.00    -0.094 A 
ATOM      9  C9  DEN d   1      -1.038   0.225  -0.020  0.00  0.00    -0.072 A 
ENDROOT
TORSDOF 0
ENDMDL
