MODEL 1
REMARK minimizedAffinity 2.66927361
REMARK minimizedRMSD -1
REMARK  0 active torsions:
REMARK  status: ('A' for Active; 'I' for Inactive)
ROOT
ATOM      1  C1  DEN d   1      -1.052  -1.187   0.851  0.00  0.00     0.130 A 
ATOM      2  C2  DEN d   1      -0.418   0.125   0.748  0.00  0.00    -0.031 A 
ATOM      3  C3  DEN d   1      -0.870   0.753  -0.510  0.00  0.00     0.027 A 
ATOM      4  C4  DEN d   1      -2.485  -0.171  -2.296  0.00  0.00     0.027 A 
ATOM      5  C5  DEN d   1      -3.267  -1.247  -2.654  0.00  0.00    -0.003 A 
ATOM      6  C6  DEN d   1      -3.338  -2.383  -1.891  0.00  0.00     0.001 A 
ATOM      7  C7  DEN d   1      -2.650  -2.451  -0.709  0.00  0.00     0.017 A 
ATOM      8  C8  DEN d   1      -1.854  -1.373  -0.345  0.00  0.00    -0.094 A 
ATOM      9  C9  DEN d   1      -1.804  -0.229  -1.124  0.00  0.00    -0.072 A 
ENDROOT
TORSDOF 0
ENDMDL
