MODEL 1
REMARK minimizedAffinity -2.01361752
REMARK minimizedRMSD -1
REMARK  0 active torsions:
REMARK  status: ('A' for Active; 'I' for Inactive)
ROOT
ATOM      1  C1  DEN d   1       1.169  -0.842  -0.861  0.00  0.00     0.130 A 
ATOM      2  C2  DEN d   1      -0.052  -1.537  -0.462  0.00  0.00    -0.031 A 
ATOM      3  C3  DEN d   1      -0.771  -0.680   0.501  0.00  0.00     0.027 A 
ATOM      4  C4  DEN d   1      -0.118   1.645   1.406  0.00  0.00     0.027 A 
ATOM      5  C5  DEN d   1       0.836   2.638   1.367  0.00  0.00    -0.003 A 
ATOM      6  C6  DEN d   1       1.976   2.526   0.615  0.00  0.00     0.001 A 
ATOM      7  C7  DEN d   1       2.168   1.416  -0.164  0.00  0.00     0.017 A 
ATOM      8  C8  DEN d   1       1.214   0.408  -0.125  0.00  0.00    -0.094 A 
ATOM      9  C9  DEN d   1       0.063   0.545   0.633  0.00  0.00    -0.072 A 
ENDROOT
TORSDOF 0
ENDMDL
