MODEL 1
REMARK minimizedAffinity -6.08626938
REMARK minimizedRMSD -1
REMARK  0 active torsions:
REMARK  status: ('A' for Active; 'I' for Inactive)
ROOT
ATOM      1  C1  DEN d   1      -0.989   0.373   0.224  0.00  0.00     0.130 A 
ATOM      2  C2  DEN d   1      -0.694  -0.902  -0.425  0.00  0.00    -0.031 A 
ATOM      3  C3  DEN d   1       0.773  -1.041  -0.512  0.00  0.00     0.027 A 
ATOM      4  C4  DEN d   1       2.608   0.583   0.296  0.00  0.00     0.027 A 
ATOM      5  C5  DEN d   1       2.845   1.799   0.897  0.00  0.00    -0.003 A 
ATOM      6  C6  DEN d   1       1.829   2.634   1.282  0.00  0.00     0.001 A 
ATOM      7  C7  DEN d   1       0.527   2.243   1.111  0.00  0.00     0.017 A 
ATOM      8  C8  DEN d   1       0.280   1.021   0.499  0.00  0.00    -0.094 A 
ATOM      9  C9  DEN d   1       1.321   0.186   0.128  0.00  0.00    -0.072 A 
ENDROOT
TORSDOF 0
ENDMDL
