MODEL 1
REMARK minimizedAffinity -1.43974304
REMARK minimizedRMSD -1
REMARK  0 active torsions:
REMARK  status: ('A' for Active; 'I' for Inactive)
ROOT
ATOM      1  C1  DEN d   1      -1.157  -0.069  -0.986  0.00  0.00     0.130 A 
ATOM      2  C2  DEN d   1      -0.217  -0.571  -1.986  0.00  0.00    -0.031 A 
ATOM      3  C3  DEN d   1       1.140  -0.511  -1.407  0.00  0.00     0.027 A 
ATOM      4  C4  DEN d   1       1.874   0.301   0.929  0.00  0.00     0.027 A 
ATOM      5  C5  DEN d   1       1.435   0.829   2.123  0.00  0.00    -0.003 A 
ATOM      6  C6  DEN d   1       0.116   1.125   2.350  0.00  0.00     0.001 A 
ATOM      7  C7  DEN d   1      -0.816   0.851   1.384  0.00  0.00     0.017 A 
ATOM      8  C8  DEN d   1      -0.380   0.325   0.175  0.00  0.00    -0.094 A 
ATOM      9  C9  DEN d   1       0.955   0.022  -0.030  0.00  0.00    -0.072 A 
ENDROOT
TORSDOF 0
ENDMDL
