MODEL 1
REMARK minimizedAffinity -1.76403081
REMARK minimizedRMSD -1
REMARK  0 active torsions:
REMARK  status: ('A' for Active; 'I' for Inactive)
ROOT
ATOM      1  C1  DEN d   1       1.411  -0.458  -0.591  0.00  0.00     0.130 A 
ATOM      2  C2  DEN d   1      -0.039  -0.535  -0.430  0.00  0.00    -0.031 A 
ATOM      3  C3  DEN d   1      -0.435   0.440   0.605  0.00  0.00     0.027 A 
ATOM      4  C4  DEN d   1       1.045   2.057   1.963  0.00  0.00     0.027 A 
ATOM      5  C5  DEN d   1       2.338   2.478   2.185  0.00  0.00    -0.003 A 
ATOM      6  C6  DEN d   1       3.407   1.930   1.526  0.00  0.00     0.001 A 
ATOM      7  C7  DEN d   1       3.198   0.961   0.581  0.00  0.00     0.017 A 
ATOM      8  C8  DEN d   1       1.898   0.527   0.358  0.00  0.00    -0.094 A 
ATOM      9  C9  DEN d   1       0.830   1.102   1.025  0.00  0.00    -0.072 A 
ENDROOT
TORSDOF 0
ENDMDL
