MODEL 1
REMARK minimizedAffinity 12.6819553
REMARK minimizedRMSD -1
REMARK  0 active torsions:
REMARK  status: ('A' for Active; 'I' for Inactive)
ROOT
ATOM      1  O1  BZF d   1       2.306   0.457  -1.737  0.00  0.00    -0.204 OA
ATOM      2  C2  BZF d   1       2.428   1.501  -2.633  0.00  0.00     0.174 A 
ATOM      3  C3  BZF d   1       2.046   2.664  -2.067  0.00  0.00    -0.012 A 
ATOM      4  C3A BZF d   1       1.750   2.340  -0.705  0.00  0.00    -0.107 A 
ATOM      5  C4  BZF d   1       1.334   3.078   0.366  0.00  0.00     0.055 A 
ATOM      6  C5  BZF d   1       1.066   2.446   1.539  0.00  0.00    -0.016 A 
ATOM      7  C6  BZF d   1       1.196   1.079   1.674  0.00  0.00     0.022 A 
ATOM      8  C7  BZF d   1       1.610   0.306   0.640  0.00  0.00     0.029 A 
ATOM      9  C7A BZF d   1       1.914   0.946  -0.536  0.00  0.00     0.058 A 
ENDROOT
TORSDOF 0
ENDMDL
