MODEL 1
REMARK minimizedAffinity 8.98063469
REMARK minimizedRMSD -1
REMARK  0 active torsions:
REMARK  status: ('A' for Active; 'I' for Inactive)
ROOT
ATOM      1  O1  BZF d   1      -3.627  -3.953  -4.922  0.00  0.00    -0.204 OA
ATOM      2  C2  BZF d   1      -3.028  -3.328  -5.999  0.00  0.00     0.174 A 
ATOM      3  C3  BZF d   1      -2.242  -2.313  -5.587  0.00  0.00    -0.012 A 
ATOM      4  C3A BZF d   1      -2.284  -2.361  -4.157  0.00  0.00    -0.107 A 
ATOM      5  C4  BZF d   1      -1.693  -1.619  -3.175  0.00  0.00     0.055 A 
ATOM      6  C5  BZF d   1      -1.999  -1.878  -1.877  0.00  0.00    -0.016 A 
ATOM      7  C6  BZF d   1      -2.895  -2.867  -1.525  0.00  0.00     0.022 A 
ATOM      8  C7  BZF d   1      -3.503  -3.632  -2.464  0.00  0.00     0.029 A 
ATOM      9  C7A BZF d   1      -3.170  -3.395  -3.776  0.00  0.00     0.058 A 
ENDROOT
TORSDOF 0
ENDMDL
