MODEL 1
REMARK minimizedAffinity 18.7233639
REMARK minimizedRMSD -1
REMARK  0 active torsions:
REMARK  status: ('A' for Active; 'I' for Inactive)
ROOT
ATOM      1  O1  BZF d   1      -0.461  -2.910   3.112  0.00  0.00    -0.204 OA
ATOM      2  C2  BZF d   1      -1.134  -1.706   3.034  0.00  0.00     0.174 A 
ATOM      3  C3  BZF d   1      -2.358  -1.806   3.590  0.00  0.00    -0.012 A 
ATOM      4  C3A BZF d   1      -2.422  -3.131   4.126  0.00  0.00    -0.107 A 
ATOM      5  C4  BZF d   1      -3.379  -3.821   4.813  0.00  0.00     0.055 A 
ATOM      6  C5  BZF d   1      -3.156  -5.124   5.127  0.00  0.00    -0.016 A 
ATOM      7  C6  BZF d   1      -1.991  -5.769   4.767  0.00  0.00     0.022 A 
ATOM      8  C7  BZF d   1      -1.010  -5.124   4.090  0.00  0.00     0.029 A 
ATOM      9  C7A BZF d   1      -1.218  -3.798   3.799  0.00  0.00     0.058 A 
ENDROOT
TORSDOF 0
ENDMDL
