MODEL 1
REMARK minimizedAffinity 14.4329004
REMARK minimizedRMSD -1
REMARK  0 active torsions:
REMARK  status: ('A' for Active; 'I' for Inactive)
ROOT
ATOM      1  O1  BZF d   1      -4.594  -1.003  -5.754  0.00  0.00    -0.204 OA
ATOM      2  C2  BZF d   1      -5.749  -1.762  -5.746  0.00  0.00     0.174 A 
ATOM      3  C3  BZF d   1      -5.460  -3.073  -5.872  0.00  0.00    -0.012 A 
ATOM      4  C3A BZF d   1      -4.031  -3.146  -5.871  0.00  0.00    -0.107 A 
ATOM      5  C4  BZF d   1      -3.144  -4.181  -5.951  0.00  0.00     0.055 A 
ATOM      6  C5  BZF d   1      -1.813  -3.907  -5.997  0.00  0.00    -0.016 A 
ATOM      7  C6  BZF d   1      -1.336  -2.613  -5.970  0.00  0.00     0.022 A 
ATOM      8  C7  BZF d   1      -2.178  -1.554  -5.885  0.00  0.00     0.029 A 
ATOM      9  C7A BZF d   1      -3.521  -1.829  -5.806  0.00  0.00     0.058 A 
ENDROOT
TORSDOF 0
ENDMDL
