MODEL 1
REMARK minimizedAffinity 3.50068212
REMARK minimizedRMSD -1
REMARK  0 active torsions:
REMARK  status: ('A' for Active; 'I' for Inactive)
ROOT
ATOM      1  O1  BZF d   1       3.770   0.726  -2.781  0.00  0.00    -0.204 OA
ATOM      2  C2  BZF d   1       2.984   1.649  -3.443  0.00  0.00     0.174 A 
ATOM      3  C3  BZF d   1       2.122   2.242  -2.592  0.00  0.00    -0.012 A 
ATOM      4  C3A BZF d   1       2.448   1.718  -1.301  0.00  0.00    -0.107 A 
ATOM      5  C4  BZF d   1       1.953   1.936  -0.047  0.00  0.00     0.055 A 
ATOM      6  C5  BZF d   1       2.442   1.210   0.992  0.00  0.00    -0.016 A 
ATOM      7  C6  BZF d   1       3.422   0.255   0.813  0.00  0.00     0.022 A 
ATOM      8  C7  BZF d   1       3.948   0.008  -0.411  0.00  0.00     0.029 A 
ATOM      9  C7A BZF d   1       3.478   0.763  -1.458  0.00  0.00     0.058 A 
ENDROOT
TORSDOF 0
ENDMDL
