MODEL 1
REMARK minimizedAffinity 16.9277229
REMARK minimizedRMSD -1
REMARK  0 active torsions:
REMARK  status: ('A' for Active; 'I' for Inactive)
ROOT
ATOM      1  O1  BZF d   1      -0.298  -2.076   2.743  0.00  0.00    -0.204 OA
ATOM      2  C2  BZF d   1      -1.491  -2.606   3.195  0.00  0.00     0.174 A 
ATOM      3  C3  BZF d   1      -2.023  -1.831   4.163  0.00  0.00    -0.012 A 
ATOM      4  C3A BZF d   1      -1.150  -0.701   4.261  0.00  0.00    -0.107 A 
ATOM      5  C4  BZF d   1      -1.156   0.425   5.035  0.00  0.00     0.055 A 
ATOM      6  C5  BZF d   1      -0.119   1.298   4.938  0.00  0.00    -0.016 A 
ATOM      7  C6  BZF d   1       0.941   1.074   4.083  0.00  0.00     0.022 A 
ATOM      8  C7  BZF d   1       0.988  -0.025   3.292  0.00  0.00     0.029 A 
ATOM      9  C7A BZF d   1      -0.075  -0.893   3.364  0.00  0.00     0.058 A 
ENDROOT
TORSDOF 0
ENDMDL
