MODEL 1
REMARK minimizedAffinity 21.416399
REMARK minimizedRMSD -1
REMARK  0 active torsions:
REMARK  status: ('A' for Active; 'I' for Inactive)
ROOT
ATOM      1  O1  BZF d   1      -1.966   2.541   3.288  0.00  0.00    -0.204 OA
ATOM      2  C2  BZF d   1      -3.326   2.304   3.343  0.00  0.00     0.174 A 
ATOM      3  C3  BZF d   1      -3.582   0.980   3.310  0.00  0.00    -0.012 A 
ATOM      4  C3A BZF d   1      -2.298   0.348   3.322  0.00  0.00    -0.107 A 
ATOM      5  C4  BZF d   1      -1.894  -0.956   3.317  0.00  0.00     0.055 A 
ATOM      6  C5  BZF d   1      -0.566  -1.236   3.258  0.00  0.00    -0.016 A 
ATOM      7  C6  BZF d   1       0.384  -0.238   3.197  0.00  0.00     0.022 A 
ATOM      8  C7  BZF d   1       0.032   1.071   3.204  0.00  0.00     0.029 A 
ATOM      9  C7A BZF d   1      -1.308   1.357   3.298  0.00  0.00     0.058 A 
ENDROOT
TORSDOF 0
ENDMDL
