MODEL 1
REMARK minimizedAffinity 28.604023
REMARK minimizedRMSD -1
REMARK  0 active torsions:
REMARK  status: ('A' for Active; 'I' for Inactive)
ROOT
ATOM      1  O1  BZF d   1      -0.729  -2.670   2.724  0.00  0.00    -0.204 OA
ATOM      2  C2  BZF d   1      -1.588  -1.616   2.970  0.00  0.00     0.174 A 
ATOM      3  C3  BZF d   1      -2.637  -2.018   3.717  0.00  0.00    -0.012 A 
ATOM      4  C3A BZF d   1      -2.373  -3.389   4.029  0.00  0.00    -0.107 A 
ATOM      5  C4  BZF d   1      -3.042  -4.332   4.757  0.00  0.00     0.055 A 
ATOM      6  C5  BZF d   1      -2.552  -5.598   4.806  0.00  0.00    -0.016 A 
ATOM      7  C6  BZF d   1      -1.400  -5.957   4.138  0.00  0.00     0.022 A 
ATOM      8  C7  BZF d   1      -0.699  -5.056   3.408  0.00  0.00     0.029 A 
ATOM      9  C7A BZF d   1      -1.174  -3.767   3.383  0.00  0.00     0.058 A 
ENDROOT
TORSDOF 0
ENDMDL
