MODEL 1
REMARK minimizedAffinity -1.7278285
REMARK minimizedRMSD -1
REMARK  0 active torsions:
REMARK  status: ('A' for Active; 'I' for Inactive)
ROOT
ATOM      1  O1  BZF d   1       5.994   3.439  -5.675  0.00  0.00    -0.204 OA
ATOM      2  C2  BZF d   1       5.021   4.382  -5.945  0.00  0.00     0.174 A 
ATOM      3  C3  BZF d   1       3.802   3.810  -6.000  0.00  0.00    -0.012 A 
ATOM      4  C3A BZF d   1       4.015   2.437  -5.656  0.00  0.00    -0.107 A 
ATOM      5  C4  BZF d   1       3.183   1.363  -5.523  0.00  0.00     0.055 A 
ATOM      6  C5  BZF d   1       3.717   0.144  -5.249  0.00  0.00    -0.016 A 
ATOM      7  C6  BZF d   1       5.077  -0.038  -5.106  0.00  0.00     0.022 A 
ATOM      8  C7  BZF d   1       5.942   0.999  -5.225  0.00  0.00     0.029 A 
ATOM      9  C7A BZF d   1       5.402   2.238  -5.469  0.00  0.00     0.058 A 
ENDROOT
TORSDOF 0
ENDMDL
