MODEL 1
REMARK minimizedAffinity 16.4032669
REMARK minimizedRMSD -1
REMARK  0 active torsions:
REMARK  status: ('A' for Active; 'I' for Inactive)
ROOT
ATOM      1  O1  BZF d   1       2.103  -0.562  -5.929  0.00  0.00    -0.204 OA
ATOM      2  C2  BZF d   1       1.346  -1.717  -5.983  0.00  0.00     0.174 A 
ATOM      3  C3  BZF d   1       2.137  -2.809  -5.948  0.00  0.00    -0.012 A 
ATOM      4  C3A BZF d   1       3.465  -2.306  -5.773  0.00  0.00    -0.107 A 
ATOM      5  C4  BZF d   1       4.686  -2.904  -5.650  0.00  0.00     0.055 A 
ATOM      6  C5  BZF d   1       5.797  -2.126  -5.567  0.00  0.00    -0.016 A 
ATOM      7  C6  BZF d   1       5.724  -0.749  -5.609  0.00  0.00     0.022 A 
ATOM      8  C7  BZF d   1       4.535  -0.110  -5.725  0.00  0.00     0.029 A 
ATOM      9  C7A BZF d   1       3.407  -0.893  -5.776  0.00  0.00     0.058 A 
ENDROOT
TORSDOF 0
ENDMDL
