MODEL 1
REMARK minimizedAffinity 17.4283371
REMARK minimizedRMSD -1
REMARK  0 active torsions:
REMARK  status: ('A' for Active; 'I' for Inactive)
ROOT
ATOM      1  O1  BZF d   1      -2.878  -2.075  -5.970  0.00  0.00    -0.204 OA
ATOM      2  C2  BZF d   1      -4.110  -2.700  -5.956  0.00  0.00     0.174 A 
ATOM      3  C3  BZF d   1      -3.967  -4.041  -5.991  0.00  0.00    -0.012 A 
ATOM      4  C3A BZF d   1      -2.555  -4.270  -5.937  0.00  0.00    -0.107 A 
ATOM      5  C4  BZF d   1      -1.788  -5.399  -5.923  0.00  0.00     0.055 A 
ATOM      6  C5  BZF d   1      -0.434  -5.278  -5.940  0.00  0.00    -0.016 A 
ATOM      7  C6  BZF d   1       0.184  -4.045  -5.976  0.00  0.00     0.022 A 
ATOM      8  C7  BZF d   1      -0.536  -2.897  -5.985  0.00  0.00     0.029 A 
ATOM      9  C7A BZF d   1      -1.903  -3.016  -5.935  0.00  0.00     0.058 A 
ENDROOT
TORSDOF 0
ENDMDL
