MODEL 1
REMARK minimizedAffinity 6.22225237
REMARK minimizedRMSD -1
REMARK  0 active torsions:
REMARK  status: ('A' for Active; 'I' for Inactive)
ROOT
ATOM      1  O1  BZF d   1       0.002  -5.381   1.423  0.00  0.00    -0.204 OA
ATOM      2  C2  BZF d   1       0.513  -5.171   0.157  0.00  0.00     0.174 A 
ATOM      3  C3  BZF d   1       0.431  -3.868  -0.181  0.00  0.00    -0.012 A 
ATOM      4  C3A BZF d   1      -0.084  -3.209   0.980  0.00  0.00    -0.107 A 
ATOM      5  C4  BZF d   1      -0.374  -1.906   1.269  0.00  0.00     0.055 A 
ATOM      6  C5  BZF d   1      -0.934  -1.605   2.470  0.00  0.00    -0.016 A 
ATOM      7  C6  BZF d   1      -1.221  -2.581   3.402  0.00  0.00     0.022 A 
ATOM      8  C7  BZF d   1      -0.947  -3.886   3.162  0.00  0.00     0.029 A 
ATOM      9  C7A BZF d   1      -0.351  -4.190   1.962  0.00  0.00     0.058 A 
ENDROOT
TORSDOF 0
ENDMDL
