MODEL 1
REMARK minimizedAffinity 25.2406311
REMARK minimizedRMSD -1
REMARK  0 active torsions:
REMARK  status: ('A' for Active; 'I' for Inactive)
ROOT
ATOM      1  O1  BZF d   1       2.849  -0.407   2.808  0.00  0.00    -0.204 OA
ATOM      2  C2  BZF d   1       2.541  -0.172   4.134  0.00  0.00     0.174 A 
ATOM      3  C3  BZF d   1       1.591   0.779   4.242  0.00  0.00    -0.012 A 
ATOM      4  C3A BZF d   1       1.221   1.097   2.897  0.00  0.00    -0.107 A 
ATOM      5  C4  BZF d   1       0.314   1.960   2.352  0.00  0.00     0.055 A 
ATOM      6  C5  BZF d   1       0.251   2.084   1.000  0.00  0.00    -0.016 A 
ATOM      7  C6  BZF d   1       1.081   1.366   0.165  0.00  0.00     0.022 A 
ATOM      8  C7  BZF d   1       1.993   0.494   0.659  0.00  0.00     0.029 A 
ATOM      9  C7A BZF d   1       2.037   0.342   2.024  0.00  0.00     0.058 A 
ENDROOT
TORSDOF 0
ENDMDL
