MODEL 1
REMARK minimizedAffinity 14.0920067
REMARK minimizedRMSD -1
REMARK  0 active torsions:
REMARK  status: ('A' for Active; 'I' for Inactive)
ROOT
ATOM      1  O1  BZF d   1       3.652   0.152   3.996  0.00  0.00    -0.204 OA
ATOM      2  C2  BZF d   1       4.477  -0.198   2.944  0.00  0.00     0.174 A 
ATOM      3  C3  BZF d   1       3.922   0.150   1.765  0.00  0.00    -0.012 A 
ATOM      4  C3A BZF d   1       2.715   0.838   2.105  0.00  0.00    -0.107 A 
ATOM      5  C4  BZF d   1       1.735   1.438   1.366  0.00  0.00     0.055 A 
ATOM      6  C5  BZF d   1       0.652   1.956   2.002  0.00  0.00    -0.016 A 
ATOM      7  C6  BZF d   1       0.513   1.887   3.373  0.00  0.00     0.022 A 
ATOM      8  C7  BZF d   1       1.461   1.307   4.149  0.00  0.00     0.029 A 
ATOM      9  C7A BZF d   1       2.572   0.812   3.512  0.00  0.00     0.058 A 
ENDROOT
TORSDOF 0
ENDMDL
