MODEL 1
REMARK minimizedAffinity 13.3887758
REMARK minimizedRMSD -1
REMARK  0 active torsions:
REMARK  status: ('A' for Active; 'I' for Inactive)
ROOT
ATOM      1  O1  BZF d   1      -0.544  -3.718   2.994  0.00  0.00    -0.204 OA
ATOM      2  C2  BZF d   1      -1.000  -2.455   2.671  0.00  0.00     0.174 A 
ATOM      3  C3  BZF d   1      -2.261  -2.273   3.114  0.00  0.00    -0.012 A 
ATOM      4  C3A BZF d   1      -2.582  -3.467   3.835  0.00  0.00    -0.107 A 
ATOM      5  C4  BZF d   1      -3.687  -3.881   4.522  0.00  0.00     0.055 A 
ATOM      6  C5  BZF d   1      -3.707  -5.133   5.049  0.00  0.00    -0.016 A 
ATOM      7  C6  BZF d   1      -2.642  -5.999   4.905  0.00  0.00     0.022 A 
ATOM      8  C7  BZF d   1      -1.522  -5.631   4.236  0.00  0.00     0.029 A 
ATOM      9  C7A BZF d   1      -1.486  -4.355   3.730  0.00  0.00     0.058 A 
ENDROOT
TORSDOF 0
ENDMDL
