MODEL 1
REMARK minimizedAffinity 3.00450516
REMARK minimizedRMSD -1
REMARK  0 active torsions:
REMARK  status: ('A' for Active; 'I' for Inactive)
ROOT
ATOM      1  O1  BZF d   1      -1.450  -5.593   4.173  0.00  0.00    -0.204 OA
ATOM      2  C2  BZF d   1      -2.613  -5.855   4.871  0.00  0.00     0.174 A 
ATOM      3  C3  BZF d   1      -3.333  -4.728   5.042  0.00  0.00    -0.012 A 
ATOM      4  C3A BZF d   1      -2.618  -3.713   4.332  0.00  0.00    -0.107 A 
ATOM      5  C4  BZF d   1      -2.840  -2.382   4.118  0.00  0.00     0.055 A 
ATOM      6  C5  BZF d   1      -1.910  -1.658   3.442  0.00  0.00    -0.016 A 
ATOM      7  C6  BZF d   1      -0.746  -2.229   2.971  0.00  0.00     0.022 A 
ATOM      8  C7  BZF d   1      -0.484  -3.546   3.154  0.00  0.00     0.029 A 
ATOM      9  C7A BZF d   1      -1.437  -4.288   3.808  0.00  0.00     0.058 A 
ENDROOT
TORSDOF 0
ENDMDL
