MODEL 1
REMARK minimizedAffinity 12.6838083
REMARK minimizedRMSD -1
REMARK  0 active torsions:
REMARK  status: ('A' for Active; 'I' for Inactive)
ROOT
ATOM      1  O1  BZF d   1       4.577   2.007  -2.838  0.00  0.00    -0.204 OA
ATOM      2  C2  BZF d   1       3.212   2.176  -2.706  0.00  0.00     0.174 A 
ATOM      3  C3  BZF d   1       2.545   1.348  -3.536  0.00  0.00    -0.012 A 
ATOM      4  C3A BZF d   1       3.554   0.550  -4.163  0.00  0.00    -0.107 A 
ATOM      5  C4  BZF d   1       3.516  -0.463  -5.077  0.00  0.00     0.055 A 
ATOM      6  C5  BZF d   1       4.685  -0.981  -5.539  0.00  0.00    -0.016 A 
ATOM      7  C6  BZF d   1       5.908  -0.505  -5.112  0.00  0.00     0.022 A 
ATOM      8  C7  BZF d   1       5.996   0.495  -4.203  0.00  0.00     0.029 A 
ATOM      9  C7A BZF d   1       4.817   0.998  -3.710  0.00  0.00     0.058 A 
ENDROOT
TORSDOF 0
ENDMDL
