MODEL 1
REMARK minimizedAffinity 13.3640232
REMARK minimizedRMSD -1
REMARK  0 active torsions:
REMARK  status: ('A' for Active; 'I' for Inactive)
ROOT
ATOM      1  O1  BZF d   1      -0.726   4.068   1.122  0.00  0.00    -0.204 OA
ATOM      2  C2  BZF d   1      -1.845   3.746   1.865  0.00  0.00     0.174 A 
ATOM      3  C3  BZF d   1      -1.621   2.651   2.619  0.00  0.00    -0.012 A 
ATOM      4  C3A BZF d   1      -0.247   2.317   2.398  0.00  0.00    -0.107 A 
ATOM      5  C4  BZF d   1       0.570   1.335   2.881  0.00  0.00     0.055 A 
ATOM      6  C5  BZF d   1       1.841   1.242   2.410  0.00  0.00    -0.016 A 
ATOM      7  C6  BZF d   1       2.326   2.110   1.454  0.00  0.00     0.022 A 
ATOM      8  C7  BZF d   1       1.555   3.104   0.948  0.00  0.00     0.029 A 
ATOM      9  C7A BZF d   1       0.280   3.220   1.447  0.00  0.00     0.058 A 
ENDROOT
TORSDOF 0
ENDMDL
