MODEL 1
REMARK minimizedAffinity 3.99567795
REMARK minimizedRMSD -1
REMARK  0 active torsions:
REMARK  status: ('A' for Active; 'I' for Inactive)
ROOT
ATOM      1  C4' PXY d   1       1.796  -1.866   2.252  0.00  0.00     0.077 C 
ATOM      2  C1' PXY d   1      -2.277  -2.091  -1.844  0.00  0.00     0.077 C 
ATOM      3  C1  PXY d   1      -1.204  -2.043  -0.774  0.00  0.00    -0.082 A 
ATOM      4  C2  PXY d   1      -1.432  -1.389   0.353  0.00  0.00     0.003 A 
ATOM      5  C3  PXY d   1      -0.461  -1.309   1.317  0.00  0.00     0.003 A 
ATOM      6  C4  PXY d   1       0.738  -1.949   1.148  0.00  0.00    -0.082 A 
ATOM      7  C5  PXY d   1       0.974  -2.627   0.006  0.00  0.00     0.003 A 
ATOM      8  C6  PXY d   1      -0.009  -2.662  -0.978  0.00  0.00     0.003 A 
ENDROOT
TORSDOF 0
ENDMDL
