MODEL 1
REMARK minimizedAffinity 10.8439951
REMARK minimizedRMSD -1
REMARK  0 active torsions:
REMARK  status: ('A' for Active; 'I' for Inactive)
ROOT
ATOM      1  C4' PXY d   1       1.512  -1.360   2.123  0.00  0.00     0.077 C 
ATOM      2  C1' PXY d   1      -2.439  -2.758  -1.857  0.00  0.00     0.077 C 
ATOM      3  C1  PXY d   1      -1.396  -2.402  -0.816  0.00  0.00    -0.082 A 
ATOM      4  C2  PXY d   1      -1.728  -1.628   0.204  0.00  0.00     0.003 A 
ATOM      5  C3  PXY d   1      -0.789  -1.270   1.137  0.00  0.00     0.003 A 
ATOM      6  C4  PXY d   1       0.490  -1.753   1.054  0.00  0.00    -0.082 A 
ATOM      7  C5  PXY d   1       0.833  -2.552   0.021  0.00  0.00     0.003 A 
ATOM      8  C6  PXY d   1      -0.124  -2.870  -0.938  0.00  0.00     0.003 A 
ENDROOT
TORSDOF 0
ENDMDL
