MODEL 1
REMARK minimizedAffinity -0.983570516
REMARK minimizedRMSD -1
REMARK  0 active torsions:
REMARK  status: ('A' for Active; 'I' for Inactive)
ROOT
ATOM      1  C4' PXY d   1       1.706   0.985   0.910  0.00  0.00     0.077 C 
ATOM      2  C1' PXY d   1       1.287  -3.703   4.267  0.00  0.00     0.077 C 
ATOM      3  C1  PXY d   1       1.392  -2.480   3.376  0.00  0.00    -0.082 A 
ATOM      4  C2  PXY d   1       2.271  -1.535   3.665  0.00  0.00     0.003 A 
ATOM      5  C3  PXY d   1       2.357  -0.407   2.889  0.00  0.00     0.003 A 
ATOM      6  C4  PXY d   1       1.572  -0.271   1.776  0.00  0.00    -0.082 A 
ATOM      7  C5  PXY d   1       0.680  -1.237   1.468  0.00  0.00     0.003 A 
ATOM      8  C6  PXY d   1       0.580  -2.354   2.292  0.00  0.00     0.003 A 
ENDROOT
TORSDOF 0
ENDMDL
