MODEL 1
REMARK minimizedAffinity 2.56942582
REMARK minimizedRMSD -1
REMARK  0 active torsions:
REMARK  status: ('A' for Active; 'I' for Inactive)
ROOT
ATOM      1  C4' PXY d   1       1.009  -2.621   3.720  0.00  0.00     0.077 C 
ATOM      2  C1' PXY d   1       0.351  -4.121  -1.823  0.00  0.00     0.077 C 
ATOM      3  C1  PXY d   1       0.524  -3.715  -0.373  0.00  0.00    -0.082 A 
ATOM      4  C2  PXY d   1       1.020  -4.582   0.494  0.00  0.00     0.003 A 
ATOM      5  C3  PXY d   1       1.153  -4.242   1.816  0.00  0.00     0.003 A 
ATOM      6  C4  PXY d   1       0.825  -2.984   2.244  0.00  0.00    -0.082 A 
ATOM      7  C5  PXY d   1       0.328  -2.090   1.364  0.00  0.00     0.003 A 
ATOM      8  C6  PXY d   1       0.162  -2.468   0.034  0.00  0.00     0.003 A 
ENDROOT
TORSDOF 0
ENDMDL
