MODEL 1
REMARK minimizedAffinity 0.35204801
REMARK minimizedRMSD -1
REMARK  0 active torsions:
REMARK  status: ('A' for Active; 'I' for Inactive)
ROOT
ATOM      1  C4' PXY d   1       2.268  -1.338   3.606  0.00  0.00     0.077 C 
ATOM      2  C1' PXY d   1       0.577   1.888  -0.882  0.00  0.00     0.077 C 
ATOM      3  C1  PXY d   1       1.032   1.047   0.294  0.00  0.00    -0.082 A 
ATOM      4  C2  PXY d   1       0.372  -0.058   0.603  0.00  0.00     0.003 A 
ATOM      5  C3  PXY d   1       0.751  -0.813   1.682  0.00  0.00     0.003 A 
ATOM      6  C4  PXY d   1       1.849  -0.463   2.422  0.00  0.00    -0.082 A 
ATOM      7  C5  PXY d   1       2.534   0.656   2.106  0.00  0.00     0.003 A 
ATOM      8  C6  PXY d   1       2.109   1.432   1.031  0.00  0.00     0.003 A 
ENDROOT
TORSDOF 0
ENDMDL
