MODEL 1
REMARK minimizedAffinity -1.29076445
REMARK minimizedRMSD -1
REMARK  0 active torsions:
REMARK  status: ('A' for Active; 'I' for Inactive)
ROOT
ATOM      1  C4' PXY d   1       1.893   1.564   1.118  0.00  0.00     0.077 C 
ATOM      2  C1' PXY d   1       1.020  -3.168   4.320  0.00  0.00     0.077 C 
ATOM      3  C1  PXY d   1       1.253  -1.921   3.491  0.00  0.00    -0.082 A 
ATOM      4  C2  PXY d   1       0.608  -1.767   2.346  0.00  0.00     0.003 A 
ATOM      5  C3  PXY d   1       0.831  -0.660   1.568  0.00  0.00     0.003 A 
ATOM      6  C4  PXY d   1       1.682   0.325   1.992  0.00  0.00    -0.082 A 
ATOM      7  C5  PXY d   1       2.335   0.181   3.165  0.00  0.00     0.003 A 
ATOM      8  C6  PXY d   1       2.127  -0.970   3.920  0.00  0.00     0.003 A 
ENDROOT
TORSDOF 0
ENDMDL
