MODEL 1
REMARK minimizedAffinity 0.53444922
REMARK minimizedRMSD -1
REMARK  0 active torsions:
REMARK  status: ('A' for Active; 'I' for Inactive)
ROOT
ATOM      1  C4' PXY d   1       1.415  -2.709   4.506  0.00  0.00     0.077 C 
ATOM      2  C1' PXY d   1       1.512   1.001   0.074  0.00  0.00     0.077 C 
ATOM      3  C1  PXY d   1       1.474   0.025   1.233  0.00  0.00    -0.082 A 
ATOM      4  C2  PXY d   1       2.268   0.215   2.275  0.00  0.00     0.003 A 
ATOM      5  C3  PXY d   1       2.270  -0.676   3.317  0.00  0.00     0.003 A 
ATOM      6  C4  PXY d   1       1.412  -1.743   3.318  0.00  0.00    -0.082 A 
ATOM      7  C5  PXY d   1       0.592  -1.938   2.264  0.00  0.00     0.003 A 
ATOM      8  C6  PXY d   1       0.635  -1.045   1.197  0.00  0.00     0.003 A 
ENDROOT
TORSDOF 0
ENDMDL
