MODEL 1
REMARK minimizedAffinity 0.666059673
REMARK minimizedRMSD -1
REMARK  0 active torsions:
REMARK  status: ('A' for Active; 'I' for Inactive)
ROOT
ATOM      1  C4' PXY d   1       0.986  -3.016   4.171  0.00  0.00     0.077 C 
ATOM      2  C1' PXY d   1       2.287   1.537   0.855  0.00  0.00     0.077 C 
ATOM      3  C1  PXY d   1       1.957   0.345   1.731  0.00  0.00    -0.082 A 
ATOM      4  C2  PXY d   1       1.134  -0.589   1.282  0.00  0.00     0.003 A 
ATOM      5  C3  PXY d   1       0.799  -1.658   2.073  0.00  0.00     0.003 A 
ATOM      6  C4  PXY d   1       1.355  -1.799   3.317  0.00  0.00    -0.082 A 
ATOM      7  C5  PXY d   1       2.204  -0.857   3.778  0.00  0.00     0.003 A 
ATOM      8  C6  PXY d   1       2.499   0.241   2.975  0.00  0.00     0.003 A 
ENDROOT
TORSDOF 0
ENDMDL
