MODEL 1
REMARK minimizedAffinity 5.15951014
REMARK minimizedRMSD -1
REMARK  0 active torsions:
REMARK  status: ('A' for Active; 'I' for Inactive)
ROOT
ATOM      1  C4' PXY d   1      -0.660  -4.107  -1.513  0.00  0.00     0.077 C 
ATOM      2  C1' PXY d   1      -0.163   1.268   0.557  0.00  0.00     0.077 C 
ATOM      3  C1  PXY d   1      -0.283  -0.145   0.021  0.00  0.00    -0.082 A 
ATOM      4  C2  PXY d   1      -0.921  -0.361  -1.118  0.00  0.00     0.003 A 
ATOM      5  C3  PXY d   1      -1.066  -1.636  -1.601  0.00  0.00     0.003 A 
ATOM      6  C4  PXY d   1      -0.507  -2.696  -0.938  0.00  0.00    -0.082 A 
ATOM      7  C5  PXY d   1       0.155  -2.483   0.219  0.00  0.00     0.003 A 
ATOM      8  C6  PXY d   1       0.256  -1.186   0.713  0.00  0.00     0.003 A 
ENDROOT
TORSDOF 0
ENDMDL
