MODEL 1
REMARK minimizedAffinity -4.72452068
REMARK minimizedRMSD -1
REMARK  0 active torsions:
REMARK  status: ('A' for Active; 'I' for Inactive)
ROOT
ATOM      1  C1  DEN d   1      -1.068  -0.561   1.379  0.00  0.00     0.130 A 
ATOM      2  C2  DEN d   1      -1.958   0.421   0.765  0.00  0.00    -0.031 A 
ATOM      3  C3  DEN d   1      -1.432   0.736  -0.579  0.00  0.00     0.027 A 
ATOM      4  C4  DEN d   1       0.659  -0.200  -1.764  0.00  0.00     0.027 A 
ATOM      5  C5  DEN d   1       1.736  -1.050  -1.636  0.00  0.00    -0.003 A 
ATOM      6  C6  DEN d   1       1.970  -1.765  -0.492  0.00  0.00     0.001 A 
ATOM      7  C7  DEN d   1       1.091  -1.677   0.555  0.00  0.00     0.017 A 
ATOM      8  C8  DEN d   1       0.007  -0.817   0.437  0.00  0.00    -0.094 A 
ATOM      9  C9  DEN d   1      -0.219  -0.112  -0.733  0.00  0.00    -0.072 A 
ENDROOT
TORSDOF 0
ENDMDL
