MODEL 1
REMARK minimizedAffinity -2.18327332
REMARK minimizedRMSD -1
REMARK  0 active torsions:
REMARK  status: ('A' for Active; 'I' for Inactive)
ROOT
ATOM      1  C1  DEN d   1       5.935   2.482   6.000  0.00  0.00     0.130 A 
ATOM      2  C2  DEN d   1       5.893   3.473   4.928  0.00  0.00    -0.031 A 
ATOM      3  C3  DEN d   1       5.590   2.768   3.666  0.00  0.00     0.027 A 
ATOM      4  C4  DEN d   1       5.180   0.252   3.271  0.00  0.00     0.027 A 
ATOM      5  C5  DEN d   1       5.123  -0.985   3.875  0.00  0.00    -0.003 A 
ATOM      6  C6  DEN d   1       5.364  -1.155   5.213  0.00  0.00     0.001 A 
ATOM      7  C7  DEN d   1       5.630  -0.066   5.999  0.00  0.00     0.017 A 
ATOM      8  C8  DEN d   1       5.696   1.183   5.396  0.00  0.00    -0.094 A 
ATOM      9  C9  DEN d   1       5.437   1.337   4.045  0.00  0.00    -0.072 A 
ENDROOT
TORSDOF 0
ENDMDL
