MODEL 1
REMARK minimizedAffinity 10.7924871
REMARK minimizedRMSD -1
REMARK  0 active torsions:
REMARK  status: ('A' for Active; 'I' for Inactive)
ROOT
ATOM      1  C1  DEN d   1       0.525  -1.839   0.786  0.00  0.00     0.130 A 
ATOM      2  C2  DEN d   1      -0.496  -1.750   1.826  0.00  0.00    -0.031 A 
ATOM      3  C3  DEN d   1      -1.370  -0.602   1.512  0.00  0.00     0.027 A 
ATOM      4  C4  DEN d   1      -1.246   1.035  -0.477  0.00  0.00     0.027 A 
ATOM      5  C5  DEN d   1      -0.544   1.368  -1.615  0.00  0.00    -0.003 A 
ATOM      6  C6  DEN d   1       0.574   0.682  -2.010  0.00  0.00     0.001 A 
ATOM      7  C7  DEN d   1       0.997  -0.401  -1.286  0.00  0.00     0.017 A 
ATOM      8  C8  DEN d   1       0.299  -0.738  -0.134  0.00  0.00    -0.094 A 
ATOM      9  C9  DEN d   1      -0.836  -0.040   0.242  0.00  0.00    -0.072 A 
ENDROOT
TORSDOF 0
ENDMDL
