MODEL 1
REMARK minimizedAffinity -1.17718446
REMARK minimizedRMSD -1
REMARK  0 active torsions:
REMARK  status: ('A' for Active; 'I' for Inactive)
ROOT
ATOM      1  C1  DEN d   1      -1.171   1.445   0.859  0.00  0.00     0.130 A 
ATOM      2  C2  DEN d   1      -2.500   0.942   1.199  0.00  0.00    -0.031 A 
ATOM      3  C3  DEN d   1      -2.544  -0.495   0.862  0.00  0.00     0.027 A 
ATOM      4  C4  DEN d   1      -0.693  -1.983  -0.144  0.00  0.00     0.027 A 
ATOM      5  C5  DEN d   1       0.603  -2.001  -0.612  0.00  0.00    -0.003 A 
ATOM      6  C6  DEN d   1       1.380  -0.874  -0.654  0.00  0.00     0.001 A 
ATOM      7  C7  DEN d   1       0.883   0.311  -0.177  0.00  0.00     0.017 A 
ATOM      8  C8  DEN d   1      -0.424   0.338   0.289  0.00  0.00    -0.094 A 
ATOM      9  C9  DEN d   1      -1.190  -0.814   0.334  0.00  0.00    -0.072 A 
ENDROOT
TORSDOF 0
ENDMDL
