MODEL 1
REMARK minimizedAffinity -4.38339281
REMARK minimizedRMSD -1
REMARK  0 active torsions:
REMARK  status: ('A' for Active; 'I' for Inactive)
ROOT
ATOM      1  C1  DEN d   1       2.396   0.098  -1.327  0.00  0.00     0.130 A 
ATOM      2  C2  DEN d   1       2.746  -1.311  -1.488  0.00  0.00    -0.031 A 
ATOM      3  C3  DEN d   1       1.656  -2.121  -0.908  0.00  0.00     0.027 A 
ATOM      4  C4  DEN d   1      -0.529  -1.336   0.214  0.00  0.00     0.027 A 
ATOM      5  C5  DEN d   1      -1.264  -0.234   0.592  0.00  0.00    -0.003 A 
ATOM      6  C6  DEN d   1      -0.818   1.045   0.389  0.00  0.00     0.001 A 
ATOM      7  C7  DEN d   1       0.376   1.255  -0.249  0.00  0.00     0.017 A 
ATOM      8  C8  DEN d   1       1.125   0.149  -0.627  0.00  0.00    -0.094 A 
ATOM      9  C9  DEN d   1       0.652  -1.137  -0.424  0.00  0.00    -0.072 A 
ENDROOT
TORSDOF 0
ENDMDL
