MODEL 1
REMARK minimizedAffinity -4.65205336
REMARK minimizedRMSD -1
REMARK  0 active torsions:
REMARK  status: ('A' for Active; 'I' for Inactive)
ROOT
ATOM      1  C1  DEN d   1       2.548   0.244  -1.447  0.00  0.00     0.130 A 
ATOM      2  C2  DEN d   1       3.142  -1.068  -1.686  0.00  0.00    -0.031 A 
ATOM      3  C3  DEN d   1       2.253  -2.086  -1.090  0.00  0.00     0.027 A 
ATOM      4  C4  DEN d   1       0.025  -1.760   0.167  0.00  0.00     0.027 A 
ATOM      5  C5  DEN d   1      -0.878  -0.827   0.627  0.00  0.00    -0.003 A 
ATOM      6  C6  DEN d   1      -0.687   0.519   0.459  0.00  0.00     0.001 A 
ATOM      7  C7  DEN d   1       0.411   0.969  -0.225  0.00  0.00     0.017 A 
ATOM      8  C8  DEN d   1       1.330   0.034  -0.686  0.00  0.00    -0.094 A 
ATOM      9  C9  DEN d   1       1.113  -1.322  -0.517  0.00  0.00    -0.072 A 
ENDROOT
TORSDOF 0
ENDMDL
