MODEL 1
REMARK minimizedAffinity -5.53804684
REMARK minimizedRMSD -1
REMARK  0 active torsions:
REMARK  status: ('A' for Active; 'I' for Inactive)
ROOT
ATOM      1  C1  DEN d   1      -1.000  -0.169  -0.432  0.00  0.00     0.130 A 
ATOM      2  C2  DEN d   1      -1.087   1.180  -0.984  0.00  0.00    -0.031 A 
ATOM      3  C3  DEN d   1       0.237   1.535  -1.534  0.00  0.00     0.027 A 
ATOM      4  C4  DEN d   1       2.400   0.131  -1.588  0.00  0.00     0.027 A 
ATOM      5  C5  DEN d   1       2.966  -1.073  -1.229  0.00  0.00    -0.003 A 
ATOM      6  C6  DEN d   1       2.266  -2.038  -0.556  0.00  0.00     0.001 A 
ATOM      7  C7  DEN d   1       0.944  -1.834  -0.259  0.00  0.00     0.017 A 
ATOM      8  C8  DEN d   1       0.368  -0.620  -0.610  0.00  0.00    -0.094 A 
ATOM      9  C9  DEN d   1       1.090   0.338  -1.302  0.00  0.00    -0.072 A 
ENDROOT
TORSDOF 0
ENDMDL
