MODEL 1
REMARK minimizedAffinity -0.192983344
REMARK minimizedRMSD -1
REMARK  0 active torsions:
REMARK  status: ('A' for Active; 'I' for Inactive)
ROOT
ATOM      1  C1  DEN d   1       0.199   1.426   1.115  0.00  0.00     0.130 A 
ATOM      2  C2  DEN d   1      -0.054   0.470   0.040  0.00  0.00    -0.031 A 
ATOM      3  C3  DEN d   1      -1.277  -0.286   0.379  0.00  0.00     0.027 A 
ATOM      4  C4  DEN d   1      -2.798  -0.066   2.450  0.00  0.00     0.027 A 
ATOM      5  C5  DEN d   1      -2.983   0.600   3.642  0.00  0.00    -0.003 A 
ATOM      6  C6  DEN d   1      -2.109   1.557   4.087  0.00  0.00     0.001 A 
ATOM      7  C7  DEN d   1      -1.033   1.906   3.314  0.00  0.00     0.017 A 
ATOM      8  C8  DEN d   1      -0.836   1.233   2.115  0.00  0.00    -0.094 A 
ATOM      9  C9  DEN d   1      -1.738   0.278   1.676  0.00  0.00    -0.072 A 
ENDROOT
TORSDOF 0
ENDMDL
