MODEL 1
REMARK minimizedAffinity -6.03622103
REMARK minimizedRMSD -1
REMARK  0 active torsions:
REMARK  status: ('A' for Active; 'I' for Inactive)
ROOT
ATOM      1  C1  DEN d   1       2.544  -0.534  -1.146  0.00  0.00     0.130 A 
ATOM      2  C2  DEN d   1       2.474  -1.843  -0.503  0.00  0.00    -0.031 A 
ATOM      3  C3  DEN d   1       1.109  -2.017   0.032  0.00  0.00     0.027 A 
ATOM      4  C4  DEN d   1      -0.895  -0.397  -0.077  0.00  0.00     0.027 A 
ATOM      5  C5  DEN d   1      -1.316   0.841  -0.512  0.00  0.00    -0.003 A 
ATOM      6  C6  DEN d   1      -0.477   1.713  -1.153  0.00  0.00     0.001 A 
ATOM      7  C7  DEN d   1       0.815   1.342  -1.418  0.00  0.00     0.017 A 
ATOM      8  C8  DEN d   1       1.248   0.099  -0.977  0.00  0.00    -0.094 A 
ATOM      9  C9  DEN d   1       0.381  -0.774  -0.341  0.00  0.00    -0.072 A 
ENDROOT
TORSDOF 0
ENDMDL
