MODEL 1
REMARK minimizedAffinity -6.01010513
REMARK minimizedRMSD -1
REMARK  0 active torsions:
REMARK  status: ('A' for Active; 'I' for Inactive)
ROOT
ATOM      1  C1  DEN d   1       1.216   1.353  -1.697  0.00  0.00     0.130 A 
ATOM      2  C2  DEN d   1       2.542   0.826  -2.008  0.00  0.00    -0.031 A 
ATOM      3  C3  DEN d   1       2.632  -0.539  -1.451  0.00  0.00     0.027 A 
ATOM      4  C4  DEN d   1       0.856  -1.881  -0.148  0.00  0.00     0.027 A 
ATOM      5  C5  DEN d   1      -0.420  -1.847   0.370  0.00  0.00    -0.003 A 
ATOM      6  C6  DEN d   1      -1.221  -0.740   0.265  0.00  0.00     0.001 A 
ATOM      7  C7  DEN d   1      -0.771   0.362  -0.411  0.00  0.00     0.017 A 
ATOM      8  C8  DEN d   1       0.517   0.338  -0.930  0.00  0.00    -0.094 A 
ATOM      9  C9  DEN d   1       1.307  -0.794  -0.825  0.00  0.00    -0.072 A 
ENDROOT
TORSDOF 0
ENDMDL
