MODEL 1
REMARK minimizedAffinity -7.12946224
REMARK minimizedRMSD -1
REMARK  0 active torsions:
REMARK  status: ('A' for Active; 'I' for Inactive)
ROOT
ATOM      1  C1  DEN d   1       3.176  -0.780  -1.753  0.00  0.00     0.130 A 
ATOM      2  C2  DEN d   1       3.241   0.664  -1.960  0.00  0.00    -0.031 A 
ATOM      3  C3  DEN d   1       2.015   1.262  -1.392  0.00  0.00     0.027 A 
ATOM      4  C4  DEN d   1       0.038   0.098  -0.214  0.00  0.00     0.027 A 
ATOM      5  C5  DEN d   1      -0.473  -1.117   0.186  0.00  0.00    -0.003 A 
ATOM      6  C6  DEN d   1       0.175  -2.299  -0.060  0.00  0.00     0.001 A 
ATOM      7  C7  DEN d   1       1.394  -2.286  -0.685  0.00  0.00     0.017 A 
ATOM      8  C8  DEN d   1       1.912  -1.066  -1.098  0.00  0.00    -0.094 A 
ATOM      9  C9  DEN d   1       1.247   0.118  -0.829  0.00  0.00    -0.072 A 
ENDROOT
TORSDOF 0
ENDMDL
