MODEL 1
REMARK minimizedAffinity -2.96145582
REMARK minimizedRMSD -1
REMARK  0 active torsions:
REMARK  status: ('A' for Active; 'I' for Inactive)
ROOT
ATOM      1  C1  DEN d   1      -2.460  -0.023   2.193  0.00  0.00     0.130 A 
ATOM      2  C2  DEN d   1      -2.658   0.469   3.554  0.00  0.00    -0.031 A 
ATOM      3  C3  DEN d   1      -2.087   1.829   3.635  0.00  0.00     0.027 A 
ATOM      4  C4  DEN d   1      -0.927   3.214   1.794  0.00  0.00     0.027 A 
ATOM      5  C5  DEN d   1      -0.516   3.212   0.479  0.00  0.00    -0.003 A 
ATOM      6  C6  DEN d   1      -0.692   2.129  -0.340  0.00  0.00     0.001 A 
ATOM      7  C7  DEN d   1      -1.336   1.017   0.134  0.00  0.00     0.017 A 
ATOM      8  C8  DEN d   1      -1.747   1.008   1.461  0.00  0.00    -0.094 A 
ATOM      9  C9  DEN d   1      -1.570   2.118   2.270  0.00  0.00    -0.072 A 
ENDROOT
TORSDOF 0
ENDMDL
