MODEL 1
REMARK minimizedAffinity -4.1084137
REMARK minimizedRMSD -1
REMARK  0 active torsions:
REMARK  status: ('A' for Active; 'I' for Inactive)
ROOT
ATOM      1  C1  DEN d   1      -0.262   1.407   0.506  0.00  0.00     0.130 A 
ATOM      2  C2  DEN d   1      -1.394   0.755   1.158  0.00  0.00    -0.031 A 
ATOM      3  C3  DEN d   1      -1.220  -0.706   1.022  0.00  0.00     0.027 A 
ATOM      4  C4  DEN d   1       0.685  -2.012  -0.126  0.00  0.00     0.027 A 
ATOM      5  C5  DEN d   1       1.862  -1.893  -0.831  0.00  0.00    -0.003 A 
ATOM      6  C6  DEN d   1       2.392  -0.675  -1.166  0.00  0.00     0.001 A 
ATOM      7  C7  DEN d   1       1.767   0.473  -0.758  0.00  0.00     0.017 A 
ATOM      8  C8  DEN d   1       0.575   0.361  -0.053  0.00  0.00    -0.094 A 
ATOM      9  C9  DEN d   1       0.062  -0.880   0.287  0.00  0.00    -0.072 A 
ENDROOT
TORSDOF 0
ENDMDL
