MODEL 1
REMARK minimizedAffinity -3.4861176
REMARK minimizedRMSD -1
REMARK  0 active torsions:
REMARK  status: ('A' for Active; 'I' for Inactive)
ROOT
ATOM      1  C1  DEN d   1       2.381  -0.082  -1.635  0.00  0.00     0.130 A 
ATOM      2  C2  DEN d   1       2.553  -1.428  -1.095  0.00  0.00    -0.031 A 
ATOM      3  C3  DEN d   1       1.358  -1.753  -0.291  0.00  0.00     0.027 A 
ATOM      4  C4  DEN d   1      -0.732  -0.312   0.164  0.00  0.00     0.027 A 
ATOM      5  C5  DEN d   1      -1.328   0.908  -0.071  0.00  0.00    -0.003 A 
ATOM      6  C6  DEN d   1      -0.719   1.887  -0.810  0.00  0.00     0.001 A 
ATOM      7  C7  DEN d   1       0.504   1.647  -1.378  0.00  0.00     0.017 A 
ATOM      8  C8  DEN d   1       1.114   0.423  -1.139  0.00  0.00    -0.094 A 
ATOM      9  C9  DEN d   1       0.477  -0.559  -0.399  0.00  0.00    -0.072 A 
ENDROOT
TORSDOF 0
ENDMDL
