MODEL 1
REMARK minimizedAffinity 6.8959713
REMARK minimizedRMSD -1
REMARK  1 active torsions:
REMARK  status: ('A' for Active; 'I' for Inactive)
REMARK    1  A    between atoms: C1_2  and  C2_3 
ROOT
ATOM      1  C2  UNL d   1       1.580   2.427  -0.923  0.00  0.00    -0.076 A 
ATOM      2  C3  UNL d   1       1.375   1.253  -0.178  0.00  0.00     0.004 A 
ATOM      3  C4  UNL d   1       0.101   0.893   0.258  0.00  0.00    -0.003 A 
ATOM      4  C5  UNL d   1      -0.989   1.702  -0.044  0.00  0.00     0.000 A 
ATOM      5  C6  UNL d   1      -0.807   2.861  -0.797  0.00  0.00     0.000 A 
ATOM      6  C7  UNL d   1       0.468   3.230  -1.258  0.00  0.00    -0.073 A 
ATOM      7  C8  UNL d   1       0.608   4.494  -2.061  0.00  0.00     0.078 C 
ENDROOT
BRANCH   1   8
ATOM      8  C1  UNL d   1       2.988   2.780  -1.346  0.00  0.00     0.053 C 
ATOM      9  C   UNL d   1       3.810   1.554  -1.715  0.00  0.00     0.018 C 
ENDBRANCH   1   8
TORSDOF 1
ENDMDL
