MODEL 1
REMARK minimizedAffinity -4.06335783
REMARK minimizedRMSD -1
REMARK  1 active torsions:
REMARK  status: ('A' for Active; 'I' for Inactive)
REMARK    1  A    between atoms: C1_2  and  C2_3 
ROOT
ATOM      1  C2  UNL d   1      -1.278  -1.128  -0.309  0.00  0.00    -0.076 A 
ATOM      2  C3  UNL d   1      -0.652  -2.386  -0.346  0.00  0.00     0.004 A 
ATOM      3  C4  UNL d   1       0.549  -2.610   0.326  0.00  0.00    -0.003 A 
ATOM      4  C5  UNL d   1       1.143  -1.579   1.046  0.00  0.00     0.000 A 
ATOM      5  C6  UNL d   1       0.527  -0.329   1.107  0.00  0.00     0.000 A 
ATOM      6  C7  UNL d   1      -0.692  -0.092   0.449  0.00  0.00    -0.073 A 
ATOM      7  C8  UNL d   1      -1.309   1.277   0.544  0.00  0.00     0.078 C 
ENDROOT
BRANCH   1   8
ATOM      8  C1  UNL d   1      -2.565  -0.937  -1.080  0.00  0.00     0.053 C 
ATOM      9  C   UNL d   1      -3.615  -1.979  -0.727  0.00  0.00     0.018 C 
ENDBRANCH   1   8
TORSDOF 1
ENDMDL
