MODEL 1
REMARK minimizedAffinity 10.0840578
REMARK minimizedRMSD -1
REMARK  1 active torsions:
REMARK  status: ('A' for Active; 'I' for Inactive)
REMARK    1  A    between atoms: C1_2  and  C2_3 
ROOT
ATOM      1  C2  UNL d   1      -1.984  -3.871  -2.253  0.00  0.00    -0.076 A 
ATOM      2  C3  UNL d   1      -1.092  -3.255  -3.148  0.00  0.00     0.004 A 
ATOM      3  C4  UNL d   1      -0.408  -4.000  -4.107  0.00  0.00    -0.003 A 
ATOM      4  C5  UNL d   1      -0.605  -5.374  -4.187  0.00  0.00     0.000 A 
ATOM      5  C6  UNL d   1      -1.499  -6.000  -3.318  0.00  0.00     0.000 A 
ATOM      6  C7  UNL d   1      -2.209  -5.261  -2.357  0.00  0.00    -0.073 A 
ATOM      7  C8  UNL d   1      -3.156  -5.988  -1.442  0.00  0.00     0.078 C 
ENDROOT
BRANCH   1   8
ATOM      8  C1  UNL d   1      -2.677  -3.016  -1.216  0.00  0.00     0.053 C 
ATOM      9  C   UNL d   1      -1.728  -2.534  -0.130  0.00  0.00     0.018 C 
ENDBRANCH   1   8
TORSDOF 1
ENDMDL
