MODEL 1
REMARK minimizedAffinity 11.5560246
REMARK minimizedRMSD -1
REMARK  1 active torsions:
REMARK  status: ('A' for Active; 'I' for Inactive)
REMARK    1  A    between atoms: C1_2  and  C2_3 
ROOT
ATOM      1  C2  UNL d   1       0.484  -0.791   2.482  0.00  0.00    -0.076 A 
ATOM      2  C3  UNL d   1       1.446  -0.259   3.359  0.00  0.00     0.004 A 
ATOM      3  C4  UNL d   1       2.787  -0.176   2.988  0.00  0.00    -0.003 A 
ATOM      4  C5  UNL d   1       3.188  -0.623   1.734  0.00  0.00     0.000 A 
ATOM      5  C6  UNL d   1       2.245  -1.137   0.845  0.00  0.00     0.000 A 
ATOM      6  C7  UNL d   1       0.886  -1.213   1.197  0.00  0.00    -0.073 A 
ATOM      7  C8  UNL d   1      -0.087  -1.782   0.201  0.00  0.00     0.078 C 
ENDROOT
BRANCH   1   8
ATOM      8  C1  UNL d   1      -0.951  -0.881   2.950  0.00  0.00     0.053 C 
ATOM      9  C   UNL d   1      -1.067  -1.384   4.381  0.00  0.00     0.018 C 
ENDBRANCH   1   8
TORSDOF 1
ENDMDL
