MODEL 1
REMARK minimizedAffinity 12.9123983
REMARK minimizedRMSD -1
REMARK  1 active torsions:
REMARK  status: ('A' for Active; 'I' for Inactive)
REMARK    1  A    between atoms: C1_2  and  C2_3 
ROOT
ATOM      1  C2  UNL d   1       1.567   0.066   0.786  0.00  0.00    -0.076 A 
ATOM      2  C3  UNL d   1       0.184  -0.180   0.732  0.00  0.00     0.004 A 
ATOM      3  C4  UNL d   1      -0.513  -0.609   1.861  0.00  0.00    -0.003 A 
ATOM      4  C5  UNL d   1       0.162  -0.798   3.062  0.00  0.00     0.000 A 
ATOM      5  C6  UNL d   1       1.531  -0.542   3.138  0.00  0.00     0.000 A 
ATOM      6  C7  UNL d   1       2.245  -0.093   2.013  0.00  0.00    -0.073 A 
ATOM      7  C8  UNL d   1       3.721   0.162   2.150  0.00  0.00     0.078 C 
ENDROOT
BRANCH   1   8
ATOM      8  C1  UNL d   1       2.274   0.503  -0.477  0.00  0.00     0.053 C 
ATOM      9  C   UNL d   1       2.168   2.001  -0.715  0.00  0.00     0.018 C 
ENDBRANCH   1   8
TORSDOF 1
ENDMDL
