MODEL 1
REMARK minimizedAffinity 3.24233198
REMARK minimizedRMSD -1
REMARK  1 active torsions:
REMARK  status: ('A' for Active; 'I' for Inactive)
REMARK    1  A    between atoms: C1_2  and  C2_3 
ROOT
ATOM      1  C2  UNL d   1       1.438  -2.672   0.079  0.00  0.00    -0.076 A 
ATOM      2  C3  UNL d   1       2.734  -2.129   0.081  0.00  0.00     0.004 A 
ATOM      3  C4  UNL d   1       2.958  -0.809   0.469  0.00  0.00    -0.003 A 
ATOM      4  C5  UNL d   1       1.889  -0.011   0.861  0.00  0.00     0.000 A 
ATOM      5  C6  UNL d   1       0.598  -0.539   0.882  0.00  0.00     0.000 A 
ATOM      6  C7  UNL d   1       0.358  -1.873   0.510  0.00  0.00    -0.073 A 
ATOM      7  C8  UNL d   1      -1.055  -2.388   0.546  0.00  0.00     0.078 C 
ENDROOT
BRANCH   1   8
ATOM      8  C1  UNL d   1       1.253  -4.102  -0.377  0.00  0.00     0.053 C 
ATOM      9  C   UNL d   1       0.683  -4.196  -1.784  0.00  0.00     0.018 C 
ENDBRANCH   1   8
TORSDOF 1
ENDMDL
