MODEL 1
REMARK minimizedAffinity 8.9984293
REMARK minimizedRMSD -1
REMARK  1 active torsions:
REMARK  status: ('A' for Active; 'I' for Inactive)
REMARK    1  A    between atoms: C1_2  and  C2_3 
ROOT
ATOM      1  C2  UNL d   1       1.121  -0.436   0.758  0.00  0.00    -0.076 A 
ATOM      2  C3  UNL d   1      -0.165  -0.872   0.396  0.00  0.00     0.004 A 
ATOM      3  C4  UNL d   1      -1.084  -1.275   1.364  0.00  0.00    -0.003 A 
ATOM      4  C5  UNL d   1      -0.732  -1.248   2.709  0.00  0.00     0.000 A 
ATOM      5  C6  UNL d   1       0.534  -0.801   3.086  0.00  0.00     0.000 A 
ATOM      6  C7  UNL d   1       1.467  -0.376   2.125  0.00  0.00    -0.073 A 
ATOM      7  C8  UNL d   1       2.820   0.090   2.588  0.00  0.00     0.078 C 
ENDROOT
BRANCH   1   8
ATOM      8  C1  UNL d   1       2.085  -0.037  -0.337  0.00  0.00     0.053 C 
ATOM      9  C   UNL d   1       1.762   1.326  -0.929  0.00  0.00     0.018 C 
ENDBRANCH   1   8
TORSDOF 1
ENDMDL
