MODEL 1
REMARK minimizedAffinity 4.13339138
REMARK minimizedRMSD -1
REMARK  1 active torsions:
REMARK  status: ('A' for Active; 'I' for Inactive)
REMARK    1  A    between atoms: C1_2  and  C2_3 
ROOT
ATOM      1  C2  UNL d   1      -2.260  -5.060  -1.556  0.00  0.00    -0.076 A 
ATOM      2  C3  UNL d   1      -3.247  -6.000  -1.211  0.00  0.00     0.004 A 
ATOM      3  C4  UNL d   1      -4.490  -5.999  -1.842  0.00  0.00    -0.003 A 
ATOM      4  C5  UNL d   1      -4.766  -5.059  -2.829  0.00  0.00     0.000 A 
ATOM      5  C6  UNL d   1      -3.792  -4.130  -3.196  0.00  0.00     0.000 A 
ATOM      6  C7  UNL d   1      -2.528  -4.128  -2.581  0.00  0.00    -0.073 A 
ATOM      7  C8  UNL d   1      -1.518  -3.100  -3.012  0.00  0.00     0.078 C 
ENDROOT
BRANCH   1   8
ATOM      8  C1  UNL d   1      -0.940  -5.093  -0.818  0.00  0.00     0.053 C 
ATOM      9  C   UNL d   1      -0.908  -4.132   0.360  0.00  0.00     0.018 C 
ENDBRANCH   1   8
TORSDOF 1
ENDMDL
