MODEL 1
REMARK minimizedAffinity 15.7186193
REMARK minimizedRMSD -1
REMARK  1 active torsions:
REMARK  status: ('A' for Active; 'I' for Inactive)
REMARK    1  A    between atoms: C1_2  and  C2_3 
ROOT
ATOM      1  C2  UNL d   1       1.479  -0.233   1.751  0.00  0.00    -0.076 A 
ATOM      2  C3  UNL d   1       1.924  -0.405   3.074  0.00  0.00     0.004 A 
ATOM      3  C4  UNL d   1       3.285  -0.431   3.375  0.00  0.00    -0.003 A 
ATOM      4  C5  UNL d   1       4.222  -0.286   2.358  0.00  0.00     0.000 A 
ATOM      5  C6  UNL d   1       3.798  -0.096   1.043  0.00  0.00     0.000 A 
ATOM      6  C7  UNL d   1       2.430  -0.051   0.725  0.00  0.00    -0.073 A 
ATOM      7  C8  UNL d   1       2.029   0.150  -0.711  0.00  0.00     0.078 C 
ENDROOT
BRANCH   1   8
ATOM      8  C1  UNL d   1      -0.009  -0.239   1.481  0.00  0.00     0.053 C 
ATOM      9  C   UNL d   1      -0.600  -1.640   1.511  0.00  0.00     0.018 C 
ENDBRANCH   1   8
TORSDOF 1
ENDMDL
