MODEL 1
REMARK minimizedAffinity -0.821844101
REMARK minimizedRMSD -1
REMARK  1 active torsions:
REMARK  status: ('A' for Active; 'I' for Inactive)
REMARK    1  A    between atoms: C1_2  and  C2_3 
ROOT
ATOM      1  C2  UNL d   1      -4.484  -5.273   0.416  0.00  0.00    -0.076 A 
ATOM      2  C3  UNL d   1      -5.593  -5.998  -0.053  0.00  0.00     0.004 A 
ATOM      3  C4  UNL d   1      -5.931  -5.998  -1.405  0.00  0.00    -0.003 A 
ATOM      4  C5  UNL d   1      -5.165  -5.274  -2.311  0.00  0.00     0.000 A 
ATOM      5  C6  UNL d   1      -4.050  -4.563  -1.866  0.00  0.00     0.000 A 
ATOM      6  C7  UNL d   1      -3.687  -4.565  -0.509  0.00  0.00    -0.073 A 
ATOM      7  C8  UNL d   1      -2.479  -3.776  -0.083  0.00  0.00     0.078 C 
ENDROOT
BRANCH   1   8
ATOM      8  C1  UNL d   1      -4.182  -5.288   1.898  0.00  0.00     0.053 C 
ATOM      9  C   UNL d   1      -5.258  -5.999   2.704  0.00  0.00     0.018 C 
ENDBRANCH   1   8
TORSDOF 1
ENDMDL
