MODEL 1
REMARK minimizedAffinity -4.5637989
REMARK minimizedRMSD -1
REMARK  0 active torsions:
REMARK  status: ('A' for Active; 'I' for Inactive)
ROOT
ATOM      1  C1  BNZ d   1       0.696  -0.573   0.052  0.00  0.00     0.000 A 
ATOM      2  C2  BNZ d   1       0.397  -1.271  -1.088  0.00  0.00     0.000 A 
ATOM      3  C3  BNZ d   1       0.027  -2.586  -1.027  0.00  0.00     0.000 A 
ATOM      4  C4  BNZ d   1      -0.004  -3.211   0.168  0.00  0.00     0.000 A 
ATOM      5  C5  BNZ d   1       0.304  -2.524   1.325  0.00  0.00     0.000 A 
ATOM      6  C6  BNZ d   1       0.638  -1.190   1.264  0.00  0.00     0.000 A 
ENDROOT
TORSDOF 0
ENDMDL
