MODEL 1
REMARK minimizedAffinity -2.78804588
REMARK minimizedRMSD -1
REMARK  0 active torsions:
REMARK  status: ('A' for Active; 'I' for Inactive)
ROOT
ATOM      1  C1  BNZ d   1       0.435   0.224  -0.601  0.00  0.00     0.000 A 
ATOM      2  C2  BNZ d   1       0.521  -1.136  -0.470  0.00  0.00     0.000 A 
ATOM      3  C3  BNZ d   1      -0.200  -1.795   0.486  0.00  0.00     0.000 A 
ATOM      4  C4  BNZ d   1      -0.975  -1.090   1.335  0.00  0.00     0.000 A 
ATOM      5  C5  BNZ d   1      -1.066   0.283   1.222  0.00  0.00     0.000 A 
ATOM      6  C6  BNZ d   1      -0.368   0.939   0.234  0.00  0.00     0.000 A 
ENDROOT
TORSDOF 0
ENDMDL
