MODEL 1
REMARK minimizedAffinity -3.12565136
REMARK minimizedRMSD -1
REMARK  0 active torsions:
REMARK  status: ('A' for Active; 'I' for Inactive)
ROOT
ATOM      1  C1  BNZ d   1       0.837  -1.195   0.086  0.00  0.00     0.000 A 
ATOM      2  C2  BNZ d   1       0.655   0.068   0.584  0.00  0.00     0.000 A 
ATOM      3  C3  BNZ d   1       0.356   1.112  -0.247  0.00  0.00     0.000 A 
ATOM      4  C4  BNZ d   1       0.280   0.900  -1.576  0.00  0.00     0.000 A 
ATOM      5  C5  BNZ d   1       0.470  -0.366  -2.094  0.00  0.00     0.000 A 
ATOM      6  C6  BNZ d   1       0.732  -1.421  -1.251  0.00  0.00     0.000 A 
ENDROOT
TORSDOF 0
ENDMDL
