MODEL 1
REMARK minimizedAffinity -2.9243679
REMARK minimizedRMSD -1
REMARK  0 active torsions:
REMARK  status: ('A' for Active; 'I' for Inactive)
ROOT
ATOM      1  C1  BNZ d   1      -0.382   0.661  -0.241  0.00  0.00     0.000 A 
ATOM      2  C2  BNZ d   1      -0.862  -0.175   0.733  0.00  0.00     0.000 A 
ATOM      3  C3  BNZ d   1      -1.045  -1.506   0.484  0.00  0.00     0.000 A 
ATOM      4  C4  BNZ d   1      -0.786  -1.993  -0.747  0.00  0.00     0.000 A 
ATOM      5  C5  BNZ d   1      -0.310  -1.162  -1.741  0.00  0.00     0.000 A 
ATOM      6  C6  BNZ d   1      -0.090   0.171  -1.476  0.00  0.00     0.000 A 
ENDROOT
TORSDOF 0
ENDMDL
