MODEL 1
REMARK minimizedAffinity -4.56098127
REMARK minimizedRMSD -1
REMARK  0 active torsions:
REMARK  status: ('A' for Active; 'I' for Inactive)
ROOT
ATOM      1  C1  BNZ d   1       0.254  -1.132   1.247  0.00  0.00     0.000 A 
ATOM      2  C2  BNZ d   1       1.218  -0.281   0.777  0.00  0.00     0.000 A 
ATOM      3  C3  BNZ d   1       0.878   0.896   0.170  0.00  0.00     0.000 A 
ATOM      4  C4  BNZ d   1      -0.424   1.200  -0.002  0.00  0.00     0.000 A 
ATOM      5  C5  BNZ d   1      -1.408   0.348   0.458  0.00  0.00     0.000 A 
ATOM      6  C6  BNZ d   1      -1.062  -0.817   1.103  0.00  0.00     0.000 A 
ENDROOT
TORSDOF 0
ENDMDL
