MODEL 1
REMARK minimizedAffinity -3.31329441
REMARK minimizedRMSD -1
REMARK  0 active torsions:
REMARK  status: ('A' for Active; 'I' for Inactive)
ROOT
ATOM      1  C1  BNZ d   1      -0.022  -1.178   1.239  0.00  0.00     0.000 A 
ATOM      2  C2  BNZ d   1       0.825  -0.522   0.386  0.00  0.00     0.000 A 
ATOM      3  C3  BNZ d   1       0.459   0.662  -0.190  0.00  0.00     0.000 A 
ATOM      4  C4  BNZ d   1      -0.766   1.168   0.055  0.00  0.00     0.000 A 
ATOM      5  C5  BNZ d   1      -1.636   0.514   0.905  0.00  0.00     0.000 A 
ATOM      6  C6  BNZ d   1      -1.249  -0.658   1.514  0.00  0.00     0.000 A 
ENDROOT
TORSDOF 0
ENDMDL
