MODEL 1
REMARK minimizedAffinity -2.23878884
REMARK minimizedRMSD -1
REMARK  0 active torsions:
REMARK  status: ('A' for Active; 'I' for Inactive)
ROOT
ATOM      1  C1  BNZ d   1       0.533  -0.014   1.594  0.00  0.00     0.000 A 
ATOM      2  C2  BNZ d   1       1.038   1.144   1.064  0.00  0.00     0.000 A 
ATOM      3  C3  BNZ d   1       0.610   1.603  -0.150  0.00  0.00     0.000 A 
ATOM      4  C4  BNZ d   1      -0.291   0.885  -0.850  0.00  0.00     0.000 A 
ATOM      5  C5  BNZ d   1      -0.803  -0.289  -0.334  0.00  0.00     0.000 A 
ATOM      6  C6  BNZ d   1      -0.399  -0.728   0.905  0.00  0.00     0.000 A 
ENDROOT
TORSDOF 0
ENDMDL
