MODEL 1
REMARK minimizedAffinity -1.83132374
REMARK minimizedRMSD -1
REMARK  0 active torsions:
REMARK  status: ('A' for Active; 'I' for Inactive)
ROOT
ATOM      1  C1  BNZ d   1      -0.372  -0.748  -0.851  0.00  0.00     0.000 A 
ATOM      2  C2  BNZ d   1      -0.894  -1.977  -0.547  0.00  0.00     0.000 A 
ATOM      3  C3  BNZ d   1      -1.145  -2.329   0.750  0.00  0.00     0.000 A 
ATOM      4  C4  BNZ d   1      -0.837  -1.469   1.742  0.00  0.00     0.000 A 
ATOM      5  C5  BNZ d   1      -0.301  -0.230   1.452  0.00  0.00     0.000 A 
ATOM      6  C6  BNZ d   1      -0.086   0.136   0.143  0.00  0.00     0.000 A 
ENDROOT
TORSDOF 0
ENDMDL
