MODEL 1
REMARK minimizedAffinity -3.06408811
REMARK minimizedRMSD -1
REMARK  0 active torsions:
REMARK  status: ('A' for Active; 'I' for Inactive)
ROOT
ATOM      1  C1  BNZ d   1      -1.301   0.168   0.397  0.00  0.00     0.000 A 
ATOM      2  C2  BNZ d   1      -0.762   1.196  -0.330  0.00  0.00     0.000 A 
ATOM      3  C3  BNZ d   1       0.575   1.474  -0.263  0.00  0.00     0.000 A 
ATOM      4  C4  BNZ d   1       1.362   0.751   0.560  0.00  0.00     0.000 A 
ATOM      5  C5  BNZ d   1       0.831  -0.282   1.306  0.00  0.00     0.000 A 
ATOM      6  C6  BNZ d   1      -0.507  -0.584   1.207  0.00  0.00     0.000 A 
ENDROOT
TORSDOF 0
ENDMDL
