MODEL 1
REMARK minimizedAffinity -3.89215016
REMARK minimizedRMSD -1
REMARK  0 active torsions:
REMARK  status: ('A' for Active; 'I' for Inactive)
ROOT
ATOM      1  C1  BNZ d   1      -0.397  -0.179   0.107  0.00  0.00     0.000 A 
ATOM      2  C2  BNZ d   1      -0.882  -1.009   1.082  0.00  0.00     0.000 A 
ATOM      3  C3  BNZ d   1      -0.901  -2.364   0.902  0.00  0.00     0.000 A 
ATOM      4  C4  BNZ d   1      -0.474  -2.883  -0.267  0.00  0.00     0.000 A 
ATOM      5  C5  BNZ d   1       0.009  -2.059  -1.264  0.00  0.00     0.000 A 
ATOM      6  C6  BNZ d   1       0.063  -0.698  -1.064  0.00  0.00     0.000 A 
ENDROOT
TORSDOF 0
ENDMDL
