MODEL 1
REMARK minimizedAffinity -3.26146483
REMARK minimizedRMSD -1
REMARK  0 active torsions:
REMARK  status: ('A' for Active; 'I' for Inactive)
ROOT
ATOM      1  C1  BNZ d   1      -0.111   0.104  -0.547  0.00  0.00     0.000 A 
ATOM      2  C2  BNZ d   1      -0.868  -1.036  -0.607  0.00  0.00     0.000 A 
ATOM      3  C3  BNZ d   1      -1.097  -1.784   0.514  0.00  0.00     0.000 A 
ATOM      4  C4  BNZ d   1      -0.536  -1.414   1.684  0.00  0.00     0.000 A 
ATOM      5  C5  BNZ d   1       0.237  -0.273   1.758  0.00  0.00     0.000 A 
ATOM      6  C6  BNZ d   1       0.433   0.499   0.636  0.00  0.00     0.000 A 
ENDROOT
TORSDOF 0
ENDMDL
