MODEL 1
REMARK minimizedAffinity -1.70763111
REMARK minimizedRMSD -1
REMARK  0 active torsions:
REMARK  status: ('A' for Active; 'I' for Inactive)
ROOT
ATOM      1  C1  BNZ d   1       0.552   3.732   0.503  0.00  0.00     0.000 A 
ATOM      2  C2  BNZ d   1       1.611   4.536   0.832  0.00  0.00     0.000 A 
ATOM      3  C3  BNZ d   1       2.839   4.000   1.105  0.00  0.00     0.000 A 
ATOM      4  C4  BNZ d   1       2.996   2.661   1.088  0.00  0.00     0.000 A 
ATOM      5  C5  BNZ d   1       1.936   1.836   0.768  0.00  0.00     0.000 A 
ATOM      6  C6  BNZ d   1       0.711   2.381   0.456  0.00  0.00     0.000 A 
ENDROOT
TORSDOF 0
ENDMDL
