MODEL 1
REMARK minimizedAffinity -2.84736419
REMARK minimizedRMSD -1
REMARK  0 active torsions:
REMARK  status: ('A' for Active; 'I' for Inactive)
ROOT
ATOM      1  C1  BNZ d   1       1.884   4.309  -0.003  0.00  0.00     0.000 A 
ATOM      2  C2  BNZ d   1       1.470   3.148  -0.600  0.00  0.00     0.000 A 
ATOM      3  C3  BNZ d   1       0.891   2.152   0.135  0.00  0.00     0.000 A 
ATOM      4  C4  BNZ d   1       0.762   2.301   1.469  0.00  0.00     0.000 A 
ATOM      5  C5  BNZ d   1       1.183   3.462   2.087  0.00  0.00     0.000 A 
ATOM      6  C6  BNZ d   1       1.731   4.478   1.339  0.00  0.00     0.000 A 
ENDROOT
TORSDOF 0
ENDMDL
