MODEL 1
REMARK minimizedAffinity -2.98883367
REMARK minimizedRMSD -1
REMARK  0 active torsions:
REMARK  status: ('A' for Active; 'I' for Inactive)
ROOT
ATOM      1  C1  BNZ d   1       0.080  -0.217   1.738  0.00  0.00     0.000 A 
ATOM      2  C2  BNZ d   1      -0.578   0.897   2.187  0.00  0.00     0.000 A 
ATOM      3  C3  BNZ d   1      -1.028   1.844   1.311  0.00  0.00     0.000 A 
ATOM      4  C4  BNZ d   1      -0.785   1.697  -0.008  0.00  0.00     0.000 A 
ATOM      5  C5  BNZ d   1      -0.115   0.584  -0.475  0.00  0.00     0.000 A 
ATOM      6  C6  BNZ d   1       0.303  -0.387   0.407  0.00  0.00     0.000 A 
ENDROOT
TORSDOF 0
ENDMDL
