MODEL 1
REMARK minimizedAffinity -0.658227205
REMARK minimizedRMSD -1
REMARK  0 active torsions:
REMARK  status: ('A' for Active; 'I' for Inactive)
ROOT
ATOM      1  C1  BNZ d   1      -0.773   1.136   0.365  0.00  0.00     0.000 A 
ATOM      2  C2  BNZ d   1      -0.423  -0.167   0.601  0.00  0.00     0.000 A 
ATOM      3  C3  BNZ d   1       0.444  -0.821  -0.230  0.00  0.00     0.000 A 
ATOM      4  C4  BNZ d   1       0.928  -0.185  -1.316  0.00  0.00     0.000 A 
ATOM      5  C5  BNZ d   1       0.578   1.126  -1.572  0.00  0.00     0.000 A 
ATOM      6  C6  BNZ d   1      -0.264   1.793  -0.713  0.00  0.00     0.000 A 
ENDROOT
TORSDOF 0
ENDMDL
