MODEL 1
REMARK minimizedAffinity -1.95562947
REMARK minimizedRMSD -1
REMARK  0 active torsions:
REMARK  status: ('A' for Active; 'I' for Inactive)
ROOT
ATOM      1  C1  BNZ d   1       0.132  -0.461   0.334  0.00  0.00     0.000 A 
ATOM      2  C2  BNZ d   1      -0.457  -0.334   1.563  0.00  0.00     0.000 A 
ATOM      3  C3  BNZ d   1      -1.075   0.829   1.926  0.00  0.00     0.000 A 
ATOM      4  C4  BNZ d   1      -1.069   1.877   1.077  0.00  0.00     0.000 A 
ATOM      5  C5  BNZ d   1      -0.470   1.767  -0.163  0.00  0.00     0.000 A 
ATOM      6  C6  BNZ d   1       0.117   0.581  -0.540  0.00  0.00     0.000 A 
ENDROOT
TORSDOF 0
ENDMDL
