MODEL 1
REMARK minimizedAffinity -2.25073814
REMARK minimizedRMSD -1
REMARK  0 active torsions:
REMARK  status: ('A' for Active; 'I' for Inactive)
ROOT
ATOM      1  C1  BNZ d   1      -1.156   1.176   1.151  0.00  0.00     0.000 A 
ATOM      2  C2  BNZ d   1      -0.441   1.186  -0.017  0.00  0.00     0.000 A 
ATOM      3  C3  BNZ d   1       0.339   0.121  -0.370  0.00  0.00     0.000 A 
ATOM      4  C4  BNZ d   1       0.434  -0.936   0.463  0.00  0.00     0.000 A 
ATOM      5  C5  BNZ d   1      -0.273  -0.957   1.649  0.00  0.00     0.000 A 
ATOM      6  C6  BNZ d   1      -1.088   0.100   1.982  0.00  0.00     0.000 A 
ENDROOT
TORSDOF 0
ENDMDL
