MODEL 1
REMARK minimizedAffinity 0.53436017
REMARK minimizedRMSD -1
REMARK  0 active torsions:
REMARK  status: ('A' for Active; 'I' for Inactive)
ROOT
ATOM      1  C1  BNZ d   1       1.106   1.390  -1.381  0.00  0.00     0.000 A 
ATOM      2  C2  BNZ d   1       1.743   0.278  -0.900  0.00  0.00     0.000 A 
ATOM      3  C3  BNZ d   1       1.175  -0.482   0.085  0.00  0.00     0.000 A 
ATOM      4  C4  BNZ d   1      -0.007  -0.108   0.613  0.00  0.00     0.000 A 
ATOM      5  C5  BNZ d   1      -0.658   1.017   0.145  0.00  0.00     0.000 A 
ATOM      6  C6  BNZ d   1      -0.102   1.758  -0.873  0.00  0.00     0.000 A 
ENDROOT
TORSDOF 0
ENDMDL
