MODEL 1
REMARK minimizedAffinity -2.14660525
REMARK minimizedRMSD -1
REMARK  0 active torsions:
REMARK  status: ('A' for Active; 'I' for Inactive)
ROOT
ATOM      1  C1  BNZ d   1       0.624  -0.638   0.987  0.00  0.00     0.000 A 
ATOM      2  C2  BNZ d   1       1.093  -0.416  -0.280  0.00  0.00     0.000 A 
ATOM      3  C3  BNZ d   1       0.454   0.451  -1.121  0.00  0.00     0.000 A 
ATOM      4  C4  BNZ d   1      -0.675   1.064  -0.709  0.00  0.00     0.000 A 
ATOM      5  C5  BNZ d   1      -1.165   0.843   0.563  0.00  0.00     0.000 A 
ATOM      6  C6  BNZ d   1      -0.497  -0.001   1.420  0.00  0.00     0.000 A 
ENDROOT
TORSDOF 0
ENDMDL
