MODEL 1
REMARK minimizedAffinity -2.2470758
REMARK minimizedRMSD -1
REMARK  0 active torsions:
REMARK  status: ('A' for Active; 'I' for Inactive)
ROOT
ATOM      1  C1  BNZ d   1       0.901  -3.645  -1.518  0.00  0.00     0.000 A 
ATOM      2  C2  BNZ d   1       1.406  -2.674  -0.695  0.00  0.00     0.000 A 
ATOM      3  C3  BNZ d   1       1.419  -1.364  -1.084  0.00  0.00     0.000 A 
ATOM      4  C4  BNZ d   1       0.966  -1.032  -2.310  0.00  0.00     0.000 A 
ATOM      5  C5  BNZ d   1       0.463  -2.001  -3.156  0.00  0.00     0.000 A 
ATOM      6  C6  BNZ d   1       0.415  -3.313  -2.745  0.00  0.00     0.000 A 
ENDROOT
TORSDOF 0
ENDMDL
