MODEL 1
REMARK minimizedAffinity -2.59424996
REMARK minimizedRMSD -1
REMARK  0 active torsions:
REMARK  status: ('A' for Active; 'I' for Inactive)
ROOT
ATOM      1  C1  BNZ d   1      -0.379  -0.761   1.878  0.00  0.00     0.000 A 
ATOM      2  C2  BNZ d   1      -0.240  -0.800   0.516  0.00  0.00     0.000 A 
ATOM      3  C3  BNZ d   1      -0.633   0.256  -0.258  0.00  0.00     0.000 A 
ATOM      4  C4  BNZ d   1      -1.201   1.331   0.325  0.00  0.00     0.000 A 
ATOM      5  C5  BNZ d   1      -1.356   1.381   1.696  0.00  0.00     0.000 A 
ATOM      6  C6  BNZ d   1      -0.924   0.333   2.476  0.00  0.00     0.000 A 
ENDROOT
TORSDOF 0
ENDMDL
