MODEL 1
REMARK minimizedAffinity -3.11924219
REMARK minimizedRMSD -1
REMARK  0 active torsions:
REMARK  status: ('A' for Active; 'I' for Inactive)
ROOT
ATOM      1  C1  BNZ d   1      -0.569  -1.051   0.604  0.00  0.00     0.000 A 
ATOM      2  C2  BNZ d   1      -1.128  -0.778   1.824  0.00  0.00     0.000 A 
ATOM      3  C3  BNZ d   1      -1.263   0.510   2.260  0.00  0.00     0.000 A 
ATOM      4  C4  BNZ d   1      -0.802   1.521   1.495  0.00  0.00     0.000 A 
ATOM      5  C5  BNZ d   1      -0.227   1.262   0.267  0.00  0.00     0.000 A 
ATOM      6  C6  BNZ d   1      -0.128  -0.034  -0.186  0.00  0.00     0.000 A 
ENDROOT
TORSDOF 0
ENDMDL
