MODEL 1
REMARK minimizedAffinity -3.13296556
REMARK minimizedRMSD -1
REMARK  0 active torsions:
REMARK  status: ('A' for Active; 'I' for Inactive)
ROOT
ATOM      1  C1  BNZ d   1       0.392  -0.960   0.282  0.00  0.00     0.000 A 
ATOM      2  C2  BNZ d   1      -0.097  -1.090   1.554  0.00  0.00     0.000 A 
ATOM      3  C3  BNZ d   1      -0.930  -0.145   2.085  0.00  0.00     0.000 A 
ATOM      4  C4  BNZ d   1      -1.240   0.948   1.358  0.00  0.00     0.000 A 
ATOM      5  C5  BNZ d   1      -0.748   1.099   0.077  0.00  0.00     0.000 A 
ATOM      6  C6  BNZ d   1       0.058   0.126  -0.468  0.00  0.00     0.000 A 
ENDROOT
TORSDOF 0
ENDMDL
