MODEL 1
REMARK minimizedAffinity -1.8442291
REMARK minimizedRMSD -1
REMARK  0 active torsions:
REMARK  status: ('A' for Active; 'I' for Inactive)
ROOT
ATOM      1  C1  BNZ d   1      -1.114   0.474   2.480  0.00  0.00     0.000 A 
ATOM      2  C2  BNZ d   1      -0.528  -0.683   2.040  0.00  0.00     0.000 A 
ATOM      3  C3  BNZ d   1       0.125  -0.724   0.840  0.00  0.00     0.000 A 
ATOM      4  C4  BNZ d   1       0.157   0.379   0.064  0.00  0.00     0.000 A 
ATOM      5  C5  BNZ d   1      -0.437   1.550   0.490  0.00  0.00     0.000 A 
ATOM      6  C6  BNZ d   1      -1.060   1.599   1.715  0.00  0.00     0.000 A 
ENDROOT
TORSDOF 0
ENDMDL
