MODEL 1
REMARK minimizedAffinity -1.66056025
REMARK minimizedRMSD -1
REMARK  0 active torsions:
REMARK  status: ('A' for Active; 'I' for Inactive)
ROOT
ATOM      1  C1  BNZ d   1       0.149  -1.038  -2.005  0.00  0.00     0.000 A 
ATOM      2  C2  BNZ d   1      -0.131  -2.029  -2.908  0.00  0.00     0.000 A 
ATOM      3  C3  BNZ d   1       0.224  -3.325  -2.657  0.00  0.00     0.000 A 
ATOM      4  C4  BNZ d   1       0.895  -3.621  -1.525  0.00  0.00     0.000 A 
ATOM      5  C5  BNZ d   1       1.193  -2.632  -0.610  0.00  0.00     0.000 A 
ATOM      6  C6  BNZ d   1       0.799  -1.335  -0.847  0.00  0.00     0.000 A 
ENDROOT
TORSDOF 0
ENDMDL
