MODEL 1
REMARK minimizedAffinity -5.22957659
REMARK minimizedRMSD -1
REMARK  0 active torsions:
REMARK  status: ('A' for Active; 'I' for Inactive)
ROOT
ATOM      1  C1  BNZ d   1      -1.563   3.496   1.567  0.00  0.00     0.000 A 
ATOM      2  C2  BNZ d   1      -0.701   3.651   0.514  0.00  0.00     0.000 A 
ATOM      3  C3  BNZ d   1      -0.622   2.705  -0.470  0.00  0.00     0.000 A 
ATOM      4  C4  BNZ d   1      -1.373   1.589  -0.378  0.00  0.00     0.000 A 
ATOM      5  C5  BNZ d   1      -2.239   1.414   0.683  0.00  0.00     0.000 A 
ATOM      6  C6  BNZ d   1      -2.345   2.386   1.651  0.00  0.00     0.000 A 
ENDROOT
TORSDOF 0
ENDMDL
