MODEL 1
REMARK minimizedAffinity -2.13484788
REMARK minimizedRMSD -1
REMARK  0 active torsions:
REMARK  status: ('A' for Active; 'I' for Inactive)
ROOT
ATOM      1  C1  BNZ d   1      -0.900   1.273   1.341  0.00  0.00     0.000 A 
ATOM      2  C2  BNZ d   1      -0.417   1.361   0.063  0.00  0.00     0.000 A 
ATOM      3  C3  BNZ d   1       0.182   0.287  -0.534  0.00  0.00     0.000 A 
ATOM      4  C4  BNZ d   1       0.334  -0.859   0.161  0.00  0.00     0.000 A 
ATOM      5  C5  BNZ d   1      -0.139  -0.960   1.454  0.00  0.00     0.000 A 
ATOM      6  C6  BNZ d   1      -0.777   0.111   2.038  0.00  0.00     0.000 A 
ENDROOT
TORSDOF 0
ENDMDL
