MODEL 1
REMARK minimizedAffinity 3.73271918
REMARK minimizedRMSD -1
REMARK  3 active torsions:
REMARK  status: ('A' for Active; 'I' for Inactive)
REMARK    1  A    between atoms: C3'_2  and  C2'_3 
REMARK    2  A    between atoms: C2'_3  and  C1'_4 
REMARK    3  A    between atoms: C1'_4  and  C1_5 
ROOT
ATOM      1  C1  N4B d   1      -1.068  -4.154  -5.936  0.00  0.00    -0.075 A 
ATOM      2  C2  N4B d   1      -2.137  -3.230  -5.916  0.00  0.00     0.002 A 
ATOM      3  C3  N4B d   1      -3.434  -3.681  -5.938  0.00  0.00     0.002 A 
ATOM      4  C4  N4B d   1      -3.686  -5.043  -5.999  0.00  0.00    -0.004 A 
ATOM      5  C5  N4B d   1      -2.649  -5.929  -5.993  0.00  0.00     0.002 A 
ATOM      6  C6  N4B d   1      -1.340  -5.491  -5.967  0.00  0.00     0.002 A 
ENDROOT
BRANCH   1   7
ATOM      7  C1' N4B d   1       0.367  -3.706  -6.000  0.00  0.00     0.057 C 
BRANCH   7   8
ATOM      8  C2' N4B d   1       1.274  -4.933  -5.985  0.00  0.00     0.009 C 
BRANCH   8   9
ATOM      9  C3' N4B d   1       2.735  -4.556  -5.809  0.00  0.00     0.004 C 
ATOM     10  C4' N4B d   1       3.656  -5.734  -5.922  0.00  0.00     0.003 C 
ENDBRANCH   8   9
ENDBRANCH   7   8
ENDBRANCH   1   7
TORSDOF 3
ENDMDL
