MODEL 1
REMARK minimizedAffinity 8.37113762
REMARK minimizedRMSD -1
REMARK  1 active torsions:
REMARK  status: ('A' for Active; 'I' for Inactive)
REMARK    1  A    between atoms: C1_2  and  C2_3 
ROOT
ATOM      1  C2  UNL d   1       1.691   0.177   0.384  0.00  0.00    -0.077 A 
ATOM      2  C3  UNL d   1       0.654   0.843  -0.283  0.00  0.00     0.002 A 
ATOM      3  C4  UNL d   1      -0.428   1.361   0.431  0.00  0.00     0.002 A 
ATOM      4  C5  UNL d   1      -0.481   1.222   1.817  0.00  0.00    -0.004 A 
ATOM      5  C6  UNL d   1       0.545   0.559   2.489  0.00  0.00     0.002 A 
ATOM      6  C7  UNL d   1       1.627   0.039   1.776  0.00  0.00     0.002 A 
ENDROOT
BRANCH   1   7
ATOM      7  C1  UNL d   1       2.883  -0.339  -0.380  0.00  0.00     0.055 C 
ATOM      8  C   UNL d   1       4.006   0.688  -0.413  0.00  0.00     0.019 C 
ENDBRANCH   1   7
TORSDOF 1
ENDMDL
