MODEL 1
REMARK minimizedAffinity 1.20728922
REMARK minimizedRMSD -1
REMARK  0 active torsions:
REMARK  status: ('A' for Active; 'I' for Inactive)
ROOT
ATOM      1  C   UNL d   1      -0.395   0.104   0.958  0.00  0.00    -0.002 A 
ATOM      2  C1  UNL d   1       0.709  -0.728   0.828  0.00  0.00     0.010 A 
ATOM      3  C2  UNL d   1       1.322  -0.904  -0.414  0.00  0.00     0.041 A 
ATOM      4  C3  UNL d   1       0.804  -0.223  -1.533  0.00  0.00    -0.075 A 
ATOM      5  S   UNL d   1       1.393  -0.286  -3.153  0.00  0.00     0.015 SA
ATOM      6  C4  UNL d   1       0.194   0.790  -3.709  0.00  0.00     0.022 A 
ATOM      7  C5  UNL d   1      -0.643   1.197  -2.698  0.00  0.00     0.026 A 
ATOM      8  C6  UNL d   1      -0.305   0.620  -1.427  0.00  0.00    -0.082 A 
ATOM      9  C7  UNL d   1      -0.906   0.778  -0.154  0.00  0.00     0.045 A 
ENDROOT
TORSDOF 0
ENDMDL
