MODEL 1
REMARK minimizedAffinity 0.57452476
REMARK minimizedRMSD -1
REMARK  0 active torsions:
REMARK  status: ('A' for Active; 'I' for Inactive)
ROOT
ATOM      1  C   UNL d   1       0.616   0.477   1.630  0.00  0.00    -0.002 A 
ATOM      2  C1  UNL d   1       0.381   1.718   1.053  0.00  0.00     0.010 A 
ATOM      3  C2  UNL d   1       0.294   1.851  -0.334  0.00  0.00     0.041 A 
ATOM      4  C3  UNL d   1       0.445   0.705  -1.139  0.00  0.00    -0.075 A 
ATOM      5  S   UNL d   1       0.376   0.628  -2.860  0.00  0.00     0.015 SA
ATOM      6  C4  UNL d   1       0.655  -1.053  -2.871  0.00  0.00     0.022 A 
ATOM      7  C5  UNL d   1       0.801  -1.560  -1.601  0.00  0.00     0.026 A 
ATOM      8  C6  UNL d   1       0.681  -0.555  -0.582  0.00  0.00    -0.082 A 
ATOM      9  C7  UNL d   1       0.766  -0.657   0.827  0.00  0.00     0.045 A 
ENDROOT
TORSDOF 0
ENDMDL
