MODEL 1
REMARK minimizedAffinity 1.02832747
REMARK minimizedRMSD -1
REMARK  0 active torsions:
REMARK  status: ('A' for Active; 'I' for Inactive)
ROOT
ATOM      1  C   UNL d   1      -0.165   1.551   3.740  0.00  0.00    -0.002 A 
ATOM      2  C1  UNL d   1      -1.018   0.457   3.764  0.00  0.00     0.010 A 
ATOM      3  C2  UNL d   1      -1.237  -0.299   2.610  0.00  0.00     0.041 A 
ATOM      4  C3  UNL d   1      -0.575   0.066   1.421  0.00  0.00    -0.075 A 
ATOM      5  S   UNL d   1      -0.689  -0.713  -0.113  0.00  0.00     0.015 SA
ATOM      6  C4  UNL d   1       0.393   0.388  -0.836  0.00  0.00     0.022 A 
ATOM      7  C5  UNL d   1       0.840   1.333   0.057  0.00  0.00     0.026 A 
ATOM      8  C6  UNL d   1       0.290   1.163   1.372  0.00  0.00    -0.082 A 
ATOM      9  C7  UNL d   1       0.490   1.910   2.558  0.00  0.00     0.045 A 
ENDROOT
TORSDOF 0
ENDMDL
