MODEL 1
REMARK minimizedAffinity 2.52338004
REMARK minimizedRMSD -1
REMARK  0 active torsions:
REMARK  status: ('A' for Active; 'I' for Inactive)
ROOT
ATOM      1  C   UNL d   1      -2.275   0.189  -5.104  0.00  0.00    -0.002 A 
ATOM      2  C1  UNL d   1      -1.870   1.510  -5.235  0.00  0.00     0.010 A 
ATOM      3  C2  UNL d   1      -0.537   1.820  -5.512  0.00  0.00     0.041 A 
ATOM      4  C3  UNL d   1       0.391   0.769  -5.658  0.00  0.00    -0.075 A 
ATOM      5  S   UNL d   1       2.075   0.910  -5.999  0.00  0.00     0.015 SA
ATOM      6  C4  UNL d   1       2.296  -0.780  -5.980  0.00  0.00     0.022 A 
ATOM      7  C5  UNL d   1       1.124  -1.450  -5.721  0.00  0.00     0.026 A 
ATOM      8  C6  UNL d   1       0.007  -0.569  -5.532  0.00  0.00    -0.082 A 
ATOM      9  C7  UNL d   1      -1.352  -0.850  -5.250  0.00  0.00     0.045 A 
ENDROOT
TORSDOF 0
ENDMDL
