MODEL 1
REMARK minimizedAffinity -3.8638761
REMARK minimizedRMSD -1
REMARK  0 active torsions:
REMARK  status: ('A' for Active; 'I' for Inactive)
ROOT
ATOM      1  C   UNL d   1       0.003   1.876   1.611  0.00  0.00    -0.002 A 
ATOM      2  C1  UNL d   1       0.888   1.032   2.266  0.00  0.00     0.010 A 
ATOM      3  C2  UNL d   1       1.461  -0.052   1.599  0.00  0.00     0.041 A 
ATOM      4  C3  UNL d   1       1.127  -0.276   0.249  0.00  0.00    -0.075 A 
ATOM      5  S   UNL d   1       1.706  -1.541  -0.770  0.00  0.00     0.015 SA
ATOM      6  C4  UNL d   1       0.792  -0.990  -2.099  0.00  0.00     0.022 A 
ATOM      7  C5  UNL d   1       0.057   0.130  -1.791  0.00  0.00     0.026 A 
ATOM      8  C6  UNL d   1       0.238   0.560  -0.433  0.00  0.00    -0.082 A 
ATOM      9  C7  UNL d   1      -0.327   1.651   0.271  0.00  0.00     0.045 A 
ENDROOT
TORSDOF 0
ENDMDL
