MODEL 1
REMARK minimizedAffinity -4.96510315
REMARK minimizedRMSD -1
REMARK  2 active torsions:
REMARK  status: ('A' for Active; 'I' for Inactive)
REMARK    1  A    between atoms: C1_2  and  C2_3 
REMARK    2  A    between atoms: C2_3  and  C3_4 
ROOT
ATOM      1  C3  UNL d   1      -0.709  -0.032   0.665  0.00  0.00    -0.075 A 
ATOM      2  C4  UNL d   1      -0.170   1.182   0.213  0.00  0.00     0.002 A 
ATOM      3  C5  UNL d   1      -0.466   2.376   0.871  0.00  0.00     0.002 A 
ATOM      4  C6  UNL d   1      -1.311   2.374   1.979  0.00  0.00    -0.004 A 
ATOM      5  C7  UNL d   1      -1.865   1.177   2.426  0.00  0.00     0.002 A 
ATOM      6  C8  UNL d   1      -1.567  -0.021   1.772  0.00  0.00     0.002 A 
ENDROOT
BRANCH   1   7
ATOM      7  C2  UNL d   1      -0.369  -1.332  -0.025  0.00  0.00     0.056 C 
BRANCH   7   8
ATOM      8  C1  UNL d   1       1.104  -1.737   0.100  0.00  0.00     0.007 C 
ATOM      9  C   UNL d   1       1.856  -1.680  -1.223  0.00  0.00     0.009 C 
ENDBRANCH   7   8
ENDBRANCH   1   7
TORSDOF 2
ENDMDL
