MODEL 1
REMARK minimizedAffinity -3.08716846
REMARK minimizedRMSD -1
REMARK  2 active torsions:
REMARK  status: ('A' for Active; 'I' for Inactive)
REMARK    1  A    between atoms: C1_2  and  C2_3 
REMARK    2  A    between atoms: C2_3  and  C3_4 
ROOT
ATOM      1  C3  UNL d   1      -0.785   0.383   0.516  0.00  0.00    -0.075 A 
ATOM      2  C4  UNL d   1      -0.123   1.584   0.223  0.00  0.00     0.002 A 
ATOM      3  C5  UNL d   1      -0.244   2.685   1.071  0.00  0.00     0.002 A 
ATOM      4  C6  UNL d   1      -1.034   2.603   2.216  0.00  0.00    -0.004 A 
ATOM      5  C7  UNL d   1      -1.709   1.420   2.508  0.00  0.00     0.002 A 
ATOM      6  C8  UNL d   1      -1.587   0.315   1.663  0.00  0.00     0.002 A 
ENDROOT
BRANCH   1   7
ATOM      7  C2  UNL d   1      -0.635  -0.821  -0.383  0.00  0.00     0.056 C 
BRANCH   7   8
ATOM      8  C1  UNL d   1       0.737  -1.497  -0.297  0.00  0.00     0.007 C 
ATOM      9  C   UNL d   1       1.528  -1.417  -1.596  0.00  0.00     0.009 C 
ENDBRANCH   7   8
ENDBRANCH   1   7
TORSDOF 2
ENDMDL
