MODEL 1
REMARK minimizedAffinity -5.26598215
REMARK minimizedRMSD -1
REMARK  2 active torsions:
REMARK  status: ('A' for Active; 'I' for Inactive)
REMARK    1  A    between atoms: C1_2  and  C2_3 
REMARK    2  A    between atoms: C2_3  and  C3_4 
ROOT
ATOM      1  C3  UNL d   1       0.597   0.796  -0.920  0.00  0.00    -0.075 A 
ATOM      2  C4  UNL d   1       1.038   1.552  -2.016  0.00  0.00     0.002 A 
ATOM      3  C5  UNL d   1       2.000   1.041  -2.888  0.00  0.00     0.002 A 
ATOM      4  C6  UNL d   1       2.539  -0.225  -2.671  0.00  0.00    -0.004 A 
ATOM      5  C7  UNL d   1       2.120  -0.978  -1.576  0.00  0.00     0.002 A 
ATOM      6  C8  UNL d   1       1.155  -0.471  -0.704  0.00  0.00     0.002 A 
ENDROOT
BRANCH   1   7
ATOM      7  C2  UNL d   1      -0.465   1.331   0.010  0.00  0.00     0.056 C 
BRANCH   7   8
ATOM      8  C1  UNL d   1      -1.580   0.329   0.326  0.00  0.00     0.007 C 
ATOM      9  C   UNL d   1      -2.065   0.405   1.768  0.00  0.00     0.009 C 
ENDBRANCH   7   8
ENDBRANCH   1   7
TORSDOF 2
ENDMDL
