MODEL 1
REMARK minimizedAffinity -1.74982595
REMARK minimizedRMSD -1
REMARK  2 active torsions:
REMARK  status: ('A' for Active; 'I' for Inactive)
REMARK    1  A    between atoms: C1_2  and  C2_3 
REMARK    2  A    between atoms: C2_3  and  C3_4 
ROOT
ATOM      1  C3  UNL d   1       0.199  -0.241  -0.600  0.00  0.00    -0.075 A 
ATOM      2  C4  UNL d   1      -0.038  -1.327   0.254  0.00  0.00     0.002 A 
ATOM      3  C5  UNL d   1       0.724  -2.492   0.148  0.00  0.00     0.002 A 
ATOM      4  C6  UNL d   1       1.723  -2.588  -0.818  0.00  0.00    -0.004 A 
ATOM      5  C7  UNL d   1       1.956  -1.521  -1.683  0.00  0.00     0.002 A 
ATOM      6  C8  UNL d   1       1.198  -0.353  -1.576  0.00  0.00     0.002 A 
ENDROOT
BRANCH   1   7
ATOM      7  C2  UNL d   1      -0.601   1.033  -0.471  0.00  0.00     0.056 C 
BRANCH   7   8
ATOM      8  C1  UNL d   1      -0.334   2.053  -1.582  0.00  0.00     0.007 C 
ATOM      9  C   UNL d   1       0.778   3.035  -1.240  0.00  0.00     0.009 C 
ENDBRANCH   7   8
ENDBRANCH   1   7
TORSDOF 2
ENDMDL
