MODEL 1
REMARK minimizedAffinity -4.81182861
REMARK minimizedRMSD -1
REMARK  2 active torsions:
REMARK  status: ('A' for Active; 'I' for Inactive)
REMARK    1  A    between atoms: C1_2  and  C2_3 
REMARK    2  A    between atoms: C2_3  and  C3_4 
ROOT
ATOM      1  C3  UNL d   1      -0.385   0.401   0.305  0.00  0.00    -0.075 A 
ATOM      2  C4  UNL d   1       0.379  -0.732  -0.008  0.00  0.00     0.002 A 
ATOM      3  C5  UNL d   1       1.411  -0.654  -0.943  0.00  0.00     0.002 A 
ATOM      4  C6  UNL d   1       1.685   0.552  -1.584  0.00  0.00    -0.004 A 
ATOM      5  C7  UNL d   1       0.921   1.680  -1.294  0.00  0.00     0.002 A 
ATOM      6  C8  UNL d   1      -0.110   1.606  -0.355  0.00  0.00     0.002 A 
ENDROOT
BRANCH   1   7
ATOM      7  C2  UNL d   1      -1.485   0.331   1.338  0.00  0.00     0.056 C 
BRANCH   7   8
ATOM      8  C1  UNL d   1      -1.259   1.239   2.551  0.00  0.00     0.007 C 
ATOM      9  C   UNL d   1      -2.161   0.900   3.731  0.00  0.00     0.009 C 
ENDBRANCH   7   8
ENDBRANCH   1   7
TORSDOF 2
ENDMDL
