MODEL 1
REMARK minimizedAffinity -5.43116903
REMARK minimizedRMSD -1
REMARK  2 active torsions:
REMARK  status: ('A' for Active; 'I' for Inactive)
REMARK    1  A    between atoms: C1_2  and  C2_3 
REMARK    2  A    between atoms: C2_3  and  C3_4 
ROOT
ATOM      1  C3  UNL d   1      -1.304   0.892   1.084  0.00  0.00    -0.075 A 
ATOM      2  C4  UNL d   1       0.027   0.704   0.686  0.00  0.00     0.002 A 
ATOM      3  C5  UNL d   1       0.455   1.118  -0.576  0.00  0.00     0.002 A 
ATOM      4  C6  UNL d   1      -0.444   1.716  -1.457  0.00  0.00    -0.004 A 
ATOM      5  C7  UNL d   1      -1.773   1.893  -1.078  0.00  0.00     0.002 A 
ATOM      6  C8  UNL d   1      -2.202   1.483   0.185  0.00  0.00     0.002 A 
ENDROOT
BRANCH   1   7
ATOM      7  C2  UNL d   1      -1.766   0.472   2.459  0.00  0.00     0.056 C 
BRANCH   7   8
ATOM      8  C1  UNL d   1      -1.680   1.582   3.512  0.00  0.00     0.007 C 
ATOM      9  C   UNL d   1      -2.333   2.884   3.067  0.00  0.00     0.009 C 
ENDBRANCH   7   8
ENDBRANCH   1   7
TORSDOF 2
ENDMDL
