MODEL 1
REMARK minimizedAffinity -1.35964561
REMARK minimizedRMSD -1
REMARK  2 active torsions:
REMARK  status: ('A' for Active; 'I' for Inactive)
REMARK    1  A    between atoms: C1_2  and  C2_3 
REMARK    2  A    between atoms: C2_3  and  C3_4 
ROOT
ATOM      1  C3  UNL d   1       4.588   1.362   4.411  0.00  0.00    -0.075 A 
ATOM      2  C4  UNL d   1       4.211   0.663   3.255  0.00  0.00     0.002 A 
ATOM      3  C5  UNL d   1       4.169   1.310   2.019  0.00  0.00     0.002 A 
ATOM      4  C6  UNL d   1       4.494   2.661   1.925  0.00  0.00    -0.004 A 
ATOM      5  C7  UNL d   1       4.854   3.369   3.070  0.00  0.00     0.002 A 
ATOM      6  C8  UNL d   1       4.901   2.723   4.307  0.00  0.00     0.002 A 
ENDROOT
BRANCH   1   7
ATOM      7  C2  UNL d   1       4.663   0.661   5.747  0.00  0.00     0.056 C 
BRANCH   7   8
ATOM      8  C1  UNL d   1       5.993  -0.058   6.000  0.00  0.00     0.007 C 
ATOM      9  C   UNL d   1       6.000  -1.499   5.507  0.00  0.00     0.009 C 
ENDBRANCH   7   8
ENDBRANCH   1   7
TORSDOF 2
ENDMDL
