MODEL 1
REMARK minimizedAffinity -5.40717506
REMARK minimizedRMSD -1
REMARK  2 active torsions:
REMARK  status: ('A' for Active; 'I' for Inactive)
REMARK    1  A    between atoms: C1_2  and  C2_3 
REMARK    2  A    between atoms: C2_3  and  C3_4 
ROOT
ATOM      1  C3  UNL d   1      -0.866   0.122   0.547  0.00  0.00    -0.075 A 
ATOM      2  C4  UNL d   1      -0.445   1.418   0.213  0.00  0.00     0.002 A 
ATOM      3  C5  UNL d   1      -0.810   2.508   1.003  0.00  0.00     0.002 A 
ATOM      4  C6  UNL d   1      -1.607   2.319   2.130  0.00  0.00    -0.004 A 
ATOM      5  C7  UNL d   1      -2.045   1.038   2.463  0.00  0.00     0.002 A 
ATOM      6  C8  UNL d   1      -1.677  -0.055   1.676  0.00  0.00     0.002 A 
ENDROOT
BRANCH   1   7
ATOM      7  C2  UNL d   1      -0.449  -1.065  -0.287  0.00  0.00     0.056 C 
BRANCH   7   8
ATOM      8  C1  UNL d   1       1.049  -1.110  -0.605  0.00  0.00     0.007 C 
ATOM      9  C   UNL d   1       1.848  -1.945   0.387  0.00  0.00     0.009 C 
ENDBRANCH   7   8
ENDBRANCH   1   7
TORSDOF 2
ENDMDL
