MODEL 1
REMARK minimizedAffinity -0.742873549
REMARK minimizedRMSD -1
REMARK  2 active torsions:
REMARK  status: ('A' for Active; 'I' for Inactive)
REMARK    1  A    between atoms: C1_2  and  C2_3 
REMARK    2  A    between atoms: C2_3  and  C3_4 
ROOT
ATOM      1  C3  UNL d   1       0.220   0.528  -0.526  0.00  0.00    -0.075 A 
ATOM      2  C4  UNL d   1       1.377  -0.091  -1.021  0.00  0.00     0.002 A 
ATOM      3  C5  UNL d   1       1.493  -1.481  -1.017  0.00  0.00     0.002 A 
ATOM      4  C6  UNL d   1       0.462  -2.268  -0.509  0.00  0.00    -0.004 A 
ATOM      5  C7  UNL d   1      -0.685  -1.663   0.001  0.00  0.00     0.002 A 
ATOM      6  C8  UNL d   1      -0.806  -0.273  -0.007  0.00  0.00     0.002 A 
ENDROOT
BRANCH   1   7
ATOM      7  C2  UNL d   1       0.075   2.031  -0.555  0.00  0.00     0.056 C 
BRANCH   7   8
ATOM      8  C1  UNL d   1       0.764   2.747   0.611  0.00  0.00     0.007 C 
ATOM      9  C   UNL d   1       2.284   2.674   0.546  0.00  0.00     0.009 C 
ENDBRANCH   7   8
ENDBRANCH   1   7
TORSDOF 2
ENDMDL
