MODEL 1
REMARK minimizedAffinity -3.87757015
REMARK minimizedRMSD -1
REMARK  2 active torsions:
REMARK  status: ('A' for Active; 'I' for Inactive)
REMARK    1  A    between atoms: C1_2  and  C2_3 
REMARK    2  A    between atoms: C2_3  and  C3_4 
ROOT
ATOM      1  C3  UNL d   1       0.024  -0.131   0.103  0.00  0.00    -0.075 A 
ATOM      2  C4  UNL d   1      -0.004  -1.339  -0.607  0.00  0.00     0.002 A 
ATOM      3  C5  UNL d   1       1.136  -1.797  -1.270  0.00  0.00     0.002 A 
ATOM      4  C6  UNL d   1       2.311  -1.050  -1.239  0.00  0.00    -0.004 A 
ATOM      5  C7  UNL d   1       2.344   0.161  -0.550  0.00  0.00     0.002 A 
ATOM      6  C8  UNL d   1       1.207   0.619   0.117  0.00  0.00     0.002 A 
ENDROOT
BRANCH   1   7
ATOM      7  C2  UNL d   1      -1.197   0.356   0.847  0.00  0.00     0.056 C 
BRANCH   7   8
ATOM      8  C1  UNL d   1      -0.879   1.229   2.065  0.00  0.00     0.007 C 
ATOM      9  C   UNL d   1      -1.594   0.778   3.331  0.00  0.00     0.009 C 
ENDBRANCH   7   8
ENDBRANCH   1   7
TORSDOF 2
ENDMDL
