MODEL 1
REMARK minimizedAffinity -4.07967424
REMARK minimizedRMSD -1
REMARK  2 active torsions:
REMARK  status: ('A' for Active; 'I' for Inactive)
REMARK    1  A    between atoms: C1_2  and  C2_3 
REMARK    2  A    between atoms: C2_3  and  C3_4 
ROOT
ATOM      1  C3  UNL d   1      -1.672   0.869   1.042  0.00  0.00    -0.075 A 
ATOM      2  C4  UNL d   1      -0.362   0.372   1.108  0.00  0.00     0.002 A 
ATOM      3  C5  UNL d   1       0.551   0.646   0.089  0.00  0.00     0.002 A 
ATOM      4  C6  UNL d   1       0.165   1.409  -1.010  0.00  0.00    -0.004 A 
ATOM      5  C7  UNL d   1      -1.138   1.894  -1.094  0.00  0.00     0.002 A 
ATOM      6  C8  UNL d   1      -2.053   1.626  -0.074  0.00  0.00     0.002 A 
ENDROOT
BRANCH   1   7
ATOM      7  C2  UNL d   1      -2.657   0.601   2.155  0.00  0.00     0.056 C 
BRANCH   7   8
ATOM      8  C1  UNL d   1      -2.218   1.142   3.520  0.00  0.00     0.007 C 
ATOM      9  C   UNL d   1      -1.930   2.638   3.509  0.00  0.00     0.009 C 
ENDBRANCH   7   8
ENDBRANCH   1   7
TORSDOF 2
ENDMDL
