MODEL 1
REMARK minimizedAffinity -5.60589218
REMARK minimizedRMSD -1
REMARK  2 active torsions:
REMARK  status: ('A' for Active; 'I' for Inactive)
REMARK    1  A    between atoms: C1_2  and  C2_3 
REMARK    2  A    between atoms: C2_3  and  C3_4 
ROOT
ATOM      1  C3  UNL d   1       0.617   0.782  -0.111  0.00  0.00    -0.075 A 
ATOM      2  C4  UNL d   1       2.011   0.663  -0.207  0.00  0.00     0.002 A 
ATOM      3  C5  UNL d   1       2.592  -0.525  -0.651  0.00  0.00     0.002 A 
ATOM      4  C6  UNL d   1       1.789  -1.611  -0.994  0.00  0.00    -0.004 A 
ATOM      5  C7  UNL d   1       0.404  -1.509  -0.886  0.00  0.00     0.002 A 
ATOM      6  C8  UNL d   1      -0.180  -0.320  -0.447  0.00  0.00     0.002 A 
ENDROOT
BRANCH   1   7
ATOM      7  C2  UNL d   1      -0.019   2.075   0.340  0.00  0.00     0.056 C 
BRANCH   7   8
ATOM      8  C1  UNL d   1       0.042   2.305   1.854  0.00  0.00     0.007 C 
ATOM      9  C   UNL d   1      -0.864   1.367   2.641  0.00  0.00     0.009 C 
ENDBRANCH   7   8
ENDBRANCH   1   7
TORSDOF 2
ENDMDL
