MODEL 1
REMARK minimizedAffinity -3.87480974
REMARK minimizedRMSD -1
REMARK  2 active torsions:
REMARK  status: ('A' for Active; 'I' for Inactive)
REMARK    1  A    between atoms: C1_2  and  C2_3 
REMARK    2  A    between atoms: C2_3  and  C3_4 
ROOT
ATOM      1  C3  UNL d   1      -0.503   0.253   0.085  0.00  0.00    -0.075 A 
ATOM      2  C4  UNL d   1      -0.125   1.390  -0.644  0.00  0.00     0.002 A 
ATOM      3  C5  UNL d   1      -0.421   2.668  -0.167  0.00  0.00     0.002 A 
ATOM      4  C6  UNL d   1      -1.105   2.824   1.036  0.00  0.00    -0.004 A 
ATOM      5  C7  UNL d   1      -1.500   1.701   1.760  0.00  0.00     0.002 A 
ATOM      6  C8  UNL d   1      -1.201   0.422   1.288  0.00  0.00     0.002 A 
ENDROOT
BRANCH   1   7
ATOM      7  C2  UNL d   1      -0.160  -1.131  -0.411  0.00  0.00     0.056 C 
BRANCH   7   8
ATOM      8  C1  UNL d   1       1.325  -1.489  -0.284  0.00  0.00     0.007 C 
ATOM      9  C   UNL d   1       2.118  -1.220  -1.555  0.00  0.00     0.009 C 
ENDBRANCH   7   8
ENDBRANCH   1   7
TORSDOF 2
ENDMDL
