MODEL 1
REMARK minimizedAffinity -1.19343269
REMARK minimizedRMSD -1
REMARK  0 active torsions:
REMARK  status: ('A' for Active; 'I' for Inactive)
ROOT
ATOM      1  C   UNL d   1      -2.498  -0.621   3.739  0.00  0.00     0.124 A 
ATOM      2  C1  UNL d   1      -2.663  -1.190   2.484  0.00  0.00     0.062 A 
ATOM      3  C2  UNL d   1      -2.025  -0.639   1.376  0.00  0.00     0.162 A 
ATOM      4  C3  UNL d   1      -1.214   0.487   1.518  0.00  0.00    -0.034 A 
ATOM      5  C4  UNL d   1      -1.054   1.054   2.784  0.00  0.00     0.162 A 
ATOM      6  C5  UNL d   1      -1.694   0.500   3.888  0.00  0.00     0.062 A 
ATOM      7  F   UNL d   1      -1.533   1.051   5.100  0.00  0.00    -0.097 F 
ATOM      8  F1  UNL d   1      -0.282   2.137   2.957  0.00  0.00    -0.096 F 
ATOM      9  I   UNL d   1      -0.259   1.313  -0.135  0.00  0.00    -0.060 I 
ATOM     10  F2  UNL d   1      -2.203  -1.210   0.175  0.00  0.00    -0.096 F 
ATOM     11  F3  UNL d   1      -3.440  -2.273   2.337  0.00  0.00    -0.097 F 
ATOM     12  F4  UNL d   1      -3.114  -1.152   4.803  0.00  0.00    -0.092 F 
ENDROOT
TORSDOF 0
ENDMDL
