MODEL 1
REMARK minimizedAffinity -0.891073525
REMARK minimizedRMSD -1
REMARK  0 active torsions:
REMARK  status: ('A' for Active; 'I' for Inactive)
ROOT
ATOM      1  C   UNL d   1       1.420  -1.652  -1.238  0.00  0.00     0.124 A 
ATOM      2  C1  UNL d   1       0.429  -2.044  -0.349  0.00  0.00     0.062 A 
ATOM      3  C2  UNL d   1      -0.530  -1.129   0.077  0.00  0.00     0.162 A 
ATOM      4  C3  UNL d   1      -0.503   0.186  -0.387  0.00  0.00    -0.034 A 
ATOM      5  C4  UNL d   1       0.498   0.573  -1.280  0.00  0.00     0.162 A 
ATOM      6  C5  UNL d   1       1.454  -0.345  -1.703  0.00  0.00     0.062 A 
ATOM      7  F   UNL d   1       2.411   0.035  -2.562  0.00  0.00    -0.097 F 
ATOM      8  F1  UNL d   1       0.553   1.829  -1.746  0.00  0.00    -0.096 F 
ATOM      9  I   UNL d   1      -1.935   1.557   0.248  0.00  0.00    -0.060 I 
ATOM     10  F2  UNL d   1      -1.476  -1.535   0.936  0.00  0.00    -0.096 F 
ATOM     11  F3  UNL d   1       0.395  -3.306   0.102  0.00  0.00    -0.097 F 
ATOM     12  F4  UNL d   1       2.343  -2.534  -1.646  0.00  0.00    -0.092 F 
ENDROOT
TORSDOF 0
ENDMDL
