MODEL 1
REMARK minimizedAffinity 1.40954423
REMARK minimizedRMSD -1
REMARK  0 active torsions:
REMARK  status: ('A' for Active; 'I' for Inactive)
ROOT
ATOM      1  C   UNL d   1      -0.847  -0.501  -0.730  0.00  0.00     0.124 A 
ATOM      2  C1  UNL d   1      -1.358   0.789  -0.760  0.00  0.00     0.062 A 
ATOM      3  C2  UNL d   1      -0.507   1.882  -0.624  0.00  0.00     0.162 A 
ATOM      4  C3  UNL d   1       0.864   1.690  -0.458  0.00  0.00    -0.034 A 
ATOM      5  C4  UNL d   1       1.371   0.389  -0.427  0.00  0.00     0.162 A 
ATOM      6  C5  UNL d   1       0.516  -0.700  -0.564  0.00  0.00     0.062 A 
ATOM      7  F   UNL d   1       1.011  -1.946  -0.534  0.00  0.00    -0.097 F 
ATOM      8  F1  UNL d   1       2.684   0.168  -0.269  0.00  0.00    -0.096 F 
ATOM      9  I   UNL d   1       2.140   3.321  -0.254  0.00  0.00    -0.060 I 
ATOM     10  F2  UNL d   1      -1.028   3.117  -0.657  0.00  0.00    -0.096 F 
ATOM     11  F3  UNL d   1      -2.675   0.984  -0.920  0.00  0.00    -0.097 F 
ATOM     12  F4  UNL d   1      -1.668  -1.551  -0.860  0.00  0.00    -0.092 F 
ENDROOT
TORSDOF 0
ENDMDL
