MODEL 1
REMARK minimizedAffinity 4.05947351
REMARK minimizedRMSD -1
REMARK  0 active torsions:
REMARK  status: ('A' for Active; 'I' for Inactive)
ROOT
ATOM      1  C   UNL d   1       1.204  -0.135  -1.806  0.00  0.00     0.124 A 
ATOM      2  C1  UNL d   1       0.715  -1.305  -1.242  0.00  0.00     0.062 A 
ATOM      3  C2  UNL d   1      -0.382  -1.264  -0.387  0.00  0.00     0.162 A 
ATOM      4  C3  UNL d   1      -0.999  -0.049  -0.091  0.00  0.00    -0.034 A 
ATOM      5  C4  UNL d   1      -0.501   1.124  -0.661  0.00  0.00     0.162 A 
ATOM      6  C5  UNL d   1       0.596   1.078  -1.515  0.00  0.00     0.062 A 
ATOM      7  F   UNL d   1       1.067   2.210  -2.059  0.00  0.00    -0.097 F 
ATOM      8  F1  UNL d   1      -1.070   2.310  -0.398  0.00  0.00    -0.096 F 
ATOM      9  I   UNL d   1      -2.640   0.016   1.187  0.00  0.00    -0.060 I 
ATOM     10  F2  UNL d   1      -0.834  -2.410   0.144  0.00  0.00    -0.096 F 
ATOM     11  F3  UNL d   1       1.302  -2.478  -1.521  0.00  0.00    -0.097 F 
ATOM     12  F4  UNL d   1       2.261  -0.177  -2.628  0.00  0.00    -0.092 F 
ENDROOT
TORSDOF 0
ENDMDL
