MODEL 1
REMARK minimizedAffinity 2.88405967
REMARK minimizedRMSD -1
REMARK  0 active torsions:
REMARK  status: ('A' for Active; 'I' for Inactive)
ROOT
ATOM      1  C   UNL d   1      -2.783  -0.104   3.356  0.00  0.00     0.124 A 
ATOM      2  C1  UNL d   1      -2.556  -0.829   2.194  0.00  0.00     0.062 A 
ATOM      3  C2  UNL d   1      -1.922  -0.231   1.109  0.00  0.00     0.162 A 
ATOM      4  C3  UNL d   1      -1.510   1.100   1.180  0.00  0.00    -0.034 A 
ATOM      5  C4  UNL d   1      -1.742   1.823   2.351  0.00  0.00     0.162 A 
ATOM      6  C5  UNL d   1      -2.376   1.221   3.433  0.00  0.00     0.062 A 
ATOM      7  F   UNL d   1      -2.595   1.922   4.555  0.00  0.00    -0.097 F 
ATOM      8  F1  UNL d   1      -1.359   3.104   2.454  0.00  0.00    -0.096 F 
ATOM      9  I   UNL d   1      -0.562   1.998  -0.441  0.00  0.00    -0.060 I 
ATOM     10  F2  UNL d   1      -1.716  -0.955  -0.001  0.00  0.00    -0.096 F 
ATOM     11  F3  UNL d   1      -2.949  -2.108   2.116  0.00  0.00    -0.097 F 
ATOM     12  F4  UNL d   1      -3.394  -0.681   4.398  0.00  0.00    -0.092 F 
ENDROOT
TORSDOF 0
ENDMDL
