MODEL 1
REMARK minimizedAffinity -3.54553246
REMARK minimizedRMSD -1
REMARK  0 active torsions:
REMARK  status: ('A' for Active; 'I' for Inactive)
ROOT
ATOM      1  C   UNL d   1       1.310  -1.513  -1.204  0.00  0.00     0.124 A 
ATOM      2  C1  UNL d   1       0.640  -0.336  -1.507  0.00  0.00     0.062 A 
ATOM      3  C2  UNL d   1      -0.217   0.241  -0.574  0.00  0.00     0.162 A 
ATOM      4  C3  UNL d   1      -0.407  -0.357   0.671  0.00  0.00    -0.034 A 
ATOM      5  C4  UNL d   1       0.270  -1.541   0.968  0.00  0.00     0.162 A 
ATOM      6  C5  UNL d   1       1.125  -2.114   0.032  0.00  0.00     0.062 A 
ATOM      7  F   UNL d   1       1.772  -3.251   0.327  0.00  0.00    -0.097 F 
ATOM      8  F1  UNL d   1       0.110  -2.143   2.156  0.00  0.00    -0.096 F 
ATOM      9  I   UNL d   1      -1.687   0.503   2.069  0.00  0.00    -0.060 I 
ATOM     10  F2  UNL d   1      -0.852   1.379  -0.894  0.00  0.00    -0.096 F 
ATOM     11  F3  UNL d   1       0.816   0.246  -2.702  0.00  0.00    -0.097 F 
ATOM     12  F4  UNL d   1       2.133  -2.067  -2.104  0.00  0.00    -0.092 F 
ENDROOT
TORSDOF 0
ENDMDL
