MODEL 1
REMARK minimizedAffinity -0.682364583
REMARK minimizedRMSD -1
REMARK  0 active torsions:
REMARK  status: ('A' for Active; 'I' for Inactive)
ROOT
ATOM      1  C   UNL d   1       2.796  -0.923  -1.118  0.00  0.00     0.124 A 
ATOM      2  C1  UNL d   1       1.915  -1.528  -0.232  0.00  0.00     0.062 A 
ATOM      3  C2  UNL d   1       0.649  -0.988  -0.026  0.00  0.00     0.162 A 
ATOM      4  C3  UNL d   1       0.255   0.163  -0.709  0.00  0.00    -0.034 A 
ATOM      5  C4  UNL d   1       1.147   0.766  -1.598  0.00  0.00     0.162 A 
ATOM      6  C5  UNL d   1       2.411   0.223  -1.800  0.00  0.00     0.062 A 
ATOM      7  F   UNL d   1       3.261   0.808  -2.656  0.00  0.00    -0.097 F 
ATOM      8  F1  UNL d   1       0.800   1.873  -2.271  0.00  0.00    -0.096 F 
ATOM      9  I   UNL d   1      -1.638   0.972  -0.405  0.00  0.00    -0.060 I 
ATOM     10  F2  UNL d   1      -0.182  -1.593   0.836  0.00  0.00    -0.096 F 
ATOM     11  F3  UNL d   1       2.285  -2.634   0.429  0.00  0.00    -0.097 F 
ATOM     12  F4  UNL d   1       4.015  -1.444  -1.313  0.00  0.00    -0.092 F 
ENDROOT
TORSDOF 0
ENDMDL
