MODEL 1
REMARK minimizedAffinity -2.96329951
REMARK minimizedRMSD -1
REMARK  0 active torsions:
REMARK  status: ('A' for Active; 'I' for Inactive)
ROOT
ATOM      1  C   UNL d   1       1.922   2.043  -2.310  0.00  0.00     0.124 A 
ATOM      2  C1  UNL d   1       0.575   2.233  -2.033  0.00  0.00     0.062 A 
ATOM      3  C2  UNL d   1      -0.131   1.281  -1.303  0.00  0.00     0.162 A 
ATOM      4  C3  UNL d   1       0.509   0.130  -0.844  0.00  0.00    -0.034 A 
ATOM      5  C4  UNL d   1       1.863  -0.055  -1.127  0.00  0.00     0.162 A 
ATOM      6  C5  UNL d   1       2.564   0.899  -1.857  0.00  0.00     0.062 A 
ATOM      7  F   UNL d   1       3.865   0.714  -2.124  0.00  0.00    -0.097 F 
ATOM      8  F1  UNL d   1       2.509  -1.150  -0.701  0.00  0.00    -0.096 F 
ATOM      9  I   UNL d   1      -0.543  -1.296   0.248  0.00  0.00    -0.060 I 
ATOM     10  F2  UNL d   1      -1.431   1.492  -1.050  0.00  0.00    -0.096 F 
ATOM     11  F3  UNL d   1      -0.049   3.337  -2.470  0.00  0.00    -0.097 F 
ATOM     12  F4  UNL d   1       2.598   2.960  -3.013  0.00  0.00    -0.092 F 
ENDROOT
TORSDOF 0
ENDMDL
