MODEL 1
REMARK minimizedAffinity 0.779378891
REMARK minimizedRMSD -1
REMARK  0 active torsions:
REMARK  status: ('A' for Active; 'I' for Inactive)
ROOT
ATOM      1  C   UNL d   1       2.958  -1.140  -0.927  0.00  0.00     0.124 A 
ATOM      2  C1  UNL d   1       2.795   0.205  -1.230  0.00  0.00     0.062 A 
ATOM      3  C2  UNL d   1       1.556   0.816  -1.060  0.00  0.00     0.162 A 
ATOM      4  C3  UNL d   1       0.470   0.084  -0.582  0.00  0.00    -0.034 A 
ATOM      5  C4  UNL d   1       0.640  -1.269  -0.281  0.00  0.00     0.162 A 
ATOM      6  C5  UNL d   1       1.880  -1.875  -0.453  0.00  0.00     0.062 A 
ATOM      7  F   UNL d   1       2.035  -3.175  -0.160  0.00  0.00    -0.097 F 
ATOM      8  F1  UNL d   1      -0.383  -2.003   0.180  0.00  0.00    -0.096 F 
ATOM      9  I   UNL d   1      -1.384   0.994  -0.326  0.00  0.00    -0.060 I 
ATOM     10  F2  UNL d   1       1.428   2.117  -1.360  0.00  0.00    -0.096 F 
ATOM     11  F3  UNL d   1       3.834   0.918  -1.689  0.00  0.00    -0.097 F 
ATOM     12  F4  UNL d   1       4.150  -1.726  -1.093  0.00  0.00    -0.092 F 
ENDROOT
TORSDOF 0
ENDMDL
