MODEL 1
REMARK minimizedAffinity -1.28600419
REMARK minimizedRMSD -1
REMARK  0 active torsions:
REMARK  status: ('A' for Active; 'I' for Inactive)
ROOT
ATOM      1  C   UNL d   1       2.782  -0.722  -1.671  0.00  0.00     0.124 A 
ATOM      2  C1  UNL d   1       2.510   0.496  -1.062  0.00  0.00     0.062 A 
ATOM      3  C2  UNL d   1       1.344   0.663  -0.321  0.00  0.00     0.162 A 
ATOM      4  C3  UNL d   1       0.441  -0.391  -0.183  0.00  0.00    -0.034 A 
ATOM      5  C4  UNL d   1       0.721  -1.613  -0.799  0.00  0.00     0.162 A 
ATOM      6  C5  UNL d   1       1.888  -1.774  -1.539  0.00  0.00     0.062 A 
ATOM      7  F   UNL d   1       2.149  -2.951  -2.126  0.00  0.00    -0.097 F 
ATOM      8  F1  UNL d   1      -0.126  -2.647  -0.687  0.00  0.00    -0.096 F 
ATOM      9  I   UNL d   1      -1.304  -0.146   0.924  0.00  0.00    -0.060 I 
ATOM     10  F2  UNL d   1       1.107   1.850   0.256  0.00  0.00    -0.096 F 
ATOM     11  F3  UNL d   1       3.372   1.515  -1.189  0.00  0.00    -0.097 F 
ATOM     12  F4  UNL d   1       3.905  -0.879  -2.384  0.00  0.00    -0.092 F 
ENDROOT
TORSDOF 0
ENDMDL
