MODEL 1
REMARK minimizedAffinity -0.827365279
REMARK minimizedRMSD -1
REMARK  0 active torsions:
REMARK  status: ('A' for Active; 'I' for Inactive)
ROOT
ATOM      1  C   UNL d   1      -0.988   1.008   0.278  0.00  0.00     0.124 A 
ATOM      2  C1  UNL d   1      -1.600   1.663   1.338  0.00  0.00     0.062 A 
ATOM      3  C2  UNL d   1      -2.159   0.933   2.382  0.00  0.00     0.162 A 
ATOM      4  C3  UNL d   1      -2.110  -0.461   2.373  0.00  0.00    -0.034 A 
ATOM      5  C4  UNL d   1      -1.494  -1.113   1.303  0.00  0.00     0.162 A 
ATOM      6  C5  UNL d   1      -0.936  -0.379   0.261  0.00  0.00     0.062 A 
ATOM      7  F   UNL d   1      -0.346  -1.013  -0.762  0.00  0.00    -0.097 F 
ATOM      8  F1  UNL d   1      -1.429  -2.452   1.262  0.00  0.00    -0.096 F 
ATOM      9  I   UNL d   1      -2.946  -1.556   3.933  0.00  0.00    -0.060 I 
ATOM     10  F2  UNL d   1      -2.744   1.592   3.394  0.00  0.00    -0.096 F 
ATOM     11  F3  UNL d   1      -1.652   3.003   1.356  0.00  0.00    -0.097 F 
ATOM     12  F4  UNL d   1      -0.451   1.713  -0.727  0.00  0.00    -0.092 F 
ENDROOT
TORSDOF 0
ENDMDL
