MODEL 1
REMARK minimizedAffinity 13.2002687
REMARK minimizedRMSD -1
REMARK  0 active torsions:
REMARK  status: ('A' for Active; 'I' for Inactive)
ROOT
ATOM      1  C   UNL d   1      -1.494   0.912   4.234  0.00  0.00     0.124 A 
ATOM      2  C1  UNL d   1      -2.019  -0.328   3.901  0.00  0.00     0.062 A 
ATOM      3  C2  UNL d   1      -2.122  -0.709   2.566  0.00  0.00     0.162 A 
ATOM      4  C3  UNL d   1      -1.697   0.151   1.554  0.00  0.00    -0.034 A 
ATOM      5  C4  UNL d   1      -1.171   1.398   1.897  0.00  0.00     0.162 A 
ATOM      6  C5  UNL d   1      -1.070   1.774   3.232  0.00  0.00     0.062 A 
ATOM      7  F   UNL d   1      -0.562   2.973   3.552  0.00  0.00    -0.097 F 
ATOM      8  F1  UNL d   1      -0.753   2.250   0.949  0.00  0.00    -0.096 F 
ATOM      9  I   UNL d   1      -1.850  -0.415  -0.443  0.00  0.00    -0.060 I 
ATOM     10  F2  UNL d   1      -2.634  -1.914   2.274  0.00  0.00    -0.096 F 
ATOM     11  F3  UNL d   1      -2.430  -1.162   4.867  0.00  0.00    -0.097 F 
ATOM     12  F4  UNL d   1      -1.397   1.277   5.519  0.00  0.00    -0.092 F 
ENDROOT
TORSDOF 0
ENDMDL
