MODEL 1
REMARK minimizedAffinity -2.56948495
REMARK minimizedRMSD -1
REMARK  0 active torsions:
REMARK  status: ('A' for Active; 'I' for Inactive)
ROOT
ATOM      1  C   UNL d   1       2.345  -0.548  -1.965  0.00  0.00     0.124 A 
ATOM      2  C1  UNL d   1       1.624  -1.481  -1.233  0.00  0.00     0.062 A 
ATOM      3  C2  UNL d   1       0.652  -1.062  -0.329  0.00  0.00     0.162 A 
ATOM      4  C3  UNL d   1       0.393   0.297  -0.153  0.00  0.00    -0.034 A 
ATOM      5  C4  UNL d   1       1.123   1.230  -0.892  0.00  0.00     0.162 A 
ATOM      6  C5  UNL d   1       2.094   0.806  -1.794  0.00  0.00     0.062 A 
ATOM      7  F   UNL d   1       2.789   1.709  -2.501  0.00  0.00    -0.097 F 
ATOM      8  F1  UNL d   1       0.900   2.544  -0.748  0.00  0.00    -0.096 F 
ATOM      9  I   UNL d   1      -1.060   0.927   1.197  0.00  0.00    -0.060 I 
ATOM     10  F2  UNL d   1      -0.029  -1.986   0.365  0.00  0.00    -0.096 F 
ATOM     11  F3  UNL d   1       1.866  -2.790  -1.395  0.00  0.00    -0.097 F 
ATOM     12  F4  UNL d   1       3.281  -0.954  -2.833  0.00  0.00    -0.092 F 
ENDROOT
TORSDOF 0
ENDMDL
