MODEL 1
REMARK minimizedAffinity -5.30934477
REMARK minimizedRMSD -1
REMARK  0 active torsions:
REMARK  status: ('A' for Active; 'I' for Inactive)
ROOT
ATOM      1  C   UNL d   1       3.218   0.627  -2.281  0.00  0.00     0.124 A 
ATOM      2  C1  UNL d   1       2.158   1.488  -2.527  0.00  0.00     0.062 A 
ATOM      3  C2  UNL d   1       0.948   1.318  -1.861  0.00  0.00     0.162 A 
ATOM      4  C3  UNL d   1       0.792   0.281  -0.940  0.00  0.00    -0.034 A 
ATOM      5  C4  UNL d   1       1.862  -0.582  -0.699  0.00  0.00     0.162 A 
ATOM      6  C5  UNL d   1       3.069  -0.407  -1.368  0.00  0.00     0.062 A 
ATOM      7  F   UNL d   1       4.092  -1.241  -1.129  0.00  0.00    -0.097 F 
ATOM      8  F1  UNL d   1       1.746  -1.589   0.180  0.00  0.00    -0.096 F 
ATOM      9  I   UNL d   1      -1.016   0.023   0.059  0.00  0.00    -0.060 I 
ATOM     10  F2  UNL d   1      -0.059   2.165  -2.118  0.00  0.00    -0.096 F 
ATOM     11  F3  UNL d   1       2.299   2.488  -3.410  0.00  0.00    -0.097 F 
ATOM     12  F4  UNL d   1       4.381   0.792  -2.925  0.00  0.00    -0.092 F 
ENDROOT
TORSDOF 0
ENDMDL
