MODEL 1
REMARK minimizedAffinity 1.17125094
REMARK minimizedRMSD -1
REMARK  0 active torsions:
REMARK  status: ('A' for Active; 'I' for Inactive)
ROOT
ATOM      1  C   UNL d   1      -2.924  -0.481   4.167  0.00  0.00     0.124 A 
ATOM      2  C1  UNL d   1      -2.608   0.857   3.973  0.00  0.00     0.062 A 
ATOM      3  C2  UNL d   1      -1.869   1.247   2.860  0.00  0.00     0.162 A 
ATOM      4  C3  UNL d   1      -1.442   0.298   1.931  0.00  0.00    -0.034 A 
ATOM      5  C4  UNL d   1      -1.763  -1.045   2.133  0.00  0.00     0.162 A 
ATOM      6  C5  UNL d   1      -2.501  -1.430   3.248  0.00  0.00     0.062 A 
ATOM      7  F   UNL d   1      -2.806  -2.723   3.434  0.00  0.00    -0.097 F 
ATOM      8  F1  UNL d   1      -1.368  -1.983   1.260  0.00  0.00    -0.096 F 
ATOM      9  I   UNL d   1      -0.338   0.878   0.265  0.00  0.00    -0.060 I 
ATOM     10  F2  UNL d   1      -1.578   2.546   2.698  0.00  0.00    -0.096 F 
ATOM     11  F3  UNL d   1      -3.014   1.776   4.861  0.00  0.00    -0.097 F 
ATOM     12  F4  UNL d   1      -3.634  -0.854   5.240  0.00  0.00    -0.092 F 
ENDROOT
TORSDOF 0
ENDMDL
