MODEL 1
REMARK minimizedAffinity -3.88317275
REMARK minimizedRMSD -1
REMARK  0 active torsions:
REMARK  status: ('A' for Active; 'I' for Inactive)
ROOT
ATOM      1  C   UNL d   1      -1.636   0.868   1.348  0.00  0.00     0.124 A 
ATOM      2  C1  UNL d   1      -1.865  -0.501   1.356  0.00  0.00     0.062 A 
ATOM      3  C2  UNL d   1      -2.743  -1.058   2.282  0.00  0.00     0.162 A 
ATOM      4  C3  UNL d   1      -3.399  -0.247   3.207  0.00  0.00    -0.034 A 
ATOM      5  C4  UNL d   1      -3.162   1.129   3.194  0.00  0.00     0.162 A 
ATOM      6  C5  UNL d   1      -2.285   1.682   2.266  0.00  0.00     0.062 A 
ATOM      7  F   UNL d   1      -2.065   3.004   2.260  0.00  0.00    -0.097 F 
ATOM      8  F1  UNL d   1      -3.776   1.939   4.069  0.00  0.00    -0.096 F 
ATOM      9  I   UNL d   1      -4.711  -1.077   4.593  0.00  0.00    -0.060 I 
ATOM     10  F2  UNL d   1      -2.945  -2.384   2.266  0.00  0.00    -0.096 F 
ATOM     11  F3  UNL d   1      -1.239  -1.289   0.470  0.00  0.00    -0.097 F 
ATOM     12  F4  UNL d   1      -0.791   1.402   0.457  0.00  0.00    -0.092 F 
ENDROOT
TORSDOF 0
ENDMDL
