MODEL 1
REMARK minimizedAffinity 5.64000225
REMARK minimizedRMSD -1
REMARK  0 active torsions:
REMARK  status: ('A' for Active; 'I' for Inactive)
ROOT
ATOM      1  C   UNL d   1       0.821   0.131  -2.683  0.00  0.00     0.124 A 
ATOM      2  C1  UNL d   1       0.175   1.118  -1.950  0.00  0.00     0.062 A 
ATOM      3  C2  UNL d   1      -0.276   0.850  -0.661  0.00  0.00     0.162 A 
ATOM      4  C3  UNL d   1      -0.082  -0.409  -0.095  0.00  0.00    -0.034 A 
ATOM      5  C4  UNL d   1       0.568  -1.397  -0.838  0.00  0.00     0.162 A 
ATOM      6  C5  UNL d   1       1.017  -1.125  -2.126  0.00  0.00     0.062 A 
ATOM      7  F   UNL d   1       1.641  -2.079  -2.831  0.00  0.00    -0.097 F 
ATOM      8  F1  UNL d   1       0.771  -2.619  -0.324  0.00  0.00    -0.096 F 
ATOM      9  I   UNL d   1      -0.755  -0.813   1.833  0.00  0.00    -0.060 I 
ATOM     10  F2  UNL d   1      -0.897   1.823   0.023  0.00  0.00    -0.096 F 
ATOM     11  F3  UNL d   1      -0.016   2.332  -2.487  0.00  0.00    -0.097 F 
ATOM     12  F4  UNL d   1       1.254   0.391  -3.923  0.00  0.00    -0.092 F 
ENDROOT
TORSDOF 0
ENDMDL
