MODEL 1
REMARK minimizedAffinity -3.44436097
REMARK minimizedRMSD -1
REMARK  0 active torsions:
REMARK  status: ('A' for Active; 'I' for Inactive)
ROOT
ATOM      1  C   UNL d   1      -3.015  -0.038   3.509  0.00  0.00     0.124 A 
ATOM      2  C1  UNL d   1      -2.674   1.298   3.348  0.00  0.00     0.062 A 
ATOM      3  C2  UNL d   1      -1.908   1.698   2.256  0.00  0.00     0.162 A 
ATOM      4  C3  UNL d   1      -1.478   0.761   1.317  0.00  0.00    -0.034 A 
ATOM      5  C4  UNL d   1      -1.824  -0.581   1.486  0.00  0.00     0.162 A 
ATOM      6  C5  UNL d   1      -2.590  -0.976   2.578  0.00  0.00     0.062 A 
ATOM      7  F   UNL d   1      -2.918  -2.267   2.732  0.00  0.00    -0.097 F 
ATOM      8  F1  UNL d   1      -1.427  -1.507   0.601  0.00  0.00    -0.096 F 
ATOM      9  I   UNL d   1      -0.333   1.356  -0.316  0.00  0.00    -0.060 I 
ATOM     10  F2  UNL d   1      -1.594   2.996   2.126  0.00  0.00    -0.096 F 
ATOM     11  F3  UNL d   1      -3.083   2.205   4.246  0.00  0.00    -0.097 F 
ATOM     12  F4  UNL d   1      -3.751  -0.421   4.560  0.00  0.00    -0.092 F 
ENDROOT
TORSDOF 0
ENDMDL
