MODEL 1
REMARK minimizedAffinity -4.21480513
REMARK minimizedRMSD -1
REMARK  1 active torsions:
REMARK  status: ('A' for Active; 'I' for Inactive)
REMARK    1  A    between atoms: C1_2  and  C2_3 
ROOT
ATOM      1  C2  UNL d   1      -1.889  -0.642   0.115  0.00  0.00    -0.081 A 
ATOM      2  C3  UNL d   1      -0.646  -0.313  -0.441  0.00  0.00     0.006 A 
ATOM      3  C4  UNL d   1       0.448  -0.037   0.382  0.00  0.00     0.002 A 
ATOM      4  C5  UNL d   1       0.321  -0.093   1.774  0.00  0.00    -0.080 A 
ATOM      5  C6  UNL d   1       1.495   0.171   2.669  0.00  0.00     0.076 C 
ATOM      6  C7  UNL d   1      -0.925  -0.405   2.331  0.00  0.00     0.002 A 
ATOM      7  C8  UNL d   1      -2.019  -0.680   1.508  0.00  0.00     0.006 A 
ENDROOT
BRANCH   1   8
ATOM      8  C1  UNL d   1      -3.054  -1.003  -0.770  0.00  0.00     0.054 C 
ATOM      9  C   UNL d   1      -4.199  -1.596   0.037  0.00  0.00     0.018 C 
ENDBRANCH   1   8
TORSDOF 1
ENDMDL
