MODEL 1
REMARK minimizedAffinity -0.916302264
REMARK minimizedRMSD -1
REMARK  1 active torsions:
REMARK  status: ('A' for Active; 'I' for Inactive)
REMARK    1  A    between atoms: C1_2  and  C2_3 
ROOT
ATOM      1  C2  UNL d   1       0.277  -1.267   1.618  0.00  0.00    -0.081 A 
ATOM      2  C3  UNL d   1       1.398  -0.756   0.952  0.00  0.00     0.006 A 
ATOM      3  C4  UNL d   1       1.243   0.099  -0.141  0.00  0.00     0.002 A 
ATOM      4  C5  UNL d   1      -0.034   0.464  -0.582  0.00  0.00    -0.080 A 
ATOM      5  C6  UNL d   1      -0.213   1.406  -1.735  0.00  0.00     0.076 C 
ATOM      6  C7  UNL d   1      -1.154  -0.060   0.073  0.00  0.00     0.002 A 
ATOM      7  C8  UNL d   1      -1.000  -0.915   1.166  0.00  0.00     0.006 A 
ENDROOT
BRANCH   1   8
ATOM      8  C1  UNL d   1       0.441  -2.138   2.838  0.00  0.00     0.054 C 
ATOM      9  C   UNL d   1      -0.684  -3.158   2.944  0.00  0.00     0.018 C 
ENDBRANCH   1   8
TORSDOF 1
ENDMDL
