MODEL 1
REMARK minimizedAffinity -0.702826381
REMARK minimizedRMSD -1
REMARK  1 active torsions:
REMARK  status: ('A' for Active; 'I' for Inactive)
REMARK    1  A    between atoms: C1_2  and  C2_3 
ROOT
ATOM      1  C2  UNL d   1       0.063   0.808  -0.683  0.00  0.00    -0.081 A 
ATOM      2  C3  UNL d   1       0.759   1.018   0.514  0.00  0.00     0.006 A 
ATOM      3  C4  UNL d   1       1.885   0.251   0.823  0.00  0.00     0.002 A 
ATOM      4  C5  UNL d   1       2.338  -0.733  -0.063  0.00  0.00    -0.080 A 
ATOM      5  C6  UNL d   1       3.563  -1.542   0.243  0.00  0.00     0.076 C 
ATOM      6  C7  UNL d   1       1.633  -0.955  -1.250  0.00  0.00     0.002 A 
ATOM      7  C8  UNL d   1       0.507  -0.189  -1.559  0.00  0.00     0.006 A 
ENDROOT
BRANCH   1   8
ATOM      8  C1  UNL d   1      -1.113   1.677  -1.049  0.00  0.00     0.054 C 
ATOM      9  C   UNL d   1      -0.673   2.895  -1.848  0.00  0.00     0.018 C 
ENDBRANCH   1   8
TORSDOF 1
ENDMDL
