MODEL 1
REMARK minimizedAffinity -0.770852029
REMARK minimizedRMSD -1
REMARK  1 active torsions:
REMARK  status: ('A' for Active; 'I' for Inactive)
REMARK    1  A    between atoms: C1_2  and  C2_3 
ROOT
ATOM      1  C2  UNL d   1      -0.182   1.221  -1.134  0.00  0.00    -0.081 A 
ATOM      2  C3  UNL d   1       0.239   1.954  -0.018  0.00  0.00     0.006 A 
ATOM      3  C4  UNL d   1       1.044   1.360   0.957  0.00  0.00     0.002 A 
ATOM      4  C5  UNL d   1       1.448   0.027   0.828  0.00  0.00    -0.080 A 
ATOM      5  C6  UNL d   1       2.338  -0.614   1.851  0.00  0.00     0.076 C 
ATOM      6  C7  UNL d   1       1.014  -0.711  -0.279  0.00  0.00     0.002 A 
ATOM      7  C8  UNL d   1       0.208  -0.117  -1.253  0.00  0.00     0.006 A 
ENDROOT
BRANCH   1   8
ATOM      8  C1  UNL d   1      -0.996   1.878  -2.220  0.00  0.00     0.054 C 
ATOM      9  C   UNL d   1      -1.059   3.386  -2.028  0.00  0.00     0.018 C 
ENDBRANCH   1   8
TORSDOF 1
ENDMDL
