MODEL 1
REMARK minimizedAffinity -1.12683988
REMARK minimizedRMSD -1
REMARK  1 active torsions:
REMARK  status: ('A' for Active; 'I' for Inactive)
REMARK    1  A    between atoms: C1_2  and  C2_3 
ROOT
ATOM      1  C2  UNL d   1      -0.374  -0.094   0.253  0.00  0.00    -0.081 A 
ATOM      2  C3  UNL d   1      -0.886  -0.566   1.468  0.00  0.00     0.006 A 
ATOM      3  C4  UNL d   1      -0.030  -0.856   2.533  0.00  0.00     0.002 A 
ATOM      4  C5  UNL d   1       1.351  -0.670   2.404  0.00  0.00    -0.080 A 
ATOM      5  C6  UNL d   1       2.279  -0.948   3.549  0.00  0.00     0.076 C 
ATOM      6  C7  UNL d   1       1.864  -0.215   1.185  0.00  0.00     0.002 A 
ATOM      7  C8  UNL d   1       1.009   0.074   0.119  0.00  0.00     0.006 A 
ENDROOT
BRANCH   1   8
ATOM      8  C1  UNL d   1      -1.301   0.281  -0.875  0.00  0.00     0.054 C 
ATOM      9  C   UNL d   1      -2.364  -0.786  -1.095  0.00  0.00     0.018 C 
ENDBRANCH   1   8
TORSDOF 1
ENDMDL
