MODEL 1
REMARK minimizedAffinity 1.29374111
REMARK minimizedRMSD -1
REMARK  1 active torsions:
REMARK  status: ('A' for Active; 'I' for Inactive)
REMARK    1  A    between atoms: C1_2  and  C2_3 
ROOT
ATOM      1  C2  UNL d   1      -3.122  -0.602  -1.974  0.00  0.00    -0.081 A 
ATOM      2  C3  UNL d   1      -1.837  -0.280  -1.521  0.00  0.00     0.006 A 
ATOM      3  C4  UNL d   1      -1.352   1.025  -1.635  0.00  0.00     0.002 A 
ATOM      4  C5  UNL d   1      -2.146   2.031  -2.197  0.00  0.00    -0.080 A 
ATOM      5  C6  UNL d   1      -1.649   3.442  -2.298  0.00  0.00     0.076 C 
ATOM      6  C7  UNL d   1      -3.423   1.705  -2.667  0.00  0.00     0.002 A 
ATOM      7  C8  UNL d   1      -3.908   0.400  -2.553  0.00  0.00     0.006 A 
ENDROOT
BRANCH   1   8
ATOM      8  C1  UNL d   1      -3.672  -1.994  -1.794  0.00  0.00     0.054 C 
ATOM      9  C   UNL d   1      -4.555  -2.083  -0.557  0.00  0.00     0.018 C 
ENDBRANCH   1   8
TORSDOF 1
ENDMDL
