MODEL 1
REMARK minimizedAffinity -1.31583047
REMARK minimizedRMSD -1
REMARK  1 active torsions:
REMARK  status: ('A' for Active; 'I' for Inactive)
REMARK    1  A    between atoms: C1_2  and  C2_3 
ROOT
ATOM      1  C2  UNL d   1      -1.941  -0.818   0.498  0.00  0.00    -0.081 A 
ATOM      2  C3  UNL d   1      -1.133  -0.099  -0.391  0.00  0.00     0.006 A 
ATOM      3  C4  UNL d   1       0.225   0.088  -0.121  0.00  0.00     0.002 A 
ATOM      4  C5  UNL d   1       0.798  -0.447   1.037  0.00  0.00    -0.080 A 
ATOM      5  C6  UNL d   1       2.261  -0.279   1.324  0.00  0.00     0.076 C 
ATOM      6  C7  UNL d   1      -0.013  -1.151   1.934  0.00  0.00     0.002 A 
ATOM      7  C8  UNL d   1      -1.370  -1.338   1.665  0.00  0.00     0.006 A 
ENDROOT
BRANCH   1   8
ATOM      8  C1  UNL d   1      -3.391  -1.077   0.178  0.00  0.00     0.054 C 
ATOM      9  C   UNL d   1      -3.561  -1.588  -1.246  0.00  0.00     0.018 C 
ENDBRANCH   1   8
TORSDOF 1
ENDMDL
