MODEL 1
REMARK minimizedAffinity -0.37618655
REMARK minimizedRMSD -1
REMARK  0 active torsions:
REMARK  status: ('A' for Active; 'I' for Inactive)
ROOT
ATOM      1  C   UNL d   1      -1.934   5.004  -2.376  0.00  0.00     0.020 A 
ATOM      2  C1  UNL d   1      -0.950   5.988  -2.452  0.00  0.00     0.020 A 
ATOM      3  C2  UNL d   1       0.226   5.859  -1.710  0.00  0.00     0.034 A 
ATOM      4  C3  UNL d   1       0.421   4.742  -0.889  0.00  0.00     0.017 A 
ATOM      5  C4  UNL d   1      -0.568   3.754  -0.813  0.00  0.00     0.017 A 
ATOM      6  C5  UNL d   1      -1.743   3.889  -1.558  0.00  0.00     0.034 A 
ATOM      7 Cl   UNL d   1      -0.400   2.348   0.178  0.00  0.00    -0.070 Cl
ATOM      8 Cl1  UNL d   1       1.899   4.646   0.001  0.00  0.00    -0.070 Cl
ENDROOT
TORSDOF 0
ENDMDL
