MODEL 1
REMARK minimizedAffinity 10.0862322
REMARK minimizedRMSD -1
REMARK  0 active torsions:
REMARK  status: ('A' for Active; 'I' for Inactive)
ROOT
ATOM      1  C   UNL d   1      -0.549   4.878  -2.581  0.00  0.00     0.020 A 
ATOM      2  C1  UNL d   1       0.044   3.636  -2.354  0.00  0.00     0.020 A 
ATOM      3  C2  UNL d   1       0.074   3.102  -1.064  0.00  0.00     0.034 A 
ATOM      4  C3  UNL d   1      -0.489   3.810   0.004  0.00  0.00     0.017 A 
ATOM      5  C4  UNL d   1      -1.084   5.056  -0.225  0.00  0.00     0.017 A 
ATOM      6  C5  UNL d   1      -1.112   5.586  -1.518  0.00  0.00     0.034 A 
ATOM      7 Cl   UNL d   1      -1.800   5.988   1.043  0.00  0.00    -0.070 Cl
ATOM      8 Cl1  UNL d   1      -0.416   3.089   1.573  0.00  0.00    -0.070 Cl
ENDROOT
TORSDOF 0
ENDMDL
