MODEL 1
REMARK minimizedAffinity 7.26039791
REMARK minimizedRMSD -1
REMARK  0 active torsions:
REMARK  status: ('A' for Active; 'I' for Inactive)
ROOT
ATOM      1  C   UNL d   1      -0.365  -6.000  -3.582  0.00  0.00     0.020 A 
ATOM      2  C1  UNL d   1      -0.029  -5.861  -2.236  0.00  0.00     0.020 A 
ATOM      3  C2  UNL d   1      -0.187  -4.627  -1.601  0.00  0.00     0.034 A 
ATOM      4  C3  UNL d   1      -0.682  -3.528  -2.311  0.00  0.00     0.017 A 
ATOM      5  C4  UNL d   1      -1.020  -3.669  -3.662  0.00  0.00     0.017 A 
ATOM      6  C5  UNL d   1      -0.860  -4.906  -4.293  0.00  0.00     0.034 A 
ATOM      7 Cl   UNL d   1      -1.637  -2.358  -4.605  0.00  0.00    -0.070 Cl
ATOM      8 Cl1  UNL d   1      -0.852  -2.033  -1.462  0.00  0.00    -0.070 Cl
ENDROOT
TORSDOF 0
ENDMDL
