MODEL 1
REMARK minimizedAffinity 0.791653633
REMARK minimizedRMSD -1
REMARK  0 active torsions:
REMARK  status: ('A' for Active; 'I' for Inactive)
ROOT
ATOM      1  C   UNL d   1      -4.500   5.326  -4.175  0.00  0.00     0.020 A 
ATOM      2  C1  UNL d   1      -4.510   5.273  -2.782  0.00  0.00     0.020 A 
ATOM      3  C2  UNL d   1      -4.977   4.130  -2.130  0.00  0.00     0.034 A 
ATOM      4  C3  UNL d   1      -5.437   3.035  -2.872  0.00  0.00     0.017 A 
ATOM      5  C4  UNL d   1      -5.427   3.090  -4.270  0.00  0.00     0.017 A 
ATOM      6  C5  UNL d   1      -4.958   4.237  -4.918  0.00  0.00     0.034 A 
ATOM      7 Cl   UNL d   1      -5.978   1.779  -5.253  0.00  0.00    -0.070 Cl
ATOM      8 Cl1  UNL d   1      -6.000   1.654  -2.000  0.00  0.00    -0.070 Cl
ENDROOT
TORSDOF 0
ENDMDL
