MODEL 1
REMARK minimizedAffinity 4.33076715
REMARK minimizedRMSD -1
REMARK  0 active torsions:
REMARK  status: ('A' for Active; 'I' for Inactive)
ROOT
ATOM      1  C   UNL d   1      -0.289   4.431  -2.287  0.00  0.00     0.020 A 
ATOM      2  C1  UNL d   1       0.598   5.169  -1.503  0.00  0.00     0.020 A 
ATOM      3  C2  UNL d   1       1.052   4.652  -0.288  0.00  0.00     0.034 A 
ATOM      4  C3  UNL d   1       0.620   3.394   0.147  0.00  0.00     0.017 A 
ATOM      5  C4  UNL d   1      -0.270   2.654  -0.640  0.00  0.00     0.017 A 
ATOM      6  C5  UNL d   1      -0.722   3.177  -1.856  0.00  0.00     0.034 A 
ATOM      7 Cl   UNL d   1      -0.848   1.095  -0.170  0.00  0.00    -0.070 Cl
ATOM      8 Cl1  UNL d   1       1.222   2.817   1.660  0.00  0.00    -0.070 Cl
ENDROOT
TORSDOF 0
ENDMDL
