MODEL 1
REMARK minimizedAffinity 12.2502851
REMARK minimizedRMSD -1
REMARK  0 active torsions:
REMARK  status: ('A' for Active; 'I' for Inactive)
ROOT
ATOM      1  C   UNL d   1      -0.738   5.108  -2.948  0.00  0.00     0.020 A 
ATOM      2  C1  UNL d   1      -1.776   4.358  -2.398  0.00  0.00     0.020 A 
ATOM      3  C2  UNL d   1      -1.597   3.711  -1.173  0.00  0.00     0.034 A 
ATOM      4  C3  UNL d   1      -0.376   3.812  -0.496  0.00  0.00     0.017 A 
ATOM      5  C4  UNL d   1       0.665   4.565  -1.049  0.00  0.00     0.017 A 
ATOM      6  C5  UNL d   1       0.480   5.212  -2.275  0.00  0.00     0.034 A 
ATOM      7 Cl   UNL d   1       2.199   4.737  -0.272  0.00  0.00    -0.070 Cl
ATOM      8 Cl1  UNL d   1      -0.225   2.986   1.014  0.00  0.00    -0.070 Cl
ENDROOT
TORSDOF 0
ENDMDL
