MODEL 1
REMARK minimizedAffinity 10.0686245
REMARK minimizedRMSD -1
REMARK  0 active torsions:
REMARK  status: ('A' for Active; 'I' for Inactive)
ROOT
ATOM      1  C   UNL d   1      -0.608  -3.043  -1.300  0.00  0.00     0.020 A 
ATOM      2  C1  UNL d   1       0.218  -4.137  -1.553  0.00  0.00     0.020 A 
ATOM      3  C2  UNL d   1       0.566  -4.459  -2.867  0.00  0.00     0.034 A 
ATOM      4  C3  UNL d   1       0.088  -3.687  -3.932  0.00  0.00     0.017 A 
ATOM      5  C4  UNL d   1      -0.741  -2.589  -3.676  0.00  0.00     0.017 A 
ATOM      6  C5  UNL d   1      -1.086  -2.270  -2.359  0.00  0.00     0.034 A 
ATOM      7 Cl   UNL d   1      -1.370  -1.589  -4.938  0.00  0.00    -0.070 Cl
ATOM      8 Cl1  UNL d   1       0.559  -4.143  -5.530  0.00  0.00    -0.070 Cl
ENDROOT
TORSDOF 0
ENDMDL
