MODEL 1
REMARK minimizedAffinity 13.2778893
REMARK minimizedRMSD -1
REMARK  0 active torsions:
REMARK  status: ('A' for Active; 'I' for Inactive)
ROOT
ATOM      1  C   UNL d   1       5.629  -4.841  -1.176  0.00  0.00     0.020 A 
ATOM      2  C1  UNL d   1       4.939  -6.000  -1.529  0.00  0.00     0.020 A 
ATOM      3  C2  UNL d   1       3.542  -5.999  -1.560  0.00  0.00     0.034 A 
ATOM      4  C3  UNL d   1       2.832  -4.837  -1.236  0.00  0.00     0.017 A 
ATOM      5  C4  UNL d   1       3.526  -3.675  -0.881  0.00  0.00     0.017 A 
ATOM      6  C5  UNL d   1       4.924  -3.681  -0.852  0.00  0.00     0.034 A 
ATOM      7 Cl   UNL d   1       2.719  -2.203  -0.469  0.00  0.00    -0.070 Cl
ATOM      8 Cl1  UNL d   1       1.107  -4.908  -1.295  0.00  0.00    -0.070 Cl
ENDROOT
TORSDOF 0
ENDMDL
