MODEL 1
REMARK minimizedAffinity 11.5611773
REMARK minimizedRMSD -1
REMARK  0 active torsions:
REMARK  status: ('A' for Active; 'I' for Inactive)
ROOT
ATOM      1  C   UNL d   1       5.607  -3.222  -0.774  0.00  0.00     0.020 A 
ATOM      2  C1  UNL d   1       5.192  -4.533  -1.007  0.00  0.00     0.020 A 
ATOM      3  C2  UNL d   1       3.832  -4.849  -0.980  0.00  0.00     0.034 A 
ATOM      4  C3  UNL d   1       2.882  -3.854  -0.720  0.00  0.00     0.017 A 
ATOM      5  C4  UNL d   1       3.301  -2.539  -0.486  0.00  0.00     0.017 A 
ATOM      6  C5  UNL d   1       4.663  -2.228  -0.514  0.00  0.00     0.034 A 
ATOM      7 Cl   UNL d   1       2.188  -1.257  -0.159  0.00  0.00    -0.070 Cl
ATOM      8 Cl1  UNL d   1       1.218  -4.316  -0.703  0.00  0.00    -0.070 Cl
ENDROOT
TORSDOF 0
ENDMDL
