MODEL 1
REMARK minimizedAffinity 7.91798067
REMARK minimizedRMSD -1
REMARK  0 active torsions:
REMARK  status: ('A' for Active; 'I' for Inactive)
ROOT
ATOM      1  C   UNL d   1       2.096   4.618   1.890  0.00  0.00     0.020 A 
ATOM      2  C1  UNL d   1       1.862   3.618   2.834  0.00  0.00     0.020 A 
ATOM      3  C2  UNL d   1       1.031   2.541   2.519  0.00  0.00     0.034 A 
ATOM      4  C3  UNL d   1       0.431   2.461   1.257  0.00  0.00     0.017 A 
ATOM      5  C4  UNL d   1       0.666   3.464   0.310  0.00  0.00     0.017 A 
ATOM      6  C5  UNL d   1       1.499   4.541   0.631  0.00  0.00     0.034 A 
ATOM      7 Cl   UNL d   1      -0.039   3.434  -1.267  0.00  0.00    -0.070 Cl
ATOM      8 Cl1  UNL d   1      -0.585   1.100   0.936  0.00  0.00    -0.070 Cl
ENDROOT
TORSDOF 0
ENDMDL
