MODEL 1
REMARK minimizedAffinity 4.5418644
REMARK minimizedRMSD -1
REMARK  0 active torsions:
REMARK  status: ('A' for Active; 'I' for Inactive)
ROOT
ATOM      1  C   UNL d   1      -1.011   5.528  -3.000  0.00  0.00     0.020 A 
ATOM      2  C1  UNL d   1      -0.300   4.330  -3.063  0.00  0.00     0.020 A 
ATOM      3  C2  UNL d   1      -0.055   3.602  -1.897  0.00  0.00     0.034 A 
ATOM      4  C3  UNL d   1      -0.520   4.071  -0.663  0.00  0.00     0.017 A 
ATOM      5  C4  UNL d   1      -1.233   5.273  -0.601  0.00  0.00     0.017 A 
ATOM      6  C5  UNL d   1      -1.477   5.998  -1.772  0.00  0.00     0.034 A 
ATOM      7 Cl   UNL d   1      -1.839   5.916   0.884  0.00  0.00    -0.070 Cl
ATOM      8 Cl1  UNL d   1      -0.181   3.119   0.738  0.00  0.00    -0.070 Cl
ENDROOT
TORSDOF 0
ENDMDL
