MODEL 1
REMARK minimizedAffinity 13.0894833
REMARK minimizedRMSD -1
REMARK  0 active torsions:
REMARK  status: ('A' for Active; 'I' for Inactive)
ROOT
ATOM      1  C   UNL d   1      -0.012  -4.533  -1.172  0.00  0.00     0.020 A 
ATOM      2  C1  UNL d   1      -0.295  -3.202  -0.866  0.00  0.00     0.020 A 
ATOM      3  C2  UNL d   1       0.732  -2.343  -0.470  0.00  0.00     0.034 A 
ATOM      4  C3  UNL d   1       2.047  -2.814  -0.379  0.00  0.00     0.017 A 
ATOM      5  C4  UNL d   1       2.330  -4.149  -0.686  0.00  0.00     0.017 A 
ATOM      6  C5  UNL d   1       1.298  -5.005  -1.083  0.00  0.00     0.034 A 
ATOM      7 Cl   UNL d   1       3.928  -4.802  -0.597  0.00  0.00    -0.070 Cl
ATOM      8 Cl1  UNL d   1       3.268  -1.696   0.117  0.00  0.00    -0.070 Cl
ENDROOT
TORSDOF 0
ENDMDL
