MODEL 1
REMARK minimizedAffinity -1.78062129
REMARK minimizedRMSD -1
REMARK  0 active torsions:
REMARK  status: ('A' for Active; 'I' for Inactive)
ROOT
ATOM      1  C   UNL d   1      -0.448   0.185  -0.834  0.00  0.00     0.020 A 
ATOM      2  C1  UNL d   1      -1.024   0.451  -2.075  0.00  0.00     0.020 A 
ATOM      3  C2  UNL d   1      -1.198   1.771  -2.496  0.00  0.00     0.034 A 
ATOM      4  C3  UNL d   1      -0.795   2.830  -1.674  0.00  0.00     0.017 A 
ATOM      5  C4  UNL d   1      -0.216   2.562  -0.428  0.00  0.00     0.017 A 
ATOM      6  C5  UNL d   1      -0.044   1.238  -0.012  0.00  0.00     0.034 A 
ATOM      7 Cl   UNL d   1       0.306   3.816   0.640  0.00  0.00    -0.070 Cl
ATOM      8 Cl1  UNL d   1      -1.039   4.438  -2.258  0.00  0.00    -0.070 Cl
ENDROOT
TORSDOF 0
ENDMDL
