MODEL 1
REMARK minimizedAffinity -1.42322302
REMARK minimizedRMSD -1
REMARK  0 active torsions:
REMARK  status: ('A' for Active; 'I' for Inactive)
ROOT
ATOM      1  C   UNL d   1      -0.124   2.258  -1.195  0.00  0.00     0.172 C 
ATOM      2  N   UNL d   1       0.283   3.059  -2.325  0.00  0.00    -0.070 N 
ATOM      3  C1  UNL d   1       0.735   2.577  -3.525  0.00  0.00    -0.004 A 
ATOM      4  C2  UNL d   1       1.019   3.656  -4.334  0.00  0.00    -0.047 A 
ATOM      5  C3  UNL d   1       0.728   4.827  -3.595  0.00  0.00    -0.047 A 
ATOM      6  C4  UNL d   1       0.274   4.429  -2.355  0.00  0.00    -0.004 A 
ENDROOT
TORSDOF 0
ENDMDL
