MODEL 1
REMARK minimizedAffinity -0.722459495
REMARK minimizedRMSD -1
REMARK  0 active torsions:
REMARK  status: ('A' for Active; 'I' for Inactive)
ROOT
ATOM      1  C   UNL d   1      -4.777   0.413  -5.614  0.00  0.00     0.172 C 
ATOM      2  N   UNL d   1      -4.429   1.720  -5.107  0.00  0.00    -0.070 N 
ATOM      3  C1  UNL d   1      -5.276   2.791  -5.012  0.00  0.00    -0.004 A 
ATOM      4  C2  UNL d   1      -4.566   3.846  -4.481  0.00  0.00    -0.047 A 
ATOM      5  C3  UNL d   1      -3.245   3.393  -4.249  0.00  0.00    -0.047 A 
ATOM      6  C4  UNL d   1      -3.188   2.074  -4.645  0.00  0.00    -0.004 A 
ENDROOT
TORSDOF 0
ENDMDL
