MODEL 1
REMARK minimizedAffinity -0.709461033
REMARK minimizedRMSD -1
REMARK  0 active torsions:
REMARK  status: ('A' for Active; 'I' for Inactive)
ROOT
ATOM      1  C   UNL d   1       0.741   3.076  -3.771  0.00  0.00     0.172 C 
ATOM      2  N   UNL d   1       1.496   2.535  -2.665  0.00  0.00    -0.070 N 
ATOM      3  C1  UNL d   1       1.716   1.206  -2.423  0.00  0.00    -0.004 A 
ATOM      4  C2  UNL d   1       2.477   1.106  -1.278  0.00  0.00    -0.047 A 
ATOM      5  C3  UNL d   1       2.722   2.421  -0.816  0.00  0.00    -0.047 A 
ATOM      6  C4  UNL d   1       2.103   3.286  -1.693  0.00  0.00    -0.004 A 
ENDROOT
TORSDOF 0
ENDMDL
