MODEL 1
REMARK minimizedAffinity 3.58607578
REMARK minimizedRMSD -1
REMARK  0 active torsions:
REMARK  status: ('A' for Active; 'I' for Inactive)
ROOT
ATOM      1  C   UNL d   1       1.955  -1.241  -0.583  0.00  0.00     0.172 C 
ATOM      2  N   UNL d   1       1.889  -1.158   0.857  0.00  0.00    -0.070 N 
ATOM      3  C1  UNL d   1       2.848  -0.614   1.670  0.00  0.00    -0.004 A 
ATOM      4  C2  UNL d   1       2.411  -0.727   2.972  0.00  0.00    -0.047 A 
ATOM      5  C3  UNL d   1       1.147  -1.360   2.941  0.00  0.00    -0.047 A 
ATOM      6  C4  UNL d   1       0.848  -1.616   1.619  0.00  0.00    -0.004 A 
ENDROOT
TORSDOF 0
ENDMDL
