MODEL 1
REMARK minimizedAffinity -1.23233521
REMARK minimizedRMSD -1
REMARK  0 active torsions:
REMARK  status: ('A' for Active; 'I' for Inactive)
ROOT
ATOM      1  C   UNL d   1       2.089  -1.023  -1.004  0.00  0.00     0.172 C 
ATOM      2  N   UNL d   1       1.950   0.381  -1.313  0.00  0.00    -0.070 N 
ATOM      3  C1  UNL d   1       1.955   1.404  -0.403  0.00  0.00    -0.004 A 
ATOM      4  C2  UNL d   1       1.799   2.585  -1.094  0.00  0.00    -0.047 A 
ATOM      5  C3  UNL d   1       1.696   2.262  -2.468  0.00  0.00    -0.047 A 
ATOM      6  C4  UNL d   1       1.793   0.890  -2.575  0.00  0.00    -0.004 A 
ENDROOT
TORSDOF 0
ENDMDL
