MODEL 1
REMARK minimizedAffinity 4.97059774
REMARK minimizedRMSD -1
REMARK  0 active torsions:
REMARK  status: ('A' for Active; 'I' for Inactive)
ROOT
ATOM      1  C   UNL d   1       1.250   2.727  -2.532  0.00  0.00     0.172 C 
ATOM      2  N   UNL d   1       1.662   1.346  -2.624  0.00  0.00    -0.070 N 
ATOM      3  C1  UNL d   1       1.384   0.367  -1.708  0.00  0.00    -0.004 A 
ATOM      4  C2  UNL d   1       1.949  -0.806  -2.158  0.00  0.00    -0.047 A 
ATOM      5  C3  UNL d   1       2.591  -0.522  -3.387  0.00  0.00    -0.047 A 
ATOM      6  C4  UNL d   1       2.397   0.817  -3.652  0.00  0.00    -0.004 A 
ENDROOT
TORSDOF 0
ENDMDL
