MODEL 1
REMARK minimizedAffinity 5.34424686
REMARK minimizedRMSD -1
REMARK  0 active torsions:
REMARK  status: ('A' for Active; 'I' for Inactive)
ROOT
ATOM      1  C   UNL d   1       2.789  -0.856   3.424  0.00  0.00     0.172 C 
ATOM      2  N   UNL d   1       1.413  -1.205   3.157  0.00  0.00    -0.070 N 
ATOM      3  C1  UNL d   1       0.315  -0.616   3.725  0.00  0.00    -0.004 A 
ATOM      4  C2  UNL d   1      -0.806  -1.230   3.210  0.00  0.00    -0.047 A 
ATOM      5  C3  UNL d   1      -0.367  -2.222   2.302  0.00  0.00    -0.047 A 
ATOM      6  C4  UNL d   1       1.011  -2.186   2.288  0.00  0.00    -0.004 A 
ENDROOT
TORSDOF 0
ENDMDL
