MODEL 1
REMARK minimizedAffinity 2.15414572
REMARK minimizedRMSD -1
REMARK  0 active torsions:
REMARK  status: ('A' for Active; 'I' for Inactive)
ROOT
ATOM      1  C   UNL d   1       1.543   1.630   2.927  0.00  0.00     0.172 C 
ATOM      2  N   UNL d   1       1.154   0.239   2.940  0.00  0.00    -0.070 N 
ATOM      3  C1  UNL d   1      -0.131  -0.231   3.000  0.00  0.00    -0.004 A 
ATOM      4  C2  UNL d   1      -0.078  -1.608   2.990  0.00  0.00    -0.047 A 
ATOM      5  C3  UNL d   1       1.286  -1.978   2.924  0.00  0.00    -0.047 A 
ATOM      6  C4  UNL d   1       2.027  -0.816   2.894  0.00  0.00    -0.004 A 
ENDROOT
TORSDOF 0
ENDMDL
