MODEL 1
REMARK minimizedAffinity 0.53636539
REMARK minimizedRMSD -1
REMARK  0 active torsions:
REMARK  status: ('A' for Active; 'I' for Inactive)
ROOT
ATOM      1  C   UNL d   1       1.764  -0.442  -2.477  0.00  0.00     0.172 C 
ATOM      2  N   UNL d   1       2.448  -0.670  -1.226  0.00  0.00    -0.070 N 
ATOM      3  C1  UNL d   1       2.134  -1.636  -0.309  0.00  0.00    -0.004 A 
ATOM      4  C2  UNL d   1       3.018  -1.525   0.742  0.00  0.00    -0.047 A 
ATOM      5  C3  UNL d   1       3.895  -0.454   0.446  0.00  0.00    -0.047 A 
ATOM      6  C4  UNL d   1       3.519   0.058  -0.778  0.00  0.00    -0.004 A 
ENDROOT
TORSDOF 0
ENDMDL
