MODEL 1
REMARK minimizedAffinity -1.00002301
REMARK minimizedRMSD -1
REMARK  0 active torsions:
REMARK  status: ('A' for Active; 'I' for Inactive)
ROOT
ATOM      1  C   UNL d   1       1.289   2.057  -1.259  0.00  0.00     0.172 C 
ATOM      2  N   UNL d   1       1.423   0.649  -0.969  0.00  0.00    -0.070 N 
ATOM      3  C1  UNL d   1       0.691  -0.049  -0.046  0.00  0.00    -0.004 A 
ATOM      4  C2  UNL d   1       1.118  -1.359  -0.071  0.00  0.00    -0.047 A 
ATOM      5  C3  UNL d   1       2.143  -1.451  -1.042  0.00  0.00    -0.047 A 
ATOM      6  C4  UNL d   1       2.312  -0.194  -1.582  0.00  0.00    -0.004 A 
ENDROOT
TORSDOF 0
ENDMDL
