MODEL 1
REMARK minimizedAffinity 1.97594273
REMARK minimizedRMSD -1
REMARK  0 active torsions:
REMARK  status: ('A' for Active; 'I' for Inactive)
ROOT
ATOM      1  C   UNL d   1       1.071  -1.487   1.670  0.00  0.00     0.172 C 
ATOM      2  N   UNL d   1       1.539  -1.341   0.312  0.00  0.00    -0.070 N 
ATOM      3  C1  UNL d   1       2.835  -1.486  -0.106  0.00  0.00    -0.004 A 
ATOM      4  C2  UNL d   1       2.868  -1.268  -1.466  0.00  0.00    -0.047 A 
ATOM      5  C3  UNL d   1       1.545  -0.981  -1.881  0.00  0.00    -0.047 A 
ATOM      6  C4  UNL d   1       0.743  -1.033  -0.760  0.00  0.00    -0.004 A 
ENDROOT
TORSDOF 0
ENDMDL
