MODEL 1
REMARK minimizedAffinity 8.17022228
REMARK minimizedRMSD -1
REMARK  1 active torsions:
REMARK  status: ('A' for Active; 'I' for Inactive)
REMARK    1  A    between atoms: N_2  and  C1_3 
ROOT
ATOM      1  C1  UNL d   1      -2.868  -2.457   1.962  0.00  0.00     0.143 A 
ATOM      2  C2  UNL d   1      -3.407  -1.349   2.624  0.00  0.00    -0.057 A 
ATOM      3  C3  UNL d   1      -2.686  -0.155   2.749  0.00  0.00     0.033 A 
ATOM      4  C4  UNL d   1      -1.396  -0.058   2.237  0.00  0.00    -0.042 A 
ATOM      5  C5  UNL d   1      -0.830  -1.155   1.597  0.00  0.00     0.033 A 
ATOM      6  C6  UNL d   1      -1.558  -2.342   1.469  0.00  0.00    -0.057 A 
ENDROOT
BRANCH   1   7
ATOM      7  N   UNL d   1      -3.496  -3.702   1.890  0.00  0.00    -0.732 N 
ATOM      8  C   UNL d   1      -4.647  -3.996   2.717  0.00  0.00     0.284 C 
ATOM      9  H3  UNL d   1      -3.572  -4.045   0.935  0.00  0.00     0.395 HD
ENDBRANCH   1   7
TORSDOF 1
ENDMDL
