MODEL 1
REMARK minimizedAffinity 6.76589203
REMARK minimizedRMSD -1
REMARK  1 active torsions:
REMARK  status: ('A' for Active; 'I' for Inactive)
REMARK    1  A    between atoms: N_2  and  C1_3 
ROOT
ATOM      1  C1  UNL d   1       4.118  -0.793   0.833  0.00  0.00     0.143 A 
ATOM      2  C2  UNL d   1       4.903  -1.397  -0.154  0.00  0.00    -0.057 A 
ATOM      3  C3  UNL d   1       4.507  -2.591  -0.768  0.00  0.00     0.033 A 
ATOM      4  C4  UNL d   1       3.327  -3.220  -0.382  0.00  0.00    -0.042 A 
ATOM      5  C5  UNL d   1       2.543  -2.651   0.615  0.00  0.00     0.033 A 
ATOM      6  C6  UNL d   1       2.942  -1.454   1.219  0.00  0.00    -0.057 A 
ENDROOT
BRANCH   1   7
ATOM      7  N   UNL d   1       4.506   0.342   1.550  0.00  0.00    -0.732 N 
ATOM      8  C   UNL d   1       4.787   1.586   0.866  0.00  0.00     0.284 C 
ATOM      9  H3  UNL d   1       3.984   0.452   2.416  0.00  0.00     0.395 HD
ENDBRANCH   1   7
TORSDOF 1
ENDMDL
