MODEL 1
REMARK minimizedAffinity 3.49578238
REMARK minimizedRMSD -1
REMARK  1 active torsions:
REMARK  status: ('A' for Active; 'I' for Inactive)
REMARK    1  A    between atoms: N_2  and  C1_3 
ROOT
ATOM      1  C1  UNL d   1      -1.978   0.090   3.506  0.00  0.00     0.143 A 
ATOM      2  C2  UNL d   1      -0.859  -0.200   2.717  0.00  0.00    -0.057 A 
ATOM      3  C3  UNL d   1      -0.954  -1.046   1.606  0.00  0.00     0.033 A 
ATOM      4  C4  UNL d   1      -2.168  -1.642   1.279  0.00  0.00    -0.042 A 
ATOM      5  C5  UNL d   1      -3.287  -1.388   2.064  0.00  0.00     0.033 A 
ATOM      6  C6  UNL d   1      -3.188  -0.537   3.168  0.00  0.00    -0.057 A 
ENDROOT
BRANCH   1   7
ATOM      7  N   UNL d   1      -1.927   0.844   4.680  0.00  0.00    -0.732 N 
ATOM      8  C   UNL d   1      -2.575   0.375   5.887  0.00  0.00     0.284 C 
ATOM      9  H3  UNL d   1      -1.012   1.261   4.835  0.00  0.00     0.395 HD
ENDBRANCH   1   7
TORSDOF 1
ENDMDL
