MODEL 1
REMARK minimizedAffinity 0.0307079088
REMARK minimizedRMSD -1
REMARK  1 active torsions:
REMARK  status: ('A' for Active; 'I' for Inactive)
REMARK    1  A    between atoms: N_2  and  C1_3 
ROOT
ATOM      1  C1  UNL d   1      -3.703   5.275  -5.156  0.00  0.00     0.143 A 
ATOM      2  C2  UNL d   1      -3.719   4.561  -3.953  0.00  0.00    -0.057 A 
ATOM      3  C3  UNL d   1      -4.860   4.531  -3.142  0.00  0.00     0.033 A 
ATOM      4  C4  UNL d   1      -5.998   5.242  -3.506  0.00  0.00    -0.042 A 
ATOM      5  C5  UNL d   1      -5.996   5.979  -4.684  0.00  0.00     0.033 A 
ATOM      6  C6  UNL d   1      -4.856   6.000  -5.494  0.00  0.00    -0.057 A 
ENDROOT
BRANCH   1   7
ATOM      7  N   UNL d   1      -2.568   5.424  -5.957  0.00  0.00    -0.732 N 
ATOM      8  C   UNL d   1      -1.297   4.867  -5.546  0.00  0.00     0.284 C 
ATOM      9  H3  UNL d   1      -2.773   5.306  -6.947  0.00  0.00     0.395 HD
ENDBRANCH   1   7
TORSDOF 1
ENDMDL
