MODEL 1
REMARK minimizedAffinity -3.37769747
REMARK minimizedRMSD -1
REMARK  1 active torsions:
REMARK  status: ('A' for Active; 'I' for Inactive)
REMARK    1  A    between atoms: N_2  and  C1_3 
ROOT
ATOM      1  C1  UNL d   1      -3.294   0.072   4.229  0.00  0.00     0.143 A 
ATOM      2  C2  UNL d   1      -3.032  -0.610   3.036  0.00  0.00    -0.057 A 
ATOM      3  C3  UNL d   1      -3.784  -1.729   2.659  0.00  0.00     0.033 A 
ATOM      4  C4  UNL d   1      -4.796  -2.205   3.486  0.00  0.00    -0.042 A 
ATOM      5  C5  UNL d   1      -5.057  -1.559   4.689  0.00  0.00     0.033 A 
ATOM      6  C6  UNL d   1      -4.307  -0.437   5.057  0.00  0.00    -0.057 A 
ENDROOT
BRANCH   1   7
ATOM      7  N   UNL d   1      -2.517   1.131   4.706  0.00  0.00    -0.732 N 
ATOM      8  C   UNL d   1      -1.864   1.044   5.994  0.00  0.00     0.284 C 
ATOM      9  H3  UNL d   1      -1.946   1.553   3.978  0.00  0.00     0.395 HD
ENDBRANCH   1   7
TORSDOF 1
ENDMDL
