MODEL 1
REMARK minimizedAffinity 1.98139453
REMARK minimizedRMSD -1
REMARK  1 active torsions:
REMARK  status: ('A' for Active; 'I' for Inactive)
REMARK    1  A    between atoms: N_2  and  C1_3 
ROOT
ATOM      1  C1  UNL d   1      -3.000   0.695   5.283  0.00  0.00     0.143 A 
ATOM      2  C2  UNL d   1      -2.985   0.408   3.914  0.00  0.00    -0.057 A 
ATOM      3  C3  UNL d   1      -4.104  -0.137   3.274  0.00  0.00     0.033 A 
ATOM      4  C4  UNL d   1      -5.253  -0.433   4.001  0.00  0.00    -0.042 A 
ATOM      5  C5  UNL d   1      -5.282  -0.180   5.367  0.00  0.00     0.033 A 
ATOM      6  C6  UNL d   1      -4.163   0.372   6.000  0.00  0.00    -0.057 A 
ENDROOT
BRANCH   1   7
ATOM      7  N   UNL d   1      -1.886   1.146   5.996  0.00  0.00    -0.732 N 
ATOM      8  C   UNL d   1      -0.656   0.384   6.000  0.00  0.00     0.284 C 
ATOM      9  H3  UNL d   1      -1.753   2.151   5.912  0.00  0.00     0.395 HD
ENDBRANCH   1   7
TORSDOF 1
ENDMDL
