MODEL 1
REMARK minimizedAffinity 7.14997149
REMARK minimizedRMSD -1
REMARK  1 active torsions:
REMARK  status: ('A' for Active; 'I' for Inactive)
REMARK    1  A    between atoms: N_2  and  C1_3 
ROOT
ATOM      1  C1  UNL d   1      -4.814  -0.013   5.019  0.00  0.00     0.143 A 
ATOM      2  C2  UNL d   1      -4.419   0.049   3.678  0.00  0.00    -0.057 A 
ATOM      3  C3  UNL d   1      -4.776  -0.954   2.769  0.00  0.00     0.033 A 
ATOM      4  C4  UNL d   1      -5.512  -2.056   3.193  0.00  0.00    -0.042 A 
ATOM      5  C5  UNL d   1      -5.894  -2.151   4.526  0.00  0.00     0.033 A 
ATOM      6  C6  UNL d   1      -5.541  -1.142   5.428  0.00  0.00    -0.057 A 
ENDROOT
BRANCH   1   7
ATOM      7  N   UNL d   1      -4.408   0.903   5.993  0.00  0.00    -0.732 N 
ATOM      8  C   UNL d   1      -3.057   1.422   5.998  0.00  0.00     0.284 C 
ATOM      9  H3  UNL d   1      -5.122   1.599   6.193  0.00  0.00     0.395 HD
ENDBRANCH   1   7
TORSDOF 1
ENDMDL
