MODEL 1
REMARK minimizedAffinity 3.85535598
REMARK minimizedRMSD -1
REMARK  1 active torsions:
REMARK  status: ('A' for Active; 'I' for Inactive)
REMARK    1  A    between atoms: N_2  and  C1_3 
ROOT
ATOM      1  C1  UNL d   1      -2.424  -0.016   3.077  0.00  0.00     0.143 A 
ATOM      2  C2  UNL d   1      -3.254  -0.901   2.381  0.00  0.00    -0.057 A 
ATOM      3  C3  UNL d   1      -4.538  -1.211   2.848  0.00  0.00     0.033 A 
ATOM      4  C4  UNL d   1      -5.003  -0.661   4.038  0.00  0.00    -0.042 A 
ATOM      5  C5  UNL d   1      -4.185   0.202   4.759  0.00  0.00     0.033 A 
ATOM      6  C6  UNL d   1      -2.907   0.512   4.284  0.00  0.00    -0.057 A 
ENDROOT
BRANCH   1   7
ATOM      7  N   UNL d   1      -1.101   0.256   2.717  0.00  0.00    -0.732 N 
ATOM      8  C   UNL d   1      -0.266  -0.779   2.145  0.00  0.00     0.284 C 
ATOM      9  H3  UNL d   1      -0.999   1.165   2.273  0.00  0.00     0.395 HD
ENDBRANCH   1   7
TORSDOF 1
ENDMDL
