MODEL 1
REMARK minimizedAffinity -1.08172023
REMARK minimizedRMSD -1
REMARK  1 active torsions:
REMARK  status: ('A' for Active; 'I' for Inactive)
REMARK    1  A    between atoms: N_2  and  C1_3 
ROOT
ATOM      1  C1  UNL d   1       3.759   2.350  -0.399  0.00  0.00     0.143 A 
ATOM      2  C2  UNL d   1       4.965   3.022  -0.622  0.00  0.00    -0.057 A 
ATOM      3  C3  UNL d   1       5.748   3.481   0.445  0.00  0.00     0.033 A 
ATOM      4  C4  UNL d   1       5.322   3.300   1.756  0.00  0.00    -0.042 A 
ATOM      5  C5  UNL d   1       4.114   2.657   2.001  0.00  0.00     0.033 A 
ATOM      6  C6  UNL d   1       3.340   2.195   0.932  0.00  0.00    -0.057 A 
ENDROOT
BRANCH   1   7
ATOM      7  N   UNL d   1       2.888   1.957  -1.418  0.00  0.00    -0.732 N 
ATOM      8  C   UNL d   1       2.830   2.693  -2.663  0.00  0.00     0.284 C 
ATOM      9  H3  UNL d   1       2.852   0.947  -1.531  0.00  0.00     0.395 HD
ENDBRANCH   1   7
TORSDOF 1
ENDMDL
