MODEL 1
REMARK minimizedAffinity 3.73485923
REMARK minimizedRMSD -1
REMARK  1 active torsions:
REMARK  status: ('A' for Active; 'I' for Inactive)
REMARK    1  A    between atoms: N_2  and  C1_3 
ROOT
ATOM      1  C1  UNL d   1      -3.210   5.504  -5.062  0.00  0.00     0.143 A 
ATOM      2  C2  UNL d   1      -3.725   4.879  -3.921  0.00  0.00    -0.057 A 
ATOM      3  C3  UNL d   1      -5.104   4.712  -3.745  0.00  0.00     0.033 A 
ATOM      4  C4  UNL d   1      -5.996   5.195  -4.697  0.00  0.00    -0.042 A 
ATOM      5  C5  UNL d   1      -5.508   5.842  -5.826  0.00  0.00     0.033 A 
ATOM      6  C6  UNL d   1      -4.129   6.000  -6.000  0.00  0.00    -0.057 A 
ENDROOT
BRANCH   1   7
ATOM      7  N   UNL d   1      -1.854   5.787  -5.249  0.00  0.00    -0.732 N 
ATOM      8  C   UNL d   1      -0.837   4.911  -4.708  0.00  0.00     0.284 C 
ATOM      9  H3  UNL d   1      -1.654   6.128  -6.186  0.00  0.00     0.395 HD
ENDBRANCH   1   7
TORSDOF 1
ENDMDL
