MODEL 1
REMARK minimizedAffinity 4.47006559
REMARK minimizedRMSD -1
REMARK  1 active torsions:
REMARK  status: ('A' for Active; 'I' for Inactive)
REMARK    1  A    between atoms: N_2  and  C1_3 
ROOT
ATOM      1  C1  UNL d   1      -1.997  -0.004   3.842  0.00  0.00     0.143 A 
ATOM      2  C2  UNL d   1      -1.566   0.805   2.786  0.00  0.00    -0.057 A 
ATOM      3  C3  UNL d   1      -1.561   0.337   1.467  0.00  0.00     0.033 A 
ATOM      4  C4  UNL d   1      -1.962  -0.965   1.183  0.00  0.00    -0.042 A 
ATOM      5  C5  UNL d   1      -2.371  -1.795   2.220  0.00  0.00     0.033 A 
ATOM      6  C6  UNL d   1      -2.380  -1.319   3.535  0.00  0.00    -0.057 A 
ENDROOT
BRANCH   1   7
ATOM      7  N   UNL d   1      -1.932   0.370   5.187  0.00  0.00    -0.732 N 
ATOM      8  C   UNL d   1      -3.129   0.413   5.999  0.00  0.00     0.284 C 
ATOM      9  H3  UNL d   1      -1.122  -0.023   5.660  0.00  0.00     0.395 HD
ENDBRANCH   1   7
TORSDOF 1
ENDMDL
