MODEL 1
REMARK minimizedAffinity 7.08995771
REMARK minimizedRMSD -1
REMARK  1 active torsions:
REMARK  status: ('A' for Active; 'I' for Inactive)
REMARK    1  A    between atoms: N_2  and  C1_3 
ROOT
ATOM      1  C1  UNL d   1      -2.087   0.348   3.713  0.00  0.00     0.143 A 
ATOM      2  C2  UNL d   1      -0.860   0.151   3.070  0.00  0.00    -0.057 A 
ATOM      3  C3  UNL d   1      -0.750  -0.692   1.958  0.00  0.00     0.033 A 
ATOM      4  C4  UNL d   1      -1.863  -1.379   1.485  0.00  0.00    -0.042 A 
ATOM      5  C5  UNL d   1      -3.087  -1.219   2.124  0.00  0.00     0.033 A 
ATOM      6  C6  UNL d   1      -3.193  -0.370   3.229  0.00  0.00    -0.057 A 
ENDROOT
BRANCH   1   7
ATOM      7  N   UNL d   1      -2.242   1.096   4.882  0.00  0.00    -0.732 N 
ATOM      8  C   UNL d   1      -2.996   0.570   6.000  0.00  0.00     0.284 C 
ATOM      9  H3  UNL d   1      -1.389   1.582   5.148  0.00  0.00     0.395 HD
ENDBRANCH   1   7
TORSDOF 1
ENDMDL
