MODEL 1
REMARK minimizedAffinity 8.09374332
REMARK minimizedRMSD -1
REMARK  1 active torsions:
REMARK  status: ('A' for Active; 'I' for Inactive)
REMARK    1  A    between atoms: N_2  and  C1_3 
ROOT
ATOM      1  C1  UNL d   1      -0.751   0.311   1.778  0.00  0.00     0.143 A 
ATOM      2  C2  UNL d   1      -1.646   0.402   2.849  0.00  0.00    -0.057 A 
ATOM      3  C3  UNL d   1      -2.623  -0.577   3.064  0.00  0.00     0.033 A 
ATOM      4  C4  UNL d   1      -2.741  -1.654   2.192  0.00  0.00    -0.042 A 
ATOM      5  C5  UNL d   1      -1.878  -1.753   1.106  0.00  0.00     0.033 A 
ATOM      6  C6  UNL d   1      -0.900  -0.775   0.900  0.00  0.00    -0.057 A 
ENDROOT
BRANCH   1   7
ATOM      7  N   UNL d   1       0.178   1.303   1.454  0.00  0.00    -0.732 N 
ATOM      8  C   UNL d   1       1.259   1.027   0.532  0.00  0.00     0.284 C 
ATOM      9  H3  UNL d   1      -0.256   2.214   1.325  0.00  0.00     0.395 HD
ENDBRANCH   1   7
TORSDOF 1
ENDMDL
