MODEL 1
REMARK minimizedAffinity 6.62498808
REMARK minimizedRMSD -1
REMARK  1 active torsions:
REMARK  status: ('A' for Active; 'I' for Inactive)
REMARK    1  A    between atoms: N_2  and  C1_3 
ROOT
ATOM      1  C1  UNL d   1      -4.202   5.749  -4.279  0.00  0.00     0.143 A 
ATOM      2  C2  UNL d   1      -3.803   5.994  -5.598  0.00  0.00    -0.057 A 
ATOM      3  C3  UNL d   1      -2.473   5.819  -5.999  0.00  0.00     0.033 A 
ATOM      4  C4  UNL d   1      -1.509   5.423  -5.078  0.00  0.00    -0.042 A 
ATOM      5  C5  UNL d   1      -1.878   5.198  -3.756  0.00  0.00     0.033 A 
ATOM      6  C6  UNL d   1      -3.209   5.368  -3.363  0.00  0.00    -0.057 A 
ENDROOT
BRANCH   1   7
ATOM      7  N   UNL d   1      -5.488   6.000  -3.796  0.00  0.00    -0.732 N 
ATOM      8  C   UNL d   1      -5.988   5.301  -2.632  0.00  0.00     0.284 C 
ATOM      9  H3  UNL d   1      -5.727   6.989  -3.822  0.00  0.00     0.395 HD
ENDBRANCH   1   7
TORSDOF 1
ENDMDL
