MODEL 1
REMARK minimizedAffinity 7.59982872
REMARK minimizedRMSD -1
REMARK  1 active torsions:
REMARK  status: ('A' for Active; 'I' for Inactive)
REMARK    1  A    between atoms: N_2  and  C1_3 
ROOT
ATOM      1  C1  UNL d   1       4.928   3.777  -2.340  0.00  0.00     0.143 A 
ATOM      2  C2  UNL d   1       5.064   3.592  -3.721  0.00  0.00    -0.057 A 
ATOM      3  C3  UNL d   1       4.003   3.108  -4.496  0.00  0.00     0.033 A 
ATOM      4  C4  UNL d   1       2.793   2.771  -3.898  0.00  0.00    -0.042 A 
ATOM      5  C5  UNL d   1       2.644   2.924  -2.524  0.00  0.00     0.033 A 
ATOM      6  C6  UNL d   1       3.704   3.414  -1.756  0.00  0.00    -0.057 A 
ENDROOT
BRANCH   1   7
ATOM      7  N   UNL d   1       5.976   4.161  -1.501  0.00  0.00    -0.732 N 
ATOM      8  C   UNL d   1       5.722   4.520  -0.122  0.00  0.00     0.284 C 
ATOM      9  H3  UNL d   1       6.810   3.595  -1.636  0.00  0.00     0.395 HD
ENDBRANCH   1   7
TORSDOF 1
ENDMDL
