MODEL 1
REMARK minimizedAffinity 0.791213155
REMARK minimizedRMSD -1
REMARK  1 active torsions:
REMARK  status: ('A' for Active; 'I' for Inactive)
REMARK    1  A    between atoms: N_2  and  C1_3 
ROOT
ATOM      1  C1  UNL d   1       5.292   1.395  -5.442  0.00  0.00     0.143 A 
ATOM      2  C2  UNL d   1       4.029   1.663  -5.980  0.00  0.00    -0.057 A 
ATOM      3  C3  UNL d   1       3.506   2.961  -5.994  0.00  0.00     0.033 A 
ATOM      4  C4  UNL d   1       4.228   4.014  -5.442  0.00  0.00    -0.042 A 
ATOM      5  C5  UNL d   1       5.475   3.767  -4.879  0.00  0.00     0.033 A 
ATOM      6  C6  UNL d   1       5.995   2.469  -4.875  0.00  0.00    -0.057 A 
ENDROOT
BRANCH   1   7
ATOM      7  N   UNL d   1       5.825   0.110  -5.310  0.00  0.00    -0.732 N 
ATOM      8  C   UNL d   1       5.659  -0.634  -4.080  0.00  0.00     0.284 C 
ATOM      9  H3  UNL d   1       5.707  -0.448  -6.152  0.00  0.00     0.395 HD
ENDBRANCH   1   7
TORSDOF 1
ENDMDL
