MODEL 1
REMARK minimizedAffinity -2.60652375
REMARK minimizedRMSD -1
REMARK  1 active torsions:
REMARK  status: ('A' for Active; 'I' for Inactive)
REMARK    1  A    between atoms: N_2  and  C1_3 
ROOT
ATOM      1  C1  UNL d   1       2.935   2.208   1.888  0.00  0.00     0.143 A 
ATOM      2  C2  UNL d   1       1.727   1.966   1.224  0.00  0.00    -0.057 A 
ATOM      3  C3  UNL d   1       1.363   2.698   0.088  0.00  0.00     0.033 A 
ATOM      4  C4  UNL d   1       2.190   3.710  -0.389  0.00  0.00    -0.042 A 
ATOM      5  C5  UNL d   1       3.384   3.985   0.269  0.00  0.00     0.033 A 
ATOM      6  C6  UNL d   1       3.745   3.245   1.400  0.00  0.00    -0.057 A 
ENDROOT
BRANCH   1   7
ATOM      7  N   UNL d   1       3.307   1.581   3.079  0.00  0.00    -0.732 N 
ATOM      8  C   UNL d   1       4.233   2.219   3.990  0.00  0.00     0.284 C 
ATOM      9  H3  UNL d   1       2.523   1.121   3.537  0.00  0.00     0.395 HD
ENDBRANCH   1   7
TORSDOF 1
ENDMDL
