MODEL 1
REMARK minimizedAffinity 2.72421837
REMARK minimizedRMSD -1
REMARK  1 active torsions:
REMARK  status: ('A' for Active; 'I' for Inactive)
REMARK    1  A    between atoms: N_2  and  C1_3 
ROOT
ATOM      1  C1  UNL d   1       3.386   2.742   1.230  0.00  0.00     0.143 A 
ATOM      2  C2  UNL d   1       3.061   1.598   1.968  0.00  0.00    -0.057 A 
ATOM      3  C3  UNL d   1       1.879   0.888   1.724  0.00  0.00     0.033 A 
ATOM      4  C4  UNL d   1       0.984   1.328   0.754  0.00  0.00    -0.042 A 
ATOM      5  C5  UNL d   1       1.274   2.476   0.026  0.00  0.00     0.033 A 
ATOM      6  C6  UNL d   1       2.459   3.177   0.269  0.00  0.00    -0.057 A 
ENDROOT
BRANCH   1   7
ATOM      7  N   UNL d   1       4.497   3.546   1.492  0.00  0.00    -0.732 N 
ATOM      8  C   UNL d   1       4.849   3.898   2.851  0.00  0.00     0.284 C 
ATOM      9  H3  UNL d   1       5.293   3.312   0.904  0.00  0.00     0.395 HD
ENDBRANCH   1   7
TORSDOF 1
ENDMDL
