MODEL 1
REMARK minimizedAffinity -0.174431458
REMARK minimizedRMSD -1
REMARK  1 active torsions:
REMARK  status: ('A' for Active; 'I' for Inactive)
REMARK    1  A    between atoms: N_2  and  C1_3 
ROOT
ATOM      1  C1  UNL d   1       3.797   3.176   2.269  0.00  0.00     0.143 A 
ATOM      2  C2  UNL d   1       3.700   3.720   0.984  0.00  0.00    -0.057 A 
ATOM      3  C3  UNL d   1       2.710   3.295   0.089  0.00  0.00     0.033 A 
ATOM      4  C4  UNL d   1       1.816   2.295   0.455  0.00  0.00    -0.042 A 
ATOM      5  C5  UNL d   1       1.909   1.722   1.719  0.00  0.00     0.033 A 
ATOM      6  C6  UNL d   1       2.895   2.156   2.610  0.00  0.00    -0.057 A 
ENDROOT
BRANCH   1   7
ATOM      7  N   UNL d   1       4.819   3.486   3.170  0.00  0.00    -0.732 N 
ATOM      8  C   UNL d   1       4.776   2.997   4.531  0.00  0.00     0.284 C 
ATOM      9  H3  UNL d   1       5.741   3.442   2.741  0.00  0.00     0.395 HD
ENDBRANCH   1   7
TORSDOF 1
ENDMDL
