MODEL 1
REMARK minimizedAffinity -1.07601154
REMARK minimizedRMSD -1
REMARK  1 active torsions:
REMARK  status: ('A' for Active; 'I' for Inactive)
REMARK    1  A    between atoms: N_2  and  C1_3 
ROOT
ATOM      1  C1  UNL d   1       5.262   1.531  -6.000  0.00  0.00     0.143 A 
ATOM      2  C2  UNL d   1       3.867   1.631  -5.959  0.00  0.00    -0.057 A 
ATOM      3  C3  UNL d   1       3.229   2.877  -5.933  0.00  0.00     0.033 A 
ATOM      4  C4  UNL d   1       3.979   4.049  -5.919  0.00  0.00    -0.042 A 
ATOM      5  C5  UNL d   1       5.367   3.973  -5.933  0.00  0.00     0.033 A 
ATOM      6  C6  UNL d   1       5.998   2.725  -5.966  0.00  0.00    -0.057 A 
ENDROOT
BRANCH   1   7
ATOM      7  N   UNL d   1       5.957   0.321  -5.927  0.00  0.00    -0.732 N 
ATOM      8  C   UNL d   1       5.999  -0.432  -4.692  0.00  0.00     0.284 C 
ATOM      9  H3  UNL d   1       5.829  -0.251  -6.759  0.00  0.00     0.395 HD
ENDBRANCH   1   7
TORSDOF 1
ENDMDL
