MODEL 1
REMARK minimizedAffinity -2.01895452
REMARK minimizedRMSD -1
REMARK  1 active torsions:
REMARK  status: ('A' for Active; 'I' for Inactive)
REMARK    1  A    between atoms: N_2  and  C1_3 
ROOT
ATOM      1  C1  UNL d   1       3.987   2.621   2.907  0.00  0.00     0.143 A 
ATOM      2  C2  UNL d   1       3.051   1.961   2.103  0.00  0.00    -0.057 A 
ATOM      3  C3  UNL d   1       2.598   2.525   0.904  0.00  0.00     0.033 A 
ATOM      4  C4  UNL d   1       3.052   3.776   0.501  0.00  0.00    -0.042 A 
ATOM      5  C5  UNL d   1       3.964   4.462   1.296  0.00  0.00     0.033 A 
ATOM      6  C6  UNL d   1       4.418   3.891   2.489  0.00  0.00    -0.057 A 
ENDROOT
BRANCH   1   7
ATOM      7  N   UNL d   1       4.402   2.158   4.158  0.00  0.00    -0.732 N 
ATOM      8  C   UNL d   1       5.798   1.872   4.412  0.00  0.00     0.284 C 
ATOM      9  H3  UNL d   1       3.929   2.632   4.924  0.00  0.00     0.395 HD
ENDBRANCH   1   7
TORSDOF 1
ENDMDL
