MODEL 1
REMARK minimizedAffinity 1.94107664
REMARK minimizedRMSD -1
REMARK  1 active torsions:
REMARK  status: ('A' for Active; 'I' for Inactive)
REMARK    1  A    between atoms: N_2  and  C1_3 
ROOT
ATOM      1  C1  UNL d   1       5.160   1.612  -5.334  0.00  0.00     0.143 A 
ATOM      2  C2  UNL d   1       6.000   2.729  -5.407  0.00  0.00    -0.057 A 
ATOM      3  C3  UNL d   1       5.496   3.997  -5.722  0.00  0.00     0.033 A 
ATOM      4  C4  UNL d   1       4.143   4.164  -6.000  0.00  0.00    -0.042 A 
ATOM      5  C5  UNL d   1       3.295   3.064  -5.958  0.00  0.00     0.033 A 
ATOM      6  C6  UNL d   1       3.803   1.802  -5.636  0.00  0.00    -0.057 A 
ENDROOT
BRANCH   1   7
ATOM      7  N   UNL d   1       5.617   0.309  -5.122  0.00  0.00    -0.732 N 
ATOM      8  C   UNL d   1       5.618  -0.265  -3.793  0.00  0.00     0.284 C 
ATOM      9  H3  UNL d   1       5.313  -0.332  -5.851  0.00  0.00     0.395 HD
ENDBRANCH   1   7
TORSDOF 1
ENDMDL
