MODEL 1
REMARK minimizedAffinity -1.11710799
REMARK minimizedRMSD -1
REMARK  1 active torsions:
REMARK  status: ('A' for Active; 'I' for Inactive)
REMARK    1  A    between atoms: N_2  and  C1_3 
ROOT
ATOM      1  C1  UNL d   1      -1.509  -4.185   0.826  0.00  0.00     0.143 A 
ATOM      2  C2  UNL d   1      -1.720  -3.051   1.618  0.00  0.00    -0.057 A 
ATOM      3  C3  UNL d   1      -1.616  -3.111   3.013  0.00  0.00     0.033 A 
ATOM      4  C4  UNL d   1      -1.325  -4.316   3.644  0.00  0.00    -0.042 A 
ATOM      5  C5  UNL d   1      -1.136  -5.461   2.878  0.00  0.00     0.033 A 
ATOM      6  C6  UNL d   1      -1.235  -5.393   1.485  0.00  0.00    -0.057 A 
ENDROOT
BRANCH   1   7
ATOM      7  N   UNL d   1      -1.695  -4.211  -0.559  0.00  0.00    -0.732 N 
ATOM      8  C   UNL d   1      -0.896  -3.373  -1.426  0.00  0.00     0.284 C 
ATOM      9  H3  UNL d   1      -1.844  -5.154  -0.912  0.00  0.00     0.395 HD
ENDBRANCH   1   7
TORSDOF 1
ENDMDL
