MODEL 1
REMARK minimizedAffinity 3.38646007
REMARK minimizedRMSD -1
REMARK  1 active torsions:
REMARK  status: ('A' for Active; 'I' for Inactive)
REMARK    1  A    between atoms: N_2  and  C1_3 
ROOT
ATOM      1  C1  UNL d   1      -1.439  -2.478   0.973  0.00  0.00     0.143 A 
ATOM      2  C2  UNL d   1      -0.409  -1.704   0.427  0.00  0.00    -0.057 A 
ATOM      3  C3  UNL d   1       0.074  -1.946  -0.865  0.00  0.00     0.033 A 
ATOM      4  C4  UNL d   1      -0.446  -2.988  -1.625  0.00  0.00    -0.042 A 
ATOM      5  C5  UNL d   1      -1.453  -3.786  -1.093  0.00  0.00     0.033 A 
ATOM      6  C6  UNL d   1      -1.936  -3.535   0.194  0.00  0.00    -0.057 A 
ENDROOT
BRANCH   1   7
ATOM      7  N   UNL d   1      -1.895  -2.351   2.287  0.00  0.00    -0.732 N 
ATOM      8  C   UNL d   1      -1.954  -3.502   3.162  0.00  0.00     0.284 C 
ATOM      9  H3  UNL d   1      -1.554  -1.504   2.736  0.00  0.00     0.395 HD
ENDBRANCH   1   7
TORSDOF 1
ENDMDL
