MODEL 1
REMARK minimizedAffinity 1.72002935
REMARK minimizedRMSD -1
REMARK  1 active torsions:
REMARK  status: ('A' for Active; 'I' for Inactive)
REMARK    1  A    between atoms: N_2  and  C1_3 
ROOT
ATOM      1  C1  UNL d   1       3.131   2.004   1.869  0.00  0.00     0.143 A 
ATOM      2  C2  UNL d   1       3.244   2.844   0.755  0.00  0.00    -0.057 A 
ATOM      3  C3  UNL d   1       4.201   3.865   0.710  0.00  0.00     0.033 A 
ATOM      4  C4  UNL d   1       5.046   4.084   1.793  0.00  0.00    -0.042 A 
ATOM      5  C5  UNL d   1       4.935   3.277   2.920  0.00  0.00     0.033 A 
ATOM      6  C6  UNL d   1       3.982   2.255   2.957  0.00  0.00    -0.057 A 
ENDROOT
BRANCH   1   7
ATOM      7  N   UNL d   1       2.136   1.035   2.015  0.00  0.00    -0.732 N 
ATOM      8  C   UNL d   1       0.737   1.400   1.944  0.00  0.00     0.284 C 
ATOM      9  H3  UNL d   1       2.364   0.168   1.534  0.00  0.00     0.395 HD
ENDBRANCH   1   7
TORSDOF 1
ENDMDL
