MODEL 1
REMARK minimizedAffinity -1.32483935
REMARK minimizedRMSD -1
REMARK  1 active torsions:
REMARK  status: ('A' for Active; 'I' for Inactive)
REMARK    1  A    between atoms: N_2  and  C1_3 
ROOT
ATOM      1  C1  UNL d   1      -1.132   3.199   2.893  0.00  0.00     0.143 A 
ATOM      2  C2  UNL d   1       0.201   3.582   3.076  0.00  0.00    -0.057 A 
ATOM      3  C3  UNL d   1       1.228   3.035   2.297  0.00  0.00     0.033 A 
ATOM      4  C4  UNL d   1       0.941   2.071   1.336  0.00  0.00    -0.042 A 
ATOM      5  C5  UNL d   1      -0.373   1.657   1.153  0.00  0.00     0.033 A 
ATOM      6  C6  UNL d   1      -1.395   2.211   1.930  0.00  0.00    -0.057 A 
ENDROOT
BRANCH   1   7
ATOM      7  N   UNL d   1      -2.184   3.633   3.703  0.00  0.00    -0.732 N 
ATOM      8  C   UNL d   1      -1.944   4.031   5.073  0.00  0.00     0.284 C 
ATOM      9  H3  UNL d   1      -2.836   4.233   3.203  0.00  0.00     0.395 HD
ENDBRANCH   1   7
TORSDOF 1
ENDMDL
