MODEL 1
REMARK minimizedAffinity -2.81914902
REMARK minimizedRMSD -1
REMARK  0 active torsions:
REMARK  status: ('A' for Active; 'I' for Inactive)
ROOT
ATOM      1  C   UNL d   1      -0.960   2.283   1.175  0.00  0.00     0.124 A 
ATOM      2  C1  UNL d   1      -0.171   1.379   1.873  0.00  0.00     0.062 A 
ATOM      3  C2  UNL d   1       0.316   0.239   1.240  0.00  0.00     0.162 A 
ATOM      4  C3  UNL d   1       0.015  -0.004  -0.100  0.00  0.00    -0.034 A 
ATOM      5  C4  UNL d   1      -0.780   0.909  -0.796  0.00  0.00     0.162 A 
ATOM      6  C5  UNL d   1      -1.264   2.047  -0.158  0.00  0.00     0.062 A 
ATOM      7  F   UNL d   1      -2.027   2.918  -0.834  0.00  0.00    -0.097 F 
ATOM      8  F1  UNL d   1      -1.089   0.706  -2.085  0.00  0.00    -0.096 F 
ATOM      9  I   UNL d   1       0.741  -1.707  -1.051  0.00  0.00    -0.060 I 
ATOM     10  F2  UNL d   1       1.077  -0.616   1.939  0.00  0.00    -0.096 F 
ATOM     11  F3  UNL d   1       0.124   1.605   3.162  0.00  0.00    -0.097 F 
ATOM     12  F4  UNL d   1      -1.428   3.378   1.787  0.00  0.00    -0.092 F 
ENDROOT
TORSDOF 0
ENDMDL
