MODEL 1
REMARK minimizedAffinity 14.7004375
REMARK minimizedRMSD -1
REMARK  0 active torsions:
REMARK  status: ('A' for Active; 'I' for Inactive)
ROOT
ATOM      1  C   UNL d   1      -1.123   2.583   0.918  0.00  0.00     0.124 A 
ATOM      2  C1  UNL d   1      -0.261   1.841   1.714  0.00  0.00     0.062 A 
ATOM      3  C2  UNL d   1       0.613   0.926   1.136  0.00  0.00     0.162 A 
ATOM      4  C3  UNL d   1       0.631   0.748  -0.248  0.00  0.00    -0.034 A 
ATOM      5  C4  UNL d   1      -0.239   1.497  -1.042  0.00  0.00     0.162 A 
ATOM      6  C5  UNL d   1      -1.111   2.410  -0.459  0.00  0.00     0.062 A 
ATOM      7  F   UNL d   1      -1.943   3.126  -1.229  0.00  0.00    -0.097 F 
ATOM      8  F1  UNL d   1      -0.248   1.350  -2.375  0.00  0.00    -0.096 F 
ATOM      9  I   UNL d   1       1.938  -0.620  -1.117  0.00  0.00    -0.060 I 
ATOM     10  F2  UNL d   1       1.435   0.223   1.929  0.00  0.00    -0.096 F 
ATOM     11  F3  UNL d   1      -0.271   2.006   3.045  0.00  0.00    -0.097 F 
ATOM     12  F4  UNL d   1      -1.964   3.462   1.478  0.00  0.00    -0.092 F 
ENDROOT
TORSDOF 0
ENDMDL
