MODEL 1
REMARK minimizedAffinity -0.0481137633
REMARK minimizedRMSD -1
REMARK  0 active torsions:
REMARK  status: ('A' for Active; 'I' for Inactive)
ROOT
ATOM      1  C   UNL d   1       1.064  -0.113  -1.336  0.00  0.00     0.124 A 
ATOM      2  C1  UNL d   1       0.273   0.924  -1.809  0.00  0.00     0.062 A 
ATOM      3  C2  UNL d   1      -0.556   1.625  -0.938  0.00  0.00     0.162 A 
ATOM      4  C3  UNL d   1      -0.597   1.292   0.416  0.00  0.00    -0.034 A 
ATOM      5  C4  UNL d   1       0.201   0.247   0.884  0.00  0.00     0.162 A 
ATOM      6  C5  UNL d   1       1.028  -0.451   0.010  0.00  0.00     0.062 A 
ATOM      7  F   UNL d   1       1.792  -1.453   0.469  0.00  0.00    -0.097 F 
ATOM      8  F1  UNL d   1       0.186  -0.100   2.180  0.00  0.00    -0.096 F 
ATOM      9  I   UNL d   1      -1.835   2.338   1.722  0.00  0.00    -0.060 I 
ATOM     10  F2  UNL d   1      -1.310   2.623  -1.422  0.00  0.00    -0.096 F 
ATOM     11  F3  UNL d   1       0.306   1.252  -3.108  0.00  0.00    -0.097 F 
ATOM     12  F4  UNL d   1       1.860  -0.787  -2.176  0.00  0.00    -0.092 F 
ENDROOT
TORSDOF 0
ENDMDL
