MODEL 1
REMARK minimizedAffinity -2.46079826
REMARK minimizedRMSD -1
REMARK  0 active torsions:
REMARK  status: ('A' for Active; 'I' for Inactive)
ROOT
ATOM      1  C   UNL d   1      -0.765   3.034   1.243  0.00  0.00     0.124 A 
ATOM      2  C1  UNL d   1      -0.240   1.965   1.955  0.00  0.00     0.062 A 
ATOM      3  C2  UNL d   1       0.149   0.805   1.291  0.00  0.00     0.162 A 
ATOM      4  C3  UNL d   1       0.016   0.709  -0.094  0.00  0.00    -0.034 A 
ATOM      5  C4  UNL d   1      -0.514   1.789  -0.804  0.00  0.00     0.162 A 
ATOM      6  C5  UNL d   1      -0.901   2.945  -0.135  0.00  0.00     0.062 A 
ATOM      7  F   UNL d   1      -1.408   3.978  -0.825  0.00  0.00    -0.097 F 
ATOM      8  F1  UNL d   1      -0.655   1.730  -2.136  0.00  0.00    -0.096 F 
ATOM      9  I   UNL d   1       0.596  -1.023  -1.091  0.00  0.00    -0.060 I 
ATOM     10  F2  UNL d   1       0.652  -0.213   2.004  0.00  0.00    -0.096 F 
ATOM     11  F3  UNL d   1      -0.109   2.048   3.287  0.00  0.00    -0.097 F 
ATOM     12  F4  UNL d   1      -1.139   4.149   1.885  0.00  0.00    -0.092 F 
ENDROOT
TORSDOF 0
ENDMDL
