MODEL 1
REMARK minimizedAffinity 0.556442857
REMARK minimizedRMSD -1
REMARK  0 active torsions:
REMARK  status: ('A' for Active; 'I' for Inactive)
ROOT
ATOM      1  C   UNL d   1      -0.503   1.628   0.528  0.00  0.00     0.124 A 
ATOM      2  C1  UNL d   1       0.254   0.886   1.424  0.00  0.00     0.062 A 
ATOM      3  C2  UNL d   1       0.656  -0.406   1.099  0.00  0.00     0.162 A 
ATOM      4  C3  UNL d   1       0.302  -0.965  -0.130  0.00  0.00    -0.034 A 
ATOM      5  C4  UNL d   1      -0.460  -0.213  -1.025  0.00  0.00     0.162 A 
ATOM      6  C5  UNL d   1      -0.859   1.078  -0.695  0.00  0.00     0.062 A 
ATOM      7  F   UNL d   1      -1.591   1.794  -1.562  0.00  0.00    -0.097 F 
ATOM      8  F1  UNL d   1      -0.818  -0.719  -2.214  0.00  0.00    -0.096 F 
ATOM      9  I   UNL d   1       0.901  -2.896  -0.620  0.00  0.00    -0.060 I 
ATOM     10  F2  UNL d   1       1.387  -1.100   1.984  0.00  0.00    -0.096 F 
ATOM     11  F3  UNL d   1       0.599   1.415   2.607  0.00  0.00    -0.097 F 
ATOM     12  F4  UNL d   1      -0.889   2.871   0.845  0.00  0.00    -0.092 F 
ENDROOT
TORSDOF 0
ENDMDL
