MODEL 1
REMARK minimizedAffinity -3.33384824
REMARK minimizedRMSD -1
REMARK  0 active torsions:
REMARK  status: ('A' for Active; 'I' for Inactive)
ROOT
ATOM      1  C   UNL d   1      -1.100   3.147  -0.493  0.00  0.00     0.124 A 
ATOM      2  C1  UNL d   1      -0.486   2.239  -1.344  0.00  0.00     0.062 A 
ATOM      3  C2  UNL d   1       0.118   1.095  -0.829  0.00  0.00     0.162 A 
ATOM      4  C3  UNL d   1       0.110   0.853   0.544  0.00  0.00    -0.034 A 
ATOM      5  C4  UNL d   1      -0.509   1.771   1.394  0.00  0.00     0.162 A 
ATOM      6  C5  UNL d   1      -1.111   2.912   0.875  0.00  0.00     0.062 A 
ATOM      7  F   UNL d   1      -1.704   3.789   1.699  0.00  0.00    -0.097 F 
ATOM      8  F1  UNL d   1      -0.535   1.569   2.720  0.00  0.00    -0.096 F 
ATOM      9  I   UNL d   1       1.012  -0.856   1.317  0.00  0.00    -0.060 I 
ATOM     10  F2  UNL d   1       0.704   0.235  -1.675  0.00  0.00    -0.096 F 
ATOM     11  F3  UNL d   1      -0.474   2.464  -2.666  0.00  0.00    -0.097 F 
ATOM     12  F4  UNL d   1      -1.680   4.247  -0.991  0.00  0.00    -0.092 F 
ENDROOT
TORSDOF 0
ENDMDL
