MODEL 1
REMARK minimizedAffinity 6.52547312
REMARK minimizedRMSD -1
REMARK  0 active torsions:
REMARK  status: ('A' for Active; 'I' for Inactive)
ROOT
ATOM      1  C4' PXY d   1      -4.861  -6.000  -2.434  0.00  0.00     0.077 C 
ATOM      2  C1' PXY d   1      -4.877  -2.647   2.275  0.00  0.00     0.077 C 
ATOM      3  C1  PXY d   1      -4.861  -3.523   1.038  0.00  0.00    -0.082 A 
ATOM      4  C2  PXY d   1      -5.992  -3.778   0.402  0.00  0.00     0.003 A 
ATOM      5  C3  PXY d   1      -6.000  -4.594  -0.700  0.00  0.00     0.003 A 
ATOM      6  C4  PXY d   1      -4.829  -5.113  -1.186  0.00  0.00    -0.082 A 
ATOM      7  C5  PXY d   1      -3.669  -4.849  -0.548  0.00  0.00     0.003 A 
ATOM      8  C6  PXY d   1      -3.688  -4.051   0.592  0.00  0.00     0.003 A 
ENDROOT
TORSDOF 0
ENDMDL
