MODEL 1
REMARK minimizedAffinity 8.09668827
REMARK minimizedRMSD -1
REMARK  0 active torsions:
REMARK  status: ('A' for Active; 'I' for Inactive)
ROOT
ATOM      1  C4' PXY d   1       0.398   2.803   2.846  0.00  0.00     0.077 C 
ATOM      2  C1' PXY d   1      -3.746  -0.646   0.763  0.00  0.00     0.077 C 
ATOM      3  C1  PXY d   1      -2.665   0.269   1.304  0.00  0.00    -0.082 A 
ATOM      4  C2  PXY d   1      -1.473  -0.227   1.593  0.00  0.00     0.003 A 
ATOM      5  C3  PXY d   1      -0.494   0.580   2.113  0.00  0.00     0.003 A 
ATOM      6  C4  PXY d   1      -0.720   1.918   2.289  0.00  0.00    -0.082 A 
ATOM      7  C5  PXY d   1      -1.930   2.434   1.986  0.00  0.00     0.003 A 
ATOM      8  C6  PXY d   1      -2.924   1.590   1.498  0.00  0.00     0.003 A 
ENDROOT
TORSDOF 0
ENDMDL
