MODEL 1
REMARK minimizedAffinity 14.487155
REMARK minimizedRMSD -1
REMARK  0 active torsions:
REMARK  status: ('A' for Active; 'I' for Inactive)
ROOT
ATOM      1  C4' PXY d   1       2.551   5.684  -4.933  0.00  0.00     0.077 C 
ATOM      2  C1' PXY d   1       5.998   1.168  -5.999  0.00  0.00     0.077 C 
ATOM      3  C1  PXY d   1       5.103   2.357  -5.711  0.00  0.00    -0.082 A 
ATOM      4  C2  PXY d   1       3.806   2.275  -5.961  0.00  0.00     0.003 A 
ATOM      5  C3  PXY d   1       2.987   3.351  -5.736  0.00  0.00     0.003 A 
ATOM      6  C4  PXY d   1       3.492   4.506  -5.200  0.00  0.00    -0.082 A 
ATOM      7  C5  PXY d   1       4.812   4.593  -4.932  0.00  0.00     0.003 A 
ATOM      8  C6  PXY d   1       5.633   3.504  -5.206  0.00  0.00     0.003 A 
ENDROOT
TORSDOF 0
ENDMDL
