MODEL 1
REMARK minimizedAffinity 15.9319925
REMARK minimizedRMSD -1
REMARK  0 active torsions:
REMARK  status: ('A' for Active; 'I' for Inactive)
ROOT
ATOM      1  C4' PXY d   1      -4.866  -2.431  -2.671  0.00  0.00     0.077 C 
ATOM      2  C1' PXY d   1      -5.983  -5.941   1.784  0.00  0.00     0.077 C 
ATOM      3  C1  PXY d   1      -5.681  -5.028   0.612  0.00  0.00    -0.082 A 
ATOM      4  C2  PXY d   1      -6.000  -3.746   0.681  0.00  0.00     0.003 A 
ATOM      5  C3  PXY d   1      -5.763  -2.914  -0.382  0.00  0.00     0.003 A 
ATOM      6  C4  PXY d   1      -5.144  -3.387  -1.508  0.00  0.00    -0.082 A 
ATOM      7  C5  PXY d   1      -4.806  -4.692  -1.583  0.00  0.00     0.003 A 
ATOM      8  C6  PXY d   1      -5.092  -5.529  -0.508  0.00  0.00     0.003 A 
ENDROOT
TORSDOF 0
ENDMDL
