MODEL 1
REMARK minimizedAffinity -5.44748163
REMARK minimizedRMSD -1
REMARK  0 active torsions:
REMARK  status: ('A' for Active; 'I' for Inactive)
ROOT
ATOM      1  C4' PXY d   1       0.549   0.370  -2.434  0.00  0.00     0.077 C 
ATOM      2  C1' PXY d   1      -0.710  -0.979   3.044  0.00  0.00     0.077 C 
ATOM      3  C1  PXY d   1      -0.389  -0.633   1.603  0.00  0.00    -0.082 A 
ATOM      4  C2  PXY d   1       0.809  -0.164   1.294  0.00  0.00     0.003 A 
ATOM      5  C3  PXY d   1       1.106   0.183   0.002  0.00  0.00     0.003 A 
ATOM      6  C4  PXY d   1       0.184  -0.001  -0.994  0.00  0.00    -0.082 A 
ATOM      7  C5  PXY d   1      -1.037  -0.489  -0.689  0.00  0.00     0.003 A 
ATOM      8  C6  PXY d   1      -1.332  -0.797   0.636  0.00  0.00     0.003 A 
ENDROOT
TORSDOF 0
ENDMDL
