MODEL 1
REMARK minimizedAffinity -0.437339723
REMARK minimizedRMSD -1
REMARK  0 active torsions:
REMARK  status: ('A' for Active; 'I' for Inactive)
ROOT
ATOM      1  C4' PXY d   1       0.835   0.078  -0.481  0.00  0.00     0.077 C 
ATOM      2  C1' PXY d   1      -4.208  -1.331  -2.931  0.00  0.00     0.077 C 
ATOM      3  C1  PXY d   1      -2.882  -0.974  -2.289  0.00  0.00    -0.082 A 
ATOM      4  C2  PXY d   1      -2.790   0.111  -1.536  0.00  0.00     0.003 A 
ATOM      5  C3  PXY d   1      -1.591   0.466  -0.975  0.00  0.00     0.003 A 
ATOM      6  C4  PXY d   1      -0.486  -0.326  -1.141  0.00  0.00    -0.082 A 
ATOM      7  C5  PXY d   1      -0.574  -1.440  -1.898  0.00  0.00     0.003 A 
ATOM      8  C6  PXY d   1      -1.791  -1.761  -2.493  0.00  0.00     0.003 A 
ENDROOT
TORSDOF 0
ENDMDL
