MODEL 1
REMARK minimizedAffinity -4.73592377
REMARK minimizedRMSD -1
REMARK  0 active torsions:
REMARK  status: ('A' for Active; 'I' for Inactive)
ROOT
ATOM      1  C4' PXY d   1      -4.983  -1.627  -3.681  0.00  0.00     0.077 C 
ATOM      2  C1' PXY d   1      -0.248  -0.233  -0.672  0.00  0.00     0.077 C 
ATOM      3  C1  PXY d   1      -1.482  -0.606  -1.469  0.00  0.00    -0.082 A 
ATOM      4  C2  PXY d   1      -2.544   0.183  -1.438  0.00  0.00     0.003 A 
ATOM      5  C3  PXY d   1      -3.680  -0.155  -2.127  0.00  0.00     0.003 A 
ATOM      6  C4  PXY d   1      -3.711  -1.285  -2.900  0.00  0.00    -0.082 A 
ATOM      7  C5  PXY d   1      -2.628  -2.090  -2.946  0.00  0.00     0.003 A 
ATOM      8  C6  PXY d   1      -1.499  -1.750  -2.206  0.00  0.00     0.003 A 
ENDROOT
TORSDOF 0
ENDMDL
