MODEL 1
REMARK minimizedAffinity -4.0940237
REMARK minimizedRMSD -1
REMARK  0 active torsions:
REMARK  status: ('A' for Active; 'I' for Inactive)
ROOT
ATOM      1  C4' PXY d   1      -2.800  -0.396  -0.407  0.00  0.00     0.077 C 
ATOM      2  C1' PXY d   1       2.672   0.723   1.082  0.00  0.00     0.077 C 
ATOM      3  C1  PXY d   1       1.236   0.421   0.701  0.00  0.00    -0.082 A 
ATOM      4  C2  PXY d   1       0.832   0.627  -0.542  0.00  0.00     0.003 A 
ATOM      5  C3  PXY d   1      -0.472   0.390  -0.895  0.00  0.00     0.003 A 
ATOM      6  C4  PXY d   1      -1.357  -0.114   0.020  0.00  0.00    -0.082 A 
ATOM      7  C5  PXY d   1      -0.950  -0.336   1.287  0.00  0.00     0.003 A 
ATOM      8  C6  PXY d   1       0.367  -0.050   1.636  0.00  0.00     0.003 A 
ENDROOT
TORSDOF 0
ENDMDL
