MODEL 1
REMARK minimizedAffinity -4.84415913
REMARK minimizedRMSD -1
REMARK  0 active torsions:
REMARK  status: ('A' for Active; 'I' for Inactive)
ROOT
ATOM      1  C4' PXY d   1      -2.885   0.378  -1.354  0.00  0.00     0.077 C 
ATOM      2  C1' PXY d   1       2.216  -1.353  -3.452  0.00  0.00     0.077 C 
ATOM      3  C1  PXY d   1       0.872  -0.905  -2.911  0.00  0.00    -0.082 A 
ATOM      4  C2  PXY d   1       0.797   0.185  -2.165  0.00  0.00     0.003 A 
ATOM      5  C3  PXY d   1      -0.405   0.586  -1.642  0.00  0.00     0.003 A 
ATOM      6  C4  PXY d   1      -1.551  -0.106  -1.929  0.00  0.00    -0.082 A 
ATOM      7  C5  PXY d   1      -1.485  -1.213  -2.698  0.00  0.00     0.003 A 
ATOM      8  C6  PXY d   1      -0.248  -1.627  -3.185  0.00  0.00     0.003 A 
ENDROOT
TORSDOF 0
ENDMDL
