MODEL 1
REMARK minimizedAffinity -4.49469948
REMARK minimizedRMSD -1
REMARK  0 active torsions:
REMARK  status: ('A' for Active; 'I' for Inactive)
ROOT
ATOM      1  C4' PXY d   1      -3.070  -0.670   0.187  0.00  0.00     0.077 C 
ATOM      2  C1' PXY d   1       2.522   0.644   0.836  0.00  0.00     0.077 C 
ATOM      3  C1  PXY d   1       1.055   0.307   0.655  0.00  0.00    -0.082 A 
ATOM      4  C2  PXY d   1       0.351  -0.124   1.689  0.00  0.00     0.003 A 
ATOM      5  C3  PXY d   1      -0.969  -0.463   1.536  0.00  0.00     0.003 A 
ATOM      6  C4  PXY d   1      -1.588  -0.309   0.325  0.00  0.00    -0.082 A 
ATOM      7  C5  PXY d   1      -0.879   0.140  -0.732  0.00  0.00     0.003 A 
ATOM      8  C6  PXY d   1       0.470   0.440  -0.566  0.00  0.00     0.003 A 
ENDROOT
TORSDOF 0
ENDMDL
