MODEL 1
REMARK minimizedAffinity 2.62770176
REMARK minimizedRMSD -1
REMARK  0 active torsions:
REMARK  status: ('A' for Active; 'I' for Inactive)
ROOT
ATOM      1  C4' PXY d   1       1.536  -0.749  -2.969  0.00  0.00     0.077 C 
ATOM      2  C1' PXY d   1       0.982   1.063   2.492  0.00  0.00     0.077 C 
ATOM      3  C1  PXY d   1       1.114   0.588   1.059  0.00  0.00    -0.082 A 
ATOM      4  C2  PXY d   1       2.211  -0.048   0.679  0.00  0.00     0.003 A 
ATOM      5  C3  PXY d   1       2.361  -0.456  -0.621  0.00  0.00     0.003 A 
ATOM      6  C4  PXY d   1       1.355  -0.259  -1.529  0.00  0.00    -0.082 A 
ATOM      7  C5  PXY d   1       0.229   0.379  -1.147  0.00  0.00     0.003 A 
ATOM      8  C6  PXY d   1       0.113   0.823   0.167  0.00  0.00     0.003 A 
ENDROOT
TORSDOF 0
ENDMDL
