MODEL 1
REMARK minimizedAffinity -1.33355987
REMARK minimizedRMSD -1
REMARK  0 active torsions:
REMARK  status: ('A' for Active; 'I' for Inactive)
ROOT
ATOM      1  C4' PXY d   1      -3.863  -5.998  -0.737  0.00  0.00     0.077 C 
ATOM      2  C1' PXY d   1      -0.225  -2.022  -2.828  0.00  0.00     0.077 C 
ATOM      3  C1  PXY d   1      -1.177  -3.073  -2.290  0.00  0.00    -0.082 A 
ATOM      4  C2  PXY d   1      -2.143  -2.716  -1.459  0.00  0.00     0.003 A 
ATOM      5  C3  PXY d   1      -2.992  -3.658  -0.938  0.00  0.00     0.003 A 
ATOM      6  C4  PXY d   1      -2.885  -4.970  -1.312  0.00  0.00    -0.082 A 
ATOM      7  C5  PXY d   1      -1.909  -5.341  -2.168  0.00  0.00     0.003 A 
ATOM      8  C6  PXY d   1      -1.031  -4.376  -2.654  0.00  0.00     0.003 A 
ENDROOT
TORSDOF 0
ENDMDL
