MODEL 1
REMARK minimizedAffinity -4.69269848
REMARK minimizedRMSD -1
REMARK  0 active torsions:
REMARK  status: ('A' for Active; 'I' for Inactive)
ROOT
ATOM      1  C4' PXY d   1       0.766   0.564   0.002  0.00  0.00     0.077 C 
ATOM      2  C1' PXY d   1      -2.203  -1.531  -4.494  0.00  0.00     0.077 C 
ATOM      3  C1  PXY d   1      -1.415  -0.989  -3.318  0.00  0.00    -0.082 A 
ATOM      4  C2  PXY d   1      -2.056  -0.465  -2.286  0.00  0.00     0.003 A 
ATOM      5  C3  PXY d   1      -1.357   0.059  -1.229  0.00  0.00     0.003 A 
ATOM      6  C4  PXY d   1       0.010  -0.003  -1.203  0.00  0.00    -0.082 A 
ATOM      7  C5  PXY d   1       0.671  -0.547  -2.247  0.00  0.00     0.003 A 
ATOM      8  C6  PXY d   1      -0.055  -1.035  -3.329  0.00  0.00     0.003 A 
ENDROOT
TORSDOF 0
ENDMDL
