MODEL 1
REMARK minimizedAffinity -4.44888115
REMARK minimizedRMSD -1
REMARK  0 active torsions:
REMARK  status: ('A' for Active; 'I' for Inactive)
ROOT
ATOM      1  C4' PXY d   1      -1.501  -5.283  -3.272  0.00  0.00     0.077 C 
ATOM      2  C1' PXY d   1      -1.842   0.255  -1.651  0.00  0.00     0.077 C 
ATOM      3  C1  PXY d   1      -1.750  -1.194  -2.089  0.00  0.00    -0.082 A 
ATOM      4  C2  PXY d   1      -2.399  -2.125  -1.409  0.00  0.00     0.003 A 
ATOM      5  C3  PXY d   1      -2.301  -3.443  -1.771  0.00  0.00     0.003 A 
ATOM      6  C4  PXY d   1      -1.573  -3.807  -2.873  0.00  0.00    -0.082 A 
ATOM      7  C5  PXY d   1      -0.917  -2.862  -3.578  0.00  0.00     0.003 A 
ATOM      8  C6  PXY d   1      -0.996  -1.533  -3.169  0.00  0.00     0.003 A 
ENDROOT
TORSDOF 0
ENDMDL
