MODEL 1
REMARK minimizedAffinity -1.42382026
REMARK minimizedRMSD -1
REMARK  0 active torsions:
REMARK  status: ('A' for Active; 'I' for Inactive)
ROOT
ATOM      1  C4' PXY d   1      -2.976   0.076  -1.579  0.00  0.00     0.077 C 
ATOM      2  C1' PXY d   1       2.371   0.698   0.526  0.00  0.00     0.077 C 
ATOM      3  C1  PXY d   1       0.972   0.542  -0.037  0.00  0.00    -0.082 A 
ATOM      4  C2  PXY d   1      -0.031   0.251   0.776  0.00  0.00     0.003 A 
ATOM      5  C3  PXY d   1      -1.297   0.075   0.280  0.00  0.00     0.003 A 
ATOM      6  C4  PXY d   1      -1.549   0.251  -1.054  0.00  0.00    -0.082 A 
ATOM      7  C5  PXY d   1      -0.533   0.559  -1.888  0.00  0.00     0.003 A 
ATOM      8  C6  PXY d   1       0.752   0.693  -1.371  0.00  0.00     0.003 A 
ENDROOT
TORSDOF 0
ENDMDL
