MODEL 1
REMARK minimizedAffinity -2.85001731
REMARK minimizedRMSD -1
REMARK  0 active torsions:
REMARK  status: ('A' for Active; 'I' for Inactive)
ROOT
ATOM      1  C4' PXY d   1      -0.417   0.385   3.442  0.00  0.00     0.077 C 
ATOM      2  C1' PXY d   1       0.980   0.272  -2.166  0.00  0.00     0.077 C 
ATOM      3  C1  PXY d   1       0.603   0.308  -0.698  0.00  0.00    -0.082 A 
ATOM      4  C2  PXY d   1       1.548   0.210   0.223  0.00  0.00     0.003 A 
ATOM      5  C3  PXY d   1       1.221   0.208   1.555  0.00  0.00     0.003 A 
ATOM      6  C4  PXY d   1      -0.081   0.363   1.948  0.00  0.00    -0.082 A 
ATOM      7  C5  PXY d   1      -1.050   0.475   1.015  0.00  0.00     0.003 A 
ATOM      8  C6  PXY d   1      -0.702   0.433  -0.332  0.00  0.00     0.003 A 
ENDROOT
TORSDOF 0
ENDMDL
