MODEL 1
REMARK minimizedAffinity -3.22894192
REMARK minimizedRMSD -1
REMARK  0 active torsions:
REMARK  status: ('A' for Active; 'I' for Inactive)
ROOT
ATOM      1  C4' PXY d   1      -2.608   0.024  -0.339  0.00  0.00     0.077 C 
ATOM      2  C1' PXY d   1       1.943  -1.493  -3.564  0.00  0.00     0.077 C 
ATOM      3  C1  PXY d   1       0.741  -1.100  -2.727  0.00  0.00    -0.082 A 
ATOM      4  C2  PXY d   1       0.843  -0.101  -1.866  0.00  0.00     0.003 A 
ATOM      5  C3  PXY d   1      -0.224   0.246  -1.078  0.00  0.00     0.003 A 
ATOM      6  C4  PXY d   1      -1.424  -0.401  -1.211  0.00  0.00    -0.082 A 
ATOM      7  C5  PXY d   1      -1.538  -1.414  -2.096  0.00  0.00     0.003 A 
ATOM      8  C6  PXY d   1      -0.431  -1.778  -2.857  0.00  0.00     0.003 A 
ENDROOT
TORSDOF 0
ENDMDL
