MODEL 1
REMARK minimizedAffinity -4.27912521
REMARK minimizedRMSD -1
REMARK  0 active torsions:
REMARK  status: ('A' for Active; 'I' for Inactive)
ROOT
ATOM      1  C4' PXY d   1      -2.473  -0.705  -1.786  0.00  0.00     0.077 C 
ATOM      2  C1' PXY d   1       0.560   0.993   2.833  0.00  0.00     0.077 C 
ATOM      3  C1  PXY d   1      -0.227   0.555   1.614  0.00  0.00    -0.082 A 
ATOM      4  C2  PXY d   1      -1.478   0.145   1.755  0.00  0.00     0.003 A 
ATOM      5  C3  PXY d   1      -2.194  -0.284   0.668  0.00  0.00     0.003 A 
ATOM      6  C4  PXY d   1      -1.643  -0.244  -0.585  0.00  0.00    -0.082 A 
ATOM      7  C5  PXY d   1      -0.371   0.182  -0.739  0.00  0.00     0.003 A 
ATOM      8  C6  PXY d   1       0.353   0.575   0.383  0.00  0.00     0.003 A 
ENDROOT
TORSDOF 0
ENDMDL
