MODEL 1
REMARK minimizedAffinity -5.64239264
REMARK minimizedRMSD -1
REMARK  0 active torsions:
REMARK  status: ('A' for Active; 'I' for Inactive)
ROOT
ATOM      1  C4' PXY d   1       0.438   0.785  -2.121  0.00  0.00     0.077 C 
ATOM      2  C1' PXY d   1      -1.300  -0.372   3.269  0.00  0.00     0.077 C 
ATOM      3  C1  PXY d   1      -0.854  -0.075   1.851  0.00  0.00    -0.082 A 
ATOM      4  C2  PXY d   1       0.421   0.176   1.605  0.00  0.00     0.003 A 
ATOM      5  C3  PXY d   1       0.836   0.478   0.333  0.00  0.00     0.003 A 
ATOM      6  C4  PXY d   1      -0.055   0.471  -0.706  0.00  0.00    -0.082 A 
ATOM      7  C5  PXY d   1      -1.357   0.204  -0.465  0.00  0.00     0.003 A 
ATOM      8  C6  PXY d   1      -1.764  -0.059   0.839  0.00  0.00     0.003 A 
ENDROOT
TORSDOF 0
ENDMDL
