MODEL 1
REMARK minimizedAffinity -5.22985601
REMARK minimizedRMSD -1
REMARK  0 active torsions:
REMARK  status: ('A' for Active; 'I' for Inactive)
ROOT
ATOM      1  C4' PXY d   1      -3.288  -0.069  -1.851  0.00  0.00     0.077 C 
ATOM      2  C1' PXY d   1       0.236  -0.200   2.729  0.00  0.00     0.077 C 
ATOM      3  C1  PXY d   1      -0.695  -0.175   1.533  0.00  0.00    -0.082 A 
ATOM      4  C2  PXY d   1      -0.262   0.298   0.376  0.00  0.00     0.003 A 
ATOM      5  C3  PXY d   1      -1.100   0.357  -0.707  0.00  0.00     0.003 A 
ATOM      6  C4  PXY d   1      -2.380  -0.122  -0.620  0.00  0.00    -0.082 A 
ATOM      7  C5  PXY d   1      -2.827  -0.616   0.555  0.00  0.00     0.003 A 
ATOM      8  C6  PXY d   1      -1.972  -0.629   1.653  0.00  0.00     0.003 A 
ENDROOT
TORSDOF 0
ENDMDL
