MODEL 1
REMARK minimizedAffinity 6.75545597
REMARK minimizedRMSD -1
REMARK  1 active torsions:
REMARK  status: ('A' for Active; 'I' for Inactive)
REMARK    1  A    between atoms: C1_2  and  C2_3 
ROOT
ATOM      1  C2  UNL d   1       2.558  -5.941   0.835  0.00  0.00    -0.081 A 
ATOM      2  C3  UNL d   1       1.273  -5.912   0.278  0.00  0.00     0.006 A 
ATOM      3  C4  UNL d   1       1.103  -5.918  -1.108  0.00  0.00     0.002 A 
ATOM      4  C5  UNL d   1       2.212  -5.962  -1.960  0.00  0.00    -0.080 A 
ATOM      5  C6  UNL d   1       2.042  -6.000  -3.450  0.00  0.00     0.076 C 
ATOM      6  C7  UNL d   1       3.495  -5.974  -1.404  0.00  0.00     0.002 A 
ATOM      7  C8  UNL d   1       3.667  -5.967  -0.018  0.00  0.00     0.006 A 
ENDROOT
BRANCH   1   8
ATOM      8  C1  UNL d   1       2.744  -6.000   2.330  0.00  0.00     0.054 C 
ATOM      9  C   UNL d   1       3.025  -4.620   2.907  0.00  0.00     0.018 C 
ENDBRANCH   1   8
TORSDOF 1
ENDMDL
