MODEL 1
REMARK minimizedAffinity 8.07215977
REMARK minimizedRMSD -1
REMARK  1 active torsions:
REMARK  status: ('A' for Active; 'I' for Inactive)
REMARK    1  A    between atoms: C1_2  and  C2_3 
ROOT
ATOM      1  C2  UNL d   1      -3.942   0.907  -3.493  0.00  0.00    -0.081 A 
ATOM      2  C3  UNL d   1      -3.742  -0.478  -3.448  0.00  0.00     0.006 A 
ATOM      3  C4  UNL d   1      -2.854  -1.037  -2.526  0.00  0.00     0.002 A 
ATOM      4  C5  UNL d   1      -2.156  -0.221  -1.629  0.00  0.00    -0.080 A 
ATOM      5  C6  UNL d   1      -1.222  -0.810  -0.614  0.00  0.00     0.076 C 
ATOM      6  C7  UNL d   1      -2.342   1.165  -1.685  0.00  0.00     0.002 A 
ATOM      7  C8  UNL d   1      -3.230   1.723  -2.607  0.00  0.00     0.006 A 
ENDROOT
BRANCH   1   8
ATOM      8  C1  UNL d   1      -4.947   1.506  -4.442  0.00  0.00     0.054 C 
ATOM      9  C   UNL d   1      -5.883   2.467  -3.723  0.00  0.00     0.018 C 
ENDBRANCH   1   8
TORSDOF 1
ENDMDL
