MODEL 1
REMARK minimizedAffinity 4.26102924
REMARK minimizedRMSD -1
REMARK  1 active torsions:
REMARK  status: ('A' for Active; 'I' for Inactive)
REMARK    1  A    between atoms: C1_2  and  C2_3 
ROOT
ATOM      1  C2  UNL d   1       2.146  -4.094   2.789  0.00  0.00    -0.081 A 
ATOM      2  C3  UNL d   1       2.781  -5.342   2.777  0.00  0.00     0.006 A 
ATOM      3  C4  UNL d   1       3.095  -5.965   1.567  0.00  0.00     0.002 A 
ATOM      4  C5  UNL d   1       2.788  -5.347   0.350  0.00  0.00    -0.080 A 
ATOM      5  C6  UNL d   1       3.147  -5.991  -0.956  0.00  0.00     0.076 C 
ATOM      6  C7  UNL d   1       2.138  -4.108   0.362  0.00  0.00     0.002 A 
ATOM      7  C8  UNL d   1       1.823  -3.485   1.572  0.00  0.00     0.006 A 
ENDROOT
BRANCH   1   8
ATOM      8  C1  UNL d   1       1.864  -3.390   4.092  0.00  0.00     0.054 C 
ATOM      9  C   UNL d   1       1.779  -1.883   3.900  0.00  0.00     0.018 C 
ENDBRANCH   1   8
TORSDOF 1
ENDMDL
