MODEL 1
REMARK minimizedAffinity 7.97084427
REMARK minimizedRMSD -1
REMARK  1 active torsions:
REMARK  status: ('A' for Active; 'I' for Inactive)
REMARK    1  A    between atoms: C1_2  and  C2_3 
ROOT
ATOM      1  C2  UNL d   1       2.555  -5.894  -3.522  0.00  0.00    -0.081 A 
ATOM      2  C3  UNL d   1       3.847  -5.975  -4.056  0.00  0.00     0.006 A 
ATOM      3  C4  UNL d   1       4.961  -5.997  -3.215  0.00  0.00     0.002 A 
ATOM      4  C5  UNL d   1       4.803  -5.946  -1.826  0.00  0.00    -0.080 A 
ATOM      5  C6  UNL d   1       5.989  -5.999  -0.910  0.00  0.00     0.076 C 
ATOM      6  C7  UNL d   1       3.513  -5.847  -1.292  0.00  0.00     0.002 A 
ATOM      7  C8  UNL d   1       2.399  -5.825  -2.133  0.00  0.00     0.006 A 
ENDROOT
BRANCH   1   8
ATOM      8  C1  UNL d   1       1.348  -5.935  -4.424  0.00  0.00     0.054 C 
ATOM      9  C   UNL d   1       1.741  -5.748  -5.883  0.00  0.00     0.018 C 
ENDBRANCH   1   8
TORSDOF 1
ENDMDL
