MODEL 1
REMARK minimizedAffinity 1.23983181
REMARK minimizedRMSD -1
REMARK  1 active torsions:
REMARK  status: ('A' for Active; 'I' for Inactive)
REMARK    1  A    between atoms: C1_2  and  C2_3 
ROOT
ATOM      1  C2  UNL d   1       1.795   0.925   1.409  0.00  0.00    -0.081 A 
ATOM      2  C3  UNL d   1       0.756   1.858   1.504  0.00  0.00     0.006 A 
ATOM      3  C4  UNL d   1       0.801   3.046   0.769  0.00  0.00     0.002 A 
ATOM      4  C5  UNL d   1       1.882   3.316  -0.077  0.00  0.00    -0.080 A 
ATOM      5  C6  UNL d   1       1.928   4.573  -0.894  0.00  0.00     0.076 C 
ATOM      6  C7  UNL d   1       2.928   2.391  -0.159  0.00  0.00     0.002 A 
ATOM      7  C8  UNL d   1       2.884   1.204   0.575  0.00  0.00     0.006 A 
ENDROOT
BRANCH   1   8
ATOM      8  C1  UNL d   1       1.719  -0.386   2.150  0.00  0.00     0.054 C 
ATOM      9  C   UNL d   1       0.530  -1.215   1.685  0.00  0.00     0.018 C 
ENDBRANCH   1   8
TORSDOF 1
ENDMDL
