MODEL 1
REMARK minimizedAffinity -2.13311696
REMARK minimizedRMSD -1
REMARK  1 active torsions:
REMARK  status: ('A' for Active; 'I' for Inactive)
REMARK    1  A    between atoms: C1_2  and  C2_3 
ROOT
ATOM      1  C2  UNL d   1       3.076  -5.941  -1.317  0.00  0.00    -0.081 A 
ATOM      2  C3  UNL d   1       2.029  -5.889  -2.246  0.00  0.00     0.006 A 
ATOM      3  C4  UNL d   1       2.298  -5.895  -3.617  0.00  0.00     0.002 A 
ATOM      4  C5  UNL d   1       3.616  -5.962  -4.081  0.00  0.00    -0.080 A 
ATOM      5  C6  UNL d   1       3.917  -6.000  -5.550  0.00  0.00     0.076 C 
ATOM      6  C7  UNL d   1       4.662  -5.996  -3.153  0.00  0.00     0.002 A 
ATOM      7  C8  UNL d   1       4.394  -5.989  -1.783  0.00  0.00     0.006 A 
ENDROOT
BRANCH   1   8
ATOM      8  C1  UNL d   1       2.786  -6.000   0.161  0.00  0.00     0.054 C 
ATOM      9  C   UNL d   1       1.289  -5.990   0.433  0.00  0.00     0.018 C 
ENDBRANCH   1   8
TORSDOF 1
ENDMDL
