MODEL 1
REMARK minimizedAffinity -3.39625645
REMARK minimizedRMSD -1
REMARK  1 active torsions:
REMARK  status: ('A' for Active; 'I' for Inactive)
REMARK    1  A    between atoms: C1_2  and  C2_3 
ROOT
ATOM      1  C2  UNL d   1       4.264  -3.181  -5.738  0.00  0.00    -0.081 A 
ATOM      2  C3  UNL d   1       3.410  -2.102  -6.000  0.00  0.00     0.006 A 
ATOM      3  C4  UNL d   1       3.850  -0.789  -5.815  0.00  0.00     0.002 A 
ATOM      4  C5  UNL d   1       5.152  -0.533  -5.373  0.00  0.00    -0.080 A 
ATOM      5  C6  UNL d   1       5.647   0.872  -5.199  0.00  0.00     0.076 C 
ATOM      6  C7  UNL d   1       6.000  -1.611  -5.095  0.00  0.00     0.002 A 
ATOM      7  C8  UNL d   1       5.560  -2.923  -5.279  0.00  0.00     0.006 A 
ENDROOT
BRANCH   1   8
ATOM      8  C1  UNL d   1       3.813  -4.595  -5.999  0.00  0.00     0.054 C 
ATOM      9  C   UNL d   1       2.296  -4.709  -5.961  0.00  0.00     0.018 C 
ENDBRANCH   1   8
TORSDOF 1
ENDMDL
