MODEL 1
REMARK minimizedAffinity 5.81690931
REMARK minimizedRMSD -1
REMARK  1 active torsions:
REMARK  status: ('A' for Active; 'I' for Inactive)
REMARK    1  A    between atoms: C1_2  and  C2_3 
ROOT
ATOM      1  C2  UNL d   1       0.942  -0.703  -0.365  0.00  0.00    -0.081 A 
ATOM      2  C3  UNL d   1      -0.044  -0.184   0.483  0.00  0.00     0.006 A 
ATOM      3  C4  UNL d   1      -0.057   1.175   0.805  0.00  0.00     0.002 A 
ATOM      4  C5  UNL d   1       0.909   2.039   0.278  0.00  0.00    -0.080 A 
ATOM      5  C6  UNL d   1       0.887   3.506   0.591  0.00  0.00     0.076 C 
ATOM      6  C7  UNL d   1       1.904   1.518  -0.555  0.00  0.00     0.002 A 
ATOM      7  C8  UNL d   1       1.919   0.159  -0.877  0.00  0.00     0.006 A 
ENDROOT
BRANCH   1   8
ATOM      8  C1  UNL d   1       0.922  -2.156  -0.765  0.00  0.00     0.054 C 
ATOM      9  C   UNL d   1       2.328  -2.681  -1.016  0.00  0.00     0.018 C 
ENDBRANCH   1   8
TORSDOF 1
ENDMDL
