MODEL 1
REMARK minimizedAffinity 8.60731316
REMARK minimizedRMSD -1
REMARK  1 active torsions:
REMARK  status: ('A' for Active; 'I' for Inactive)
REMARK    1  A    between atoms: C1_2  and  C2_3 
ROOT
ATOM      1  C2  UNL d   1       0.112   1.901   0.205  0.00  0.00    -0.081 A 
ATOM      2  C3  UNL d   1       0.380   0.911   1.158  0.00  0.00     0.006 A 
ATOM      3  C4  UNL d   1       0.685  -0.393   0.758  0.00  0.00     0.002 A 
ATOM      4  C5  UNL d   1       0.733  -0.725  -0.600  0.00  0.00    -0.080 A 
ATOM      5  C6  UNL d   1       1.088  -2.113  -1.043  0.00  0.00     0.076 C 
ATOM      6  C7  UNL d   1       0.448   0.260  -1.551  0.00  0.00     0.002 A 
ATOM      7  C8  UNL d   1       0.143   1.563  -1.152  0.00  0.00     0.006 A 
ENDROOT
BRANCH   1   8
ATOM      8  C1  UNL d   1      -0.153   3.323   0.631  0.00  0.00     0.054 C 
ATOM      9  C   UNL d   1       0.498   4.316  -0.321  0.00  0.00     0.018 C 
ENDBRANCH   1   8
TORSDOF 1
ENDMDL
