MODEL 1
REMARK minimizedAffinity 4.20188475
REMARK minimizedRMSD -1
REMARK  1 active torsions:
REMARK  status: ('A' for Active; 'I' for Inactive)
REMARK    1  A    between atoms: C1_2  and  C2_3 
ROOT
ATOM      1  C2  UNL d   1       0.040   0.402  -1.101  0.00  0.00    -0.081 A 
ATOM      2  C3  UNL d   1       0.151   1.506  -0.247  0.00  0.00     0.006 A 
ATOM      3  C4  UNL d   1       1.142   1.544   0.737  0.00  0.00     0.002 A 
ATOM      4  C5  UNL d   1       2.042   0.483   0.878  0.00  0.00    -0.080 A 
ATOM      5  C6  UNL d   1       3.130   0.525   1.911  0.00  0.00     0.076 C 
ATOM      6  C7  UNL d   1       1.921  -0.628   0.037  0.00  0.00     0.002 A 
ATOM      7  C8  UNL d   1       0.931  -0.667  -0.946  0.00  0.00     0.006 A 
ENDROOT
BRANCH   1   8
ATOM      8  C1  UNL d   1      -0.986   0.386  -2.205  0.00  0.00     0.054 C 
ATOM      9  C   UNL d   1      -0.397   0.892  -3.514  0.00  0.00     0.018 C 
ENDBRANCH   1   8
TORSDOF 1
ENDMDL
