MODEL 1
REMARK minimizedAffinity -3.71303892
REMARK minimizedRMSD -1
REMARK  0 active torsions:
REMARK  status: ('A' for Active; 'I' for Inactive)
ROOT
ATOM      1  C   UNL d   1       0.589  -0.088  -5.394  0.00  0.00     0.023 A 
ATOM      2  C1  UNL d   1      -0.477  -0.890  -4.986  0.00  0.00     0.003 A 
ATOM      3  C2  UNL d   1      -0.795  -0.994  -3.630  0.00  0.00     0.048 A 
ATOM      4  C3  UNL d   1      -0.043  -0.293  -2.688  0.00  0.00     0.023 A 
ATOM      5  C4  UNL d   1       1.024   0.511  -3.092  0.00  0.00     0.048 A 
ATOM      6  C5  UNL d   1       1.339   0.611  -4.449  0.00  0.00     0.003 A 
ATOM      7  I   UNL d   1      -0.514  -0.446  -0.670  0.00  0.00    -0.146 I 
ENDROOT
TORSDOF 0
ENDMDL
