MODEL 1
REMARK minimizedAffinity -2.20374823
REMARK minimizedRMSD -1
REMARK  0 active torsions:
REMARK  status: ('A' for Active; 'I' for Inactive)
ROOT
ATOM      1  C   UNL d   1      -0.998   0.568   2.300  0.00  0.00     0.023 A 
ATOM      2  C1  UNL d   1       0.344   0.316   2.016  0.00  0.00     0.003 A 
ATOM      3  C2  UNL d   1       0.747   0.067   0.703  0.00  0.00     0.048 A 
ATOM      4  C3  UNL d   1      -0.198   0.072  -0.323  0.00  0.00     0.023 A 
ATOM      5  C4  UNL d   1      -1.542   0.325  -0.044  0.00  0.00     0.048 A 
ATOM      6  C5  UNL d   1      -1.940   0.572   1.271  0.00  0.00     0.003 A 
ATOM      7  I   UNL d   1       0.399  -0.298  -2.279  0.00  0.00    -0.146 I 
ENDROOT
TORSDOF 0
ENDMDL
