MODEL 1
REMARK minimizedAffinity -2.24315882
REMARK minimizedRMSD -1
REMARK  0 active torsions:
REMARK  status: ('A' for Active; 'I' for Inactive)
ROOT
ATOM      1  C   UNL d   1      -2.690   0.456   0.512  0.00  0.00     0.023 A 
ATOM      2  C1  UNL d   1      -2.158   0.853   1.739  0.00  0.00     0.003 A 
ATOM      3  C2  UNL d   1      -0.810   0.627   2.023  0.00  0.00     0.048 A 
ATOM      4  C3  UNL d   1       0.001   0.003   1.076  0.00  0.00     0.023 A 
ATOM      5  C4  UNL d   1      -0.526  -0.396  -0.153  0.00  0.00     0.048 A 
ATOM      6  C5  UNL d   1      -1.875  -0.168  -0.433  0.00  0.00     0.003 A 
ATOM      7  I   UNL d   1       2.008  -0.335   1.498  0.00  0.00    -0.146 I 
ENDROOT
TORSDOF 0
ENDMDL
