MODEL 1
REMARK minimizedAffinity -1.00547242
REMARK minimizedRMSD -1
REMARK  0 active torsions:
REMARK  status: ('A' for Active; 'I' for Inactive)
ROOT
ATOM      1  C   UNL d   1      -1.898   0.730   2.254  0.00  0.00     0.023 A 
ATOM      2  C1  UNL d   1      -0.602   0.312   2.555  0.00  0.00     0.003 A 
ATOM      3  C2  UNL d   1       0.214  -0.215   1.552  0.00  0.00     0.048 A 
ATOM      4  C3  UNL d   1      -0.272  -0.320   0.249  0.00  0.00     0.023 A 
ATOM      5  C4  UNL d   1      -1.568   0.098  -0.057  0.00  0.00     0.048 A 
ATOM      6  C5  UNL d   1      -2.381   0.623   0.950  0.00  0.00     0.003 A 
ATOM      7  I   UNL d   1       0.940  -1.103  -1.246  0.00  0.00    -0.146 I 
ENDROOT
TORSDOF 0
ENDMDL
