MODEL 1
REMARK minimizedAffinity -3.32843447
REMARK minimizedRMSD -1
REMARK  0 active torsions:
REMARK  status: ('A' for Active; 'I' for Inactive)
ROOT
ATOM      1  C   UNL d   1       1.437  -1.174  -1.159  0.00  0.00     0.023 A 
ATOM      2  C1  UNL d   1       2.075  -1.002   0.070  0.00  0.00     0.003 A 
ATOM      3  C2  UNL d   1       1.365  -0.502   1.163  0.00  0.00     0.048 A 
ATOM      4  C3  UNL d   1       0.016  -0.178   1.021  0.00  0.00     0.023 A 
ATOM      5  C4  UNL d   1      -0.627  -0.349  -0.206  0.00  0.00     0.048 A 
ATOM      6  C5  UNL d   1       0.088  -0.848  -1.297  0.00  0.00     0.003 A 
ATOM      7  I   UNL d   1      -1.044   0.565   2.647  0.00  0.00    -0.146 I 
ENDROOT
TORSDOF 0
ENDMDL
