MODEL 1
REMARK minimizedAffinity -2.28812432
REMARK minimizedRMSD -1
REMARK  0 active torsions:
REMARK  status: ('A' for Active; 'I' for Inactive)
ROOT
ATOM      1  C   UNL d   1      -0.007  -0.964  -0.040  0.00  0.00     0.023 A 
ATOM      2  C1  UNL d   1       0.375   0.377  -0.034  0.00  0.00     0.003 A 
ATOM      3  C2  UNL d   1       0.826   0.981  -1.210  0.00  0.00     0.048 A 
ATOM      4  C3  UNL d   1       0.890   0.238  -2.388  0.00  0.00     0.023 A 
ATOM      5  C4  UNL d   1       0.508  -1.104  -2.399  0.00  0.00     0.048 A 
ATOM      6  C5  UNL d   1       0.060  -1.704  -1.221  0.00  0.00     0.003 A 
ATOM      7  I   UNL d   1       1.560   1.136  -4.139  0.00  0.00    -0.146 I 
ENDROOT
TORSDOF 0
ENDMDL
