MODEL 1
REMARK minimizedAffinity -1.14507961
REMARK minimizedRMSD -1
REMARK  0 active torsions:
REMARK  status: ('A' for Active; 'I' for Inactive)
ROOT
ATOM      1  C   UNL d   1       1.512  -0.741   3.271  0.00  0.00     0.023 A 
ATOM      2  C1  UNL d   1       0.316  -0.278   3.821  0.00  0.00     0.003 A 
ATOM      3  C2  UNL d   1      -0.716   0.154   2.986  0.00  0.00     0.048 A 
ATOM      4  C3  UNL d   1      -0.547   0.119   1.602  0.00  0.00     0.023 A 
ATOM      5  C4  UNL d   1       0.647  -0.344   1.048  0.00  0.00     0.048 A 
ATOM      6  C5  UNL d   1       1.677  -0.774   1.886  0.00  0.00     0.003 A 
ATOM      7  I   UNL d   1      -2.082   0.762   0.357  0.00  0.00    -0.146 I 
ENDROOT
TORSDOF 0
ENDMDL
