MODEL 1
REMARK minimizedAffinity -0.90023464
REMARK minimizedRMSD -1
REMARK  0 active torsions:
REMARK  status: ('A' for Active; 'I' for Inactive)
ROOT
ATOM      1  C   UNL d   1      -0.921  -0.072   1.750  0.00  0.00     0.023 A 
ATOM      2  C1  UNL d   1       0.331  -0.575   1.394  0.00  0.00     0.003 A 
ATOM      3  C2  UNL d   1       0.723  -0.591   0.054  0.00  0.00     0.048 A 
ATOM      4  C3  UNL d   1      -0.141  -0.101  -0.925  0.00  0.00     0.023 A 
ATOM      5  C4  UNL d   1      -1.394   0.404  -0.573  0.00  0.00     0.048 A 
ATOM      6  C5  UNL d   1      -1.782   0.417   0.768  0.00  0.00     0.003 A 
ATOM      7  I   UNL d   1       0.440  -0.124  -2.920  0.00  0.00    -0.146 I 
ENDROOT
TORSDOF 0
ENDMDL
