MODEL 1
REMARK minimizedAffinity 12.0790205
REMARK minimizedRMSD -1
REMARK  0 active torsions:
REMARK  status: ('A' for Active; 'I' for Inactive)
ROOT
ATOM      1  N1  IND d   1       2.949  -0.024  -1.768  0.00  0.00    -0.196 N 
ATOM      2  C2  IND d   1       2.508  -0.419  -0.536  0.00  0.00     0.054 A 
ATOM      3  C3  IND d   1       3.253   0.154   0.436  0.00  0.00    -0.031 A 
ATOM      4  C4  IND d   1       5.179   1.850   0.236  0.00  0.00     0.051 A 
ATOM      5  C5  IND d   1       5.964   2.484  -0.686  0.00  0.00    -0.031 A 
ATOM      6  C6  IND d   1       5.779   2.314  -2.042  0.00  0.00     0.015 A 
ATOM      7  C7  IND d   1       4.789   1.508  -2.530  0.00  0.00    -0.016 A 
ATOM      8  C8  IND d   1       3.995   0.856  -1.598  0.00  0.00    -0.047 A 
ATOM      9  C9  IND d   1       4.206   0.992  -0.219  0.00  0.00    -0.096 A 
ATOM     10  HN1 IND d   1       2.627  -0.282  -2.523  0.00  0.00     0.298 HD
ENDROOT
TORSDOF 0
ENDMDL
