MODEL 1
REMARK minimizedAffinity 13.3314905
REMARK minimizedRMSD -1
REMARK  0 active torsions:
REMARK  status: ('A' for Active; 'I' for Inactive)
ROOT
ATOM      1  N1  IND d   1       0.654   2.122   4.604  0.00  0.00    -0.196 N 
ATOM      2  C2  IND d   1       1.869   2.428   5.151  0.00  0.00     0.054 A 
ATOM      3  C3  IND d   1       2.494   3.370   4.410  0.00  0.00    -0.031 A 
ATOM      4  C4  IND d   1       1.666   4.623   2.319  0.00  0.00     0.051 A 
ATOM      5  C5  IND d   1       0.633   4.661   1.425  0.00  0.00    -0.031 A 
ATOM      6  C6  IND d   1      -0.469   3.840   1.548  0.00  0.00     0.015 A 
ATOM      7  C7  IND d   1      -0.585   2.954   2.582  0.00  0.00    -0.016 A 
ATOM      8  C8  IND d   1       0.465   2.908   3.488  0.00  0.00    -0.047 A 
ATOM      9  C9  IND d   1       1.605   3.708   3.344  0.00  0.00    -0.096 A 
ATOM     10  HN1 IND d   1       0.101   1.537   4.906  0.00  0.00     0.298 HD
ENDROOT
TORSDOF 0
ENDMDL
