MODEL 1
REMARK minimizedAffinity 16.2739563
REMARK minimizedRMSD -1
REMARK  0 active torsions:
REMARK  status: ('A' for Active; 'I' for Inactive)
ROOT
ATOM      1  N1  IND d   1       4.777   2.323  -2.511  0.00  0.00    -0.196 N 
ATOM      2  C2  IND d   1       5.877   3.061  -2.174  0.00  0.00     0.054 A 
ATOM      3  C3  IND d   1       5.998   3.137  -0.830  0.00  0.00    -0.031 A 
ATOM      4  C4  IND d   1       4.565   2.042   1.006  0.00  0.00     0.051 A 
ATOM      5  C5  IND d   1       3.429   1.304   1.190  0.00  0.00    -0.031 A 
ATOM      6  C6  IND d   1       2.671   0.857   0.127  0.00  0.00     0.015 A 
ATOM      7  C7  IND d   1       3.028   1.122  -1.164  0.00  0.00    -0.016 A 
ATOM      8  C8  IND d   1       4.177   1.877  -1.354  0.00  0.00    -0.047 A 
ATOM      9  C9  IND d   1       4.927   2.370  -0.279  0.00  0.00    -0.096 A 
ATOM     10  HN1 IND d   1       4.505   2.164  -3.312  0.00  0.00     0.298 HD
ENDROOT
TORSDOF 0
ENDMDL
