MODEL 1
REMARK minimizedAffinity 21.5799713
REMARK minimizedRMSD -1
REMARK  0 active torsions:
REMARK  status: ('A' for Active; 'I' for Inactive)
ROOT
ATOM      1  N1  IND d   1       4.987  -0.553   5.370  0.00  0.00    -0.196 N 
ATOM      2  C2  IND d   1       5.998  -1.466   5.255  0.00  0.00     0.054 A 
ATOM      3  C3  IND d   1       6.000  -2.012   4.018  0.00  0.00    -0.031 A 
ATOM      4  C4  IND d   1       4.499  -1.483   1.994  0.00  0.00     0.051 A 
ATOM      5  C5  IND d   1       3.408  -0.747   1.626  0.00  0.00    -0.031 A 
ATOM      6  C6  IND d   1       2.777   0.111   2.503  0.00  0.00     0.015 A 
ATOM      7  C7  IND d   1       3.222   0.274   3.784  0.00  0.00    -0.016 A 
ATOM      8  C8  IND d   1       4.325  -0.478   4.165  0.00  0.00    -0.047 A 
ATOM      9  C9  IND d   1       4.944  -1.381   3.291  0.00  0.00    -0.096 A 
ATOM     10  HN1 IND d   1       4.796  -0.102   6.077  0.00  0.00     0.298 HD
ENDROOT
TORSDOF 0
ENDMDL
