MODEL 1
REMARK minimizedAffinity 24.1643066
REMARK minimizedRMSD -1
REMARK  0 active torsions:
REMARK  status: ('A' for Active; 'I' for Inactive)
ROOT
ATOM      1  N1  IND d   1       1.847   0.744  -0.740  0.00  0.00    -0.196 N 
ATOM      2  C2  IND d   1       2.950   0.255  -0.098  0.00  0.00     0.054 A 
ATOM      3  C3  IND d   1       3.185   0.956   1.034  0.00  0.00    -0.031 A 
ATOM      4  C4  IND d   1       1.829   2.880   2.078  0.00  0.00     0.051 A 
ATOM      5  C5  IND d   1       0.760   3.698   1.839  0.00  0.00    -0.031 A 
ATOM      6  C6  IND d   1      -0.018   3.569   0.706  0.00  0.00     0.015 A 
ATOM      7  C7  IND d   1       0.238   2.605  -0.228  0.00  0.00    -0.016 A 
ATOM      8  C8  IND d   1       1.326   1.777   0.008  0.00  0.00    -0.047 A 
ATOM      9  C9  IND d   1       2.145   1.930   1.134  0.00  0.00    -0.096 A 
ATOM     10  HN1 IND d   1       1.531   0.455  -1.485  0.00  0.00     0.298 HD
ENDROOT
TORSDOF 0
ENDMDL
