MODEL 1
REMARK minimizedAffinity 6.2966671
REMARK minimizedRMSD -1
REMARK  0 active torsions:
REMARK  status: ('A' for Active; 'I' for Inactive)
ROOT
ATOM      1  N1  IND d   1       2.435   0.206  -0.784  0.00  0.00    -0.196 N 
ATOM      2  C2  IND d   1       2.267   0.285   0.570  0.00  0.00     0.054 A 
ATOM      3  C3  IND d   1       3.322   0.910   1.139  0.00  0.00    -0.031 A 
ATOM      4  C4  IND d   1       5.385   1.977   0.028  0.00  0.00     0.051 A 
ATOM      5  C5  IND d   1       6.000   2.126  -1.183  0.00  0.00    -0.031 A 
ATOM      6  C6  IND d   1       5.445   1.636  -2.348  0.00  0.00     0.015 A 
ATOM      7  C7  IND d   1       4.244   0.985  -2.345  0.00  0.00    -0.016 A 
ATOM      8  C8  IND d   1       3.620   0.825  -1.116  0.00  0.00    -0.047 A 
ATOM      9  C9  IND d   1       4.199   1.283   0.075  0.00  0.00    -0.096 A 
ATOM     10  HN1 IND d   1       1.891  -0.167  -1.336  0.00  0.00     0.298 HD
ENDROOT
TORSDOF 0
ENDMDL
