MODEL 1
REMARK minimizedAffinity 14.7557049
REMARK minimizedRMSD -1
REMARK  0 active torsions:
REMARK  status: ('A' for Active; 'I' for Inactive)
ROOT
ATOM      1  N1  IND d   1       0.093   3.602   0.376  0.00  0.00    -0.196 N 
ATOM      2  C2  IND d   1       0.427   4.437   1.405  0.00  0.00     0.054 A 
ATOM      3  C3  IND d   1       1.541   3.993   2.028  0.00  0.00    -0.031 A 
ATOM      4  C4  IND d   1       3.037   1.976   1.464  0.00  0.00     0.051 A 
ATOM      5  C5  IND d   1       3.118   0.894   0.632  0.00  0.00    -0.031 A 
ATOM      6  C6  IND d   1       2.177   0.656  -0.349  0.00  0.00     0.015 A 
ATOM      7  C7  IND d   1       1.122   1.502  -0.543  0.00  0.00    -0.016 A 
ATOM      8  C8  IND d   1       1.032   2.597   0.304  0.00  0.00    -0.047 A 
ATOM      9  C9  IND d   1       1.961   2.820   1.329  0.00  0.00    -0.096 A 
ATOM     10  HN1 IND d   1      -0.590   3.689  -0.140  0.00  0.00     0.298 HD
ENDROOT
TORSDOF 0
ENDMDL
