MODEL 1
REMARK minimizedAffinity 8.03738117
REMARK minimizedRMSD -1
REMARK  0 active torsions:
REMARK  status: ('A' for Active; 'I' for Inactive)
ROOT
ATOM      1  N1  IND d   1       4.456   1.528  -2.639  0.00  0.00    -0.196 N 
ATOM      2  C2  IND d   1       5.589   2.292  -2.684  0.00  0.00     0.054 A 
ATOM      3  C3  IND d   1       5.978   2.631  -1.435  0.00  0.00    -0.031 A 
ATOM      4  C4  IND d   1       4.963   1.958   0.834  0.00  0.00     0.051 A 
ATOM      5  C5  IND d   1       3.901   1.299   1.385  0.00  0.00    -0.031 A 
ATOM      6  C6  IND d   1       2.951   0.667   0.608  0.00  0.00     0.015 A 
ATOM      7  C7  IND d   1       3.036   0.662  -0.756  0.00  0.00    -0.016 A 
ATOM      8  C8  IND d   1       4.109   1.336  -1.319  0.00  0.00    -0.047 A 
ATOM      9  C9  IND d   1       5.053   2.015  -0.537  0.00  0.00    -0.096 A 
ATOM     10  HN1 IND d   1       4.032   1.220  -3.320  0.00  0.00     0.298 HD
ENDROOT
TORSDOF 0
ENDMDL
