MODEL 1
REMARK minimizedAffinity -2.35068822
REMARK minimizedRMSD -1
REMARK  0 active torsions:
REMARK  status: ('A' for Active; 'I' for Inactive)
ROOT
ATOM      1  C   UNL d   1       2.509   2.510   3.786  0.00  0.00    -0.002 A 
ATOM      2  C1  UNL d   1       1.673   1.573   4.377  0.00  0.00     0.010 A 
ATOM      3  C2  UNL d   1       0.831   0.780   3.595  0.00  0.00     0.041 A 
ATOM      4  C3  UNL d   1       0.844   0.945   2.196  0.00  0.00    -0.075 A 
ATOM      5  S   UNL d   1      -0.101   0.085   1.038  0.00  0.00     0.015 SA
ATOM      6  C4  UNL d   1       0.583   0.941  -0.267  0.00  0.00     0.022 A 
ATOM      7  C5  UNL d   1       1.511   1.864   0.152  0.00  0.00     0.026 A 
ATOM      8  C6  UNL d   1       1.678   1.882   1.578  0.00  0.00    -0.082 A 
ATOM      9  C7  UNL d   1       2.519   2.671   2.398  0.00  0.00     0.045 A 
ENDROOT
TORSDOF 0
ENDMDL
