MODEL 1
REMARK minimizedAffinity -1.06205893
REMARK minimizedRMSD -1
REMARK  0 active torsions:
REMARK  status: ('A' for Active; 'I' for Inactive)
ROOT
ATOM      1  C   UNL d   1       2.185  -0.093  -2.338  0.00  0.00    -0.002 A 
ATOM      2  C1  UNL d   1       1.019  -0.802  -2.592  0.00  0.00     0.010 A 
ATOM      3  C2  UNL d   1       0.016  -0.889  -1.625  0.00  0.00     0.041 A 
ATOM      4  C3  UNL d   1       0.204  -0.244  -0.387  0.00  0.00    -0.075 A 
ATOM      5  S   UNL d   1      -0.888  -0.213   0.947  0.00  0.00     0.015 SA
ATOM      6  C4  UNL d   1       0.166   0.742   1.885  0.00  0.00     0.022 A 
ATOM      7  C5  UNL d   1       1.328   1.040   1.213  0.00  0.00     0.026 A 
ATOM      8  C6  UNL d   1       1.369   0.477  -0.108  0.00  0.00    -0.082 A 
ATOM      9  C7  UNL d   1       2.368   0.546  -1.108  0.00  0.00     0.045 A 
ENDROOT
TORSDOF 0
ENDMDL
