MODEL 1
REMARK minimizedAffinity 1.22718394
REMARK minimizedRMSD -1
REMARK  0 active torsions:
REMARK  status: ('A' for Active; 'I' for Inactive)
ROOT
ATOM      1  C   UNL d   1      -4.014  -0.295   0.606  0.00  0.00    -0.002 A 
ATOM      2  C1  UNL d   1      -2.659  -0.583   0.519  0.00  0.00     0.010 A 
ATOM      3  C2  UNL d   1      -1.752  -0.006   1.409  0.00  0.00     0.041 A 
ATOM      4  C3  UNL d   1      -2.233   0.873   2.399  0.00  0.00    -0.075 A 
ATOM      5  S   UNL d   1      -1.307   1.696   3.598  0.00  0.00     0.015 SA
ATOM      6  C4  UNL d   1      -2.688   2.449   4.255  0.00  0.00     0.022 A 
ATOM      7  C5  UNL d   1      -3.836   2.092   3.588  0.00  0.00     0.026 A 
ATOM      8  C6  UNL d   1      -3.593   1.178   2.508  0.00  0.00    -0.082 A 
ATOM      9  C7  UNL d   1      -4.488   0.577   1.590  0.00  0.00     0.045 A 
ENDROOT
TORSDOF 0
ENDMDL
