MODEL 1
REMARK minimizedAffinity -2.39950728
REMARK minimizedRMSD -1
REMARK  0 active torsions:
REMARK  status: ('A' for Active; 'I' for Inactive)
ROOT
ATOM      1  C   UNL d   1       1.276  -0.369  -3.068  0.00  0.00    -0.002 A 
ATOM      2  C1  UNL d   1       2.402   0.192  -2.481  0.00  0.00     0.010 A 
ATOM      3  C2  UNL d   1       2.364   0.645  -1.161  0.00  0.00     0.041 A 
ATOM      4  C3  UNL d   1       1.164   0.521  -0.433  0.00  0.00    -0.075 A 
ATOM      5  S   UNL d   1       0.883   1.005   1.198  0.00  0.00     0.015 SA
ATOM      6  C4  UNL d   1      -0.737   0.478   1.154  0.00  0.00     0.022 A 
ATOM      7  C5  UNL d   1      -1.072  -0.057  -0.067  0.00  0.00     0.026 A 
ATOM      8  C6  UNL d   1       0.018  -0.041  -1.002  0.00  0.00    -0.082 A 
ATOM      9  C7  UNL d   1       0.088  -0.490  -2.343  0.00  0.00     0.045 A 
ENDROOT
TORSDOF 0
ENDMDL
