MODEL 1
REMARK minimizedAffinity 0.147956714
REMARK minimizedRMSD -1
REMARK  0 active torsions:
REMARK  status: ('A' for Active; 'I' for Inactive)
ROOT
ATOM      1  C   UNL d   1       2.153   2.564   2.287  0.00  0.00    -0.002 A 
ATOM      2  C1  UNL d   1       1.725   1.855   3.401  0.00  0.00     0.010 A 
ATOM      3  C2  UNL d   1       0.829   0.793   3.265  0.00  0.00     0.041 A 
ATOM      4  C3  UNL d   1       0.366   0.451   1.979  0.00  0.00    -0.075 A 
ATOM      5  S   UNL d   1      -0.733  -0.813   1.572  0.00  0.00     0.015 SA
ATOM      6  C4  UNL d   1      -0.661  -0.442  -0.090  0.00  0.00     0.022 A 
ATOM      7  C5  UNL d   1       0.177   0.618  -0.345  0.00  0.00     0.026 A 
ATOM      8  C6  UNL d   1       0.783   1.149   0.843  0.00  0.00    -0.082 A 
ATOM      9  C7  UNL d   1       1.691   2.222   1.013  0.00  0.00     0.045 A 
ENDROOT
TORSDOF 0
ENDMDL
