MODEL 1
REMARK minimizedAffinity -0.633353531
REMARK minimizedRMSD -1
REMARK  0 active torsions:
REMARK  status: ('A' for Active; 'I' for Inactive)
ROOT
ATOM      1  C   UNL d   1       1.847  -0.092  -2.542  0.00  0.00    -0.002 A 
ATOM      2  C1  UNL d   1       2.620   0.630  -1.643  0.00  0.00     0.010 A 
ATOM      3  C2  UNL d   1       2.134   0.930  -0.369  0.00  0.00     0.041 A 
ATOM      4  C3  UNL d   1       0.846   0.487  -0.009  0.00  0.00    -0.075 A 
ATOM      5  S   UNL d   1       0.044   0.737   1.496  0.00  0.00     0.015 SA
ATOM      6  C4  UNL d   1      -1.343  -0.110   0.983  0.00  0.00     0.022 A 
ATOM      7  C5  UNL d   1      -1.215  -0.579  -0.303  0.00  0.00     0.026 A 
ATOM      8  C6  UNL d   1       0.049  -0.243  -0.896  0.00  0.00    -0.082 A 
ATOM      9  C7  UNL d   1       0.570  -0.531  -2.181  0.00  0.00     0.045 A 
ENDROOT
TORSDOF 0
ENDMDL
