MODEL 1
REMARK minimizedAffinity 0.769136548
REMARK minimizedRMSD -1
REMARK  0 active torsions:
REMARK  status: ('A' for Active; 'I' for Inactive)
ROOT
ATOM      1  C   UNL d   1      -4.589   0.448   1.733  0.00  0.00    -0.002 A 
ATOM      2  C1  UNL d   1      -4.544  -0.939   1.731  0.00  0.00     0.010 A 
ATOM      3  C2  UNL d   1      -3.369  -1.611   1.390  0.00  0.00     0.041 A 
ATOM      4  C3  UNL d   1      -2.228  -0.858   1.049  0.00  0.00    -0.075 A 
ATOM      5  S   UNL d   1      -0.679  -1.466   0.598  0.00  0.00     0.015 SA
ATOM      6  C4  UNL d   1      -0.040   0.101   0.397  0.00  0.00     0.022 A 
ATOM      7  C5  UNL d   1      -0.972   1.076   0.663  0.00  0.00     0.026 A 
ATOM      8  C6  UNL d   1      -2.248   0.539   1.044  0.00  0.00    -0.082 A 
ATOM      9  C7  UNL d   1      -3.455   1.191   1.393  0.00  0.00     0.045 A 
ENDROOT
TORSDOF 0
ENDMDL
