MODEL 1
REMARK minimizedAffinity 2.32393336
REMARK minimizedRMSD -1
REMARK  0 active torsions:
REMARK  status: ('A' for Active; 'I' for Inactive)
ROOT
ATOM      1  C   UNL d   1      -5.956   4.452  -5.997  0.00  0.00    -0.002 A 
ATOM      2  C1  UNL d   1      -5.447   5.743  -5.997  0.00  0.00     0.010 A 
ATOM      3  C2  UNL d   1      -4.093   5.972  -5.744  0.00  0.00     0.041 A 
ATOM      4  C3  UNL d   1      -3.251   4.871  -5.491  0.00  0.00    -0.075 A 
ATOM      5  S   UNL d   1      -1.560   4.911  -5.157  0.00  0.00     0.015 SA
ATOM      6  C4  UNL d   1      -1.474   3.215  -5.007  0.00  0.00     0.022 A 
ATOM      7  C5  UNL d   1      -2.696   2.618  -5.204  0.00  0.00     0.026 A 
ATOM      8  C6  UNL d   1      -3.740   3.562  -5.486  0.00  0.00    -0.082 A 
ATOM      9  C7  UNL d   1      -5.118   3.363  -5.745  0.00  0.00     0.045 A 
ENDROOT
TORSDOF 0
ENDMDL
