MODEL 1
REMARK minimizedAffinity -5.51012945
REMARK minimizedRMSD -1
REMARK  0 active torsions:
REMARK  status: ('A' for Active; 'I' for Inactive)
ROOT
ATOM      1  C   UNL d   1      -3.929   1.670   3.361  0.00  0.00    -0.002 A 
ATOM      2  C1  UNL d   1      -4.135   0.829   2.277  0.00  0.00     0.010 A 
ATOM      3  C2  UNL d   1      -3.056   0.208   1.645  0.00  0.00     0.041 A 
ATOM      4  C3  UNL d   1      -1.754   0.447   2.126  0.00  0.00    -0.075 A 
ATOM      5  S   UNL d   1      -0.282  -0.205   1.511  0.00  0.00     0.015 SA
ATOM      6  C4  UNL d   1       0.656   0.617   2.673  0.00  0.00     0.022 A 
ATOM      7  C5  UNL d   1      -0.120   1.375   3.518  0.00  0.00     0.026 A 
ATOM      8  C6  UNL d   1      -1.521   1.289   3.217  0.00  0.00    -0.082 A 
ATOM      9  C7  UNL d   1      -2.636   1.905   3.836  0.00  0.00     0.045 A 
ENDROOT
TORSDOF 0
ENDMDL
