MODEL 1
REMARK minimizedAffinity -4.13175917
REMARK minimizedRMSD -1
REMARK  0 active torsions:
REMARK  status: ('A' for Active; 'I' for Inactive)
ROOT
ATOM      1  C   UNL d   1       2.244   2.838   2.488  0.00  0.00    -0.002 A 
ATOM      2  C1  UNL d   1       1.516   2.114   3.421  0.00  0.00     0.010 A 
ATOM      3  C2  UNL d   1       0.610   1.135   3.010  0.00  0.00     0.041 A 
ATOM      4  C3  UNL d   1       0.447   0.893   1.631  0.00  0.00    -0.075 A 
ATOM      5  S   UNL d   1      -0.605  -0.258   0.895  0.00  0.00     0.015 SA
ATOM      6  C4  UNL d   1      -0.113   0.185  -0.675  0.00  0.00     0.022 A 
ATOM      7  C5  UNL d   1       0.831   1.185  -0.657  0.00  0.00     0.026 A 
ATOM      8  C6  UNL d   1       1.169   1.609   0.673  0.00  0.00    -0.082 A 
ATOM      9  C7  UNL d   1       2.080   2.595   1.121  0.00  0.00     0.045 A 
ENDROOT
TORSDOF 0
ENDMDL
