MODEL 1
REMARK minimizedAffinity -1.3126446
REMARK minimizedRMSD -1
REMARK  0 active torsions:
REMARK  status: ('A' for Active; 'I' for Inactive)
ROOT
ATOM      1  C   UNL d   1       1.246  -1.877  -2.361  0.00  0.00    -0.002 A 
ATOM      2  C1  UNL d   1       0.189  -2.083  -1.485  0.00  0.00     0.010 A 
ATOM      3  C2  UNL d   1      -0.115  -1.136  -0.505  0.00  0.00     0.041 A 
ATOM      4  C3  UNL d   1       0.666   0.033  -0.421  0.00  0.00    -0.075 A 
ATOM      5  S   UNL d   1       0.477   1.331   0.698  0.00  0.00     0.015 SA
ATOM      6  C4  UNL d   1       1.794   2.190   0.039  0.00  0.00     0.022 A 
ATOM      7  C5  UNL d   1       2.375   1.517  -1.010  0.00  0.00     0.026 A 
ATOM      8  C6  UNL d   1       1.734   0.264  -1.293  0.00  0.00    -0.082 A 
ATOM      9  C7  UNL d   1       2.018  -0.716  -2.275  0.00  0.00     0.045 A 
ENDROOT
TORSDOF 0
ENDMDL
