MODEL 1
REMARK minimizedAffinity -4.41775179
REMARK minimizedRMSD -1
REMARK  3 active torsions:
REMARK  status: ('A' for Active; 'I' for Inactive)
REMARK    1  A    between atoms: C3'_2  and  C2'_3 
REMARK    2  A    between atoms: C2'_3  and  C1'_4 
REMARK    3  A    between atoms: C1'_4  and  C1_5 
ROOT
ATOM      1  C1  N4B d   1       3.327   0.792  -1.167  0.00  0.00    -0.075 A 
ATOM      2  C2  N4B d   1       2.679  -0.140  -0.326  0.00  0.00     0.002 A 
ATOM      3  C3  N4B d   1       2.341  -1.380  -0.810  0.00  0.00     0.002 A 
ATOM      4  C4  N4B d   1       2.621  -1.703  -2.129  0.00  0.00    -0.004 A 
ATOM      5  C5  N4B d   1       3.269  -0.806  -2.927  0.00  0.00     0.002 A 
ATOM      6  C6  N4B d   1       3.619   0.443  -2.453  0.00  0.00     0.002 A 
ENDROOT
BRANCH   1   7
ATOM      7  C1' N4B d   1       3.640   2.190  -0.709  0.00  0.00     0.057 C 
BRANCH   7   8
ATOM      8  C2' N4B d   1       5.143   2.427  -0.815  0.00  0.00     0.009 C 
BRANCH   8   9
ATOM      9  C3' N4B d   1       5.477   3.902  -0.967  0.00  0.00     0.004 C 
ATOM     10  C4' N4B d   1       5.997   4.513   0.300  0.00  0.00     0.003 C 
ENDBRANCH   8   9
ENDBRANCH   7   8
ENDBRANCH   1   7
TORSDOF 3
ENDMDL
