MODEL 1
REMARK minimizedAffinity -0.462365717
REMARK minimizedRMSD -1
REMARK  3 active torsions:
REMARK  status: ('A' for Active; 'I' for Inactive)
REMARK    1  A    between atoms: C3'_2  and  C2'_3 
REMARK    2  A    between atoms: C2'_3  and  C1'_4 
REMARK    3  A    between atoms: C1'_4  and  C1_5 
ROOT
ATOM      1  C1  N4B d   1      -4.651   2.047  -3.817  0.00  0.00    -0.075 A 
ATOM      2  C2  N4B d   1      -5.616   1.956  -2.789  0.00  0.00     0.002 A 
ATOM      3  C3  N4B d   1      -5.645   2.896  -1.789  0.00  0.00     0.002 A 
ATOM      4  C4  N4B d   1      -4.711   3.922  -1.784  0.00  0.00    -0.004 A 
ATOM      5  C5  N4B d   1      -3.799   4.018  -2.794  0.00  0.00     0.002 A 
ATOM      6  C6  N4B d   1      -3.761   3.082  -3.808  0.00  0.00     0.002 A 
ENDROOT
BRANCH   1   7
ATOM      7  C1' N4B d   1      -4.525   0.995  -4.884  0.00  0.00     0.057 C 
BRANCH   7   8
ATOM      8  C2' N4B d   1      -3.075   0.526  -4.957  0.00  0.00     0.009 C 
BRANCH   8   9
ATOM      9  C3' N4B d   1      -2.416   0.503  -3.589  0.00  0.00     0.004 C 
ATOM     10  C4' N4B d   1      -2.970  -0.566  -2.695  0.00  0.00     0.003 C 
ENDBRANCH   8   9
ENDBRANCH   7   8
ENDBRANCH   1   7
TORSDOF 3
ENDMDL
