MODEL 1
REMARK minimizedAffinity 7.63461876
REMARK minimizedRMSD -1
REMARK  3 active torsions:
REMARK  status: ('A' for Active; 'I' for Inactive)
REMARK    1  A    between atoms: C3'_2  and  C2'_3 
REMARK    2  A    between atoms: C2'_3  and  C1'_4 
REMARK    3  A    between atoms: C1'_4  and  C1_5 
ROOT
ATOM      1  C1  N4B d   1      -4.320   1.698  -3.630  0.00  0.00    -0.075 A 
ATOM      2  C2  N4B d   1      -3.059   1.520  -3.018  0.00  0.00     0.002 A 
ATOM      3  C3  N4B d   1      -2.173   0.603  -3.526  0.00  0.00     0.002 A 
ATOM      4  C4  N4B d   1      -2.530  -0.158  -4.630  0.00  0.00    -0.004 A 
ATOM      5  C5  N4B d   1      -3.739   0.038  -5.230  0.00  0.00     0.002 A 
ATOM      6  C6  N4B d   1      -4.639   0.959  -4.732  0.00  0.00     0.002 A 
ENDROOT
BRANCH   1   7
ATOM      7  C1' N4B d   1      -5.356   2.627  -3.058  0.00  0.00     0.057 C 
BRANCH   7   8
ATOM      8  C2' N4B d   1      -5.780   2.120  -1.683  0.00  0.00     0.009 C 
BRANCH   8   9
ATOM      9  C3' N4B d   1      -5.834   0.603  -1.629  0.00  0.00     0.004 C 
ATOM     10  C4' N4B d   1      -5.967   0.076  -0.232  0.00  0.00     0.003 C 
ENDBRANCH   8   9
ENDBRANCH   7   8
ENDBRANCH   1   7
TORSDOF 3
ENDMDL
