MODEL 1
REMARK minimizedAffinity 5.46794033
REMARK minimizedRMSD -1
REMARK  3 active torsions:
REMARK  status: ('A' for Active; 'I' for Inactive)
REMARK    1  A    between atoms: C3'_2  and  C2'_3 
REMARK    2  A    between atoms: C2'_3  and  C1'_4 
REMARK    3  A    between atoms: C1'_4  and  C1_5 
ROOT
ATOM      1  C1  N4B d   1       2.673   1.763   3.007  0.00  0.00    -0.075 A 
ATOM      2  C2  N4B d   1       3.759   2.534   2.537  0.00  0.00     0.002 A 
ATOM      3  C3  N4B d   1       4.744   2.934   3.406  0.00  0.00     0.002 A 
ATOM      4  C4  N4B d   1       4.656   2.592   4.747  0.00  0.00    -0.004 A 
ATOM      5  C5  N4B d   1       3.617   1.825   5.188  0.00  0.00     0.002 A 
ATOM      6  C6  N4B d   1       2.622   1.413   4.325  0.00  0.00     0.002 A 
ENDROOT
BRANCH   1   7
ATOM      7  C1' N4B d   1       1.528   1.375   2.112  0.00  0.00     0.057 C 
BRANCH   7   8
ATOM      8  C2' N4B d   1       1.879   1.727   0.669  0.00  0.00     0.009 C 
BRANCH   8   9
ATOM      9  C3' N4B d   1       2.793   0.691   0.038  0.00  0.00     0.004 C 
ATOM     10  C4' N4B d   1       3.941   1.305  -0.707  0.00  0.00     0.003 C 
ENDBRANCH   8   9
ENDBRANCH   7   8
ENDBRANCH   1   7
TORSDOF 3
ENDMDL
