MODEL 1
REMARK minimizedAffinity 4.35886621
REMARK minimizedRMSD -1
REMARK  3 active torsions:
REMARK  status: ('A' for Active; 'I' for Inactive)
REMARK    1  A    between atoms: C3'_2  and  C2'_3 
REMARK    2  A    between atoms: C2'_3  and  C1'_4 
REMARK    3  A    between atoms: C1'_4  and  C1_5 
ROOT
ATOM      1  C1  N4B d   1      -5.765   3.776   2.110  0.00  0.00    -0.075 A 
ATOM      2  C2  N4B d   1      -6.000   3.770   3.502  0.00  0.00     0.002 A 
ATOM      3  C3  N4B d   1      -5.697   4.878   4.254  0.00  0.00     0.002 A 
ATOM      4  C4  N4B d   1      -5.144   5.993   3.642  0.00  0.00    -0.004 A 
ATOM      5  C5  N4B d   1      -4.944   6.000   2.292  0.00  0.00     0.002 A 
ATOM      6  C6  N4B d   1      -5.247   4.895   1.523  0.00  0.00     0.002 A 
ENDROOT
BRANCH   1   7
ATOM      7  C1' N4B d   1      -6.000   2.558   1.259  0.00  0.00     0.057 C 
BRANCH   7   8
ATOM      8  C2' N4B d   1      -5.999   2.965  -0.211  0.00  0.00     0.009 C 
BRANCH   8   9
ATOM      9  C3' N4B d   1      -5.985   1.760  -1.135  0.00  0.00     0.004 C 
ATOM     10  C4' N4B d   1      -5.292   2.034  -2.437  0.00  0.00     0.003 C 
ENDBRANCH   8   9
ENDBRANCH   7   8
ENDBRANCH   1   7
TORSDOF 3
ENDMDL
