MODEL 1
REMARK minimizedAffinity -1.80784237
REMARK minimizedRMSD -1
REMARK  0 active torsions:
REMARK  status: ('A' for Active; 'I' for Inactive)
ROOT
ATOM      1  C1  BNZ d   1      -0.428  -1.386  -0.162  0.00  0.00     0.000 A 
ATOM      2  C2  BNZ d   1      -0.269  -2.523   0.584  0.00  0.00     0.000 A 
ATOM      3  C3  BNZ d   1       0.956  -3.116   0.705  0.00  0.00     0.000 A 
ATOM      4  C4  BNZ d   1       2.013  -2.594   0.049  0.00  0.00     0.000 A 
ATOM      5  C5  BNZ d   1       1.868  -1.454  -0.715  0.00  0.00     0.000 A 
ATOM      6  C6  BNZ d   1       0.640  -0.838  -0.803  0.00  0.00     0.000 A 
ENDROOT
TORSDOF 0
ENDMDL
