MODEL 1
REMARK minimizedAffinity 3.83385515
REMARK minimizedRMSD -1
REMARK  0 active torsions:
REMARK  status: ('A' for Active; 'I' for Inactive)
ROOT
ATOM      1  C1  BNZ d   1       1.816  -0.873  -0.978  0.00  0.00     0.000 A 
ATOM      2  C2  BNZ d   1       2.596  -1.349   0.043  0.00  0.00     0.000 A 
ATOM      3  C3  BNZ d   1       2.121  -2.300   0.902  0.00  0.00     0.000 A 
ATOM      4  C4  BNZ d   1       0.855  -2.744   0.765  0.00  0.00     0.000 A 
ATOM      5  C5  BNZ d   1       0.053  -2.268  -0.253  0.00  0.00     0.000 A 
ATOM      6  C6  BNZ d   1       0.547  -1.339  -1.140  0.00  0.00     0.000 A 
ENDROOT
TORSDOF 0
ENDMDL
