MODEL 1
REMARK minimizedAffinity 2.06828833
REMARK minimizedRMSD -1
REMARK  0 active torsions:
REMARK  status: ('A' for Active; 'I' for Inactive)
ROOT
ATOM      1  C1  BNZ d   1      -2.369  -0.237   3.388  0.00  0.00     0.000 A 
ATOM      2  C2  BNZ d   1      -2.776  -1.017   2.339  0.00  0.00     0.000 A 
ATOM      3  C3  BNZ d   1      -4.105  -1.184   2.066  0.00  0.00     0.000 A 
ATOM      4  C4  BNZ d   1      -5.024  -0.605   2.865  0.00  0.00     0.000 A 
ATOM      5  C5  BNZ d   1      -4.629   0.176   3.933  0.00  0.00     0.000 A 
ATOM      6  C6  BNZ d   1      -3.290   0.374   4.181  0.00  0.00     0.000 A 
ENDROOT
TORSDOF 0
ENDMDL
