MODEL 1
REMARK minimizedAffinity 1.38685048
REMARK minimizedRMSD -1
REMARK  0 active torsions:
REMARK  status: ('A' for Active; 'I' for Inactive)
ROOT
ATOM      1  C1  BNZ d   1       1.155  -1.517   0.156  0.00  0.00     0.000 A 
ATOM      2  C2  BNZ d   1       2.065  -1.346  -0.853  0.00  0.00     0.000 A 
ATOM      3  C3  BNZ d   1       1.664  -0.943  -2.096  0.00  0.00     0.000 A 
ATOM      4  C4  BNZ d   1       0.352  -0.752  -2.340  0.00  0.00     0.000 A 
ATOM      5  C5  BNZ d   1      -0.579  -0.929  -1.335  0.00  0.00     0.000 A 
ATOM      6  C6  BNZ d   1      -0.168  -1.297  -0.075  0.00  0.00     0.000 A 
ENDROOT
TORSDOF 0
ENDMDL
