MODEL 1
REMARK minimizedAffinity -5.49791384
REMARK minimizedRMSD -1
REMARK  0 active torsions:
REMARK  status: ('A' for Active; 'I' for Inactive)
ROOT
ATOM      1  C1  BNZ d   1       1.902  -2.577   0.110  0.00  0.00     0.000 A 
ATOM      2  C2  BNZ d   1       1.646  -1.419  -0.575  0.00  0.00     0.000 A 
ATOM      3  C3  BNZ d   1       0.365  -0.969  -0.734  0.00  0.00     0.000 A 
ATOM      4  C4  BNZ d   1      -0.659  -1.696  -0.244  0.00  0.00     0.000 A 
ATOM      5  C5  BNZ d   1      -0.417  -2.870   0.441  0.00  0.00     0.000 A 
ATOM      6  C6  BNZ d   1       0.876  -3.300   0.633  0.00  0.00     0.000 A 
ENDROOT
TORSDOF 0
ENDMDL
