MODEL 1
REMARK minimizedAffinity -3.40583539
REMARK minimizedRMSD -1
REMARK  0 active torsions:
REMARK  status: ('A' for Active; 'I' for Inactive)
ROOT
ATOM      1  C1  BNZ d   1      -0.144  -1.290  -1.012  0.00  0.00     0.000 A 
ATOM      2  C2  BNZ d   1      -0.931  -2.186  -0.338  0.00  0.00     0.000 A 
ATOM      3  C3  BNZ d   1      -0.391  -3.037   0.584  0.00  0.00     0.000 A 
ATOM      4  C4  BNZ d   1       0.940  -3.020   0.803  0.00  0.00     0.000 A 
ATOM      5  C5  BNZ d   1       1.748  -2.130   0.125  0.00  0.00     0.000 A 
ATOM      6  C6  BNZ d   1       1.195  -1.247  -0.775  0.00  0.00     0.000 A 
ENDROOT
TORSDOF 0
ENDMDL
