MODEL 1
REMARK minimizedAffinity -1.1946857
REMARK minimizedRMSD -1
REMARK  0 active torsions:
REMARK  status: ('A' for Active; 'I' for Inactive)
ROOT
ATOM      1  C1  BNZ d   1      -0.482  -2.118   0.093  0.00  0.00     0.000 A 
ATOM      2  C2  BNZ d   1       0.763  -1.871   0.605  0.00  0.00     0.000 A 
ATOM      3  C3  BNZ d   1       1.527  -0.844   0.124  0.00  0.00     0.000 A 
ATOM      4  C4  BNZ d   1       1.061  -0.092  -0.895  0.00  0.00     0.000 A 
ATOM      5  C5  BNZ d   1      -0.189  -0.335  -1.428  0.00  0.00     0.000 A 
ATOM      6  C6  BNZ d   1      -0.971  -1.345  -0.915  0.00  0.00     0.000 A 
ENDROOT
TORSDOF 0
ENDMDL
