MODEL 1
REMARK minimizedAffinity -2.53384829
REMARK minimizedRMSD -1
REMARK  0 active torsions:
REMARK  status: ('A' for Active; 'I' for Inactive)
ROOT
ATOM      1  C1  BNZ d   1       1.155  -3.909   0.989  0.00  0.00     0.000 A 
ATOM      2  C2  BNZ d   1       1.888  -2.752   0.992  0.00  0.00     0.000 A 
ATOM      3  C3  BNZ d   1       1.369  -1.593   0.486  0.00  0.00     0.000 A 
ATOM      4  C4  BNZ d   1       0.135  -1.602  -0.059  0.00  0.00     0.000 A 
ATOM      5  C5  BNZ d   1      -0.613  -2.763  -0.077  0.00  0.00     0.000 A 
ATOM      6  C6  BNZ d   1      -0.102  -3.918   0.469  0.00  0.00     0.000 A 
ENDROOT
TORSDOF 0
ENDMDL
