MODEL 1
REMARK minimizedAffinity -1.19518125
REMARK minimizedRMSD -1
REMARK  0 active torsions:
REMARK  status: ('A' for Active; 'I' for Inactive)
ROOT
ATOM      1  C1  BNZ d   1       0.983  -1.361  -1.073  0.00  0.00     0.000 A 
ATOM      2  C2  BNZ d   1       0.998  -1.685  -2.403  0.00  0.00     0.000 A 
ATOM      3  C3  BNZ d   1       0.960  -0.711  -3.361  0.00  0.00     0.000 A 
ATOM      4  C4  BNZ d   1       0.867   0.582  -2.989  0.00  0.00     0.000 A 
ATOM      5  C5  BNZ d   1       0.841   0.924  -1.651  0.00  0.00     0.000 A 
ATOM      6  C6  BNZ d   1       0.919  -0.057  -0.690  0.00  0.00     0.000 A 
ENDROOT
TORSDOF 0
ENDMDL
