MODEL 1
REMARK minimizedAffinity -1.2086463
REMARK minimizedRMSD -1
REMARK  0 active torsions:
REMARK  status: ('A' for Active; 'I' for Inactive)
ROOT
ATOM      1  C1  BNZ d   1       0.345   1.885  -1.793  0.00  0.00     0.000 A 
ATOM      2  C2  BNZ d   1       0.675   0.695  -1.202  0.00  0.00     0.000 A 
ATOM      3  C3  BNZ d   1       1.383  -0.254  -1.885  0.00  0.00     0.000 A 
ATOM      4  C4  BNZ d   1       1.724  -0.028  -3.170  0.00  0.00     0.000 A 
ATOM      5  C5  BNZ d   1       1.391   1.163  -3.783  0.00  0.00     0.000 A 
ATOM      6  C6  BNZ d   1       0.712   2.132  -3.080  0.00  0.00     0.000 A 
ENDROOT
TORSDOF 0
ENDMDL
