MODEL 1
REMARK minimizedAffinity -2.40205574
REMARK minimizedRMSD -1
REMARK  0 active torsions:
REMARK  status: ('A' for Active; 'I' for Inactive)
ROOT
ATOM      1  C1  BNZ d   1      -4.073   5.163   3.805  0.00  0.00     0.000 A 
ATOM      2  C2  BNZ d   1      -3.784   3.864   3.482  0.00  0.00     0.000 A 
ATOM      3  C3  BNZ d   1      -4.027   2.852   4.368  0.00  0.00     0.000 A 
ATOM      4  C4  BNZ d   1      -4.519   3.144   5.590  0.00  0.00     0.000 A 
ATOM      5  C5  BNZ d   1      -4.806   4.450   5.934  0.00  0.00     0.000 A 
ATOM      6  C6  BNZ d   1      -4.597   5.462   5.025  0.00  0.00     0.000 A 
ENDROOT
TORSDOF 0
ENDMDL
