MODEL 1
REMARK minimizedAffinity -3.11491942
REMARK minimizedRMSD -1
REMARK  0 active torsions:
REMARK  status: ('A' for Active; 'I' for Inactive)
ROOT
ATOM      1  C1  BNZ d   1      -5.161   5.047   5.967  0.00  0.00     0.000 A 
ATOM      2  C2  BNZ d   1      -4.710   3.759   5.856  0.00  0.00     0.000 A 
ATOM      3  C3  BNZ d   1      -3.830   3.408   4.871  0.00  0.00     0.000 A 
ATOM      4  C4  BNZ d   1      -3.433   4.335   3.975  0.00  0.00     0.000 A 
ATOM      5  C5  BNZ d   1      -3.886   5.636   4.068  0.00  0.00     0.000 A 
ATOM      6  C6  BNZ d   1      -4.742   5.994   5.084  0.00  0.00     0.000 A 
ENDROOT
TORSDOF 0
ENDMDL
