MODEL 1
REMARK minimizedAffinity -0.660711348
REMARK minimizedRMSD -1
REMARK  0 active torsions:
REMARK  status: ('A' for Active; 'I' for Inactive)
ROOT
ATOM      1  C1  BNZ d   1       4.128   1.594  -5.994  0.00  0.00     0.000 A 
ATOM      2  C2  BNZ d   1       4.127   2.911  -5.618  0.00  0.00     0.000 A 
ATOM      3  C3  BNZ d   1       5.071   3.393  -4.754  0.00  0.00     0.000 A 
ATOM      4  C4  BNZ d   1       5.988   2.550  -4.237  0.00  0.00     0.000 A 
ATOM      5  C5  BNZ d   1       5.996   1.218  -4.599  0.00  0.00     0.000 A 
ATOM      6  C6  BNZ d   1       5.069   0.745  -5.499  0.00  0.00     0.000 A 
ENDROOT
TORSDOF 0
ENDMDL
