MODEL 1
REMARK minimizedAffinity -2.29991388
REMARK minimizedRMSD -1
REMARK  0 active torsions:
REMARK  status: ('A' for Active; 'I' for Inactive)
ROOT
ATOM      1  C1  BNZ d   1       0.862   0.143  -3.073  0.00  0.00     0.000 A 
ATOM      2  C2  BNZ d   1       0.668   0.237  -1.721  0.00  0.00     0.000 A 
ATOM      3  C3  BNZ d   1       0.863  -0.846  -0.910  0.00  0.00     0.000 A 
ATOM      4  C4  BNZ d   1       1.212  -2.029  -1.455  0.00  0.00     0.000 A 
ATOM      5  C5  BNZ d   1       1.402  -2.141  -2.818  0.00  0.00     0.000 A 
ATOM      6  C6  BNZ d   1       1.243  -1.040  -3.627  0.00  0.00     0.000 A 
ENDROOT
TORSDOF 0
ENDMDL
