MODEL 1
REMARK minimizedAffinity -1.20278919
REMARK minimizedRMSD -1
REMARK  0 active torsions:
REMARK  status: ('A' for Active; 'I' for Inactive)
ROOT
ATOM      1  C1  BNZ d   1       4.888   3.569  -4.923  0.00  0.00     0.000 A 
ATOM      2  C2  BNZ d   1       6.000   2.769  -4.923  0.00  0.00     0.000 A 
ATOM      3  C3  BNZ d   1       5.964   1.521  -5.480  0.00  0.00     0.000 A 
ATOM      4  C4  BNZ d   1       4.809   1.060  -6.000  0.00  0.00     0.000 A 
ATOM      5  C5  BNZ d   1       3.677   1.851  -5.999  0.00  0.00     0.000 A 
ATOM      6  C6  BNZ d   1       3.727   3.121  -5.472  0.00  0.00     0.000 A 
ENDROOT
TORSDOF 0
ENDMDL
