MODEL 1
REMARK minimizedAffinity 0.857074797
REMARK minimizedRMSD -1
REMARK  0 active torsions:
REMARK  status: ('A' for Active; 'I' for Inactive)
ROOT
ATOM      1  C1  BNZ d   1       1.681   0.908  -3.440  0.00  0.00     0.000 A 
ATOM      2  C2  BNZ d   1       1.951  -0.195  -4.205  0.00  0.00     0.000 A 
ATOM      3  C3  BNZ d   1       1.516  -1.434  -3.825  0.00  0.00     0.000 A 
ATOM      4  C4  BNZ d   1       0.848  -1.574  -2.662  0.00  0.00     0.000 A 
ATOM      5  C5  BNZ d   1       0.576  -0.473  -1.875  0.00  0.00     0.000 A 
ATOM      6  C6  BNZ d   1       0.981   0.778  -2.280  0.00  0.00     0.000 A 
ENDROOT
TORSDOF 0
ENDMDL
