MODEL 1
REMARK minimizedAffinity -4.52044439
REMARK minimizedRMSD -1
REMARK  1 active torsions:
REMARK  status: ('A' for Active; 'I' for Inactive)
REMARK    1  A    between atoms: C1_2  and  C2_3 
ROOT
ATOM      1  C2  UNL d   1       0.428   0.147  -0.795  0.00  0.00    -0.081 A 
ATOM      2  C3  UNL d   1       1.307   0.315   0.281  0.00  0.00     0.006 A 
ATOM      3  C4  UNL d   1       0.884   0.063   1.588  0.00  0.00     0.002 A 
ATOM      4  C5  UNL d   1      -0.423  -0.368   1.840  0.00  0.00    -0.080 A 
ATOM      5  C6  UNL d   1      -0.881  -0.671   3.236  0.00  0.00     0.076 C 
ATOM      6  C7  UNL d   1      -1.307  -0.520   0.767  0.00  0.00     0.002 A 
ATOM      7  C8  UNL d   1      -0.884  -0.268  -0.540  0.00  0.00     0.006 A 
ENDROOT
BRANCH   1   8
ATOM      8  C1  UNL d   1       0.900   0.355  -2.211  0.00  0.00     0.054 C 
ATOM      9  C   UNL d   1       1.400  -0.945  -2.825  0.00  0.00     0.018 C 
ENDBRANCH   1   8
TORSDOF 1
ENDMDL
