MODEL 1
REMARK minimizedAffinity -4.16856194
REMARK minimizedRMSD -1
REMARK  1 active torsions:
REMARK  status: ('A' for Active; 'I' for Inactive)
REMARK    1  A    between atoms: C1_2  and  C2_3 
ROOT
ATOM      1  C2  UNL d   1       0.644   0.002  -1.226  0.00  0.00    -0.081 A 
ATOM      2  C3  UNL d   1       1.500   0.331  -0.168  0.00  0.00     0.006 A 
ATOM      3  C4  UNL d   1       1.036   0.320   1.149  0.00  0.00     0.002 A 
ATOM      4  C5  UNL d   1      -0.289  -0.029   1.431  0.00  0.00    -0.080 A 
ATOM      5  C6  UNL d   1      -0.792  -0.074   2.844  0.00  0.00     0.076 C 
ATOM      6  C7  UNL d   1      -1.150  -0.341   0.373  0.00  0.00     0.002 A 
ATOM      7  C8  UNL d   1      -0.686  -0.329  -0.944  0.00  0.00     0.006 A 
ENDROOT
BRANCH   1   8
ATOM      8  C1  UNL d   1       1.159  -0.050  -2.642  0.00  0.00     0.054 C 
ATOM      9  C   UNL d   1       0.758  -1.347  -3.330  0.00  0.00     0.018 C 
ENDBRANCH   1   8
TORSDOF 1
ENDMDL
