MODEL 1
REMARK minimizedAffinity -4.60858488
REMARK minimizedRMSD -1
REMARK  1 active torsions:
REMARK  status: ('A' for Active; 'I' for Inactive)
REMARK    1  A    between atoms: C1_2  and  C2_3 
ROOT
ATOM      1  C2  UNL d   1       0.100  -0.415  -1.112  0.00  0.00    -0.081 A 
ATOM      2  C3  UNL d   1       0.776   0.747  -0.720  0.00  0.00     0.006 A 
ATOM      3  C4  UNL d   1       0.857   1.098   0.630  0.00  0.00     0.002 A 
ATOM      4  C5  UNL d   1       0.271   0.290   1.610  0.00  0.00    -0.080 A 
ATOM      5  C6  UNL d   1       0.376   0.640   3.064  0.00  0.00     0.076 C 
ATOM      6  C7  UNL d   1      -0.419  -0.861   1.217  0.00  0.00     0.002 A 
ATOM      7  C8  UNL d   1      -0.501  -1.213  -0.132  0.00  0.00     0.006 A 
ENDROOT
BRANCH   1   8
ATOM      8  C1  UNL d   1       0.067  -0.830  -2.560  0.00  0.00     0.054 C 
ATOM      9  C   UNL d   1       1.437  -0.689  -3.208  0.00  0.00     0.018 C 
ENDBRANCH   1   8
TORSDOF 1
ENDMDL
