MODEL 1
REMARK minimizedAffinity -5.22026205
REMARK minimizedRMSD -1
REMARK  1 active torsions:
REMARK  status: ('A' for Active; 'I' for Inactive)
REMARK    1  A    between atoms: C1_2  and  C2_3 
ROOT
ATOM      1  C2  UNL d   1       0.614  -0.187  -0.911  0.00  0.00    -0.081 A 
ATOM      2  C3  UNL d   1       1.560  -0.053   0.113  0.00  0.00     0.006 A 
ATOM      3  C4  UNL d   1       1.187  -0.220   1.449  0.00  0.00     0.002 A 
ATOM      4  C5  UNL d   1      -0.136  -0.530   1.782  0.00  0.00    -0.080 A 
ATOM      5  C6  UNL d   1      -0.544  -0.741   3.210  0.00  0.00     0.076 C 
ATOM      6  C7  UNL d   1      -1.085  -0.647   0.761  0.00  0.00     0.002 A 
ATOM      7  C8  UNL d   1      -0.712  -0.480  -0.575  0.00  0.00     0.006 A 
ENDROOT
BRANCH   1   8
ATOM      8  C1  UNL d   1       1.027  -0.073  -2.356  0.00  0.00     0.054 C 
ATOM      9  C   UNL d   1       0.726  -1.354  -3.121  0.00  0.00     0.018 C 
ENDBRANCH   1   8
TORSDOF 1
ENDMDL
