MODEL 1
REMARK minimizedAffinity -4.28987169
REMARK minimizedRMSD -1
REMARK  1 active torsions:
REMARK  status: ('A' for Active; 'I' for Inactive)
REMARK    1  A    between atoms: C1_2  and  C2_3 
ROOT
ATOM      1  C2  UNL d   1       0.952  -0.786  -2.817  0.00  0.00    -0.081 A 
ATOM      2  C3  UNL d   1       1.608  -1.948  -3.240  0.00  0.00     0.006 A 
ATOM      3  C4  UNL d   1       2.976  -1.928  -3.523  0.00  0.00     0.002 A 
ATOM      4  C5  UNL d   1       3.712  -0.747  -3.380  0.00  0.00    -0.080 A 
ATOM      5  C6  UNL d   1       5.187  -0.718  -3.650  0.00  0.00     0.076 C 
ATOM      6  C7  UNL d   1       3.054   0.419  -2.974  0.00  0.00     0.002 A 
ATOM      7  C8  UNL d   1       1.686   0.399  -2.692  0.00  0.00     0.006 A 
ENDROOT
BRANCH   1   8
ATOM      8  C1  UNL d   1      -0.509  -0.820  -2.450  0.00  0.00     0.054 C 
ATOM      9  C   UNL d   1      -0.791   0.033  -1.221  0.00  0.00     0.018 C 
ENDBRANCH   1   8
TORSDOF 1
ENDMDL
