MODEL 1
REMARK minimizedAffinity -3.88478136
REMARK minimizedRMSD -1
REMARK  1 active torsions:
REMARK  status: ('A' for Active; 'I' for Inactive)
REMARK    1  A    between atoms: C1_2  and  C2_3 
ROOT
ATOM      1  C2  UNL d   1      -0.070   0.013  -0.081  0.00  0.00    -0.081 A 
ATOM      2  C3  UNL d   1      -0.840   0.647  -1.064  0.00  0.00     0.006 A 
ATOM      3  C4  UNL d   1      -0.594   0.408  -2.419  0.00  0.00     0.002 A 
ATOM      4  C5  UNL d   1       0.417  -0.474  -2.812  0.00  0.00    -0.080 A 
ATOM      5  C6  UNL d   1       0.671  -0.763  -4.262  0.00  0.00     0.076 C 
ATOM      6  C7  UNL d   1       1.197  -1.094  -1.830  0.00  0.00     0.002 A 
ATOM      7  C8  UNL d   1       0.953  -0.855  -0.476  0.00  0.00     0.006 A 
ENDROOT
BRANCH   1   8
ATOM      8  C1  UNL d   1      -0.374   0.219   1.381  0.00  0.00     0.054 C 
ATOM      9  C   UNL d   1       0.494  -0.671   2.258  0.00  0.00     0.018 C 
ENDBRANCH   1   8
TORSDOF 1
ENDMDL
