MODEL 1
REMARK minimizedAffinity 0.0719065517
REMARK minimizedRMSD -1
REMARK  1 active torsions:
REMARK  status: ('A' for Active; 'I' for Inactive)
REMARK    1  A    between atoms: C1_2  and  C2_3 
ROOT
ATOM      1  C2  UNL d   1      -0.445   0.111   0.705  0.00  0.00    -0.081 A 
ATOM      2  C3  UNL d   1      -1.352   0.934   0.028  0.00  0.00     0.006 A 
ATOM      3  C4  UNL d   1      -2.690   0.555  -0.105  0.00  0.00     0.002 A 
ATOM      4  C5  UNL d   1      -3.144  -0.649   0.445  0.00  0.00    -0.080 A 
ATOM      5  C6  UNL d   1      -4.584  -1.054   0.336  0.00  0.00     0.076 C 
ATOM      6  C7  UNL d   1      -2.234  -1.480   1.106  0.00  0.00     0.002 A 
ATOM      7  C8  UNL d   1      -0.896  -1.101   1.238  0.00  0.00     0.006 A 
ENDROOT
BRANCH   1   8
ATOM      8  C1  UNL d   1       0.984   0.548   0.906  0.00  0.00     0.054 C 
ATOM      9  C   UNL d   1       1.250   0.921   2.357  0.00  0.00     0.018 C 
ENDBRANCH   1   8
TORSDOF 1
ENDMDL
