MODEL 1
REMARK minimizedAffinity -5.12034607
REMARK minimizedRMSD -1
REMARK  1 active torsions:
REMARK  status: ('A' for Active; 'I' for Inactive)
REMARK    1  A    between atoms: C1_2  and  C2_3 
ROOT
ATOM      1  C2  UNL d   1       4.232   0.558  -3.476  0.00  0.00    -0.081 A 
ATOM      2  C3  UNL d   1       4.328  -0.838  -3.524  0.00  0.00     0.006 A 
ATOM      3  C4  UNL d   1       3.178  -1.630  -3.472  0.00  0.00     0.002 A 
ATOM      4  C5  UNL d   1       1.914  -1.039  -3.379  0.00  0.00    -0.080 A 
ATOM      5  C6  UNL d   1       0.670  -1.876  -3.353  0.00  0.00     0.076 C 
ATOM      6  C7  UNL d   1       1.818   0.355  -3.313  0.00  0.00     0.002 A 
ATOM      7  C8  UNL d   1       2.967   1.147  -3.364  0.00  0.00     0.006 A 
ENDROOT
BRANCH   1   8
ATOM      8  C1  UNL d   1       5.465   1.416  -3.596  0.00  0.00     0.054 C 
ATOM      9  C   UNL d   1       5.612   1.978  -5.003  0.00  0.00     0.018 C 
ENDBRANCH   1   8
TORSDOF 1
ENDMDL
