MODEL 1
REMARK minimizedAffinity -5.50289726
REMARK minimizedRMSD -1
REMARK  1 active torsions:
REMARK  status: ('A' for Active; 'I' for Inactive)
REMARK    1  A    between atoms: C1_2  and  C2_3 
ROOT
ATOM      1  C2  UNL d   1      -0.027   0.378  -0.527  0.00  0.00    -0.081 A 
ATOM      2  C3  UNL d   1       0.930   0.427   0.494  0.00  0.00     0.006 A 
ATOM      3  C4  UNL d   1       0.576   0.127   1.812  0.00  0.00     0.002 A 
ATOM      4  C5  UNL d   1      -0.737  -0.234   2.129  0.00  0.00    -0.080 A 
ATOM      5  C6  UNL d   1      -1.124  -0.588   3.534  0.00  0.00     0.076 C 
ATOM      6  C7  UNL d   1      -1.698  -0.266   1.112  0.00  0.00     0.002 A 
ATOM      7  C8  UNL d   1      -1.344   0.034  -0.205  0.00  0.00     0.006 A 
ENDROOT
BRANCH   1   8
ATOM      8  C1  UNL d   1       0.366   0.638  -1.959  0.00  0.00     0.054 C 
ATOM      9  C   UNL d   1       0.795  -0.645  -2.656  0.00  0.00     0.018 C 
ENDBRANCH   1   8
TORSDOF 1
ENDMDL
