MODEL 1
REMARK minimizedAffinity -1.27696395
REMARK minimizedRMSD -1
REMARK  1 active torsions:
REMARK  status: ('A' for Active; 'I' for Inactive)
REMARK    1  A    between atoms: C1_2  and  C2_3 
ROOT
ATOM      1  C2  UNL d   1      -1.298  -0.059   0.199  0.00  0.00    -0.081 A 
ATOM      2  C3  UNL d   1      -1.276  -0.558   1.507  0.00  0.00     0.006 A 
ATOM      3  C4  UNL d   1      -0.226  -0.236   2.371  0.00  0.00     0.002 A 
ATOM      4  C5  UNL d   1       0.815   0.595   1.943  0.00  0.00    -0.080 A 
ATOM      5  C6  UNL d   1       1.932   0.973   2.869  0.00  0.00     0.076 C 
ATOM      6  C7  UNL d   1       0.802   1.079   0.630  0.00  0.00     0.002 A 
ATOM      7  C8  UNL d   1      -0.247   0.757  -0.233  0.00  0.00     0.006 A 
ENDROOT
BRANCH   1   8
ATOM      8  C1  UNL d   1      -2.462  -0.352  -0.713  0.00  0.00     0.054 C 
ATOM      9  C   UNL d   1      -3.779   0.078  -0.085  0.00  0.00     0.018 C 
ENDBRANCH   1   8
TORSDOF 1
ENDMDL
