MODEL 1
REMARK minimizedAffinity -2.4217124
REMARK minimizedRMSD -1
REMARK  2 active torsions:
REMARK  status: ('A' for Active; 'I' for Inactive)
REMARK    1  A    between atoms: C2'_3  and  C1'_4 
REMARK    2  A    between atoms: C1'_4  and  C1_5 
ROOT
ATOM      1  C1  I4B d   1       1.165   0.365   0.036  0.00  0.00    -0.075 A 
ATOM      2  C2  I4B d   1       1.599  -0.709   0.772  0.00  0.00     0.003 A 
ATOM      3  C3  I4B d   1       0.676  -1.683   1.225  0.00  0.00     0.002 A 
ATOM      4  C4  I4B d   1      -0.668  -1.518   0.963  0.00  0.00    -0.004 A 
ATOM      5  C5  I4B d   1      -1.104  -0.441   0.198  0.00  0.00     0.002 A 
ATOM      6  C6  I4B d   1      -0.180   0.500  -0.280  0.00  0.00     0.003 A 
ENDROOT
BRANCH   1   7
ATOM      7  C1' I4B d   1       2.163   1.392  -0.397  0.00  0.00     0.060 C 
BRANCH   7   8
ATOM      8  C2' I4B d   1       1.698   2.740   0.115  0.00  0.00    -0.013 C 
ATOM      9  C4' I4B d   1       2.280   3.038   1.471  0.00  0.00     0.013 C 
ATOM     10  C3' I4B d   1       2.100   3.780  -0.888  0.00  0.00     0.013 C 
ENDBRANCH   7   8
ENDBRANCH   1   7
TORSDOF 2
ENDMDL
