MODEL 1
REMARK minimizedAffinity -2.52905226
REMARK minimizedRMSD -1
REMARK  2 active torsions:
REMARK  status: ('A' for Active; 'I' for Inactive)
REMARK    1  A    between atoms: C2'_3  and  C1'_4 
REMARK    2  A    between atoms: C1'_4  and  C1_5 
ROOT
ATOM      1  C1  I4B d   1       0.586   0.171   0.034  0.00  0.00    -0.075 A 
ATOM      2  C2  I4B d   1       0.528  -0.607   1.164  0.00  0.00     0.003 A 
ATOM      3  C3  I4B d   1      -0.694  -1.205   1.555  0.00  0.00     0.002 A 
ATOM      4  C4  I4B d   1      -1.837  -0.959   0.821  0.00  0.00    -0.004 A 
ATOM      5  C5  I4B d   1      -1.771  -0.189  -0.337  0.00  0.00     0.002 A 
ATOM      6  C6  I4B d   1      -0.550   0.369  -0.740  0.00  0.00     0.003 A 
ENDROOT
BRANCH   1   7
ATOM      7  C1' I4B d   1       1.886   0.814  -0.332  0.00  0.00     0.060 C 
BRANCH   7   8
ATOM      8  C2' I4B d   1       1.910   2.200   0.280  0.00  0.00    -0.013 C 
ATOM      9  C4' I4B d   1       2.672   2.209   1.579  0.00  0.00     0.013 C 
ATOM     10  C3' I4B d   1       2.527   3.135  -0.717  0.00  0.00     0.013 C 
ENDBRANCH   7   8
ENDBRANCH   1   7
TORSDOF 2
ENDMDL
