MODEL 1
REMARK minimizedAffinity -4.66145039
REMARK minimizedRMSD -1
REMARK  2 active torsions:
REMARK  status: ('A' for Active; 'I' for Inactive)
REMARK    1  A    between atoms: C2'_3  and  C1'_4 
REMARK    2  A    between atoms: C1'_4  and  C1_5 
ROOT
ATOM      1  C1  I4B d   1       1.195   0.180   0.186  0.00  0.00    -0.075 A 
ATOM      2  C2  I4B d   1       1.425  -0.795   1.124  0.00  0.00     0.003 A 
ATOM      3  C3  I4B d   1       0.353  -1.577   1.618  0.00  0.00     0.002 A 
ATOM      4  C4  I4B d   1      -0.932  -1.318   1.186  0.00  0.00    -0.004 A 
ATOM      5  C5  I4B d   1      -1.160  -0.345   0.217  0.00  0.00     0.002 A 
ATOM      6  C6  I4B d   1      -0.089   0.401  -0.295  0.00  0.00     0.003 A 
ENDROOT
BRANCH   1   7
ATOM      7  C1' I4B d   1       2.346   1.009  -0.289  0.00  0.00     0.060 C 
BRANCH   7   8
ATOM      8  C2' I4B d   1       2.147   2.421   0.224  0.00  0.00    -0.013 C 
ATOM      9  C4' I4B d   1       2.641   2.561   1.640  0.00  0.00     0.013 C 
ATOM     10  C3' I4B d   1       2.872   3.355  -0.698  0.00  0.00     0.013 C 
ENDBRANCH   7   8
ENDBRANCH   1   7
TORSDOF 2
ENDMDL
