MODEL 1
REMARK minimizedAffinity -4.41491747
REMARK minimizedRMSD -1
REMARK  2 active torsions:
REMARK  status: ('A' for Active; 'I' for Inactive)
REMARK    1  A    between atoms: C2'_3  and  C1'_4 
REMARK    2  A    between atoms: C1'_4  and  C1_5 
ROOT
ATOM      1  C1  I4B d   1      -0.687  -0.009  -1.629  0.00  0.00    -0.075 A 
ATOM      2  C2  I4B d   1      -0.241   0.234  -0.354  0.00  0.00     0.003 A 
ATOM      3  C3  I4B d   1      -1.030  -0.140   0.760  0.00  0.00     0.002 A 
ATOM      4  C4  I4B d   1      -2.272  -0.706   0.554  0.00  0.00    -0.004 A 
ATOM      5  C5  I4B d   1      -2.712  -0.972  -0.739  0.00  0.00     0.002 A 
ATOM      6  C6  I4B d   1      -1.910  -0.633  -1.838  0.00  0.00     0.003 A 
ENDROOT
BRANCH   1   7
ATOM      7  C1' I4B d   1       0.158   0.429  -2.784  0.00  0.00     0.060 C 
BRANCH   7   8
ATOM      8  C2' I4B d   1       1.231  -0.618  -3.001  0.00  0.00    -0.013 C 
ATOM      9  C4' I4B d   1       1.607  -0.718  -4.456  0.00  0.00     0.013 C 
ATOM     10  C3' I4B d   1       2.416  -0.248  -2.160  0.00  0.00     0.013 C 
ENDBRANCH   7   8
ENDBRANCH   1   7
TORSDOF 2
ENDMDL
