MODEL 1
REMARK minimizedAffinity -4.49923468
REMARK minimizedRMSD -1
REMARK  2 active torsions:
REMARK  status: ('A' for Active; 'I' for Inactive)
REMARK    1  A    between atoms: C2'_3  and  C1'_4 
REMARK    2  A    between atoms: C1'_4  and  C1_5 
ROOT
ATOM      1  C1  I4B d   1       1.477   0.546   0.179  0.00  0.00    -0.075 A 
ATOM      2  C2  I4B d   1       1.473  -0.408   1.166  0.00  0.00     0.003 A 
ATOM      3  C3  I4B d   1       0.290  -1.134   1.449  0.00  0.00     0.002 A 
ATOM      4  C4  I4B d   1      -0.869  -0.840   0.761  0.00  0.00    -0.004 A 
ATOM      5  C5  I4B d   1      -0.856   0.111  -0.254  0.00  0.00     0.002 A 
ATOM      6  C6  I4B d   1       0.327   0.801  -0.556  0.00  0.00     0.003 A 
ENDROOT
BRANCH   1   7
ATOM      7  C1' I4B d   1       2.735   1.317  -0.071  0.00  0.00     0.060 C 
BRANCH   7   8
ATOM      8  C2' I4B d   1       2.518   2.735   0.419  0.00  0.00    -0.013 C 
ATOM      9  C4' I4B d   1       2.694   2.828   1.912  0.00  0.00     0.013 C 
ATOM     10  C3' I4B d   1       3.489   3.625  -0.297  0.00  0.00     0.013 C 
ENDBRANCH   7   8
ENDBRANCH   1   7
TORSDOF 2
ENDMDL
