MODEL 1
REMARK minimizedAffinity 1.35755622
REMARK minimizedRMSD -1
REMARK  2 active torsions:
REMARK  status: ('A' for Active; 'I' for Inactive)
REMARK    1  A    between atoms: C2'_3  and  C1'_4 
REMARK    2  A    between atoms: C1'_4  and  C1_5 
ROOT
ATOM      1  C1  I4B d   1       1.040  -0.187  -1.111  0.00  0.00    -0.075 A 
ATOM      2  C2  I4B d   1       2.400  -0.346  -1.207  0.00  0.00     0.003 A 
ATOM      3  C3  I4B d   1       2.998  -0.627  -2.459  0.00  0.00     0.002 A 
ATOM      4  C4  I4B d   1       2.199  -0.789  -3.573  0.00  0.00    -0.004 A 
ATOM      5  C5  I4B d   1       0.823  -0.605  -3.478  0.00  0.00     0.002 A 
ATOM      6  C6  I4B d   1       0.240  -0.290  -2.242  0.00  0.00     0.003 A 
ENDROOT
BRANCH   1   7
ATOM      7  C1' I4B d   1       0.438   0.076   0.233  0.00  0.00     0.060 C 
BRANCH   7   8
ATOM      8  C2' I4B d   1      -0.066  -1.242   0.785  0.00  0.00    -0.013 C 
ATOM      9  C4' I4B d   1       0.905  -1.823   1.779  0.00  0.00     0.013 C 
ATOM     10  C3' I4B d   1      -1.405  -0.999   1.414  0.00  0.00     0.013 C 
ENDBRANCH   7   8
ENDBRANCH   1   7
TORSDOF 2
ENDMDL
