MODEL 1
REMARK minimizedAffinity -4.91259432
REMARK minimizedRMSD -1
REMARK  2 active torsions:
REMARK  status: ('A' for Active; 'I' for Inactive)
REMARK    1  A    between atoms: C2'_3  and  C1'_4 
REMARK    2  A    between atoms: C1'_4  and  C1_5 
ROOT
ATOM      1  C1  I4B d   1      -0.373  -0.295   0.145  0.00  0.00    -0.075 A 
ATOM      2  C2  I4B d   1      -0.855   0.011  -1.103  0.00  0.00     0.003 A 
ATOM      3  C3  I4B d   1      -2.234  -0.132  -1.389  0.00  0.00     0.002 A 
ATOM      4  C4  I4B d   1      -3.082  -0.629  -0.420  0.00  0.00    -0.004 A 
ATOM      5  C5  I4B d   1      -2.596  -0.917   0.852  0.00  0.00     0.002 A 
ATOM      6  C6  I4B d   1      -1.235  -0.737   1.141  0.00  0.00     0.003 A 
ENDROOT
BRANCH   1   7
ATOM      7  C1' I4B d   1       1.094  -0.164   0.403  0.00  0.00     0.060 C 
BRANCH   7   8
ATOM      8  C2' I4B d   1       1.451   1.307   0.333  0.00  0.00    -0.013 C 
ATOM      9  C4' I4B d   1       1.879   1.829   1.680  0.00  0.00     0.013 C 
ATOM     10  C3' I4B d   1       2.541   1.471  -0.683  0.00  0.00     0.013 C 
ENDBRANCH   7   8
ENDBRANCH   1   7
TORSDOF 2
ENDMDL
