MODEL 1
REMARK minimizedAffinity 0.68444407
REMARK minimizedRMSD -1
REMARK  2 active torsions:
REMARK  status: ('A' for Active; 'I' for Inactive)
REMARK    1  A    between atoms: C2'_3  and  C1'_4 
REMARK    2  A    between atoms: C1'_4  and  C1_5 
ROOT
ATOM      1  C1  I4B d   1      -0.552  -0.381  -1.826  0.00  0.00    -0.075 A 
ATOM      2  C2  I4B d   1      -1.362  -1.106  -2.664  0.00  0.00     0.003 A 
ATOM      3  C3  I4B d   1      -2.434  -1.866  -2.137  0.00  0.00     0.002 A 
ATOM      4  C4  I4B d   1      -2.628  -1.912  -0.772  0.00  0.00    -0.004 A 
ATOM      5  C5  I4B d   1      -1.819  -1.158   0.074  0.00  0.00     0.002 A 
ATOM      6  C6  I4B d   1      -0.782  -0.378  -0.457  0.00  0.00     0.003 A 
ENDROOT
BRANCH   1   7
ATOM      7  C1' I4B d   1       0.591   0.384  -2.414  0.00  0.00     0.060 C 
BRANCH   7   8
ATOM      8  C2' I4B d   1       1.484  -0.598  -3.145  0.00  0.00    -0.013 C 
ATOM      9  C4' I4B d   1       1.615  -0.235  -4.601  0.00  0.00     0.013 C 
ATOM     10  C3' I4B d   1       2.821  -0.603  -2.466  0.00  0.00     0.013 C 
ENDBRANCH   7   8
ENDBRANCH   1   7
TORSDOF 2
ENDMDL
