MODEL 1
REMARK minimizedAffinity -5.942307
REMARK minimizedRMSD -1
REMARK  2 active torsions:
REMARK  status: ('A' for Active; 'I' for Inactive)
REMARK    1  A    between atoms: C2'_3  and  C1'_4 
REMARK    2  A    between atoms: C1'_4  and  C1_5 
ROOT
ATOM      1  C1  I4B d   1      -0.819   0.059  -0.437  0.00  0.00    -0.075 A 
ATOM      2  C2  I4B d   1      -1.200  -0.480   0.767  0.00  0.00     0.003 A 
ATOM      3  C3  I4B d   1      -2.204  -1.477   0.815  0.00  0.00     0.002 A 
ATOM      4  C4  I4B d   1      -2.832  -1.867  -0.351  0.00  0.00    -0.004 A 
ATOM      5  C5  I4B d   1      -2.427  -1.337  -1.572  0.00  0.00     0.002 A 
ATOM      6  C6  I4B d   1      -1.406  -0.377  -1.618  0.00  0.00     0.003 A 
ENDROOT
BRANCH   1   7
ATOM      7  C1' I4B d   1       0.222   1.133  -0.448  0.00  0.00     0.060 C 
BRANCH   7   8
ATOM      8  C2' I4B d   1       1.501   0.550   0.116  0.00  0.00    -0.013 C 
ATOM      9  C4' I4B d   1       2.286  -0.173  -0.947  0.00  0.00     0.013 C 
ATOM     10  C3' I4B d   1       2.300   1.673   0.709  0.00  0.00     0.013 C 
ENDBRANCH   7   8
ENDBRANCH   1   7
TORSDOF 2
ENDMDL
