MODEL 1
REMARK minimizedAffinity -0.899940848
REMARK minimizedRMSD -1
REMARK  2 active torsions:
REMARK  status: ('A' for Active; 'I' for Inactive)
REMARK    1  A    between atoms: C2'_3  and  C1'_4 
REMARK    2  A    between atoms: C1'_4  and  C1_5 
ROOT
ATOM      1  C1  I4B d   1       3.460   3.381   0.539  0.00  0.00    -0.075 A 
ATOM      2  C2  I4B d   1       3.699   4.640   0.047  0.00  0.00     0.003 A 
ATOM      3  C3  I4B d   1       4.305   4.807  -1.222  0.00  0.00     0.002 A 
ATOM      4  C4  I4B d   1       4.699   3.695  -1.938  0.00  0.00    -0.004 A 
ATOM      5  C5  I4B d   1       4.436   2.419  -1.448  0.00  0.00     0.002 A 
ATOM      6  C6  I4B d   1       3.801   2.261  -0.208  0.00  0.00     0.003 A 
ENDROOT
BRANCH   1   7
ATOM      7  C1' I4B d   1       2.849   3.241   1.897  0.00  0.00     0.060 C 
BRANCH   7   8
ATOM      8  C2' I4B d   1       2.652   1.764   2.170  0.00  0.00    -0.013 C 
ATOM      9  C4' I4B d   1       3.237   1.374   3.502  0.00  0.00     0.013 C 
ATOM     10  C3' I4B d   1       1.181   1.476   2.119  0.00  0.00     0.013 C 
ENDBRANCH   7   8
ENDBRANCH   1   7
TORSDOF 2
ENDMDL
