MODEL 1
REMARK minimizedAffinity -4.45580196
REMARK minimizedRMSD -1
REMARK  1 active torsions:
REMARK  status: ('A' for Active; 'I' for Inactive)
REMARK    1  A    between atoms: N_2  and  C1_3 
ROOT
ATOM      1  C1  UNL d   1      -0.823   0.973   1.922  0.00  0.00     0.143 A 
ATOM      2  C2  UNL d   1      -1.866   0.071   2.160  0.00  0.00    -0.057 A 
ATOM      3  C3  UNL d   1      -3.059   0.485   2.765  0.00  0.00     0.033 A 
ATOM      4  C4  UNL d   1      -3.219   1.806   3.170  0.00  0.00    -0.042 A 
ATOM      5  C5  UNL d   1      -2.186   2.714   2.966  0.00  0.00     0.033 A 
ATOM      6  C6  UNL d   1      -0.999   2.296   2.356  0.00  0.00    -0.057 A 
ENDROOT
BRANCH   1   7
ATOM      7  N   UNL d   1       0.425   0.602   1.415  0.00  0.00    -0.732 N 
ATOM      8  C   UNL d   1       1.160  -0.499   1.998  0.00  0.00     0.284 C 
ATOM      9  H3  UNL d   1       0.454   0.629   0.398  0.00  0.00     0.395 HD
ENDBRANCH   1   7
TORSDOF 1
ENDMDL
