MODEL 1
REMARK minimizedAffinity 0.493902266
REMARK minimizedRMSD -1
REMARK  1 active torsions:
REMARK  status: ('A' for Active; 'I' for Inactive)
REMARK    1  A    between atoms: N_2  and  C1_3 
ROOT
ATOM      1  C1  UNL d   1      -2.228   1.664   2.104  0.00  0.00     0.143 A 
ATOM      2  C2  UNL d   1      -1.179   2.534   1.788  0.00  0.00    -0.057 A 
ATOM      3  C3  UNL d   1       0.100   2.050   1.488  0.00  0.00     0.033 A 
ATOM      4  C4  UNL d   1       0.360   0.684   1.527  0.00  0.00    -0.042 A 
ATOM      5  C5  UNL d   1      -0.661  -0.198   1.862  0.00  0.00     0.033 A 
ATOM      6  C6  UNL d   1      -1.938   0.292   2.154  0.00  0.00    -0.057 A 
ENDROOT
BRANCH   1   7
ATOM      7  N   UNL d   1      -3.496   2.089   2.507  0.00  0.00    -0.732 N 
ATOM      8  C   UNL d   1      -4.157   1.468   3.635  0.00  0.00     0.284 C 
ATOM      9  H3  UNL d   1      -3.596   3.101   2.472  0.00  0.00     0.395 HD
ENDBRANCH   1   7
TORSDOF 1
ENDMDL
