MODEL 1
REMARK minimizedAffinity -0.98170656
REMARK minimizedRMSD -1
REMARK  1 active torsions:
REMARK  status: ('A' for Active; 'I' for Inactive)
REMARK    1  A    between atoms: N_2  and  C1_3 
ROOT
ATOM      1  C1  UNL d   1      -3.199   1.422   3.177  0.00  0.00     0.143 A 
ATOM      2  C2  UNL d   1      -2.747   0.255   2.552  0.00  0.00    -0.057 A 
ATOM      3  C3  UNL d   1      -1.627   0.267   1.712  0.00  0.00     0.033 A 
ATOM      4  C4  UNL d   1      -0.954   1.458   1.458  0.00  0.00    -0.042 A 
ATOM      5  C5  UNL d   1      -1.400   2.635   2.049  0.00  0.00     0.033 A 
ATOM      6  C6  UNL d   1      -2.515   2.615   2.892  0.00  0.00    -0.057 A 
ENDROOT
BRANCH   1   7
ATOM      7  N   UNL d   1      -4.364   1.493   3.944  0.00  0.00    -0.732 N 
ATOM      8  C   UNL d   1      -4.354   2.132   5.243  0.00  0.00     0.284 C 
ATOM      9  H3  UNL d   1      -5.186   1.705   3.383  0.00  0.00     0.395 HD
ENDBRANCH   1   7
TORSDOF 1
ENDMDL
