MODEL 1
REMARK minimizedAffinity -3.38733292
REMARK minimizedRMSD -1
REMARK  1 active torsions:
REMARK  status: ('A' for Active; 'I' for Inactive)
REMARK    1  A    between atoms: N_2  and  C1_3 
ROOT
ATOM      1  C1  UNL d   1      -3.038   0.720   3.011  0.00  0.00     0.143 A 
ATOM      2  C2  UNL d   1      -2.206   1.841   3.095  0.00  0.00    -0.057 A 
ATOM      3  C3  UNL d   1      -0.890   1.806   2.619  0.00  0.00     0.033 A 
ATOM      4  C4  UNL d   1      -0.372   0.636   2.075  0.00  0.00    -0.042 A 
ATOM      5  C5  UNL d   1      -1.172  -0.499   2.004  0.00  0.00     0.033 A 
ATOM      6  C6  UNL d   1      -2.488  -0.455   2.476  0.00  0.00    -0.057 A 
ENDROOT
BRANCH   1   7
ATOM      7  N   UNL d   1      -4.323   0.662   3.557  0.00  0.00    -0.732 N 
ATOM      8  C   UNL d   1      -4.899   1.818   4.210  0.00  0.00     0.284 C 
ATOM      9  H3  UNL d   1      -4.974   0.152   2.964  0.00  0.00     0.395 HD
ENDBRANCH   1   7
TORSDOF 1
ENDMDL
