MODEL 1
REMARK minimizedAffinity -0.17607218
REMARK minimizedRMSD -1
REMARK  1 active torsions:
REMARK  status: ('A' for Active; 'I' for Inactive)
REMARK    1  A    between atoms: N_2  and  C1_3 
ROOT
ATOM      1  C1  UNL d   1      -2.043   1.601   2.727  0.00  0.00     0.143 A 
ATOM      2  C2  UNL d   1      -0.998   2.328   2.147  0.00  0.00    -0.057 A 
ATOM      3  C3  UNL d   1      -0.029   1.701   1.354  0.00  0.00     0.033 A 
ATOM      4  C4  UNL d   1      -0.073   0.326   1.150  0.00  0.00    -0.042 A 
ATOM      5  C5  UNL d   1      -1.088  -0.421   1.737  0.00  0.00     0.033 A 
ATOM      6  C6  UNL d   1      -2.056   0.212   2.522  0.00  0.00    -0.057 A 
ENDROOT
BRANCH   1   7
ATOM      7  N   UNL d   1      -2.979   2.151   3.605  0.00  0.00    -0.732 N 
ATOM      8  C   UNL d   1      -4.005   1.323   4.202  0.00  0.00     0.284 C 
ATOM      9  H3  UNL d   1      -2.563   2.824   4.245  0.00  0.00     0.395 HD
ENDBRANCH   1   7
TORSDOF 1
ENDMDL
