MODEL 1
REMARK minimizedAffinity -3.47813153
REMARK minimizedRMSD -1
REMARK  1 active torsions:
REMARK  status: ('A' for Active; 'I' for Inactive)
REMARK    1  A    between atoms: N_2  and  C1_3 
ROOT
ATOM      1  C1  UNL d   1      -1.725   1.510   2.534  0.00  0.00     0.143 A 
ATOM      2  C2  UNL d   1      -1.959   0.132   2.495  0.00  0.00    -0.057 A 
ATOM      3  C3  UNL d   1      -1.126  -0.726   1.767  0.00  0.00     0.033 A 
ATOM      4  C4  UNL d   1      -0.057  -0.214   1.039  0.00  0.00    -0.042 A 
ATOM      5  C5  UNL d   1       0.180   1.156   1.043  0.00  0.00     0.033 A 
ATOM      6  C6  UNL d   1      -0.652   2.006   1.777  0.00  0.00    -0.057 A 
ENDROOT
BRANCH   1   7
ATOM      7  N   UNL d   1      -2.575   2.426   3.159  0.00  0.00    -0.732 N 
ATOM      8  C   UNL d   1      -3.766   1.976   3.847  0.00  0.00     0.284 C 
ATOM      9  H3  UNL d   1      -2.065   3.159   3.647  0.00  0.00     0.395 HD
ENDBRANCH   1   7
TORSDOF 1
ENDMDL
