MODEL 1
REMARK minimizedAffinity -1.98078108
REMARK minimizedRMSD -1
REMARK  1 active torsions:
REMARK  status: ('A' for Active; 'I' for Inactive)
REMARK    1  A    between atoms: N_2  and  C1_3 
ROOT
ATOM      1  C1  UNL d   1      -1.854  -0.258   2.108  0.00  0.00     0.143 A 
ATOM      2  C2  UNL d   1      -1.986   1.130   2.222  0.00  0.00    -0.057 A 
ATOM      3  C3  UNL d   1      -0.969   1.994   1.796  0.00  0.00     0.033 A 
ATOM      4  C4  UNL d   1       0.214   1.481   1.274  0.00  0.00    -0.042 A 
ATOM      5  C5  UNL d   1       0.377   0.104   1.174  0.00  0.00     0.033 A 
ATOM      6  C6  UNL d   1      -0.645  -0.753   1.595  0.00  0.00    -0.057 A 
ENDROOT
BRANCH   1   7
ATOM      7  N   UNL d   1      -2.788  -1.171   2.604  0.00  0.00    -0.732 N 
ATOM      8  C   UNL d   1      -2.422  -2.108   3.644  0.00  0.00     0.284 C 
ATOM      9  H3  UNL d   1      -3.710  -0.758   2.721  0.00  0.00     0.395 HD
ENDBRANCH   1   7
TORSDOF 1
ENDMDL
