MODEL 1
REMARK minimizedAffinity -2.81759405
REMARK minimizedRMSD -1
REMARK  1 active torsions:
REMARK  status: ('A' for Active; 'I' for Inactive)
REMARK    1  A    between atoms: N_2  and  C1_3 
ROOT
ATOM      1  C1  UNL d   1      -1.682   2.204   2.212  0.00  0.00     0.143 A 
ATOM      2  C2  UNL d   1      -1.733   0.845   1.883  0.00  0.00    -0.057 A 
ATOM      3  C3  UNL d   1      -0.803   0.275   1.006  0.00  0.00     0.033 A 
ATOM      4  C4  UNL d   1       0.181   1.063   0.418  0.00  0.00    -0.042 A 
ATOM      5  C5  UNL d   1       0.235   2.421   0.711  0.00  0.00     0.033 A 
ATOM      6  C6  UNL d   1      -0.693   2.983   1.593  0.00  0.00    -0.057 A 
ENDROOT
BRANCH   1   7
ATOM      7  N   UNL d   1      -2.638   2.850   3.001  0.00  0.00    -0.732 N 
ATOM      8  C   UNL d   1      -3.659   2.092   3.690  0.00  0.00     0.284 C 
ATOM      9  H3  UNL d   1      -2.240   3.608   3.551  0.00  0.00     0.395 HD
ENDBRANCH   1   7
TORSDOF 1
ENDMDL
