MODEL 1
REMARK minimizedAffinity -2.44339824
REMARK minimizedRMSD -1
REMARK  1 active torsions:
REMARK  status: ('A' for Active; 'I' for Inactive)
REMARK    1  A    between atoms: N_2  and  C1_3 
ROOT
ATOM      1  C1  UNL d   1      -1.588   1.658   2.413  0.00  0.00     0.143 A 
ATOM      2  C2  UNL d   1      -1.696   0.301   2.092  0.00  0.00    -0.057 A 
ATOM      3  C3  UNL d   1      -0.665  -0.371   1.424  0.00  0.00     0.033 A 
ATOM      4  C4  UNL d   1       0.484   0.312   1.039  0.00  0.00    -0.042 A 
ATOM      5  C5  UNL d   1       0.602   1.667   1.326  0.00  0.00     0.033 A 
ATOM      6  C6  UNL d   1      -0.428   2.331   1.999  0.00  0.00    -0.057 A 
ENDROOT
BRANCH   1   7
ATOM      7  N   UNL d   1      -2.619   2.406   2.988  0.00  0.00    -0.732 N 
ATOM      8  C   UNL d   1      -3.689   1.753   3.710  0.00  0.00     0.284 C 
ATOM      9  H3  UNL d   1      -2.281   3.259   3.427  0.00  0.00     0.395 HD
ENDBRANCH   1   7
TORSDOF 1
ENDMDL
