MODEL 1
REMARK minimizedAffinity -2.92523384
REMARK minimizedRMSD -1
REMARK  1 active torsions:
REMARK  status: ('A' for Active; 'I' for Inactive)
REMARK    1  A    between atoms: N_2  and  C1_3 
ROOT
ATOM      1  C1  UNL d   1      -1.636   1.617   2.255  0.00  0.00     0.143 A 
ATOM      2  C2  UNL d   1      -1.740   0.231   2.099  0.00  0.00    -0.057 A 
ATOM      3  C3  UNL d   1      -0.864  -0.474   1.264  0.00  0.00     0.033 A 
ATOM      4  C4  UNL d   1       0.116   0.202   0.545  0.00  0.00    -0.042 A 
ATOM      5  C5  UNL d   1       0.221   1.583   0.664  0.00  0.00     0.033 A 
ATOM      6  C6  UNL d   1      -0.652   2.281   1.505  0.00  0.00    -0.057 A 
ENDROOT
BRANCH   1   7
ATOM      7  N   UNL d   1      -2.538   2.387   2.993  0.00  0.00    -0.732 N 
ATOM      8  C   UNL d   1      -3.764   1.805   3.496  0.00  0.00     0.284 C 
ATOM      9  H3  UNL d   1      -2.072   3.007   3.651  0.00  0.00     0.395 HD
ENDBRANCH   1   7
TORSDOF 1
ENDMDL
