MODEL 1
REMARK minimizedAffinity 3.99574804
REMARK minimizedRMSD -1
REMARK  1 active torsions:
REMARK  status: ('A' for Active; 'I' for Inactive)
REMARK    1  A    between atoms: N_2  and  C1_3 
ROOT
ATOM      1  C1  UNL d   1       0.006   2.366   0.890  0.00  0.00     0.143 A 
ATOM      2  C2  UNL d   1      -0.272   1.126   1.475  0.00  0.00    -0.057 A 
ATOM      3  C3  UNL d   1      -1.366   0.955   2.332  0.00  0.00     0.033 A 
ATOM      4  C4  UNL d   1      -2.187   2.034   2.644  0.00  0.00    -0.042 A 
ATOM      5  C5  UNL d   1      -1.915   3.282   2.095  0.00  0.00     0.033 A 
ATOM      6  C6  UNL d   1      -0.825   3.444   1.234  0.00  0.00    -0.057 A 
ENDROOT
BRANCH   1   7
ATOM      7  N   UNL d   1       1.135   2.622   0.109  0.00  0.00    -0.732 N 
ATOM      8  C   UNL d   1       1.960   3.784   0.363  0.00  0.00     0.284 C 
ATOM      9  H3  UNL d   1       1.661   1.777  -0.103  0.00  0.00     0.395 HD
ENDBRANCH   1   7
TORSDOF 1
ENDMDL
