MODEL 1
REMARK minimizedAffinity -1.10988259
REMARK minimizedRMSD -1
REMARK  1 active torsions:
REMARK  status: ('A' for Active; 'I' for Inactive)
REMARK    1  A    between atoms: N_2  and  C1_3 
ROOT
ATOM      1  C1  UNL d   1      -0.826   1.389   2.555  0.00  0.00     0.143 A 
ATOM      2  C2  UNL d   1      -1.513   0.297   2.013  0.00  0.00    -0.057 A 
ATOM      3  C3  UNL d   1      -0.932  -0.510   1.027  0.00  0.00     0.033 A 
ATOM      4  C4  UNL d   1       0.339  -0.220   0.543  0.00  0.00    -0.042 A 
ATOM      5  C5  UNL d   1       1.031   0.875   1.049  0.00  0.00     0.033 A 
ATOM      6  C6  UNL d   1       0.448   1.672   2.039  0.00  0.00    -0.057 A 
ENDROOT
BRANCH   1   7
ATOM      7  N   UNL d   1      -1.388   2.286   3.466  0.00  0.00    -0.732 N 
ATOM      8  C   UNL d   1      -2.797   2.224   3.789  0.00  0.00     0.284 C 
ATOM      9  H3  UNL d   1      -0.784   2.454   4.268  0.00  0.00     0.395 HD
ENDBRANCH   1   7
TORSDOF 1
ENDMDL
