MODEL 1
REMARK minimizedAffinity -0.809603453
REMARK minimizedRMSD -1
REMARK  1 active torsions:
REMARK  status: ('A' for Active; 'I' for Inactive)
REMARK    1  A    between atoms: N_2  and  C1_3 
ROOT
ATOM      1  C1  UNL d   1       1.699   0.864   1.420  0.00  0.00     0.143 A 
ATOM      2  C2  UNL d   1       1.297   1.895   0.564  0.00  0.00    -0.057 A 
ATOM      3  C3  UNL d   1       0.085   2.568   0.759  0.00  0.00     0.033 A 
ATOM      4  C4  UNL d   1      -0.763   2.201   1.798  0.00  0.00    -0.042 A 
ATOM      5  C5  UNL d   1      -0.395   1.162   2.646  0.00  0.00     0.033 A 
ATOM      6  C6  UNL d   1       0.820   0.498   2.451  0.00  0.00    -0.057 A 
ENDROOT
BRANCH   1   7
ATOM      7  N   UNL d   1       2.846   0.091   1.221  0.00  0.00    -0.732 N 
ATOM      8  C   UNL d   1       3.003  -0.699   0.018  0.00  0.00     0.284 C 
ATOM      9  H3  UNL d   1       3.693   0.569   1.518  0.00  0.00     0.395 HD
ENDBRANCH   1   7
TORSDOF 1
ENDMDL
