MODEL 1
REMARK minimizedAffinity -2.13421774
REMARK minimizedRMSD -1
REMARK  0 active torsions:
REMARK  status: ('A' for Active; 'I' for Inactive)
ROOT
ATOM      1  C   UNL d   1      -1.138  -0.152   0.546  0.00  0.00     0.020 A 
ATOM      2  C1  UNL d   1      -1.151  -0.501  -0.804  0.00  0.00     0.020 A 
ATOM      3  C2  UNL d   1       0.046  -0.803  -1.458  0.00  0.00     0.034 A 
ATOM      4  C3  UNL d   1       1.259  -0.756  -0.763  0.00  0.00     0.017 A 
ATOM      5  C4  UNL d   1       1.271  -0.406   0.592  0.00  0.00     0.017 A 
ATOM      6  C5  UNL d   1       0.070  -0.104   1.242  0.00  0.00     0.034 A 
ATOM      7 Cl   UNL d   1       2.729  -0.327   1.517  0.00  0.00    -0.070 Cl
ATOM      8 Cl1  UNL d   1       2.700  -1.142  -1.635  0.00  0.00    -0.070 Cl
ENDROOT
TORSDOF 0
ENDMDL
