MODEL 1
REMARK minimizedAffinity 8.42521095
REMARK minimizedRMSD -1
REMARK  0 active torsions:
REMARK  status: ('A' for Active; 'I' for Inactive)
ROOT
ATOM      1  C   UNL d   1       0.397  -2.028   2.241  0.00  0.00     0.020 A 
ATOM      2  C1  UNL d   1       1.757  -1.756   2.377  0.00  0.00     0.020 A 
ATOM      3  C2  UNL d   1       2.175  -0.552   2.949  0.00  0.00     0.034 A 
ATOM      4  C3  UNL d   1       1.231   0.384   3.387  0.00  0.00     0.017 A 
ATOM      5  C4  UNL d   1      -0.135   0.109   3.250  0.00  0.00     0.017 A 
ATOM      6  C5  UNL d   1      -0.547  -1.098   2.677  0.00  0.00     0.034 A 
ATOM      7 Cl   UNL d   1      -1.358   1.215   3.767  0.00  0.00    -0.070 Cl
ATOM      8 Cl1  UNL d   1       1.819   1.851   4.085  0.00  0.00    -0.070 Cl
ENDROOT
TORSDOF 0
ENDMDL
