MODEL 1
REMARK minimizedAffinity -0.23197256
REMARK minimizedRMSD -1
REMARK  0 active torsions:
REMARK  status: ('A' for Active; 'I' for Inactive)
ROOT
ATOM      1  C   UNL d   1      -1.614   0.030   0.373  0.00  0.00     0.020 A 
ATOM      2  C1  UNL d   1      -1.013  -0.010  -0.885  0.00  0.00     0.020 A 
ATOM      3  C2  UNL d   1       0.322  -0.401  -1.008  0.00  0.00     0.034 A 
ATOM      4  C3  UNL d   1       1.060  -0.754   0.127  0.00  0.00     0.017 A 
ATOM      5  C4  UNL d   1       0.456  -0.714   1.389  0.00  0.00     0.017 A 
ATOM      6  C5  UNL d   1      -0.881  -0.321   1.507  0.00  0.00     0.034 A 
ATOM      7 Cl   UNL d   1       1.302  -1.135   2.836  0.00  0.00    -0.070 Cl
ATOM      8 Cl1  UNL d   1       2.706  -1.228  -0.100  0.00  0.00    -0.070 Cl
ENDROOT
TORSDOF 0
ENDMDL
