MODEL 1
REMARK minimizedAffinity -0.270214528
REMARK minimizedRMSD -1
REMARK  0 active torsions:
REMARK  status: ('A' for Active; 'I' for Inactive)
ROOT
ATOM      1  C   UNL d   1      -0.507  -0.076   1.429  0.00  0.00     0.020 A 
ATOM      2  C1  UNL d   1      -0.358  -1.045   2.420  0.00  0.00     0.020 A 
ATOM      3  C2  UNL d   1       0.466  -2.150   2.197  0.00  0.00     0.034 A 
ATOM      4  C3  UNL d   1       1.145  -2.289   0.981  0.00  0.00     0.017 A 
ATOM      5  C4  UNL d   1       0.995  -1.315  -0.013  0.00  0.00     0.017 A 
ATOM      6  C5  UNL d   1       0.169  -0.211   0.215  0.00  0.00     0.034 A 
ATOM      7 Cl   UNL d   1       1.800  -1.417  -1.539  0.00  0.00    -0.070 Cl
ATOM      8 Cl1  UNL d   1       2.148  -3.681   0.775  0.00  0.00    -0.070 Cl
ENDROOT
TORSDOF 0
ENDMDL
