MODEL 1
REMARK minimizedAffinity 2.2304976
REMARK minimizedRMSD -1
REMARK  0 active torsions:
REMARK  status: ('A' for Active; 'I' for Inactive)
ROOT
ATOM      1  C   UNL d   1       2.095  -4.322   1.706  0.00  0.00     0.020 A 
ATOM      2  C1  UNL d   1       2.383  -3.124   1.053  0.00  0.00     0.020 A 
ATOM      3  C2  UNL d   1       1.403  -2.135   0.946  0.00  0.00     0.034 A 
ATOM      4  C3  UNL d   1       0.131  -2.341   1.491  0.00  0.00     0.017 A 
ATOM      5  C4  UNL d   1      -0.157  -3.544   2.146  0.00  0.00     0.017 A 
ATOM      6  C5  UNL d   1       0.827  -4.531   2.251  0.00  0.00     0.034 A 
ATOM      7 Cl   UNL d   1      -1.704  -3.871   2.845  0.00  0.00    -0.070 Cl
ATOM      8 Cl1  UNL d   1      -1.031  -1.074   1.321  0.00  0.00    -0.070 Cl
ENDROOT
TORSDOF 0
ENDMDL
