MODEL 1
REMARK minimizedAffinity -0.696059227
REMARK minimizedRMSD -1
REMARK  0 active torsions:
REMARK  status: ('A' for Active; 'I' for Inactive)
ROOT
ATOM      1  C   UNL d   1       1.739  -3.802   0.893  0.00  0.00     0.020 A 
ATOM      2  C1  UNL d   1       1.280  -4.943   1.548  0.00  0.00     0.020 A 
ATOM      3  C2  UNL d   1       0.150  -4.872   2.366  0.00  0.00     0.034 A 
ATOM      4  C3  UNL d   1      -0.524  -3.656   2.531  0.00  0.00     0.017 A 
ATOM      5  C4  UNL d   1      -0.061  -2.511   1.873  0.00  0.00     0.017 A 
ATOM      6  C5  UNL d   1       1.070  -2.588   1.055  0.00  0.00     0.034 A 
ATOM      7 Cl   UNL d   1      -0.840  -0.975   2.027  0.00  0.00    -0.070 Cl
ATOM      8 Cl1  UNL d   1      -1.914  -3.640   3.557  0.00  0.00    -0.070 Cl
ENDROOT
TORSDOF 0
ENDMDL
