MODEL 1
REMARK minimizedAffinity 7.75589514
REMARK minimizedRMSD -1
REMARK  0 active torsions:
REMARK  status: ('A' for Active; 'I' for Inactive)
ROOT
ATOM      1  C   UNL d   1       0.185  -0.455   0.927  0.00  0.00     0.020 A 
ATOM      2  C1  UNL d   1      -0.941  -0.136   1.684  0.00  0.00     0.020 A 
ATOM      3  C2  UNL d   1      -1.440  -1.052   2.613  0.00  0.00     0.034 A 
ATOM      4  C3  UNL d   1      -0.811  -2.290   2.788  0.00  0.00     0.017 A 
ATOM      5  C4  UNL d   1       0.320  -2.609   2.028  0.00  0.00     0.017 A 
ATOM      6  C5  UNL d   1       0.815  -1.688   1.099  0.00  0.00     0.034 A 
ATOM      7 Cl   UNL d   1       1.150  -4.116   2.187  0.00  0.00    -0.070 Cl
ATOM      8 Cl1  UNL d   1      -1.481  -3.373   3.955  0.00  0.00    -0.070 Cl
ENDROOT
TORSDOF 0
ENDMDL
