MODEL 1
REMARK minimizedAffinity 5.01807642
REMARK minimizedRMSD -1
REMARK  0 active torsions:
REMARK  status: ('A' for Active; 'I' for Inactive)
ROOT
ATOM      1  C   UNL d   1      -2.251  -0.009   2.525  0.00  0.00     0.020 A 
ATOM      2  C1  UNL d   1      -1.038  -0.426   3.073  0.00  0.00     0.020 A 
ATOM      3  C2  UNL d   1      -0.010  -0.868   2.237  0.00  0.00     0.034 A 
ATOM      4  C3  UNL d   1      -0.192  -0.894   0.850  0.00  0.00     0.017 A 
ATOM      5  C4  UNL d   1      -1.409  -0.475   0.301  0.00  0.00     0.017 A 
ATOM      6  C5  UNL d   1      -2.436  -0.034   1.142  0.00  0.00     0.034 A 
ATOM      7 Cl   UNL d   1      -1.708  -0.478  -1.401  0.00  0.00    -0.070 Cl
ATOM      8 Cl1  UNL d   1       1.123  -1.452  -0.123  0.00  0.00    -0.070 Cl
ENDROOT
TORSDOF 0
ENDMDL
