MODEL 1
REMARK minimizedAffinity -0.321767837
REMARK minimizedRMSD -1
REMARK  0 active torsions:
REMARK  status: ('A' for Active; 'I' for Inactive)
ROOT
ATOM      1  C   UNL d   1       0.147  -1.386   0.715  0.00  0.00     0.020 A 
ATOM      2  C1  UNL d   1       0.163  -0.893   2.019  0.00  0.00     0.020 A 
ATOM      3  C2  UNL d   1       1.042  -1.436   2.959  0.00  0.00     0.034 A 
ATOM      4  C3  UNL d   1       1.906  -2.475   2.597  0.00  0.00     0.017 A 
ATOM      5  C4  UNL d   1       1.889  -2.969   1.288  0.00  0.00     0.017 A 
ATOM      6  C5  UNL d   1       1.007  -2.422   0.350  0.00  0.00     0.034 A 
ATOM      7 Cl   UNL d   1       2.926  -4.250   0.766  0.00  0.00    -0.070 Cl
ATOM      8 Cl1  UNL d   1       2.966  -3.099   3.811  0.00  0.00    -0.070 Cl
ENDROOT
TORSDOF 0
ENDMDL
