MODEL 1
REMARK minimizedAffinity -2.61172128
REMARK minimizedRMSD -1
REMARK  0 active torsions:
REMARK  status: ('A' for Active; 'I' for Inactive)
ROOT
ATOM      1  C1  BNZ d   1       0.146  -2.606  -3.486  0.00  0.00     0.000 A 
ATOM      2  C2  BNZ d   1      -0.477  -1.617  -2.772  0.00  0.00     0.000 A 
ATOM      3  C3  BNZ d   1      -1.023  -1.878  -1.547  0.00  0.00     0.000 A 
ATOM      4  C4  BNZ d   1      -0.981  -3.133  -1.055  0.00  0.00     0.000 A 
ATOM      5  C5  BNZ d   1      -0.365  -4.142  -1.767  0.00  0.00     0.000 A 
ATOM      6  C6  BNZ d   1       0.218  -3.868  -2.983  0.00  0.00     0.000 A 
ENDROOT
TORSDOF 0
ENDMDL
