MODEL 1
REMARK minimizedAffinity -1.05662572
REMARK minimizedRMSD -1
REMARK  0 active torsions:
REMARK  status: ('A' for Active; 'I' for Inactive)
ROOT
ATOM      1  C1  BNZ d   1      -0.658  -2.224  -3.206  0.00  0.00     0.000 A 
ATOM      2  C2  BNZ d   1      -1.496  -2.265  -2.124  0.00  0.00     0.000 A 
ATOM      3  C3  BNZ d   1      -0.997  -2.339  -0.854  0.00  0.00     0.000 A 
ATOM      4  C4  BNZ d   1       0.337  -2.413  -0.669  0.00  0.00     0.000 A 
ATOM      5  C5  BNZ d   1       1.195  -2.382  -1.750  0.00  0.00     0.000 A 
ATOM      6  C6  BNZ d   1       0.690  -2.268  -3.025  0.00  0.00     0.000 A 
ENDROOT
TORSDOF 0
ENDMDL
