MODEL 1
REMARK minimizedAffinity -3.09739208
REMARK minimizedRMSD -1
REMARK  0 active torsions:
REMARK  status: ('A' for Active; 'I' for Inactive)
ROOT
ATOM      1  C1  BNZ d   1      -0.748  -2.770  -0.062  0.00  0.00     0.000 A 
ATOM      2  C2  BNZ d   1      -1.907  -2.319  -0.635  0.00  0.00     0.000 A 
ATOM      3  C3  BNZ d   1      -1.950  -1.985  -1.959  0.00  0.00     0.000 A 
ATOM      4  C4  BNZ d   1      -0.825  -2.063  -2.699  0.00  0.00     0.000 A 
ATOM      5  C5  BNZ d   1       0.354  -2.507  -2.134  0.00  0.00     0.000 A 
ATOM      6  C6  BNZ d   1       0.384  -2.879  -0.810  0.00  0.00     0.000 A 
ENDROOT
TORSDOF 0
ENDMDL
