MODEL 1
REMARK minimizedAffinity -0.658869803
REMARK minimizedRMSD -1
REMARK  0 active torsions:
REMARK  status: ('A' for Active; 'I' for Inactive)
ROOT
ATOM      1  C1  BNZ d   1       2.822  -1.130   5.064  0.00  0.00     0.000 A 
ATOM      2  C2  BNZ d   1       3.752  -1.497   6.000  0.00  0.00     0.000 A 
ATOM      3  C3  BNZ d   1       4.522  -2.613   5.821  0.00  0.00     0.000 A 
ATOM      4  C4  BNZ d   1       4.332  -3.381   4.729  0.00  0.00     0.000 A 
ATOM      5  C5  BNZ d   1       3.392  -3.029   3.781  0.00  0.00     0.000 A 
ATOM      6  C6  BNZ d   1       2.647  -1.884   3.945  0.00  0.00     0.000 A 
ENDROOT
TORSDOF 0
ENDMDL
