MODEL 1
REMARK minimizedAffinity 2.72109699
REMARK minimizedRMSD -1
REMARK  0 active torsions:
REMARK  status: ('A' for Active; 'I' for Inactive)
ROOT
ATOM      1  C1  BNZ d   1       5.967   3.618  -2.607  0.00  0.00     0.000 A 
ATOM      2  C2  BNZ d   1       5.960   3.655  -3.976  0.00  0.00     0.000 A 
ATOM      3  C3  BNZ d   1       5.997   4.847  -4.644  0.00  0.00     0.000 A 
ATOM      4  C4  BNZ d   1       6.000   6.000  -3.944  0.00  0.00     0.000 A 
ATOM      5  C5  BNZ d   1       5.998   5.979  -2.564  0.00  0.00     0.000 A 
ATOM      6  C6  BNZ d   1       6.000   4.777  -1.894  0.00  0.00     0.000 A 
ENDROOT
TORSDOF 0
ENDMDL
