MODEL 1
REMARK minimizedAffinity -1.99802899
REMARK minimizedRMSD -1
REMARK  0 active torsions:
REMARK  status: ('A' for Active; 'I' for Inactive)
ROOT
ATOM      1  C1  BNZ d   1       4.212   5.986  -3.684  0.00  0.00     0.000 A 
ATOM      2  C2  BNZ d   1       4.232   5.610  -5.001  0.00  0.00     0.000 A 
ATOM      3  C3  BNZ d   1       5.114   4.665  -5.446  0.00  0.00     0.000 A 
ATOM      4  C4  BNZ d   1       6.000   4.127  -4.584  0.00  0.00     0.000 A 
ATOM      5  C5  BNZ d   1       5.999   4.501  -3.255  0.00  0.00     0.000 A 
ATOM      6  C6  BNZ d   1       5.084   5.425  -2.803  0.00  0.00     0.000 A 
ENDROOT
TORSDOF 0
ENDMDL
