MODEL 1
REMARK minimizedAffinity 0.898786485
REMARK minimizedRMSD -1
REMARK  0 active torsions:
REMARK  status: ('A' for Active; 'I' for Inactive)
ROOT
ATOM      1  C1  BNZ d   1       4.897   4.465  -4.165  0.00  0.00     0.000 A 
ATOM      2  C2  BNZ d   1       5.990   4.468  -3.340  0.00  0.00     0.000 A 
ATOM      3  C3  BNZ d   1       6.000   5.213  -2.194  0.00  0.00     0.000 A 
ATOM      4  C4  BNZ d   1       4.935   5.985  -1.896  0.00  0.00     0.000 A 
ATOM      5  C5  BNZ d   1       3.829   6.000  -2.722  0.00  0.00     0.000 A 
ATOM      6  C6  BNZ d   1       3.807   5.218  -3.854  0.00  0.00     0.000 A 
ENDROOT
TORSDOF 0
ENDMDL
