MODEL 1
REMARK minimizedAffinity 1.12974072
REMARK minimizedRMSD -1
REMARK  0 active torsions:
REMARK  status: ('A' for Active; 'I' for Inactive)
ROOT
ATOM      1  C1  BNZ d   1       5.998   4.194  -3.865  0.00  0.00     0.000 A 
ATOM      2  C2  BNZ d   1       5.998   4.092  -5.230  0.00  0.00     0.000 A 
ATOM      3  C3  BNZ d   1       5.096   4.789  -5.984  0.00  0.00     0.000 A 
ATOM      4  C4  BNZ d   1       4.170   5.554  -5.371  0.00  0.00     0.000 A 
ATOM      5  C5  BNZ d   1       4.151   5.659  -3.994  0.00  0.00     0.000 A 
ATOM      6  C6  BNZ d   1       5.086   4.987  -3.241  0.00  0.00     0.000 A 
ENDROOT
TORSDOF 0
ENDMDL
