MODEL 1
REMARK minimizedAffinity -2.99250293
REMARK minimizedRMSD -1
REMARK  0 active torsions:
REMARK  status: ('A' for Active; 'I' for Inactive)
ROOT
ATOM      1  C1  BNZ d   1       4.666   4.328  -4.557  0.00  0.00     0.000 A 
ATOM      2  C2  BNZ d   1       4.652   5.628  -4.126  0.00  0.00     0.000 A 
ATOM      3  C3  BNZ d   1       5.329   5.999  -2.998  0.00  0.00     0.000 A 
ATOM      4  C4  BNZ d   1       5.984   5.064  -2.280  0.00  0.00     0.000 A 
ATOM      5  C5  BNZ d   1       6.000   3.747  -2.696  0.00  0.00     0.000 A 
ATOM      6  C6  BNZ d   1       5.350   3.385  -3.854  0.00  0.00     0.000 A 
ENDROOT
TORSDOF 0
ENDMDL
