MODEL 1
REMARK minimizedAffinity -1.52917671
REMARK minimizedRMSD -1
REMARK  0 active torsions:
REMARK  status: ('A' for Active; 'I' for Inactive)
ROOT
ATOM      1  C1  BNZ d   1       3.380  -1.738   5.000  0.00  0.00     0.000 A 
ATOM      2  C2  BNZ d   1       4.313  -1.819   5.999  0.00  0.00     0.000 A 
ATOM      3  C3  BNZ d   1       5.294  -2.771   5.965  0.00  0.00     0.000 A 
ATOM      4  C4  BNZ d   1       5.315  -3.664   4.955  0.00  0.00     0.000 A 
ATOM      5  C5  BNZ d   1       4.375  -3.602   3.946  0.00  0.00     0.000 A 
ATOM      6  C6  BNZ d   1       3.413  -2.618   3.963  0.00  0.00     0.000 A 
ENDROOT
TORSDOF 0
ENDMDL
