MODEL 1
REMARK minimizedAffinity 1.38446653
REMARK minimizedRMSD -1
REMARK  0 active torsions:
REMARK  status: ('A' for Active; 'I' for Inactive)
ROOT
ATOM      1  C1  BNZ d   1      -1.133  -2.984   1.288  0.00  0.00     0.000 A 
ATOM      2  C2  BNZ d   1      -0.623  -2.627   0.068  0.00  0.00     0.000 A 
ATOM      3  C3  BNZ d   1      -1.452  -2.296  -0.967  0.00  0.00     0.000 A 
ATOM      4  C4  BNZ d   1      -2.788  -2.360  -0.794  0.00  0.00     0.000 A 
ATOM      5  C5  BNZ d   1      -3.317  -2.727   0.427  0.00  0.00     0.000 A 
ATOM      6  C6  BNZ d   1      -2.480  -3.023   1.478  0.00  0.00     0.000 A 
ENDROOT
TORSDOF 0
ENDMDL
