MODEL 1
REMARK minimizedAffinity -0.702633798
REMARK minimizedRMSD -1
REMARK  0 active torsions:
REMARK  status: ('A' for Active; 'I' for Inactive)
ROOT
ATOM      1  C1  BNZ d   1       4.869   3.801  -4.592  0.00  0.00     0.000 A 
ATOM      2  C2  BNZ d   1       5.978   4.106  -3.850  0.00  0.00     0.000 A 
ATOM      3  C3  BNZ d   1       5.990   5.194  -3.022  0.00  0.00     0.000 A 
ATOM      4  C4  BNZ d   1       4.908   5.997  -2.969  0.00  0.00     0.000 A 
ATOM      5  C5  BNZ d   1       3.785   5.709  -3.718  0.00  0.00     0.000 A 
ATOM      6  C6  BNZ d   1       3.763   4.591  -4.520  0.00  0.00     0.000 A 
ENDROOT
TORSDOF 0
ENDMDL
