MODEL 1
REMARK minimizedAffinity 3.39528346
REMARK minimizedRMSD -1
REMARK  0 active torsions:
REMARK  status: ('A' for Active; 'I' for Inactive)
ROOT
ATOM      1  C1  BNZ d   1      -1.929  -2.741   0.290  0.00  0.00     0.000 A 
ATOM      2  C2  BNZ d   1      -1.709  -3.021  -1.032  0.00  0.00     0.000 A 
ATOM      3  C3  BNZ d   1      -0.733  -2.368  -1.732  0.00  0.00     0.000 A 
ATOM      4  C4  BNZ d   1      -0.007  -1.409  -1.121  0.00  0.00     0.000 A 
ATOM      5  C5  BNZ d   1      -0.224  -1.109   0.209  0.00  0.00     0.000 A 
ATOM      6  C6  BNZ d   1      -1.181  -1.796   0.921  0.00  0.00     0.000 A 
ENDROOT
TORSDOF 0
ENDMDL
