MODEL 1
REMARK minimizedAffinity -4.13425493
REMARK minimizedRMSD -1
REMARK  0 active torsions:
REMARK  status: ('A' for Active; 'I' for Inactive)
ROOT
ATOM      1  C1  BNZ d   1       2.971  -1.508   4.899  0.00  0.00     0.000 A 
ATOM      2  C2  BNZ d   1       3.785  -1.552   6.000  0.00  0.00     0.000 A 
ATOM      3  C3  BNZ d   1       4.923  -2.309   5.999  0.00  0.00     0.000 A 
ATOM      4  C4  BNZ d   1       5.225  -3.051   4.913  0.00  0.00     0.000 A 
ATOM      5  C5  BNZ d   1       4.409  -3.024   3.800  0.00  0.00     0.000 A 
ATOM      6  C6  BNZ d   1       3.285  -2.231   3.790  0.00  0.00     0.000 A 
ENDROOT
TORSDOF 0
ENDMDL
