MODEL 1
REMARK minimizedAffinity 0.298609436
REMARK minimizedRMSD -1
REMARK  0 active torsions:
REMARK  status: ('A' for Active; 'I' for Inactive)
ROOT
ATOM      1  C   UNL d   1      -4.958   3.364  -5.987  0.00  0.00     0.020 A 
ATOM      2  C1  UNL d   1      -3.738   4.038  -5.950  0.00  0.00     0.020 A 
ATOM      3  C2  UNL d   1      -2.543   3.316  -5.925  0.00  0.00     0.034 A 
ATOM      4  C3  UNL d   1      -2.565   1.917  -5.938  0.00  0.00     0.017 A 
ATOM      5  C4  UNL d   1      -3.790   1.242  -5.976  0.00  0.00     0.017 A 
ATOM      6  C5  UNL d   1      -4.984   1.969  -6.000  0.00  0.00     0.034 A 
ATOM      7 Cl   UNL d   1      -3.898  -0.483  -5.994  0.00  0.00    -0.070 Cl
ATOM      8 Cl1  UNL d   1      -1.048   1.089  -5.907  0.00  0.00    -0.070 Cl
ENDROOT
TORSDOF 0
ENDMDL
