MODEL 1
REMARK minimizedAffinity -3.14558578
REMARK minimizedRMSD -1
REMARK  0 active torsions:
REMARK  status: ('A' for Active; 'I' for Inactive)
ROOT
ATOM      1  C   UNL d   1      -1.119  -1.887  -2.414  0.00  0.00     0.020 A 
ATOM      2  C1  UNL d   1      -0.210  -1.550  -3.417  0.00  0.00     0.020 A 
ATOM      3  C2  UNL d   1       0.874  -0.719  -3.125  0.00  0.00     0.034 A 
ATOM      4  C3  UNL d   1       1.052  -0.224  -1.828  0.00  0.00     0.017 A 
ATOM      5  C4  UNL d   1       0.140  -0.563  -0.823  0.00  0.00     0.017 A 
ATOM      6  C5  UNL d   1      -0.944  -1.395  -1.120  0.00  0.00     0.034 A 
ATOM      7 Cl   UNL d   1       0.294   0.009   0.800  0.00  0.00    -0.070 Cl
ATOM      8 Cl1  UNL d   1       2.416   0.798  -1.539  0.00  0.00    -0.070 Cl
ENDROOT
TORSDOF 0
ENDMDL
