MODEL 1
REMARK minimizedAffinity 7.04425144
REMARK minimizedRMSD -1
REMARK  0 active torsions:
REMARK  status: ('A' for Active; 'I' for Inactive)
ROOT
ATOM      1  C   UNL d   1      -3.568   1.155   1.306  0.00  0.00     0.020 A 
ATOM      2  C1  UNL d   1      -4.849   1.119   0.758  0.00  0.00     0.020 A 
ATOM      3  C2  UNL d   1      -5.582  -0.069   0.774  0.00  0.00     0.034 A 
ATOM      4  C3  UNL d   1      -5.034  -1.227   1.339  0.00  0.00     0.017 A 
ATOM      5  C4  UNL d   1      -3.748  -1.190   1.889  0.00  0.00     0.017 A 
ATOM      6  C5  UNL d   1      -3.019   0.003   1.871  0.00  0.00     0.034 A 
ATOM      7 Cl   UNL d   1      -3.005  -2.577   2.603  0.00  0.00    -0.070 Cl
ATOM      8 Cl1  UNL d   1      -5.997  -2.662   1.324  0.00  0.00    -0.070 Cl
ENDROOT
TORSDOF 0
ENDMDL
