MODEL 1
REMARK minimizedAffinity 6.05421782
REMARK minimizedRMSD -1
REMARK  0 active torsions:
REMARK  status: ('A' for Active; 'I' for Inactive)
ROOT
ATOM      1  C   UNL d   1      -5.528   2.114  -5.996  0.00  0.00     0.020 A 
ATOM      2  C1  UNL d   1      -4.865   3.334  -5.872  0.00  0.00     0.020 A 
ATOM      3  C2  UNL d   1      -3.474   3.364  -5.752  0.00  0.00     0.034 A 
ATOM      4  C3  UNL d   1      -2.742   2.171  -5.754  0.00  0.00     0.017 A 
ATOM      5  C4  UNL d   1      -3.408   0.946  -5.878  0.00  0.00     0.017 A 
ATOM      6  C5  UNL d   1      -4.801   0.923  -5.999  0.00  0.00     0.034 A 
ATOM      7 Cl   UNL d   1      -2.573  -0.567  -5.889  0.00  0.00    -0.070 Cl
ATOM      8 Cl1  UNL d   1      -1.024   2.282  -5.601  0.00  0.00    -0.070 Cl
ENDROOT
TORSDOF 0
ENDMDL
