MODEL 1
REMARK minimizedAffinity -3.31713223
REMARK minimizedRMSD -1
REMARK  0 active torsions:
REMARK  status: ('A' for Active; 'I' for Inactive)
ROOT
ATOM      1  C   UNL d   1      -5.373   3.486  -5.992  0.00  0.00     0.020 A 
ATOM      2  C1  UNL d   1      -5.068   4.847  -5.996  0.00  0.00     0.020 A 
ATOM      3  C2  UNL d   1      -3.735   5.263  -5.998  0.00  0.00     0.034 A 
ATOM      4  C3  UNL d   1      -2.703   4.319  -5.997  0.00  0.00     0.017 A 
ATOM      5  C4  UNL d   1      -3.010   2.953  -5.993  0.00  0.00     0.017 A 
ATOM      6  C5  UNL d   1      -4.346   2.542  -5.991  0.00  0.00     0.034 A 
ATOM      7 Cl   UNL d   1      -1.790   1.729  -5.991  0.00  0.00    -0.070 Cl
ATOM      8 Cl1  UNL d   1      -1.077   4.905  -6.000  0.00  0.00    -0.070 Cl
ENDROOT
TORSDOF 0
ENDMDL
