MODEL 1
REMARK minimizedAffinity -1.37541592
REMARK minimizedRMSD -1
REMARK  0 active torsions:
REMARK  status: ('A' for Active; 'I' for Inactive)
ROOT
ATOM      1  C   UNL d   1      -5.343   4.685  -5.978  0.00  0.00     0.020 A 
ATOM      2  C1  UNL d   1      -3.968   4.918  -5.980  0.00  0.00     0.020 A 
ATOM      3  C2  UNL d   1      -3.078   3.841  -5.985  0.00  0.00     0.034 A 
ATOM      4  C3  UNL d   1      -3.562   2.528  -5.989  0.00  0.00     0.017 A 
ATOM      5  C4  UNL d   1      -4.942   2.296  -5.988  0.00  0.00     0.017 A 
ATOM      6  C5  UNL d   1      -5.828   3.377  -5.982  0.00  0.00     0.034 A 
ATOM      7 Cl   UNL d   1      -5.614   0.703  -5.993  0.00  0.00    -0.070 Cl
ATOM      8 Cl1  UNL d   1      -2.404   1.246  -5.996  0.00  0.00    -0.070 Cl
ENDROOT
TORSDOF 0
ENDMDL
