MODEL 1
REMARK minimizedAffinity 0.160079405
REMARK minimizedRMSD -1
REMARK  0 active torsions:
REMARK  status: ('A' for Active; 'I' for Inactive)
ROOT
ATOM      1  C   UNL d   1      -5.358   2.974  -5.996  0.00  0.00     0.020 A 
ATOM      2  C1  UNL d   1      -4.158   3.685  -5.991  0.00  0.00     0.020 A 
ATOM      3  C2  UNL d   1      -2.941   3.000  -5.989  0.00  0.00     0.034 A 
ATOM      4  C3  UNL d   1      -2.921   1.601  -5.991  0.00  0.00     0.017 A 
ATOM      5  C4  UNL d   1      -4.126   0.888  -5.996  0.00  0.00     0.017 A 
ATOM      6  C5  UNL d   1      -5.341   1.579  -5.998  0.00  0.00     0.034 A 
ATOM      7 Cl   UNL d   1      -4.181  -0.839  -6.000  0.00  0.00    -0.070 Cl
ATOM      8 Cl1  UNL d   1      -1.380   0.819  -5.989  0.00  0.00    -0.070 Cl
ENDROOT
TORSDOF 0
ENDMDL
