MODEL 1
REMARK minimizedAffinity -0.69457674
REMARK minimizedRMSD -1
REMARK  0 active torsions:
REMARK  status: ('A' for Active; 'I' for Inactive)
ROOT
ATOM      1  C   UNL d   1       1.722  -0.017  -2.489  0.00  0.00     0.020 A 
ATOM      2  C1  UNL d   1       2.259   0.972  -1.666  0.00  0.00     0.020 A 
ATOM      3  C2  UNL d   1       1.821   1.095  -0.346  0.00  0.00     0.034 A 
ATOM      4  C3  UNL d   1       0.843   0.228   0.155  0.00  0.00     0.017 A 
ATOM      5  C4  UNL d   1       0.305  -0.764  -0.672  0.00  0.00     0.017 A 
ATOM      6  C5  UNL d   1       0.747  -0.883  -1.993  0.00  0.00     0.034 A 
ATOM      7 Cl   UNL d   1      -0.905  -1.871  -0.125  0.00  0.00    -0.070 Cl
ATOM      8 Cl1  UNL d   1       0.349   0.437   1.798  0.00  0.00    -0.070 Cl
ENDROOT
TORSDOF 0
ENDMDL
