MODEL 1
REMARK minimizedAffinity -2.24099326
REMARK minimizedRMSD -1
REMARK  0 active torsions:
REMARK  status: ('A' for Active; 'I' for Inactive)
ROOT
ATOM      1  C   UNL d   1      -5.340   4.626  -5.996  0.00  0.00     0.020 A 
ATOM      2  C1  UNL d   1      -3.965   4.859  -5.993  0.00  0.00     0.020 A 
ATOM      3  C2  UNL d   1      -3.075   3.783  -5.993  0.00  0.00     0.034 A 
ATOM      4  C3  UNL d   1      -3.558   2.469  -5.995  0.00  0.00     0.017 A 
ATOM      5  C4  UNL d   1      -4.938   2.237  -5.997  0.00  0.00     0.017 A 
ATOM      6  C5  UNL d   1      -5.825   3.318  -5.998  0.00  0.00     0.034 A 
ATOM      7 Cl   UNL d   1      -5.610   0.644  -6.000  0.00  0.00    -0.070 Cl
ATOM      8 Cl1  UNL d   1      -2.400   1.187  -5.994  0.00  0.00    -0.070 Cl
ENDROOT
TORSDOF 0
ENDMDL
