MODEL 1
REMARK minimizedAffinity 3.10728121
REMARK minimizedRMSD -1
REMARK  0 active torsions:
REMARK  status: ('A' for Active; 'I' for Inactive)
ROOT
ATOM      1  C   UNL d   1      -3.929  -1.631  -5.990  0.00  0.00     0.020 A 
ATOM      2  C1  UNL d   1      -5.017  -0.760  -5.990  0.00  0.00     0.020 A 
ATOM      3  C2  UNL d   1      -4.806   0.621  -5.991  0.00  0.00     0.034 A 
ATOM      4  C3  UNL d   1      -3.503   1.133  -5.992  0.00  0.00     0.017 A 
ATOM      5  C4  UNL d   1      -2.412   0.257  -5.993  0.00  0.00     0.017 A 
ATOM      6  C5  UNL d   1      -2.629  -1.124  -5.992  0.00  0.00     0.034 A 
ATOM      7 Cl   UNL d   1      -0.776   0.815  -5.994  0.00  0.00    -0.070 Cl
ATOM      8 Cl1  UNL d   1      -3.316   2.851  -5.994  0.00  0.00    -0.070 Cl
ENDROOT
TORSDOF 0
ENDMDL
