MODEL 1
REMARK minimizedAffinity -1.09998226
REMARK minimizedRMSD -1
REMARK  0 active torsions:
REMARK  status: ('A' for Active; 'I' for Inactive)
ROOT
ATOM      1  C   UNL d   1      -4.121   5.182  -5.876  0.00  0.00     0.020 A 
ATOM      2  C1  UNL d   1      -5.490   4.918  -5.877  0.00  0.00     0.020 A 
ATOM      3  C2  UNL d   1      -5.948   3.599  -5.915  0.00  0.00     0.034 A 
ATOM      4  C3  UNL d   1      -5.035   2.539  -5.952  0.00  0.00     0.017 A 
ATOM      5  C4  UNL d   1      -3.661   2.804  -5.951  0.00  0.00     0.017 A 
ATOM      6  C5  UNL d   1      -3.208   4.127  -5.913  0.00  0.00     0.034 A 
ATOM      7 Cl   UNL d   1      -2.474   1.548  -5.996  0.00  0.00    -0.070 Cl
ATOM      8 Cl1  UNL d   1      -5.671   0.933  -5.998  0.00  0.00    -0.070 Cl
ENDROOT
TORSDOF 0
ENDMDL
