MODEL 1
REMARK minimizedAffinity -0.274865359
REMARK minimizedRMSD -1
REMARK  0 active torsions:
REMARK  status: ('A' for Active; 'I' for Inactive)
ROOT
ATOM      1  C   UNL d   1       0.366  -1.196  -1.905  0.00  0.00     0.020 A 
ATOM      2  C1  UNL d   1      -0.437  -0.925  -0.798  0.00  0.00     0.020 A 
ATOM      3  C2  UNL d   1      -0.055   0.058   0.117  0.00  0.00     0.034 A 
ATOM      4  C3  UNL d   1       1.132   0.774  -0.073  0.00  0.00     0.017 A 
ATOM      5  C4  UNL d   1       1.938   0.501  -1.184  0.00  0.00     0.017 A 
ATOM      6  C5  UNL d   1       1.551  -0.485  -2.098  0.00  0.00     0.034 A 
ATOM      7 Cl   UNL d   1       3.417   1.342  -1.486  0.00  0.00    -0.070 Cl
ATOM      8 Cl1  UNL d   1       1.542   1.976   1.099  0.00  0.00    -0.070 Cl
ENDROOT
TORSDOF 0
ENDMDL
