MODEL 1
REMARK minimizedAffinity 1.66047895
REMARK minimizedRMSD -1
REMARK  0 active torsions:
REMARK  status: ('A' for Active; 'I' for Inactive)
ROOT
ATOM      1  C   UNL d   1      -3.632  -5.835  -5.999  0.00  0.00     0.020 A 
ATOM      2  C1  UNL d   1      -2.333  -5.337  -5.903  0.00  0.00     0.020 A 
ATOM      3  C2  UNL d   1      -2.119  -3.960  -5.807  0.00  0.00     0.034 A 
ATOM      4  C3  UNL d   1      -3.205  -3.077  -5.807  0.00  0.00     0.017 A 
ATOM      5  C4  UNL d   1      -4.508  -3.579  -5.904  0.00  0.00     0.017 A 
ATOM      6  C5  UNL d   1      -4.717  -4.958  -6.000  0.00  0.00     0.034 A 
ATOM      7 Cl   UNL d   1      -5.899  -2.552  -5.911  0.00  0.00    -0.070 Cl
ATOM      8 Cl1  UNL d   1      -2.867  -1.387  -5.686  0.00  0.00    -0.070 Cl
ENDROOT
TORSDOF 0
ENDMDL
