MODEL 1
REMARK minimizedAffinity -2.9339962
REMARK minimizedRMSD -1
REMARK  0 active torsions:
REMARK  status: ('A' for Active; 'I' for Inactive)
ROOT
ATOM      1  C   UNL d   1      -5.966   3.778  -5.995  0.00  0.00     0.020 A 
ATOM      2  C1  UNL d   1      -5.248   4.974  -5.993  0.00  0.00     0.020 A 
ATOM      3  C2  UNL d   1      -3.852   4.950  -5.994  0.00  0.00     0.034 A 
ATOM      4  C3  UNL d   1      -3.169   3.728  -5.996  0.00  0.00     0.017 A 
ATOM      5  C4  UNL d   1      -3.890   2.529  -5.997  0.00  0.00     0.017 A 
ATOM      6  C5  UNL d   1      -5.288   2.558  -5.997  0.00  0.00     0.034 A 
ATOM      7 Cl   UNL d   1      -3.118   0.982  -6.000  0.00  0.00    -0.070 Cl
ATOM      8 Cl1  UNL d   1      -1.441   3.773  -5.997  0.00  0.00    -0.070 Cl
ENDROOT
TORSDOF 0
ENDMDL
