MODEL 1
REMARK minimizedAffinity 4.09518242
REMARK minimizedRMSD -1
REMARK  0 active torsions:
REMARK  status: ('A' for Active; 'I' for Inactive)
ROOT
ATOM      1  C   UNL d   1       0.166  -0.039  -0.372  0.00  0.00     0.020 A 
ATOM      2  C1  UNL d   1       0.974  -0.419  -1.442  0.00  0.00     0.020 A 
ATOM      3  C2  UNL d   1       2.172   0.255  -1.686  0.00  0.00     0.034 A 
ATOM      4  C3  UNL d   1       2.566   1.313  -0.859  0.00  0.00     0.017 A 
ATOM      5  C4  UNL d   1       1.754   1.693   0.216  0.00  0.00     0.017 A 
ATOM      6  C5  UNL d   1       0.555   1.015   0.455  0.00  0.00     0.034 A 
ATOM      7 Cl   UNL d   1       2.173   2.989   1.281  0.00  0.00    -0.070 Cl
ATOM      8 Cl1  UNL d   1       4.061   2.101  -1.219  0.00  0.00    -0.070 Cl
ENDROOT
TORSDOF 0
ENDMDL
