MODEL 1
REMARK minimizedAffinity -2.84377766
REMARK minimizedRMSD -1
REMARK  0 active torsions:
REMARK  status: ('A' for Active; 'I' for Inactive)
ROOT
ATOM      1  C   UNL d   1       0.455  -0.922  -3.009  0.00  0.00     0.020 A 
ATOM      2  C1  UNL d   1      -0.490  -1.367  -2.085  0.00  0.00     0.020 A 
ATOM      3  C2  UNL d   1      -0.385  -0.993  -0.744  0.00  0.00     0.034 A 
ATOM      4  C3  UNL d   1       0.667  -0.171  -0.323  0.00  0.00     0.017 A 
ATOM      5  C4  UNL d   1       1.615   0.275  -1.251  0.00  0.00     0.017 A 
ATOM      6  C5  UNL d   1       1.505  -0.103  -2.593  0.00  0.00     0.034 A 
ATOM      7 Cl   UNL d   1       2.941   1.291  -0.806  0.00  0.00    -0.070 Cl
ATOM      8 Cl1  UNL d   1       0.735   0.252   1.351  0.00  0.00    -0.070 Cl
ENDROOT
TORSDOF 0
ENDMDL
