MODEL 1
REMARK minimizedAffinity 2.02669859
REMARK minimizedRMSD -1
REMARK  0 active torsions:
REMARK  status: ('A' for Active; 'I' for Inactive)
ROOT
ATOM      1  C   UNL d   1       0.057  -0.776  -0.450  0.00  0.00     0.020 A 
ATOM      2  C1  UNL d   1       0.761  -0.932  -1.643  0.00  0.00     0.020 A 
ATOM      3  C2  UNL d   1       1.831  -0.085  -1.939  0.00  0.00     0.034 A 
ATOM      4  C3  UNL d   1       2.201   0.922  -1.041  0.00  0.00     0.017 A 
ATOM      5  C4  UNL d   1       1.494   1.079   0.157  0.00  0.00     0.017 A 
ATOM      6  C5  UNL d   1       0.423   0.228   0.448  0.00  0.00     0.034 A 
ATOM      7 Cl   UNL d   1       1.891   2.299   1.315  0.00  0.00    -0.070 Cl
ATOM      8 Cl1  UNL d   1       3.534   1.933  -1.471  0.00  0.00    -0.070 Cl
ENDROOT
TORSDOF 0
ENDMDL
