MODEL 1
REMARK minimizedAffinity 6.02386427
REMARK minimizedRMSD -1
REMARK  1 active torsions:
REMARK  status: ('A' for Active; 'I' for Inactive)
REMARK    1  A    between atoms: C1_2  and  C2_3 
ROOT
ATOM      1  C2  UNL d   1      -4.949   4.940   1.568  0.00  0.00    -0.081 A 
ATOM      2  C3  UNL d   1      -5.662   3.870   2.125  0.00  0.00     0.006 A 
ATOM      3  C4  UNL d   1      -5.989   3.868   3.483  0.00  0.00     0.002 A 
ATOM      4  C5  UNL d   1      -5.617   4.938   4.304  0.00  0.00    -0.080 A 
ATOM      5  C6  UNL d   1      -5.988   4.962   5.757  0.00  0.00     0.076 C 
ATOM      6  C7  UNL d   1      -4.890   5.998   3.752  0.00  0.00     0.002 A 
ATOM      7  C8  UNL d   1      -4.562   6.000   2.394  0.00  0.00     0.006 A 
ENDROOT
BRANCH   1   8
ATOM      8  C1  UNL d   1      -4.651   4.975   0.091  0.00  0.00     0.054 C 
ATOM      9  C   UNL d   1      -3.483   5.902  -0.216  0.00  0.00     0.018 C 
ENDBRANCH   1   8
TORSDOF 1
ENDMDL
