MODEL 1
REMARK minimizedAffinity 9.61811638
REMARK minimizedRMSD -1
REMARK  1 active torsions:
REMARK  status: ('A' for Active; 'I' for Inactive)
REMARK    1  A    between atoms: C1_2  and  C2_3 
ROOT
ATOM      1  C2  UNL d   1       3.433  -0.727   1.482  0.00  0.00    -0.081 A 
ATOM      2  C3  UNL d   1       2.988  -0.150   2.678  0.00  0.00     0.006 A 
ATOM      3  C4  UNL d   1       3.679  -0.371   3.871  0.00  0.00     0.002 A 
ATOM      4  C5  UNL d   1       4.830  -1.166   3.889  0.00  0.00    -0.080 A 
ATOM      5  C6  UNL d   1       5.598  -1.386   5.158  0.00  0.00     0.076 C 
ATOM      6  C7  UNL d   1       5.265  -1.757   2.698  0.00  0.00     0.002 A 
ATOM      7  C8  UNL d   1       4.574  -1.537   1.504  0.00  0.00     0.006 A 
ENDROOT
BRANCH   1   8
ATOM      8  C1  UNL d   1       2.728  -0.439   0.182  0.00  0.00     0.054 C 
ATOM      9  C   UNL d   1       3.613   0.363  -0.762  0.00  0.00     0.018 C 
ENDBRANCH   1   8
TORSDOF 1
ENDMDL
