MODEL 1
REMARK minimizedAffinity 7.00134993
REMARK minimizedRMSD -1
REMARK  1 active torsions:
REMARK  status: ('A' for Active; 'I' for Inactive)
REMARK    1  A    between atoms: C1_2  and  C2_3 
ROOT
ATOM      1  C2  UNL d   1       1.684   4.600   4.040  0.00  0.00    -0.081 A 
ATOM      2  C3  UNL d   1       1.439   4.939   2.704  0.00  0.00     0.006 A 
ATOM      3  C4  UNL d   1       2.475   5.402   1.889  0.00  0.00     0.002 A 
ATOM      4  C5  UNL d   1       3.773   5.526   2.395  0.00  0.00    -0.080 A 
ATOM      5  C6  UNL d   1       4.901   5.993   1.522  0.00  0.00     0.076 C 
ATOM      6  C7  UNL d   1       4.015   5.204   3.735  0.00  0.00     0.002 A 
ATOM      7  C8  UNL d   1       2.979   4.742   4.550  0.00  0.00     0.006 A 
ENDROOT
BRANCH   1   8
ATOM      8  C1  UNL d   1       0.582   4.039   4.903  0.00  0.00     0.054 C 
ATOM      9  C   UNL d   1       0.333   2.569   4.596  0.00  0.00     0.018 C 
ENDBRANCH   1   8
TORSDOF 1
ENDMDL
