MODEL 1
REMARK minimizedAffinity 9.92798805
REMARK minimizedRMSD -1
REMARK  1 active torsions:
REMARK  status: ('A' for Active; 'I' for Inactive)
REMARK    1  A    between atoms: C1_2  and  C2_3 
ROOT
ATOM      1  C2  UNL d   1       2.494   1.418   3.518  0.00  0.00    -0.081 A 
ATOM      2  C3  UNL d   1       2.388   2.507   2.644  0.00  0.00     0.006 A 
ATOM      3  C4  UNL d   1       2.673   2.355   1.285  0.00  0.00     0.002 A 
ATOM      4  C5  UNL d   1       3.062   1.112   0.776  0.00  0.00    -0.080 A 
ATOM      5  C6  UNL d   1       3.342   0.928  -0.686  0.00  0.00     0.076 C 
ATOM      6  C7  UNL d   1       3.186   0.028   1.652  0.00  0.00     0.002 A 
ATOM      7  C8  UNL d   1       2.901   0.179   3.011  0.00  0.00     0.006 A 
ENDROOT
BRANCH   1   8
ATOM      8  C1  UNL d   1       2.125   1.563   4.972  0.00  0.00     0.054 C 
ATOM      9  C   UNL d   1       1.186   2.742   5.189  0.00  0.00     0.018 C 
ENDBRANCH   1   8
TORSDOF 1
ENDMDL
