MODEL 1
REMARK minimizedAffinity 5.55240488
REMARK minimizedRMSD -1
REMARK  1 active torsions:
REMARK  status: ('A' for Active; 'I' for Inactive)
REMARK    1  A    between atoms: C1_2  and  C2_3 
ROOT
ATOM      1  C2  UNL d   1       3.786   0.721   0.383  0.00  0.00    -0.081 A 
ATOM      2  C3  UNL d   1       4.946   1.426   0.728  0.00  0.00     0.006 A 
ATOM      3  C4  UNL d   1       5.672   2.115  -0.247  0.00  0.00     0.002 A 
ATOM      4  C5  UNL d   1       5.246   2.117  -1.580  0.00  0.00    -0.080 A 
ATOM      5  C6  UNL d   1       6.000   2.877  -2.630  0.00  0.00     0.076 C 
ATOM      6  C7  UNL d   1       4.098   1.398  -1.927  0.00  0.00     0.002 A 
ATOM      7  C8  UNL d   1       3.372   0.708  -0.953  0.00  0.00     0.006 A 
ENDROOT
BRANCH   1   8
ATOM      8  C1  UNL d   1       2.966   0.031   1.443  0.00  0.00     0.054 C 
ATOM      9  C   UNL d   1       3.817  -0.339   2.649  0.00  0.00     0.018 C 
ENDBRANCH   1   8
TORSDOF 1
ENDMDL
