MODEL 1
REMARK minimizedAffinity -2.82777023
REMARK minimizedRMSD -1
REMARK  1 active torsions:
REMARK  status: ('A' for Active; 'I' for Inactive)
REMARK    1  A    between atoms: C1_2  and  C2_3 
ROOT
ATOM      1  C2  UNL d   1       0.353  -0.386  -0.664  0.00  0.00    -0.076 A 
ATOM      2  C3  UNL d   1       1.112   0.778  -0.455  0.00  0.00     0.004 A 
ATOM      3  C4  UNL d   1       1.385   1.235   0.834  0.00  0.00    -0.003 A 
ATOM      4  C5  UNL d   1       0.903   0.534   1.934  0.00  0.00     0.000 A 
ATOM      5  C6  UNL d   1       0.164  -0.632   1.745  0.00  0.00     0.000 A 
ATOM      6  C7  UNL d   1      -0.106  -1.115   0.453  0.00  0.00    -0.073 A 
ATOM      7  C8  UNL d   1      -0.915  -2.376   0.308  0.00  0.00     0.078 C 
ENDROOT
BRANCH   1   8
ATOM      8  C1  UNL d   1       0.066  -0.818  -2.084  0.00  0.00     0.053 C 
ATOM      9  C   UNL d   1       1.335  -1.076  -2.882  0.00  0.00     0.018 C 
ENDBRANCH   1   8
TORSDOF 1
ENDMDL
