MODEL 1
REMARK minimizedAffinity -5.85786009
REMARK minimizedRMSD -1
REMARK  1 active torsions:
REMARK  status: ('A' for Active; 'I' for Inactive)
REMARK    1  A    between atoms: C1_2  and  C2_3 
ROOT
ATOM      1  C2  UNL d   1      -0.412   0.209   0.453  0.00  0.00    -0.076 A 
ATOM      2  C3  UNL d   1       0.703  -0.135   1.236  0.00  0.00     0.004 A 
ATOM      3  C4  UNL d   1       0.558  -0.479   2.579  0.00  0.00    -0.003 A 
ATOM      4  C5  UNL d   1      -0.705  -0.485   3.160  0.00  0.00     0.000 A 
ATOM      5  C6  UNL d   1      -1.825  -0.163   2.393  0.00  0.00     0.000 A 
ATOM      6  C7  UNL d   1      -1.697   0.170   1.034  0.00  0.00    -0.073 A 
ATOM      7  C8  UNL d   1      -2.938   0.515   0.256  0.00  0.00     0.078 C 
ENDROOT
BRANCH   1   8
ATOM      8  C1  UNL d   1      -0.190   0.600  -0.991  0.00  0.00     0.053 C 
ATOM      9  C   UNL d   1       0.763  -0.342  -1.710  0.00  0.00     0.018 C 
ENDBRANCH   1   8
TORSDOF 1
ENDMDL
