MODEL 1
REMARK minimizedAffinity -3.58835268
REMARK minimizedRMSD -1
REMARK  1 active torsions:
REMARK  status: ('A' for Active; 'I' for Inactive)
REMARK    1  A    between atoms: C1_2  and  C2_3 
ROOT
ATOM      1  C2  UNL d   1      -0.877   0.374   0.828  0.00  0.00    -0.076 A 
ATOM      2  C3  UNL d   1       0.173   0.008   1.688  0.00  0.00     0.004 A 
ATOM      3  C4  UNL d   1      -0.067  -0.282   3.030  0.00  0.00    -0.003 A 
ATOM      4  C5  UNL d   1      -1.362  -0.211   3.534  0.00  0.00     0.000 A 
ATOM      5  C6  UNL d   1      -2.417   0.133   2.691  0.00  0.00     0.000 A 
ATOM      6  C7  UNL d   1      -2.195   0.413   1.331  0.00  0.00    -0.073 A 
ATOM      7  C8  UNL d   1      -3.369   0.786   0.469  0.00  0.00     0.078 C 
ENDROOT
BRANCH   1   8
ATOM      8  C1  UNL d   1      -0.552   0.704  -0.611  0.00  0.00     0.053 C 
ATOM      9  C   UNL d   1       0.810   0.177  -1.037  0.00  0.00     0.018 C 
ENDBRANCH   1   8
TORSDOF 1
ENDMDL
