MODEL 1
REMARK minimizedAffinity -6.63162947
REMARK minimizedRMSD -1
REMARK  1 active torsions:
REMARK  status: ('A' for Active; 'I' for Inactive)
REMARK    1  A    between atoms: C1_2  and  C2_3 
ROOT
ATOM      1  C2  UNL d   1      -0.379   0.083   1.253  0.00  0.00    -0.076 A 
ATOM      2  C3  UNL d   1      -0.218  -0.760   2.367  0.00  0.00     0.004 A 
ATOM      3  C4  UNL d   1      -1.323  -1.296   3.027  0.00  0.00    -0.003 A 
ATOM      4  C5  UNL d   1      -2.607  -0.998   2.582  0.00  0.00     0.000 A 
ATOM      5  C6  UNL d   1      -2.784  -0.179   1.468  0.00  0.00     0.000 A 
ATOM      6  C7  UNL d   1      -1.681   0.356   0.782  0.00  0.00    -0.073 A 
ATOM      7  C8  UNL d   1      -1.930   1.239  -0.410  0.00  0.00     0.078 C 
ENDROOT
BRANCH   1   8
ATOM      8  C1  UNL d   1       0.856   0.656   0.595  0.00  0.00     0.053 C 
ATOM      9  C   UNL d   1       2.047   0.710   1.539  0.00  0.00     0.018 C 
ENDBRANCH   1   8
TORSDOF 1
ENDMDL
