MODEL 1
REMARK minimizedAffinity -4.79708433
REMARK minimizedRMSD -1
REMARK  1 active torsions:
REMARK  status: ('A' for Active; 'I' for Inactive)
REMARK    1  A    between atoms: C1_2  and  C2_3 
ROOT
ATOM      1  C2  UNL d   1      -0.009  -0.310   0.930  0.00  0.00    -0.076 A 
ATOM      2  C3  UNL d   1      -1.398  -0.330   1.146  0.00  0.00     0.004 A 
ATOM      3  C4  UNL d   1      -1.931  -0.798   2.346  0.00  0.00    -0.003 A 
ATOM      4  C5  UNL d   1      -1.083  -1.252   3.350  0.00  0.00     0.000 A 
ATOM      5  C6  UNL d   1       0.298  -1.223   3.160  0.00  0.00     0.000 A 
ATOM      6  C7  UNL d   1       0.852  -0.739   1.962  0.00  0.00    -0.073 A 
ATOM      7  C8  UNL d   1       2.348  -0.736   1.808  0.00  0.00     0.078 C 
ENDROOT
BRANCH   1   8
ATOM      8  C1  UNL d   1       0.509   0.183  -0.402  0.00  0.00     0.053 C 
ATOM      9  C   UNL d   1       0.232  -0.795  -1.533  0.00  0.00     0.018 C 
ENDBRANCH   1   8
TORSDOF 1
ENDMDL
