MODEL 1
REMARK minimizedAffinity 1.07378638
REMARK minimizedRMSD -1
REMARK  1 active torsions:
REMARK  status: ('A' for Active; 'I' for Inactive)
REMARK    1  A    between atoms: C1_2  and  C2_3 
ROOT
ATOM      1  C2  UNL d   1      -0.350  -0.042   0.375  0.00  0.00    -0.076 A 
ATOM      2  C3  UNL d   1      -1.590   0.122  -0.267  0.00  0.00     0.004 A 
ATOM      3  C4  UNL d   1      -2.709   0.562   0.437  0.00  0.00    -0.003 A 
ATOM      4  C5  UNL d   1      -2.607   0.846   1.794  0.00  0.00     0.000 A 
ATOM      5  C6  UNL d   1      -1.381   0.706   2.443  0.00  0.00     0.000 A 
ATOM      6  C7  UNL d   1      -0.238   0.279   1.745  0.00  0.00    -0.073 A 
ATOM      7  C8  UNL d   1       1.057   0.140   2.496  0.00  0.00     0.078 C 
ENDROOT
BRANCH   1   8
ATOM      8  C1  UNL d   1       0.823  -0.549  -0.434  0.00  0.00     0.053 C 
ATOM      9  C   UNL d   1       0.393  -1.190  -1.745  0.00  0.00     0.018 C 
ENDBRANCH   1   8
TORSDOF 1
ENDMDL
