MODEL 1
REMARK minimizedAffinity -4.58841896
REMARK minimizedRMSD -1
REMARK  1 active torsions:
REMARK  status: ('A' for Active; 'I' for Inactive)
REMARK    1  A    between atoms: C1_2  and  C2_3 
ROOT
ATOM      1  C2  UNL d   1      -0.851   0.281   0.629  0.00  0.00    -0.076 A 
ATOM      2  C3  UNL d   1      -2.169   0.735   0.449  0.00  0.00     0.004 A 
ATOM      3  C4  UNL d   1      -2.976   1.046   1.542  0.00  0.00    -0.003 A 
ATOM      4  C5  UNL d   1      -2.479   0.907   2.833  0.00  0.00     0.000 A 
ATOM      5  C6  UNL d   1      -1.168   0.474   3.030  0.00  0.00     0.000 A 
ATOM      6  C7  UNL d   1      -0.335   0.172   1.939  0.00  0.00    -0.073 A 
ATOM      7  C8  UNL d   1       1.068  -0.296   2.210  0.00  0.00     0.078 C 
ENDROOT
BRANCH   1   8
ATOM      8  C1  UNL d   1      -0.031  -0.067  -0.593  0.00  0.00     0.053 C 
ATOM      9  C   UNL d   1       0.278   1.150  -1.452  0.00  0.00     0.018 C 
ENDBRANCH   1   8
TORSDOF 1
ENDMDL
