MODEL 1
REMARK minimizedAffinity -1.88036799
REMARK minimizedRMSD -1
REMARK  1 active torsions:
REMARK  status: ('A' for Active; 'I' for Inactive)
REMARK    1  A    between atoms: C1_2  and  C2_3 
ROOT
ATOM      1  C2  UNL d   1      -0.013   0.400   0.523  0.00  0.00    -0.076 A 
ATOM      2  C3  UNL d   1       1.301  -0.044   0.752  0.00  0.00     0.004 A 
ATOM      3  C4  UNL d   1       1.734  -0.368   2.037  0.00  0.00    -0.003 A 
ATOM      4  C5  UNL d   1       0.860  -0.254   3.113  0.00  0.00     0.000 A 
ATOM      5  C6  UNL d   1      -0.452   0.168   2.900  0.00  0.00     0.000 A 
ATOM      6  C7  UNL d   1      -0.909   0.483   1.610  0.00  0.00    -0.073 A 
ATOM      7  C8  UNL d   1      -2.333   0.939   1.440  0.00  0.00     0.078 C 
ENDROOT
BRANCH   1   8
ATOM      8  C1  UNL d   1      -0.419   0.763  -0.888  0.00  0.00     0.053 C 
ATOM      9  C   UNL d   1       0.264  -0.106  -1.933  0.00  0.00     0.018 C 
ENDBRANCH   1   8
TORSDOF 1
ENDMDL
