MODEL 1
REMARK minimizedAffinity -2.59885263
REMARK minimizedRMSD -1
REMARK  1 active torsions:
REMARK  status: ('A' for Active; 'I' for Inactive)
REMARK    1  A    between atoms: C1_2  and  C2_3 
ROOT
ATOM      1  C2  UNL d   1      -1.004   0.466   0.777  0.00  0.00    -0.076 A 
ATOM      2  C3  UNL d   1      -1.163   0.465  -0.620  0.00  0.00     0.004 A 
ATOM      3  C4  UNL d   1      -0.069   0.291  -1.467  0.00  0.00    -0.003 A 
ATOM      4  C5  UNL d   1       1.201   0.115  -0.930  0.00  0.00     0.000 A 
ATOM      5  C6  UNL d   1       1.375   0.096   0.453  0.00  0.00     0.000 A 
ATOM      6  C7  UNL d   1       0.281   0.253   1.321  0.00  0.00    -0.073 A 
ATOM      7  C8  UNL d   1       0.527   0.231   2.805  0.00  0.00     0.078 C 
ENDROOT
BRANCH   1   8
ATOM      8  C1  UNL d   1      -2.222   0.687   1.644  0.00  0.00     0.053 C 
ATOM      9  C   UNL d   1      -3.505   0.783   0.833  0.00  0.00     0.018 C 
ENDBRANCH   1   8
TORSDOF 1
ENDMDL
