MODEL 1
REMARK minimizedAffinity -4.14597654
REMARK minimizedRMSD -1
REMARK  1 active torsions:
REMARK  status: ('A' for Active; 'I' for Inactive)
REMARK    1  A    between atoms: C1_2  and  C2_3 
ROOT
ATOM      1  C2  UNL d   1      -0.603   0.190   0.884  0.00  0.00    -0.076 A 
ATOM      2  C3  UNL d   1      -1.786   0.324   0.138  0.00  0.00     0.004 A 
ATOM      3  C4  UNL d   1      -3.013   0.524   0.769  0.00  0.00    -0.003 A 
ATOM      4  C5  UNL d   1      -3.076   0.595   2.156  0.00  0.00     0.000 A 
ATOM      5  C6  UNL d   1      -1.909   0.482   2.911  0.00  0.00     0.000 A 
ATOM      6  C7  UNL d   1      -0.662   0.295   2.290  0.00  0.00    -0.073 A 
ATOM      7  C8  UNL d   1       0.564   0.174   3.154  0.00  0.00     0.078 C 
ENDROOT
BRANCH   1   8
ATOM      8  C1  UNL d   1       0.695  -0.053   0.146  0.00  0.00     0.053 C 
ATOM      9  C   UNL d   1       0.581   0.235  -1.343  0.00  0.00     0.018 C 
ENDBRANCH   1   8
TORSDOF 1
ENDMDL
