MODEL 1
REMARK minimizedAffinity -5.95473003
REMARK minimizedRMSD -1
REMARK  1 active torsions:
REMARK  status: ('A' for Active; 'I' for Inactive)
REMARK    1  A    between atoms: C1_2  and  C2_3 
ROOT
ATOM      1  C2  UNL d   1      -0.328   0.124   0.394  0.00  0.00    -0.076 A 
ATOM      2  C3  UNL d   1      -1.622  -0.135   0.878  0.00  0.00     0.004 A 
ATOM      3  C4  UNL d   1      -1.842  -0.418   2.225  0.00  0.00    -0.003 A 
ATOM      4  C5  UNL d   1      -0.770  -0.446   3.111  0.00  0.00     0.000 A 
ATOM      5  C6  UNL d   1       0.518  -0.174   2.652  0.00  0.00     0.000 A 
ATOM      6  C7  UNL d   1       0.754   0.129   1.300  0.00  0.00    -0.073 A 
ATOM      7  C8  UNL d   1       2.165   0.408   0.859  0.00  0.00     0.078 C 
ENDROOT
BRANCH   1   8
ATOM      8  C1  UNL d   1      -0.147   0.398  -1.082  0.00  0.00     0.053 C 
ATOM      9  C   UNL d   1       0.112  -0.869  -1.882  0.00  0.00     0.018 C 
ENDBRANCH   1   8
TORSDOF 1
ENDMDL
