MODEL 1
REMARK minimizedAffinity 16.3837204
REMARK minimizedRMSD -1
REMARK  0 active torsions:
REMARK  status: ('A' for Active; 'I' for Inactive)
ROOT
ATOM      1  N1  IND d   1       1.602   0.393   3.810  0.00  0.00    -0.196 N 
ATOM      2  C2  IND d   1       1.309   1.721   3.947  0.00  0.00     0.054 A 
ATOM      3  C3  IND d   1       1.946   2.444   2.999  0.00  0.00    -0.031 A 
ATOM      4  C4  IND d   1       3.438   1.644   1.059  0.00  0.00     0.051 A 
ATOM      5  C5  IND d   1       4.025   0.523   0.543  0.00  0.00    -0.031 A 
ATOM      6  C6  IND d   1       3.828  -0.724   1.099  0.00  0.00     0.015 A 
ATOM      7  C7  IND d   1       3.024  -0.900   2.190  0.00  0.00    -0.016 A 
ATOM      8  C8  IND d   1       2.432   0.238   2.721  0.00  0.00    -0.047 A 
ATOM      9  C9  IND d   1       2.662   1.512   2.187  0.00  0.00    -0.096 A 
ATOM     10  HN1 IND d   1       1.317  -0.239   4.317  0.00  0.00     0.298 HD
ENDROOT
TORSDOF 0
ENDMDL
