MODEL 1
REMARK minimizedAffinity 11.2298422
REMARK minimizedRMSD -1
REMARK  0 active torsions:
REMARK  status: ('A' for Active; 'I' for Inactive)
ROOT
ATOM      1  N1  IND d   1       1.130  -6.000  -3.127  0.00  0.00    -0.196 N 
ATOM      2  C2  IND d   1       2.306  -5.947  -3.822  0.00  0.00     0.054 A 
ATOM      3  C3  IND d   1       3.352  -5.869  -2.969  0.00  0.00    -0.031 A 
ATOM      4  C4  IND d   1       3.372  -5.918  -0.395  0.00  0.00     0.051 A 
ATOM      5  C5  IND d   1       2.539  -5.921   0.688  0.00  0.00    -0.031 A 
ATOM      6  C6  IND d   1       1.166  -5.955   0.553  0.00  0.00     0.015 A 
ATOM      7  C7  IND d   1       0.573  -5.998  -0.677  0.00  0.00    -0.016 A 
ATOM      8  C8  IND d   1       1.415  -5.987  -1.780  0.00  0.00    -0.047 A 
ATOM      9  C9  IND d   1       2.808  -5.910  -1.649  0.00  0.00    -0.096 A 
ATOM     10  HN1 IND d   1       0.344  -6.036  -3.474  0.00  0.00     0.298 HD
ENDROOT
TORSDOF 0
ENDMDL
