MODEL 1
REMARK minimizedAffinity 5.92470074
REMARK minimizedRMSD -1
REMARK  0 active torsions:
REMARK  status: ('A' for Active; 'I' for Inactive)
ROOT
ATOM      1  N1  IND d   1       4.624  -5.454   0.485  0.00  0.00    -0.196 N 
ATOM      2  C2  IND d   1       3.385  -5.999   0.670  0.00  0.00     0.054 A 
ATOM      3  C3  IND d   1       2.831  -5.532   1.811  0.00  0.00    -0.031 A 
ATOM      4  C4  IND d   1       3.738  -3.790   3.476  0.00  0.00     0.051 A 
ATOM      5  C5  IND d   1       4.845  -3.038   3.751  0.00  0.00    -0.031 A 
ATOM      6  C6  IND d   1       5.957  -3.050   2.933  0.00  0.00     0.015 A 
ATOM      7  C7  IND d   1       5.998  -3.810   1.798  0.00  0.00    -0.016 A 
ATOM      8  C8  IND d   1       4.878  -4.581   1.520  0.00  0.00    -0.047 A 
ATOM      9  C9  IND d   1       3.764  -4.606   2.369  0.00  0.00    -0.096 A 
ATOM     10  HN1 IND d   1       5.156  -5.627  -0.169  0.00  0.00     0.298 HD
ENDROOT
TORSDOF 0
ENDMDL
