MODEL 1
REMARK minimizedAffinity 10.0312929
REMARK minimizedRMSD -1
REMARK  0 active torsions:
REMARK  status: ('A' for Active; 'I' for Inactive)
ROOT
ATOM      1  N1  IND d   1       3.038  -5.557  -5.305  0.00  0.00    -0.196 N 
ATOM      2  C2  IND d   1       4.212  -5.647  -6.000  0.00  0.00     0.054 A 
ATOM      3  C3  IND d   1       5.253  -5.787  -5.149  0.00  0.00    -0.031 A 
ATOM      4  C4  IND d   1       5.251  -5.996  -2.583  0.00  0.00     0.051 A 
ATOM      5  C5  IND d   1       4.422  -5.934  -1.498  0.00  0.00    -0.031 A 
ATOM      6  C6  IND d   1       3.062  -5.744  -1.629  0.00  0.00     0.015 A 
ATOM      7  C7  IND d   1       2.476  -5.617  -2.857  0.00  0.00    -0.016 A 
ATOM      8  C8  IND d   1       3.315  -5.672  -3.960  0.00  0.00    -0.047 A 
ATOM      9  C9  IND d   1       4.702  -5.823  -3.831  0.00  0.00    -0.096 A 
ATOM     10  HN1 IND d   1       2.258  -5.448  -5.650  0.00  0.00     0.298 HD
ENDROOT
TORSDOF 0
ENDMDL
