MODEL 1
REMARK minimizedAffinity 10.7876205
REMARK minimizedRMSD -1
REMARK  0 active torsions:
REMARK  status: ('A' for Active; 'I' for Inactive)
ROOT
ATOM      1  N1  IND d   1       4.634  -5.548   0.191  0.00  0.00    -0.196 N 
ATOM      2  C2  IND d   1       3.326  -5.489   0.584  0.00  0.00     0.054 A 
ATOM      3  C3  IND d   1       2.509  -5.574  -0.489  0.00  0.00    -0.031 A 
ATOM      4  C4  IND d   1       3.099  -5.917  -2.972  0.00  0.00     0.051 A 
ATOM      5  C5  IND d   1       4.164  -5.992  -3.825  0.00  0.00    -0.031 A 
ATOM      6  C6  IND d   1       5.466  -5.925  -3.374  0.00  0.00     0.015 A 
ATOM      7  C7  IND d   1       5.754  -5.790  -2.045  0.00  0.00    -0.016 A 
ATOM      8  C8  IND d   1       4.675  -5.706  -1.176  0.00  0.00    -0.047 A 
ATOM      9  C9  IND d   1       3.351  -5.732  -1.633  0.00  0.00    -0.096 A 
ATOM     10  HN1 IND d   1       5.317  -5.495   0.712  0.00  0.00     0.298 HD
ENDROOT
TORSDOF 0
ENDMDL
