MODEL 1
REMARK minimizedAffinity 4.28005505
REMARK minimizedRMSD -1
REMARK  0 active torsions:
REMARK  status: ('A' for Active; 'I' for Inactive)
ROOT
ATOM      1  N1  IND d   1       4.694  -5.967  -0.198  0.00  0.00    -0.196 N 
ATOM      2  C2  IND d   1       5.184  -5.972  -1.474  0.00  0.00     0.054 A 
ATOM      3  C3  IND d   1       4.170  -5.999  -2.368  0.00  0.00    -0.031 A 
ATOM      4  C4  IND d   1       1.629  -5.936  -1.960  0.00  0.00     0.051 A 
ATOM      5  C5  IND d   1       0.697  -5.964  -0.961  0.00  0.00    -0.031 A 
ATOM      6  C6  IND d   1       1.058  -5.991   0.371  0.00  0.00     0.015 A 
ATOM      7  C7  IND d   1       2.369  -5.981   0.755  0.00  0.00    -0.016 A 
ATOM      8  C8  IND d   1       3.318  -5.961  -0.258  0.00  0.00    -0.047 A 
ATOM      9  C9  IND d   1       2.959  -5.975  -1.612  0.00  0.00    -0.096 A 
ATOM     10  HN1 IND d   1       5.166  -5.968   0.521  0.00  0.00     0.298 HD
ENDROOT
TORSDOF 0
ENDMDL
