MODEL 1
REMARK minimizedAffinity -4.13114882
REMARK minimizedRMSD -1
REMARK  0 active torsions:
REMARK  status: ('A' for Active; 'I' for Inactive)
ROOT
ATOM      1  N1  IND d   1       4.108  -5.811  -5.404  0.00  0.00    -0.196 N 
ATOM      2  C2  IND d   1       2.878  -5.811  -5.999  0.00  0.00     0.054 A 
ATOM      3  C3  IND d   1       1.903  -5.896  -5.066  0.00  0.00    -0.031 A 
ATOM      4  C4  IND d   1       2.097  -5.941  -2.499  0.00  0.00     0.051 A 
ATOM      5  C5  IND d   1       3.016  -5.996  -1.489  0.00  0.00    -0.031 A 
ATOM      6  C6  IND d   1       4.373  -5.990  -1.737  0.00  0.00     0.015 A 
ATOM      7  C7  IND d   1       4.864  -5.916  -3.010  0.00  0.00    -0.016 A 
ATOM      8  C8  IND d   1       3.934  -5.867  -4.038  0.00  0.00    -0.047 A 
ATOM      9  C9  IND d   1       2.556  -5.916  -3.795  0.00  0.00    -0.096 A 
ATOM     10  HN1 IND d   1       4.864  -5.781  -5.813  0.00  0.00     0.298 HD
ENDROOT
TORSDOF 0
ENDMDL
