MODEL 1
REMARK minimizedAffinity 8.1587286
REMARK minimizedRMSD -1
REMARK  0 active torsions:
REMARK  status: ('A' for Active; 'I' for Inactive)
ROOT
ATOM      1  N1  IND d   1       1.411  -5.977  -4.632  0.00  0.00    -0.196 N 
ATOM      2  C2  IND d   1       2.238  -5.959  -5.719  0.00  0.00     0.054 A 
ATOM      3  C3  IND d   1       3.531  -5.926  -5.326  0.00  0.00    -0.031 A 
ATOM      4  C4  IND d   1       4.521  -5.998  -2.950  0.00  0.00     0.051 A 
ATOM      5  C5  IND d   1       4.160  -5.981  -1.632  0.00  0.00    -0.031 A 
ATOM      6  C6  IND d   1       2.837  -5.964  -1.239  0.00  0.00     0.015 A 
ATOM      7  C7  IND d   1       1.822  -5.975  -2.153  0.00  0.00    -0.016 A 
ATOM      8  C8  IND d   1       2.184  -5.985  -3.492  0.00  0.00    -0.047 A 
ATOM      9  C9  IND d   1       3.525  -5.959  -3.898  0.00  0.00    -0.096 A 
ATOM     10  HN1 IND d   1       0.551  -5.981  -4.655  0.00  0.00     0.298 HD
ENDROOT
TORSDOF 0
ENDMDL
