MODEL 1
REMARK minimizedAffinity 10.7556038
REMARK minimizedRMSD -1
REMARK  0 active torsions:
REMARK  status: ('A' for Active; 'I' for Inactive)
ROOT
ATOM      1  N1  IND d   1       0.628  -2.221   2.832  0.00  0.00    -0.196 N 
ATOM      2  C2  IND d   1       0.837  -2.986   1.718  0.00  0.00     0.054 A 
ATOM      3  C3  IND d   1       1.662  -2.347   0.857  0.00  0.00    -0.031 A 
ATOM      4  C4  IND d   1       2.866  -0.087   1.119  0.00  0.00     0.051 A 
ATOM      5  C5  IND d   1       2.958   0.995   1.949  0.00  0.00    -0.031 A 
ATOM      6  C6  IND d   1       2.267   1.060   3.141  0.00  0.00     0.015 A 
ATOM      7  C7  IND d   1       1.462   0.036   3.555  0.00  0.00    -0.016 A 
ATOM      8  C8  IND d   1       1.361  -1.061   2.711  0.00  0.00    -0.047 A 
ATOM      9  C9  IND d   1       2.027  -1.114   1.480  0.00  0.00    -0.096 A 
ATOM     10  HN1 IND d   1       0.123  -2.430   3.496  0.00  0.00     0.298 HD
ENDROOT
TORSDOF 0
ENDMDL
