MODEL 1
REMARK minimizedAffinity 6.43325043
REMARK minimizedRMSD -1
REMARK  0 active torsions:
REMARK  status: ('A' for Active; 'I' for Inactive)
ROOT
ATOM      1  N1  IND d   1      -5.261   2.549  -2.021  0.00  0.00    -0.196 N 
ATOM      2  C2  IND d   1      -4.162   2.315  -2.799  0.00  0.00     0.054 A 
ATOM      3  C3  IND d   1      -3.043   2.300  -2.041  0.00  0.00    -0.031 A 
ATOM      4  C4  IND d   1      -2.792   2.537   0.510  0.00  0.00     0.051 A 
ATOM      5  C5  IND d   1      -3.509   2.803   1.643  0.00  0.00    -0.031 A 
ATOM      6  C6  IND d   1      -4.875   2.998   1.612  0.00  0.00     0.015 A 
ATOM      7  C7  IND d   1      -5.579   2.924   0.444  0.00  0.00    -0.016 A 
ATOM      8  C8  IND d   1      -4.853   2.662  -0.710  0.00  0.00    -0.047 A 
ATOM      9  C9  IND d   1      -3.461   2.505  -0.691  0.00  0.00    -0.096 A 
ATOM     10  HN1 IND d   1      -6.071   2.615  -2.302  0.00  0.00     0.298 HD
ENDROOT
TORSDOF 0
ENDMDL
