MODEL 1
REMARK minimizedAffinity 5.8951745
REMARK minimizedRMSD -1
REMARK  0 active torsions:
REMARK  status: ('A' for Active; 'I' for Inactive)
ROOT
ATOM      1  N1  IND d   1       0.692  -0.860   2.819  0.00  0.00    -0.196 N 
ATOM      2  C2  IND d   1       1.631  -0.058   2.233  0.00  0.00     0.054 A 
ATOM      3  C3  IND d   1       2.868  -0.384   2.671  0.00  0.00    -0.031 A 
ATOM      4  C4  IND d   1       3.593  -2.267   4.270  0.00  0.00     0.051 A 
ATOM      5  C5  IND d   1       3.089  -3.239   5.088  0.00  0.00    -0.031 A 
ATOM      6  C6  IND d   1       1.734  -3.475   5.191  0.00  0.00     0.015 A 
ATOM      7  C7  IND d   1       0.828  -2.751   4.468  0.00  0.00    -0.016 A 
ATOM      8  C8  IND d   1       1.335  -1.758   3.642  0.00  0.00    -0.047 A 
ATOM      9  C9  IND d   1       2.707  -1.486   3.566  0.00  0.00    -0.096 A 
ATOM     10  HN1 IND d   1      -0.157  -0.812   2.694  0.00  0.00     0.298 HD
ENDROOT
TORSDOF 0
ENDMDL
