MODEL 1
REMARK minimizedAffinity 7.3616724
REMARK minimizedRMSD -1
REMARK  0 active torsions:
REMARK  status: ('A' for Active; 'I' for Inactive)
ROOT
ATOM      1  N1  IND d   1      -1.479   1.121  -3.132  0.00  0.00    -0.196 N 
ATOM      2  C2  IND d   1      -2.391   0.173  -3.502  0.00  0.00     0.054 A 
ATOM      3  C3  IND d   1      -2.230  -0.949  -2.764  0.00  0.00    -0.031 A 
ATOM      4  C4  IND d   1      -0.600  -1.410  -0.825  0.00  0.00     0.051 A 
ATOM      5  C5  IND d   1       0.451  -0.859  -0.147  0.00  0.00    -0.031 A 
ATOM      6  C6  IND d   1       0.920   0.407  -0.433  0.00  0.00     0.015 A 
ATOM      7  C7  IND d   1       0.345   1.177  -1.405  0.00  0.00    -0.016 A 
ATOM      8  C8  IND d   1      -0.718   0.618  -2.100  0.00  0.00    -0.047 A 
ATOM      9  C9  IND d   1      -1.171  -0.683  -1.843  0.00  0.00    -0.096 A 
ATOM     10  HN1 IND d   1      -1.396   1.901  -3.484  0.00  0.00     0.298 HD
ENDROOT
TORSDOF 0
ENDMDL
