MODEL 1
REMARK minimizedAffinity -2.10158014
REMARK minimizedRMSD -1
REMARK  2 active torsions:
REMARK  status: ('A' for Active; 'I' for Inactive)
REMARK    1  A    between atoms: C2'_3  and  C1'_4 
REMARK    2  A    between atoms: C1'_4  and  C1_5 
ROOT
ATOM      1  C1  I4B d   1       0.025   0.014   0.548  0.00  0.00    -0.075 A 
ATOM      2  C2  I4B d   1       0.137  -1.280   0.991  0.00  0.00     0.003 A 
ATOM      3  C3  I4B d   1      -1.023  -2.063   1.204  0.00  0.00     0.002 A 
ATOM      4  C4  I4B d   1      -2.269  -1.500   1.013  0.00  0.00    -0.004 A 
ATOM      5  C5  I4B d   1      -2.380  -0.195   0.543  0.00  0.00     0.002 A 
ATOM      6  C6  I4B d   1      -1.226   0.564   0.297  0.00  0.00     0.003 A 
ENDROOT
BRANCH   1   7
ATOM      7  C1' I4B d   1       1.269   0.823   0.364  0.00  0.00     0.060 C 
BRANCH   7   8
ATOM      8  C2' I4B d   1       1.148   2.067   1.222  0.00  0.00    -0.013 C 
ATOM      9  C4' I4B d   1       1.608   1.804   2.631  0.00  0.00     0.013 C 
ATOM     10  C3' I4B d   1       1.961   3.152   0.580  0.00  0.00     0.013 C 
ENDBRANCH   7   8
ENDBRANCH   1   7
TORSDOF 2
ENDMDL
