MODEL 1
REMARK minimizedAffinity -1.92240119
REMARK minimizedRMSD -1
REMARK  2 active torsions:
REMARK  status: ('A' for Active; 'I' for Inactive)
REMARK    1  A    between atoms: C2'_3  and  C1'_4 
REMARK    2  A    between atoms: C1'_4  and  C1_5 
ROOT
ATOM      1  C1  I4B d   1       0.187   0.137  -0.046  0.00  0.00    -0.075 A 
ATOM      2  C2  I4B d   1      -0.066  -0.222  -1.346  0.00  0.00     0.003 A 
ATOM      3  C3  I4B d   1      -1.389  -0.504  -1.764  0.00  0.00     0.002 A 
ATOM      4  C4  I4B d   1      -2.415  -0.464  -0.842  0.00  0.00    -0.004 A 
ATOM      5  C5  I4B d   1      -2.160  -0.078   0.471  0.00  0.00     0.002 A 
ATOM      6  C6  I4B d   1      -0.853   0.236   0.869  0.00  0.00     0.003 A 
ENDROOT
BRANCH   1   7
ATOM      7  C1' I4B d   1       1.601   0.396   0.368  0.00  0.00     0.060 C 
BRANCH   7   8
ATOM      8  C2' I4B d   1       1.854   1.886   0.260  0.00  0.00    -0.013 C 
ATOM      9  C4' I4B d   1       1.964   2.521   1.621  0.00  0.00     0.013 C 
ATOM     10  C3' I4B d   1       3.110   2.085  -0.534  0.00  0.00     0.013 C 
ENDBRANCH   7   8
ENDBRANCH   1   7
TORSDOF 2
ENDMDL
