MODEL 1
REMARK minimizedAffinity -1.55886042
REMARK minimizedRMSD -1
REMARK  2 active torsions:
REMARK  status: ('A' for Active; 'I' for Inactive)
REMARK    1  A    between atoms: C2'_3  and  C1'_4 
REMARK    2  A    between atoms: C1'_4  and  C1_5 
ROOT
ATOM      1  C1  I4B d   1       0.881   0.263   0.591  0.00  0.00    -0.075 A 
ATOM      2  C2  I4B d   1       1.706   0.925  -0.284  0.00  0.00     0.003 A 
ATOM      3  C3  I4B d   1       2.596   1.920   0.189  0.00  0.00     0.002 A 
ATOM      4  C4  I4B d   1       2.593   2.254   1.527  0.00  0.00    -0.004 A 
ATOM      5  C5  I4B d   1       1.773   1.566   2.417  0.00  0.00     0.002 A 
ATOM      6  C6  I4B d   1       0.920   0.556   1.948  0.00  0.00     0.003 A 
ENDROOT
BRANCH   1   7
ATOM      7  C1' I4B d   1      -0.070  -0.758   0.053  0.00  0.00     0.060 C 
BRANCH   7   8
ATOM      8  C2' I4B d   1      -0.938  -0.084  -0.990  0.00  0.00    -0.013 C 
ATOM      9  C4' I4B d   1      -0.153   0.219  -2.239  0.00  0.00     0.013 C 
ATOM     10  C3' I4B d   1      -2.096  -0.990  -1.284  0.00  0.00     0.013 C 
ENDBRANCH   7   8
ENDBRANCH   1   7
TORSDOF 2
ENDMDL
