MODEL 1
REMARK minimizedAffinity -3.65207863
REMARK minimizedRMSD -1
REMARK  2 active torsions:
REMARK  status: ('A' for Active; 'I' for Inactive)
REMARK    1  A    between atoms: C2'_3  and  C1'_4 
REMARK    2  A    between atoms: C1'_4  and  C1_5 
ROOT
ATOM      1  C1  I4B d   1       0.292   0.257   0.049  0.00  0.00    -0.075 A 
ATOM      2  C2  I4B d   1      -0.168   0.734  -1.153  0.00  0.00     0.003 A 
ATOM      3  C3  I4B d   1      -1.472   0.406  -1.599  0.00  0.00     0.002 A 
ATOM      4  C4  I4B d   1      -2.257  -0.436  -0.839  0.00  0.00    -0.004 A 
ATOM      5  C5  I4B d   1      -1.798  -0.900   0.390  0.00  0.00     0.002 A 
ATOM      6  C6  I4B d   1      -0.520  -0.542   0.843  0.00  0.00     0.003 A 
ENDROOT
BRANCH   1   7
ATOM      7  C1' I4B d   1       1.686   0.596   0.473  0.00  0.00     0.060 C 
BRANCH   7   8
ATOM      8  C2' I4B d   1       1.773   2.101   0.629  0.00  0.00    -0.013 C 
ATOM      9  C4' I4B d   1       2.220   2.479   2.017  0.00  0.00     0.013 C 
ATOM     10  C3' I4B d   1       2.725   2.619  -0.407  0.00  0.00     0.013 C 
ENDBRANCH   7   8
ENDBRANCH   1   7
TORSDOF 2
ENDMDL
