MODEL 1
REMARK minimizedAffinity -4.90977669
REMARK minimizedRMSD -1
REMARK  2 active torsions:
REMARK  status: ('A' for Active; 'I' for Inactive)
REMARK    1  A    between atoms: C2'_3  and  C1'_4 
REMARK    2  A    between atoms: C1'_4  and  C1_5 
ROOT
ATOM      1  C1  I4B d   1       0.058  -0.376   0.207  0.00  0.00    -0.075 A 
ATOM      2  C2  I4B d   1      -0.636   0.141  -0.858  0.00  0.00     0.003 A 
ATOM      3  C3  I4B d   1      -1.995  -0.202  -1.057  0.00  0.00     0.002 A 
ATOM      4  C4  I4B d   1      -2.602  -1.099  -0.202  0.00  0.00    -0.004 A 
ATOM      5  C5  I4B d   1      -1.903  -1.604   0.891  0.00  0.00     0.002 A 
ATOM      6  C6  I4B d   1      -0.568  -1.231   1.104  0.00  0.00     0.003 A 
ENDROOT
BRANCH   1   7
ATOM      7  C1' I4B d   1       1.502  -0.018   0.369  0.00  0.00     0.060 C 
BRANCH   7   8
ATOM      8  C2' I4B d   1       1.581   1.454   0.720  0.00  0.00    -0.013 C 
ATOM      9  C4' I4B d   1       1.734   1.652   2.205  0.00  0.00     0.013 C 
ATOM     10  C3' I4B d   1       2.739   2.046  -0.027  0.00  0.00     0.013 C 
ENDBRANCH   7   8
ENDBRANCH   1   7
TORSDOF 2
ENDMDL
