MODEL 1
REMARK minimizedAffinity -5.65159559
REMARK minimizedRMSD -1
REMARK  2 active torsions:
REMARK  status: ('A' for Active; 'I' for Inactive)
REMARK    1  A    between atoms: C2'_3  and  C1'_4 
REMARK    2  A    between atoms: C1'_4  and  C1_5 
ROOT
ATOM      1  C1  I4B d   1      -0.313  -0.738   0.339  0.00  0.00    -0.075 A 
ATOM      2  C2  I4B d   1      -1.082  -0.042  -0.560  0.00  0.00     0.003 A 
ATOM      3  C3  I4B d   1      -2.438  -0.397  -0.762  0.00  0.00     0.002 A 
ATOM      4  C4  I4B d   1      -2.966  -1.478  -0.086  0.00  0.00    -0.004 A 
ATOM      5  C5  I4B d   1      -2.191  -2.167   0.842  0.00  0.00     0.002 A 
ATOM      6  C6  I4B d   1      -0.860  -1.787   1.065  0.00  0.00     0.003 A 
ENDROOT
BRANCH   1   7
ATOM      7  C1' I4B d   1       1.124  -0.357   0.504  0.00  0.00     0.060 C 
BRANCH   7   8
ATOM      8  C2' I4B d   1       1.200   1.153   0.595  0.00  0.00    -0.013 C 
ATOM      9  C4' I4B d   1       1.091   1.619   2.023  0.00  0.00     0.013 C 
ATOM     10  C3' I4B d   1       2.496   1.590  -0.020  0.00  0.00     0.013 C 
ENDBRANCH   7   8
ENDBRANCH   1   7
TORSDOF 2
ENDMDL
