MODEL 1
REMARK minimizedAffinity -4.50615835
REMARK minimizedRMSD -1
REMARK  2 active torsions:
REMARK  status: ('A' for Active; 'I' for Inactive)
REMARK    1  A    between atoms: C2'_3  and  C1'_4 
REMARK    2  A    between atoms: C1'_4  and  C1_5 
ROOT
ATOM      1  C1  I4B d   1       0.180   0.364  -0.010  0.00  0.00    -0.075 A 
ATOM      2  C2  I4B d   1      -0.107   0.299  -1.351  0.00  0.00     0.003 A 
ATOM      3  C3  I4B d   1      -1.429   0.038  -1.785  0.00  0.00     0.002 A 
ATOM      4  C4  I4B d   1      -2.417  -0.200  -0.852  0.00  0.00    -0.004 A 
ATOM      5  C5  I4B d   1      -2.129  -0.111   0.507  0.00  0.00     0.002 A 
ATOM      6  C6  I4B d   1      -0.825   0.185   0.931  0.00  0.00     0.003 A 
ENDROOT
BRANCH   1   7
ATOM      7  C1' I4B d   1       1.593   0.608   0.414  0.00  0.00     0.060 C 
BRANCH   7   8
ATOM      8  C2' I4B d   1       1.600   1.798   1.351  0.00  0.00    -0.013 C 
ATOM      9  C4' I4B d   1       2.551   1.582   2.499  0.00  0.00     0.013 C 
ATOM     10  C3' I4B d   1       1.978   3.012   0.556  0.00  0.00     0.013 C 
ENDBRANCH   7   8
ENDBRANCH   1   7
TORSDOF 2
ENDMDL
