MODEL 1
REMARK minimizedAffinity -4.754498
REMARK minimizedRMSD -1
REMARK  2 active torsions:
REMARK  status: ('A' for Active; 'I' for Inactive)
REMARK    1  A    between atoms: C2'_3  and  C1'_4 
REMARK    2  A    between atoms: C1'_4  and  C1_5 
ROOT
ATOM      1  C1  I4B d   1       0.471  -0.094   0.058  0.00  0.00    -0.075 A 
ATOM      2  C2  I4B d   1       0.277   0.400  -1.208  0.00  0.00     0.003 A 
ATOM      3  C3  I4B d   1      -0.997   0.312  -1.820  0.00  0.00     0.002 A 
ATOM      4  C4  I4B d   1      -2.029  -0.318  -1.155  0.00  0.00    -0.004 A 
ATOM      5  C5  I4B d   1      -1.837  -0.798   0.138  0.00  0.00     0.002 A 
ATOM      6  C6  I4B d   1      -0.582  -0.674   0.753  0.00  0.00     0.003 A 
ENDROOT
BRANCH   1   7
ATOM      7  C1' I4B d   1       1.837  -0.015   0.661  0.00  0.00     0.060 C 
BRANCH   7   8
ATOM      8  C2' I4B d   1       2.052   1.405   1.144  0.00  0.00    -0.013 C 
ATOM      9  C4' I4B d   1       2.327   1.441   2.624  0.00  0.00     0.013 C 
ATOM     10  C3' I4B d   1       3.193   1.991   0.367  0.00  0.00     0.013 C 
ENDBRANCH   7   8
ENDBRANCH   1   7
TORSDOF 2
ENDMDL
