MODEL 1
REMARK minimizedAffinity -5.27954435
REMARK minimizedRMSD -1
REMARK  2 active torsions:
REMARK  status: ('A' for Active; 'I' for Inactive)
REMARK    1  A    between atoms: C2'_3  and  C1'_4 
REMARK    2  A    between atoms: C1'_4  and  C1_5 
ROOT
ATOM      1  C1  I4B d   1      -1.002  -1.097   0.061  0.00  0.00    -0.075 A 
ATOM      2  C2  I4B d   1      -2.257  -0.965  -0.478  0.00  0.00     0.003 A 
ATOM      3  C3  I4B d   1      -3.315  -1.795  -0.033  0.00  0.00     0.002 A 
ATOM      4  C4  I4B d   1      -3.063  -2.770   0.910  0.00  0.00    -0.004 A 
ATOM      5  C5  I4B d   1      -1.795  -2.887   1.472  0.00  0.00     0.002 A 
ATOM      6  C6  I4B d   1      -0.760  -2.037   1.054  0.00  0.00     0.003 A 
ENDROOT
BRANCH   1   7
ATOM      7  C1' I4B d   1       0.099  -0.226  -0.456  0.00  0.00     0.060 C 
BRANCH   7   8
ATOM      8  C2' I4B d   1       1.133  -0.080   0.642  0.00  0.00    -0.013 C 
ATOM      9  C4' I4B d   1       2.050  -1.274   0.690  0.00  0.00     0.013 C 
ATOM     10  C3' I4B d   1       1.902   1.183   0.390  0.00  0.00     0.013 C 
ENDBRANCH   7   8
ENDBRANCH   1   7
TORSDOF 2
ENDMDL
