MODEL 1
REMARK minimizedAffinity 2.59665847
REMARK minimizedRMSD -1
REMARK  1 active torsions:
REMARK  status: ('A' for Active; 'I' for Inactive)
REMARK    1  A    between atoms: C3_4  and  O_7 
ROOT
ATOM      1  C   UNL d   1       1.114   2.043   3.432  0.00  0.00    -0.033 A 
ATOM      2  C1  UNL d   1       0.054   2.527   4.201  0.00  0.00     0.039 A 
ATOM      3  C2  UNL d   1      -1.264   2.309   3.794  0.00  0.00    -0.080 A 
ATOM      4  C3  UNL d   1      -1.508   1.605   2.618  0.00  0.00     0.150 A 
ATOM      5  C4  UNL d   1      -0.457   1.116   1.849  0.00  0.00    -0.007 A 
ATOM      6  C5  UNL d   1       0.858   1.336   2.257  0.00  0.00     0.039 A 
ENDROOT
BRANCH   4   7
ATOM      7  O   UNL d   1      -2.776   1.372   2.177  0.00  0.00    -0.526 OA
ATOM      8  H5  UNL d   1      -3.399   1.793   2.794  0.00  0.00     0.418 HD
ENDBRANCH   4   7
TORSDOF 1
ENDMDL
