MODEL 1
REMARK minimizedAffinity 11.468977
REMARK minimizedRMSD -1
REMARK  1 active torsions:
REMARK  status: ('A' for Active; 'I' for Inactive)
REMARK    1  A    between atoms: C3_4  and  O_7 
ROOT
ATOM      1  C   UNL d   1       0.153   1.532   2.877  0.00  0.00    -0.033 A 
ATOM      2  C1  UNL d   1      -0.224   0.607   3.853  0.00  0.00     0.039 A 
ATOM      3  C2  UNL d   1      -1.572   0.431   4.167  0.00  0.00    -0.080 A 
ATOM      4  C3  UNL d   1      -2.534   1.185   3.499  0.00  0.00     0.150 A 
ATOM      5  C4  UNL d   1      -2.166   2.105   2.523  0.00  0.00    -0.007 A 
ATOM      6  C5  UNL d   1      -0.819   2.280   2.211  0.00  0.00     0.039 A 
ENDROOT
BRANCH   4   7
ATOM      7  O   UNL d   1      -3.862   1.052   3.776  0.00  0.00    -0.526 OA
ATOM      8  H5  UNL d   1      -3.964   0.402   4.490  0.00  0.00     0.418 HD
ENDBRANCH   4   7
TORSDOF 1
ENDMDL
