MODEL 1
REMARK minimizedAffinity 10.7050743
REMARK minimizedRMSD -1
REMARK  1 active torsions:
REMARK  status: ('A' for Active; 'I' for Inactive)
REMARK    1  A    between atoms: C3_4  and  O_7 
ROOT
ATOM      1  C   UNL d   1       1.017   1.729   2.001  0.00  0.00    -0.033 A 
ATOM      2  C1  UNL d   1       2.131   2.017   2.792  0.00  0.00     0.039 A 
ATOM      3  C2  UNL d   1       2.143   1.658   4.141  0.00  0.00    -0.080 A 
ATOM      4  C3  UNL d   1       1.037   1.012   4.687  0.00  0.00     0.150 A 
ATOM      5  C4  UNL d   1      -0.075   0.719   3.904  0.00  0.00    -0.007 A 
ATOM      6  C5  UNL d   1      -0.086   1.079   2.557  0.00  0.00     0.039 A 
ENDROOT
BRANCH   4   7
ATOM      7  O   UNL d   1       1.001   0.647   6.000  0.00  0.00    -0.526 OA
ATOM      8  H5  UNL d   1       1.825   0.939   6.423  0.00  0.00     0.418 HD
ENDBRANCH   4   7
TORSDOF 1
ENDMDL
