MODEL 1
REMARK minimizedAffinity 6.99366283
REMARK minimizedRMSD -1
REMARK  1 active torsions:
REMARK  status: ('A' for Active; 'I' for Inactive)
REMARK    1  A    between atoms: C3_4  and  O_7 
ROOT
ATOM      1  C   UNL d   1      -3.160   1.144   5.361  0.00  0.00    -0.033 A 
ATOM      2  C1  UNL d   1      -3.764   2.229   6.000  0.00  0.00     0.039 A 
ATOM      3  C2  UNL d   1      -4.723   2.990   5.330  0.00  0.00    -0.080 A 
ATOM      4  C3  UNL d   1      -5.070   2.656   4.023  0.00  0.00     0.150 A 
ATOM      5  C4  UNL d   1      -4.476   1.574   3.383  0.00  0.00    -0.007 A 
ATOM      6  C5  UNL d   1      -3.517   0.815   4.053  0.00  0.00     0.039 A 
ENDROOT
BRANCH   4   7
ATOM      7  O   UNL d   1      -5.998   3.373   3.327  0.00  0.00    -0.526 OA
ATOM      8  H5  UNL d   1      -6.302   4.107   3.886  0.00  0.00     0.418 HD
ENDBRANCH   4   7
TORSDOF 1
ENDMDL
