MODEL 1
REMARK minimizedAffinity 7.05946827
REMARK minimizedRMSD -1
REMARK  1 active torsions:
REMARK  status: ('A' for Active; 'I' for Inactive)
REMARK    1  A    between atoms: C3_4  and  O_7 
ROOT
ATOM      1  C   UNL d   1      -1.519   1.517  -4.090  0.00  0.00    -0.033 A 
ATOM      2  C1  UNL d   1      -1.882   2.647  -3.354  0.00  0.00     0.039 A 
ATOM      3  C2  UNL d   1      -2.664   3.643  -3.941  0.00  0.00    -0.080 A 
ATOM      4  C3  UNL d   1      -3.078   3.496  -5.263  0.00  0.00     0.150 A 
ATOM      5  C4  UNL d   1      -2.724   2.371  -6.000  0.00  0.00    -0.007 A 
ATOM      6  C5  UNL d   1      -1.942   1.378  -5.412  0.00  0.00     0.039 A 
ENDROOT
BRANCH   4   7
ATOM      7  O   UNL d   1      -3.839   4.444  -5.880  0.00  0.00    -0.526 OA
ATOM      8  H5  UNL d   1      -3.982   5.177  -5.258  0.00  0.00     0.418 HD
ENDBRANCH   4   7
TORSDOF 1
ENDMDL
