MODEL 1
REMARK minimizedAffinity 3.74128008
REMARK minimizedRMSD -1
REMARK  1 active torsions:
REMARK  status: ('A' for Active; 'I' for Inactive)
REMARK    1  A    between atoms: C3_4  and  O_7 
ROOT
ATOM      1  C   UNL d   1      -3.354   3.934  -5.981  0.00  0.00    -0.033 A 
ATOM      2  C1  UNL d   1      -2.673   3.212  -4.999  0.00  0.00     0.039 A 
ATOM      3  C2  UNL d   1      -1.923   3.883  -4.031  0.00  0.00    -0.080 A 
ATOM      4  C3  UNL d   1      -1.864   5.274  -4.055  0.00  0.00     0.150 A 
ATOM      5  C4  UNL d   1      -2.543   6.000  -5.028  0.00  0.00    -0.007 A 
ATOM      6  C5  UNL d   1      -3.290   5.328  -5.994  0.00  0.00     0.039 A 
ENDROOT
BRANCH   4   7
ATOM      7  O   UNL d   1      -1.142   5.973  -3.133  0.00  0.00    -0.526 OA
ATOM      8  H5  UNL d   1      -0.703   5.339  -2.541  0.00  0.00     0.418 HD
ENDBRANCH   4   7
TORSDOF 1
ENDMDL
