MODEL 1
REMARK minimizedAffinity 1.08565748
REMARK minimizedRMSD -1
REMARK  1 active torsions:
REMARK  status: ('A' for Active; 'I' for Inactive)
REMARK    1  A    between atoms: C3_4  and  O_7 
ROOT
ATOM      1  C   UNL d   1      -3.136   5.998  -5.613  0.00  0.00    -0.033 A 
ATOM      2  C1  UNL d   1      -2.147   5.976  -4.628  0.00  0.00     0.039 A 
ATOM      3  C2  UNL d   1      -1.789   4.770  -4.023  0.00  0.00    -0.080 A 
ATOM      4  C3  UNL d   1      -2.426   3.595  -4.411  0.00  0.00     0.150 A 
ATOM      5  C4  UNL d   1      -3.410   3.609  -5.395  0.00  0.00    -0.007 A 
ATOM      6  C5  UNL d   1      -3.767   4.814  -5.997  0.00  0.00     0.039 A 
ENDROOT
BRANCH   4   7
ATOM      7  O   UNL d   1      -2.114   2.394  -3.845  0.00  0.00    -0.526 OA
ATOM      8  H5  UNL d   1      -1.439   2.542  -3.162  0.00  0.00     0.418 HD
ENDBRANCH   4   7
TORSDOF 1
ENDMDL
