MODEL 1
REMARK minimizedAffinity 16.929533
REMARK minimizedRMSD -1
REMARK  1 active torsions:
REMARK  status: ('A' for Active; 'I' for Inactive)
REMARK    1  A    between atoms: C3_4  and  O_7 
ROOT
ATOM      1  C   UNL d   1       0.821   1.676   2.960  0.00  0.00    -0.033 A 
ATOM      2  C1  UNL d   1       0.067   2.634   2.278  0.00  0.00     0.039 A 
ATOM      3  C2  UNL d   1      -1.327   2.550   2.271  0.00  0.00    -0.080 A 
ATOM      4  C3  UNL d   1      -1.953   1.507   2.947  0.00  0.00     0.150 A 
ATOM      5  C4  UNL d   1      -1.207   0.552   3.631  0.00  0.00    -0.007 A 
ATOM      6  C5  UNL d   1       0.184   0.637   3.637  0.00  0.00     0.039 A 
ENDROOT
BRANCH   4   7
ATOM      7  O   UNL d   1      -3.310   1.381   2.964  0.00  0.00    -0.526 OA
ATOM      8  H5  UNL d   1      -3.692   2.094   2.426  0.00  0.00     0.418 HD
ENDBRANCH   4   7
TORSDOF 1
ENDMDL
