MODEL 1
REMARK minimizedAffinity 15.1757193
REMARK minimizedRMSD -1
REMARK  1 active torsions:
REMARK  status: ('A' for Active; 'I' for Inactive)
REMARK    1  A    between atoms: C3_4  and  O_7 
ROOT
ATOM      1  C   UNL d   1      -4.869   2.916   5.943  0.00  0.00    -0.033 A 
ATOM      2  C1  UNL d   1      -3.759   2.071   6.000  0.00  0.00     0.039 A 
ATOM      3  C2  UNL d   1      -3.415   1.291   4.893  0.00  0.00    -0.080 A 
ATOM      4  C3  UNL d   1      -4.189   1.366   3.738  0.00  0.00     0.150 A 
ATOM      5  C4  UNL d   1      -5.294   2.209   3.674  0.00  0.00    -0.007 A 
ATOM      6  C5  UNL d   1      -5.636   2.985   4.780  0.00  0.00     0.039 A 
ENDROOT
BRANCH   4   7
ATOM      7  O   UNL d   1      -3.896   0.621   2.635  0.00  0.00    -0.526 OA
ATOM      8  H5  UNL d   1      -3.124   0.066   2.835  0.00  0.00     0.418 HD
ENDBRANCH   4   7
TORSDOF 1
ENDMDL
