MODEL 1
REMARK minimizedAffinity 16.6594353
REMARK minimizedRMSD -1
REMARK  1 active torsions:
REMARK  status: ('A' for Active; 'I' for Inactive)
REMARK    1  A    between atoms: C3_4  and  O_7 
ROOT
ATOM      1  C   UNL d   1       1.229   5.443  -0.043  0.00  0.00    -0.033 A 
ATOM      2  C1  UNL d   1       1.480   5.813  -1.365  0.00  0.00     0.039 A 
ATOM      3  C2  UNL d   1       2.137   4.931  -2.225  0.00  0.00    -0.080 A 
ATOM      4  C3  UNL d   1       2.538   3.685  -1.751  0.00  0.00     0.150 A 
ATOM      5  C4  UNL d   1       2.288   3.309  -0.436  0.00  0.00    -0.007 A 
ATOM      6  C5  UNL d   1       1.631   4.191   0.422  0.00  0.00     0.039 A 
ENDROOT
BRANCH   4   7
ATOM      7  O   UNL d   1       3.187   2.793  -2.552  0.00  0.00    -0.526 OA
ATOM      8  H5  UNL d   1       3.316   3.200  -3.425  0.00  0.00     0.418 HD
ENDBRANCH   4   7
TORSDOF 1
ENDMDL
