MODEL 1
REMARK minimizedAffinity 11.778595
REMARK minimizedRMSD -1
REMARK  1 active torsions:
REMARK  status: ('A' for Active; 'I' for Inactive)
REMARK    1  A    between atoms: C3_4  and  O_7 
ROOT
ATOM      1  C   UNL d   1      -3.406  -2.893  -4.359  0.00  0.00    -0.033 A 
ATOM      2  C1  UNL d   1      -4.282  -2.628  -5.413  0.00  0.00     0.039 A 
ATOM      3  C2  UNL d   1      -5.031  -3.662  -5.977  0.00  0.00    -0.080 A 
ATOM      4  C3  UNL d   1      -4.897  -4.955  -5.478  0.00  0.00     0.150 A 
ATOM      5  C4  UNL d   1      -4.029  -5.226  -4.425  0.00  0.00    -0.007 A 
ATOM      6  C5  UNL d   1      -3.280  -4.192  -3.864  0.00  0.00     0.039 A 
ENDROOT
BRANCH   4   7
ATOM      7  O   UNL d   1      -5.603  -5.997  -6.000  0.00  0.00    -0.526 OA
ATOM      8  H5  UNL d   1      -6.140  -5.666  -6.739  0.00  0.00     0.418 HD
ENDBRANCH   4   7
TORSDOF 1
ENDMDL
