MODEL 1
REMARK minimizedAffinity 16.1011734
REMARK minimizedRMSD -1
REMARK  1 active torsions:
REMARK  status: ('A' for Active; 'I' for Inactive)
REMARK    1  A    between atoms: C3_4  and  O_7 
ROOT
ATOM      1  C   UNL d   1      -2.199   2.226  -5.318  0.00  0.00    -0.033 A 
ATOM      2  C1  UNL d   1      -2.665   3.352  -6.000  0.00  0.00     0.039 A 
ATOM      3  C2  UNL d   1      -2.443   4.628  -5.478  0.00  0.00    -0.080 A 
ATOM      4  C3  UNL d   1      -1.752   4.764  -4.277  0.00  0.00     0.150 A 
ATOM      5  C4  UNL d   1      -1.281   3.647  -3.595  0.00  0.00    -0.007 A 
ATOM      6  C5  UNL d   1      -1.505   2.374  -4.116  0.00  0.00     0.039 A 
ENDROOT
BRANCH   4   7
ATOM      7  O   UNL d   1      -1.515   5.989  -3.726  0.00  0.00    -0.526 OA
ATOM      8  H5  UNL d   1      -1.923   6.665  -4.292  0.00  0.00     0.418 HD
ENDBRANCH   4   7
TORSDOF 1
ENDMDL
