MODEL 1
REMARK minimizedAffinity -0.242136985
REMARK minimizedRMSD -1
REMARK  1 active torsions:
REMARK  status: ('A' for Active; 'I' for Inactive)
REMARK    1  A    between atoms: C3_4  and  O_7 
ROOT
ATOM      1  C   UNL d   1      -2.281   5.998  -4.299  0.00  0.00    -0.033 A 
ATOM      2  C1  UNL d   1      -3.117   5.999  -5.417  0.00  0.00     0.039 A 
ATOM      3  C2  UNL d   1      -3.507   4.792  -6.000  0.00  0.00    -0.080 A 
ATOM      4  C3  UNL d   1      -3.055   3.593  -5.456  0.00  0.00     0.150 A 
ATOM      5  C4  UNL d   1      -2.225   3.584  -4.340  0.00  0.00    -0.007 A 
ATOM      6  C5  UNL d   1      -1.835   4.791  -3.760  0.00  0.00     0.039 A 
ENDROOT
BRANCH   4   7
ATOM      7  O   UNL d   1      -3.405   2.390  -5.994  0.00  0.00    -0.526 OA
ATOM      8  H5  UNL d   1      -3.958   2.552  -6.776  0.00  0.00     0.418 HD
ENDBRANCH   4   7
TORSDOF 1
ENDMDL
