MODEL 1
REMARK minimizedAffinity 3.92705131
REMARK minimizedRMSD -1
REMARK  1 active torsions:
REMARK  status: ('A' for Active; 'I' for Inactive)
REMARK    1  A    between atoms: C3_4  and  O_7 
ROOT
ATOM      1  C   UNL d   1      -1.087   2.229  -4.044  0.00  0.00    -0.033 A 
ATOM      2  C1  UNL d   1      -1.487   3.389  -3.378  0.00  0.00     0.039 A 
ATOM      3  C2  UNL d   1      -2.311   4.316  -4.020  0.00  0.00    -0.080 A 
ATOM      4  C3  UNL d   1      -2.727   4.071  -5.326  0.00  0.00     0.150 A 
ATOM      5  C4  UNL d   1      -2.336   2.915  -5.994  0.00  0.00    -0.007 A 
ATOM      6  C5  UNL d   1      -1.512   1.991  -5.352  0.00  0.00     0.039 A 
ENDROOT
BRANCH   4   7
ATOM      7  O   UNL d   1      -3.527   4.948  -5.995  0.00  0.00    -0.526 OA
ATOM      8  H5  UNL d   1      -3.694   5.713  -5.420  0.00  0.00     0.418 HD
ENDBRANCH   4   7
TORSDOF 1
ENDMDL
