MODEL 1
REMARK minimizedAffinity 12.0291567
REMARK minimizedRMSD -1
REMARK  1 active torsions:
REMARK  status: ('A' for Active; 'I' for Inactive)
REMARK    1  A    between atoms: C3_4  and  O_7 
ROOT
ATOM      1  C   UNL d   1       0.463   2.630   6.000  0.00  0.00    -0.033 A 
ATOM      2  C1  UNL d   1       1.286   1.502   6.000  0.00  0.00     0.039 A 
ATOM      3  C2  UNL d   1       1.425   0.738   4.839  0.00  0.00    -0.080 A 
ATOM      4  C3  UNL d   1       0.739   1.113   3.688  0.00  0.00     0.150 A 
ATOM      5  C4  UNL d   1      -0.079   2.238   3.680  0.00  0.00    -0.007 A 
ATOM      6  C5  UNL d   1      -0.218   2.999   4.840  0.00  0.00     0.039 A 
ENDROOT
BRANCH   4   7
ATOM      7  O   UNL d   1       0.840   0.396   2.532  0.00  0.00    -0.526 OA
ATOM      8  H5  UNL d   1       1.416  -0.370   2.695  0.00  0.00     0.418 HD
ENDBRANCH   4   7
TORSDOF 1
ENDMDL
