MODEL 1
REMARK minimizedAffinity 5.98766422
REMARK minimizedRMSD -1
REMARK  1 active torsions:
REMARK  status: ('A' for Active; 'I' for Inactive)
REMARK    1  A    between atoms: C3_4  and  O_7 
ROOT
ATOM      1  C   UNL d   1      -2.135  -0.600   2.245  0.00  0.00    -0.033 A 
ATOM      2  C1  UNL d   1      -1.747   0.737   2.350  0.00  0.00     0.039 A 
ATOM      3  C2  UNL d   1      -2.585   1.663   2.973  0.00  0.00    -0.080 A 
ATOM      4  C3  UNL d   1      -3.807   1.239   3.488  0.00  0.00     0.150 A 
ATOM      5  C4  UNL d   1      -4.199  -0.092   3.391  0.00  0.00    -0.007 A 
ATOM      6  C5  UNL d   1      -3.361  -1.015   2.767  0.00  0.00     0.039 A 
ENDROOT
BRANCH   4   7
ATOM      7  O   UNL d   1      -4.662   2.107   4.101  0.00  0.00    -0.526 OA
ATOM      8  H5  UNL d   1      -4.272   2.997   4.069  0.00  0.00     0.418 HD
ENDBRANCH   4   7
TORSDOF 1
ENDMDL
