MODEL 1
REMARK minimizedAffinity 4.51381111
REMARK minimizedRMSD -1
REMARK  2 active torsions:
REMARK  status: ('A' for Active; 'I' for Inactive)
REMARK    1  A    between atoms: C2'_3  and  C1'_4 
REMARK    2  A    between atoms: C1'_4  and  C1_5 
ROOT
ATOM      1  C1  I4B d   1       0.655  -3.419   4.666  0.00  0.00    -0.075 A 
ATOM      2  C2  I4B d   1      -0.456  -4.225   4.677  0.00  0.00     0.003 A 
ATOM      3  C3  I4B d   1      -0.435  -5.459   5.370  0.00  0.00     0.002 A 
ATOM      4  C4  I4B d   1       0.727  -5.869   5.992  0.00  0.00    -0.004 A 
ATOM      5  C5  I4B d   1       1.845  -5.040   6.000  0.00  0.00     0.002 A 
ATOM      6  C6  I4B d   1       1.805  -3.802   5.343  0.00  0.00     0.003 A 
ENDROOT
BRANCH   1   7
ATOM      7  C1' I4B d   1       0.608  -2.137   3.896  0.00  0.00     0.060 C 
BRANCH   7   8
ATOM      8  C2' I4B d   1       1.837  -1.329   4.260  0.00  0.00    -0.013 C 
ATOM      9  C4' I4B d   1       2.590  -0.898   3.028  0.00  0.00     0.013 C 
ATOM     10  C3' I4B d   1       1.392  -0.145   5.065  0.00  0.00     0.013 C 
ENDBRANCH   7   8
ENDBRANCH   1   7
TORSDOF 2
ENDMDL
