MODEL 1
REMARK minimizedAffinity -3.153229
REMARK minimizedRMSD -1
REMARK  2 active torsions:
REMARK  status: ('A' for Active; 'I' for Inactive)
REMARK    1  A    between atoms: C2'_3  and  C1'_4 
REMARK    2  A    between atoms: C1'_4  and  C1_5 
ROOT
ATOM      1  C1  I4B d   1       4.181   3.119   3.902  0.00  0.00    -0.075 A 
ATOM      2  C2  I4B d   1       5.351   3.739   4.264  0.00  0.00     0.003 A 
ATOM      3  C3  I4B d   1       5.369   4.653   5.345  0.00  0.00     0.002 A 
ATOM      4  C4  I4B d   1       4.192   4.954   6.000  0.00  0.00    -0.004 A 
ATOM      5  C5  I4B d   1       3.011   4.307   5.646  0.00  0.00     0.002 A 
ATOM      6  C6  I4B d   1       3.008   3.375   4.599  0.00  0.00     0.003 A 
ENDROOT
BRANCH   1   7
ATOM      7  C1' I4B d   1       4.192   2.184   2.734  0.00  0.00     0.060 C 
BRANCH   7   8
ATOM      8  C2' I4B d   1       4.430   3.004   1.482  0.00  0.00    -0.013 C 
ATOM      9  C4' I4B d   1       5.889   3.014   1.106  0.00  0.00     0.013 C 
ATOM     10  C3' I4B d   1       3.592   2.424   0.383  0.00  0.00     0.013 C 
ENDBRANCH   7   8
ENDBRANCH   1   7
TORSDOF 2
ENDMDL
