MODEL 1
REMARK minimizedAffinity 6.37882566
REMARK minimizedRMSD -1
REMARK  2 active torsions:
REMARK  status: ('A' for Active; 'I' for Inactive)
REMARK    1  A    between atoms: C2'_3  and  C1'_4 
REMARK    2  A    between atoms: C1'_4  and  C1_5 
ROOT
ATOM      1  C1  I4B d   1      -3.640   3.197   1.180  0.00  0.00    -0.075 A 
ATOM      2  C2  I4B d   1      -4.593   3.923   0.513  0.00  0.00     0.003 A 
ATOM      3  C3  I4B d   1      -5.803   3.309   0.108  0.00  0.00     0.002 A 
ATOM      4  C4  I4B d   1      -5.995   1.964   0.345  0.00  0.00    -0.004 A 
ATOM      5  C5  I4B d   1      -5.037   1.234   1.042  0.00  0.00     0.002 A 
ATOM      6  C6  I4B d   1      -3.857   1.857   1.474  0.00  0.00     0.003 A 
ENDROOT
BRANCH   1   7
ATOM      7  C1' I4B d   1      -2.359   3.869   1.564  0.00  0.00     0.060 C 
BRANCH   7   8
ATOM      8  C2' I4B d   1      -2.671   5.316   1.888  0.00  0.00    -0.013 C 
ATOM      9  C4' I4B d   1      -1.488   5.998   2.524  0.00  0.00     0.013 C 
ATOM     10  C3' I4B d   1      -3.071   6.000   0.615  0.00  0.00     0.013 C 
ENDBRANCH   7   8
ENDBRANCH   1   7
TORSDOF 2
ENDMDL
