MODEL 1
REMARK minimizedAffinity 9.90670204
REMARK minimizedRMSD -1
REMARK  2 active torsions:
REMARK  status: ('A' for Active; 'I' for Inactive)
REMARK    1  A    between atoms: C2'_3  and  C1'_4 
REMARK    2  A    between atoms: C1'_4  and  C1_5 
ROOT
ATOM      1  C1  I4B d   1       4.854   2.629   3.389  0.00  0.00    -0.075 A 
ATOM      2  C2  I4B d   1       4.860   1.660   4.362  0.00  0.00     0.003 A 
ATOM      3  C3  I4B d   1       4.464   1.976   5.684  0.00  0.00     0.002 A 
ATOM      4  C4  I4B d   1       4.121   3.274   6.000  0.00  0.00    -0.004 A 
ATOM      5  C5  I4B d   1       4.093   4.250   5.007  0.00  0.00     0.002 A 
ATOM      6  C6  I4B d   1       4.450   3.923   3.691  0.00  0.00     0.003 A 
ENDROOT
BRANCH   1   7
ATOM      7  C1' I4B d   1       5.309   2.269   2.011  0.00  0.00     0.060 C 
BRANCH   7   8
ATOM      8  C2' I4B d   1       4.269   2.769   1.030  0.00  0.00    -0.013 C 
ATOM      9  C4' I4B d   1       4.876   3.712   0.025  0.00  0.00     0.013 C 
ATOM     10  C3' I4B d   1       3.658   1.578   0.354  0.00  0.00     0.013 C 
ENDBRANCH   7   8
ENDBRANCH   1   7
TORSDOF 2
ENDMDL
