MODEL 1
REMARK minimizedAffinity 12.3408709
REMARK minimizedRMSD -1
REMARK  2 active torsions:
REMARK  status: ('A' for Active; 'I' for Inactive)
REMARK    1  A    between atoms: C2'_3  and  C1'_4 
REMARK    2  A    between atoms: C1'_4  and  C1_5 
ROOT
ATOM      1  C1  I4B d   1       5.171   3.213   3.353  0.00  0.00    -0.075 A 
ATOM      2  C2  I4B d   1       5.631   4.430   3.791  0.00  0.00     0.003 A 
ATOM      3  C3  I4B d   1       5.034   5.055   4.913  0.00  0.00     0.002 A 
ATOM      4  C4  I4B d   1       3.956   4.456   5.531  0.00  0.00    -0.004 A 
ATOM      5  C5  I4B d   1       3.506   3.212   5.099  0.00  0.00     0.002 A 
ATOM      6  C6  I4B d   1       4.125   2.580   4.011  0.00  0.00     0.003 A 
ENDROOT
BRANCH   1   7
ATOM      7  C1' I4B d   1       5.802   2.597   2.145  0.00  0.00     0.060 C 
BRANCH   7   8
ATOM      8  C2' I4B d   1       5.071   3.112   0.922  0.00  0.00    -0.013 C 
ATOM      9  C4' I4B d   1       5.999   3.874   0.012  0.00  0.00     0.013 C 
ATOM     10  C3' I4B d   1       4.465   1.937   0.215  0.00  0.00     0.013 C 
ENDBRANCH   7   8
ENDBRANCH   1   7
TORSDOF 2
ENDMDL
