MODEL 1
REMARK minimizedAffinity 3.84575081
REMARK minimizedRMSD -1
REMARK  2 active torsions:
REMARK  status: ('A' for Active; 'I' for Inactive)
REMARK    1  A    between atoms: C2'_3  and  C1'_4 
REMARK    2  A    between atoms: C1'_4  and  C1_5 
ROOT
ATOM      1  C1  I4B d   1       3.666   4.522   4.813  0.00  0.00    -0.075 A 
ATOM      2  C2  I4B d   1       4.082   3.907   5.968  0.00  0.00     0.003 A 
ATOM      3  C3  I4B d   1       4.944   2.785   5.907  0.00  0.00     0.002 A 
ATOM      4  C4  I4B d   1       5.321   2.283   4.678  0.00  0.00    -0.004 A 
ATOM      5  C5  I4B d   1       4.916   2.922   3.509  0.00  0.00     0.002 A 
ATOM      6  C6  I4B d   1       4.093   4.055   3.577  0.00  0.00     0.003 A 
ENDROOT
BRANCH   1   7
ATOM      7  C1' I4B d   1       2.730   5.684   4.913  0.00  0.00     0.060 C 
BRANCH   7   8
ATOM      8  C2' I4B d   1       1.669   5.343   5.940  0.00  0.00    -0.013 C 
ATOM      9  C4' I4B d   1       0.351   5.984   5.596  0.00  0.00     0.013 C 
ATOM     10  C3' I4B d   1       1.546   3.849   5.999  0.00  0.00     0.013 C 
ENDBRANCH   7   8
ENDBRANCH   1   7
TORSDOF 2
ENDMDL
