MODEL 1
REMARK minimizedAffinity 5.36962128
REMARK minimizedRMSD -1
REMARK  2 active torsions:
REMARK  status: ('A' for Active; 'I' for Inactive)
REMARK    1  A    between atoms: C2'_3  and  C1'_4 
REMARK    2  A    between atoms: C1'_4  and  C1_5 
ROOT
ATOM      1  C1  I4B d   1       4.505   3.232   4.235  0.00  0.00    -0.075 A 
ATOM      2  C2  I4B d   1       3.701   4.136   4.885  0.00  0.00     0.003 A 
ATOM      3  C3  I4B d   1       2.719   3.688   5.801  0.00  0.00     0.002 A 
ATOM      4  C4  I4B d   1       2.543   2.333   5.999  0.00  0.00    -0.004 A 
ATOM      5  C5  I4B d   1       3.374   1.420   5.358  0.00  0.00     0.002 A 
ATOM      6  C6  I4B d   1       4.370   1.872   4.480  0.00  0.00     0.003 A 
ENDROOT
BRANCH   1   7
ATOM      7  C1' I4B d   1       5.509   3.739   3.249  0.00  0.00     0.060 C 
BRANCH   7   8
ATOM      8  C2' I4B d   1       5.427   2.869   2.011  0.00  0.00    -0.013 C 
ATOM      9  C4' I4B d   1       4.008   2.451   1.732  0.00  0.00     0.013 C 
ATOM     10  C3' I4B d   1       6.000   3.644   0.862  0.00  0.00     0.013 C 
ENDBRANCH   7   8
ENDBRANCH   1   7
TORSDOF 2
ENDMDL
