MODEL 1
REMARK minimizedAffinity -1.66265273
REMARK minimizedRMSD -1
REMARK  2 active torsions:
REMARK  status: ('A' for Active; 'I' for Inactive)
REMARK    1  A    between atoms: C1_2  and  C2_3 
REMARK    2  A    between atoms: C2_3  and  C3_4 
ROOT
ATOM      1  C3  UNL d   1      -2.006   0.412  -0.576  0.00  0.00    -0.075 A 
ATOM      2  C4  UNL d   1      -1.658  -0.733   0.155  0.00  0.00     0.002 A 
ATOM      3  C5  UNL d   1      -0.428  -0.810   0.809  0.00  0.00     0.002 A 
ATOM      4  C6  UNL d   1       0.472   0.251   0.732  0.00  0.00    -0.004 A 
ATOM      5  C7  UNL d   1       0.144   1.386  -0.006  0.00  0.00     0.002 A 
ATOM      6  C8  UNL d   1      -1.088   1.467  -0.657  0.00  0.00     0.002 A 
ENDROOT
BRANCH   1   7
ATOM      7  C2  UNL d   1      -3.348   0.513  -1.261  0.00  0.00     0.056 C 
BRANCH   7   8
ATOM      8  C1  UNL d   1      -3.271   0.978  -2.719  0.00  0.00     0.007 C 
ATOM      9  C   UNL d   1      -2.643  -0.055  -3.645  0.00  0.00     0.009 C 
ENDBRANCH   7   8
ENDBRANCH   1   7
TORSDOF 2
ENDMDL
