MODEL 1
REMARK minimizedAffinity -3.32555032
REMARK minimizedRMSD -1
REMARK  2 active torsions:
REMARK  status: ('A' for Active; 'I' for Inactive)
REMARK    1  A    between atoms: C1_2  and  C2_3 
REMARK    2  A    between atoms: C2_3  and  C3_4 
ROOT
ATOM      1  C3  UNL d   1      -1.166   0.097  -0.670  0.00  0.00    -0.075 A 
ATOM      2  C4  UNL d   1      -1.738  -1.031  -0.064  0.00  0.00     0.002 A 
ATOM      3  C5  UNL d   1      -2.630  -1.839  -0.770  0.00  0.00     0.002 A 
ATOM      4  C6  UNL d   1      -2.969  -1.524  -2.085  0.00  0.00    -0.004 A 
ATOM      5  C7  UNL d   1      -2.419  -0.397  -2.691  0.00  0.00     0.002 A 
ATOM      6  C8  UNL d   1      -1.523   0.411  -1.988  0.00  0.00     0.002 A 
ENDROOT
BRANCH   1   7
ATOM      7  C2  UNL d   1      -0.177   0.958   0.079  0.00  0.00     0.056 C 
BRANCH   7   8
ATOM      8  C1  UNL d   1       1.145   0.255   0.400  0.00  0.00     0.007 C 
ATOM      9  C   UNL d   1       2.294   1.222   0.651  0.00  0.00     0.009 C 
ENDBRANCH   7   8
ENDBRANCH   1   7
TORSDOF 2
ENDMDL
