MODEL 1
REMARK minimizedAffinity -2.90342498
REMARK minimizedRMSD -1
REMARK  2 active torsions:
REMARK  status: ('A' for Active; 'I' for Inactive)
REMARK    1  A    between atoms: C1_2  and  C2_3 
REMARK    2  A    between atoms: C2_3  and  C3_4 
ROOT
ATOM      1  C3  UNL d   1      -1.963   0.927  -0.853  0.00  0.00    -0.075 A 
ATOM      2  C4  UNL d   1      -0.690   1.501  -0.728  0.00  0.00     0.002 A 
ATOM      3  C5  UNL d   1       0.314   0.848  -0.012  0.00  0.00     0.002 A 
ATOM      4  C6  UNL d   1       0.056  -0.379   0.595  0.00  0.00    -0.004 A 
ATOM      5  C7  UNL d   1      -1.210  -0.950   0.491  0.00  0.00     0.002 A 
ATOM      6  C8  UNL d   1      -2.216  -0.301  -0.228  0.00  0.00     0.002 A 
ENDROOT
BRANCH   1   7
ATOM      7  C2  UNL d   1      -3.046   1.614  -1.650  0.00  0.00     0.056 C 
BRANCH   7   8
ATOM      8  C1  UNL d   1      -2.571   2.167  -2.998  0.00  0.00     0.007 C 
ATOM      9  C   UNL d   1      -3.152   3.537  -3.323  0.00  0.00     0.009 C 
ENDBRANCH   7   8
ENDBRANCH   1   7
TORSDOF 2
ENDMDL
