MODEL 1
REMARK minimizedAffinity 5.07348633
REMARK minimizedRMSD -1
REMARK  2 active torsions:
REMARK  status: ('A' for Active; 'I' for Inactive)
REMARK    1  A    between atoms: C1_2  and  C2_3 
REMARK    2  A    between atoms: C2_3  and  C3_4 
ROOT
ATOM      1  C3  UNL d   1      -3.262   1.960   0.741  0.00  0.00    -0.075 A 
ATOM      2  C4  UNL d   1      -3.647   2.339  -0.554  0.00  0.00     0.002 A 
ATOM      3  C5  UNL d   1      -4.878   2.958  -0.775  0.00  0.00     0.002 A 
ATOM      4  C6  UNL d   1      -5.742   3.195   0.291  0.00  0.00    -0.004 A 
ATOM      5  C7  UNL d   1      -5.378   2.808   1.579  0.00  0.00     0.002 A 
ATOM      6  C8  UNL d   1      -4.145   2.193   1.804  0.00  0.00     0.002 A 
ENDROOT
BRANCH   1   7
ATOM      7  C2  UNL d   1      -1.919   1.317   0.990  0.00  0.00     0.056 C 
BRANCH   7   8
ATOM      8  C1  UNL d   1      -1.908  -0.202   0.793  0.00  0.00     0.007 C 
ATOM      9  C   UNL d   1      -0.552  -0.835   1.075  0.00  0.00     0.009 C 
ENDBRANCH   7   8
ENDBRANCH   1   7
TORSDOF 2
ENDMDL
