MODEL 1
REMARK minimizedAffinity -6.43614435
REMARK minimizedRMSD -1
REMARK  2 active torsions:
REMARK  status: ('A' for Active; 'I' for Inactive)
REMARK    1  A    between atoms: C1_2  and  C2_3 
REMARK    2  A    between atoms: C2_3  and  C3_4 
ROOT
ATOM      1  C3  UNL d   1       0.029  -0.093   0.416  0.00  0.00    -0.075 A 
ATOM      2  C4  UNL d   1       1.173   0.708   0.552  0.00  0.00     0.002 A 
ATOM      3  C5  UNL d   1       2.356   0.172   1.063  0.00  0.00     0.002 A 
ATOM      4  C6  UNL d   1       2.407  -1.164   1.453  0.00  0.00    -0.004 A 
ATOM      5  C7  UNL d   1       1.272  -1.964   1.338  0.00  0.00     0.002 A 
ATOM      6  C8  UNL d   1       0.089  -1.432   0.823  0.00  0.00     0.002 A 
ENDROOT
BRANCH   1   7
ATOM      7  C2  UNL d   1      -1.245   0.473  -0.164  0.00  0.00     0.056 C 
BRANCH   7   8
ATOM      8  C1  UNL d   1      -1.783  -0.308  -1.367  0.00  0.00     0.007 C 
ATOM      9  C   UNL d   1      -2.665   0.531  -2.282  0.00  0.00     0.009 C 
ENDBRANCH   7   8
ENDBRANCH   1   7
TORSDOF 2
ENDMDL
