MODEL 1
REMARK minimizedAffinity -4.11603212
REMARK minimizedRMSD -1
REMARK  2 active torsions:
REMARK  status: ('A' for Active; 'I' for Inactive)
REMARK    1  A    between atoms: C1_2  and  C2_3 
REMARK    2  A    between atoms: C2_3  and  C3_4 
ROOT
ATOM      1  C3  UNL d   1      -0.354  -0.162   0.491  0.00  0.00    -0.075 A 
ATOM      2  C4  UNL d   1      -0.011  -1.284   1.259  0.00  0.00     0.002 A 
ATOM      3  C5  UNL d   1       1.191  -1.317   1.966  0.00  0.00     0.002 A 
ATOM      4  C6  UNL d   1       2.068  -0.236   1.907  0.00  0.00    -0.004 A 
ATOM      5  C7  UNL d   1       1.744   0.877   1.135  0.00  0.00     0.002 A 
ATOM      6  C8  UNL d   1       0.540   0.915   0.429  0.00  0.00     0.002 A 
ENDROOT
BRANCH   1   7
ATOM      7  C2  UNL d   1      -1.667  -0.107  -0.253  0.00  0.00     0.056 C 
BRANCH   7   8
ATOM      8  C1  UNL d   1      -1.543  -0.377  -1.757  0.00  0.00     0.007 C 
ATOM      9  C   UNL d   1      -2.691   0.210  -2.568  0.00  0.00     0.009 C 
ENDBRANCH   7   8
ENDBRANCH   1   7
TORSDOF 2
ENDMDL
