MODEL 1
REMARK minimizedAffinity -3.96474814
REMARK minimizedRMSD -1
REMARK  2 active torsions:
REMARK  status: ('A' for Active; 'I' for Inactive)
REMARK    1  A    between atoms: C1_2  and  C2_3 
REMARK    2  A    between atoms: C2_3  and  C3_4 
ROOT
ATOM      1  C3  UNL d   1       0.021  -0.173   0.435  0.00  0.00    -0.075 A 
ATOM      2  C4  UNL d   1       0.081  -1.350   1.195  0.00  0.00     0.002 A 
ATOM      3  C5  UNL d   1       1.223  -1.658   1.935  0.00  0.00     0.002 A 
ATOM      4  C6  UNL d   1       2.321  -0.800   1.917  0.00  0.00    -0.004 A 
ATOM      5  C7  UNL d   1       2.279   0.363   1.152  0.00  0.00     0.002 A 
ATOM      6  C8  UNL d   1       1.136   0.676   0.414  0.00  0.00     0.002 A 
ENDROOT
BRANCH   1   7
ATOM      7  C2  UNL d   1      -1.223   0.181  -0.345  0.00  0.00     0.056 C 
BRANCH   7   8
ATOM      8  C1  UNL d   1      -1.570  -0.820  -1.452  0.00  0.00     0.007 C 
ATOM      9  C   UNL d   1      -2.639  -0.309  -2.410  0.00  0.00     0.009 C 
ENDBRANCH   7   8
ENDBRANCH   1   7
TORSDOF 2
ENDMDL
