MODEL 1
REMARK minimizedAffinity -5.51125669
REMARK minimizedRMSD -1
REMARK  2 active torsions:
REMARK  status: ('A' for Active; 'I' for Inactive)
REMARK    1  A    between atoms: C1_2  and  C2_3 
REMARK    2  A    between atoms: C2_3  and  C3_4 
ROOT
ATOM      1  C3  UNL d   1      -0.173  -0.029   0.309  0.00  0.00    -0.075 A 
ATOM      2  C4  UNL d   1       0.650   1.085   0.091  0.00  0.00     0.002 A 
ATOM      3  C5  UNL d   1       2.001   1.048   0.439  0.00  0.00     0.002 A 
ATOM      4  C6  UNL d   1       2.542  -0.097   1.019  0.00  0.00    -0.004 A 
ATOM      5  C7  UNL d   1       1.730  -1.204   1.257  0.00  0.00     0.002 A 
ATOM      6  C8  UNL d   1       0.379  -1.171   0.904  0.00  0.00     0.002 A 
ENDROOT
BRANCH   1   7
ATOM      7  C2  UNL d   1      -1.628  -0.005  -0.093  0.00  0.00     0.056 C 
BRANCH   7   8
ATOM      8  C1  UNL d   1      -1.858  -0.077  -1.606  0.00  0.00     0.007 C 
ATOM      9  C   UNL d   1      -3.332  -0.086  -1.990  0.00  0.00     0.009 C 
ENDBRANCH   7   8
ENDBRANCH   1   7
TORSDOF 2
ENDMDL
