MODEL 1
REMARK minimizedAffinity -4.10263872
REMARK minimizedRMSD -1
REMARK  2 active torsions:
REMARK  status: ('A' for Active; 'I' for Inactive)
REMARK    1  A    between atoms: C1_2  and  C2_3 
REMARK    2  A    between atoms: C2_3  and  C3_4 
ROOT
ATOM      1  C3  UNL d   1      -1.947  -0.006  -1.166  0.00  0.00    -0.075 A 
ATOM      2  C4  UNL d   1      -2.673  -1.153  -1.518  0.00  0.00     0.002 A 
ATOM      3  C5  UNL d   1      -3.644  -1.098  -2.517  0.00  0.00     0.002 A 
ATOM      4  C6  UNL d   1      -3.909   0.104  -3.170  0.00  0.00    -0.004 A 
ATOM      5  C7  UNL d   1      -3.206   1.254  -2.817  0.00  0.00     0.002 A 
ATOM      6  C8  UNL d   1      -2.230   1.201  -1.820  0.00  0.00     0.002 A 
ENDROOT
BRANCH   1   7
ATOM      7  C2  UNL d   1      -0.873  -0.065  -0.106  0.00  0.00     0.056 C 
BRANCH   7   8
ATOM      8  C1  UNL d   1      -0.125   1.256   0.099  0.00  0.00     0.007 C 
ATOM      9  C   UNL d   1       1.390   1.098   0.076  0.00  0.00     0.009 C 
ENDBRANCH   7   8
ENDBRANCH   1   7
TORSDOF 2
ENDMDL
