MODEL 1
REMARK minimizedAffinity -4.75037336
REMARK minimizedRMSD -1
REMARK  0 active torsions:
REMARK  status: ('A' for Active; 'I' for Inactive)
ROOT
ATOM      1  C1  BNZ d   1      -0.788  -0.377   1.169  0.00  0.00     0.000 A 
ATOM      2  C2  BNZ d   1       0.000  -0.645   2.256  0.00  0.00     0.000 A 
ATOM      3  C3  BNZ d   1       1.362  -0.674   2.144  0.00  0.00     0.000 A 
ATOM      4  C4  BNZ d   1       1.932  -0.474   0.938  0.00  0.00     0.000 A 
ATOM      5  C5  BNZ d   1       1.151  -0.211  -0.170  0.00  0.00     0.000 A 
ATOM      6  C6  BNZ d   1      -0.218  -0.145  -0.045  0.00  0.00     0.000 A 
ENDROOT
TORSDOF 0
ENDMDL
