MODEL 1
REMARK minimizedAffinity -2.39574599
REMARK minimizedRMSD -1
REMARK  0 active torsions:
REMARK  status: ('A' for Active; 'I' for Inactive)
ROOT
ATOM      1  C1  BNZ d   1      -0.554  -0.982   2.265  0.00  0.00     0.000 A 
ATOM      2  C2  BNZ d   1      -0.924  -0.211   1.195  0.00  0.00     0.000 A 
ATOM      3  C3  BNZ d   1      -0.250  -0.290   0.009  0.00  0.00     0.000 A 
ATOM      4  C4  BNZ d   1       0.817  -1.109  -0.094  0.00  0.00     0.000 A 
ATOM      5  C5  BNZ d   1       1.208  -1.885   0.978  0.00  0.00     0.000 A 
ATOM      6  C6  BNZ d   1       0.503  -1.832   2.158  0.00  0.00     0.000 A 
ENDROOT
TORSDOF 0
ENDMDL
