MODEL 1
REMARK minimizedAffinity -4.23565197
REMARK minimizedRMSD -1
REMARK  0 active torsions:
REMARK  status: ('A' for Active; 'I' for Inactive)
ROOT
ATOM      1  C1  BNZ d   1       1.905  -0.136   1.684  0.00  0.00     0.000 A 
ATOM      2  C2  BNZ d   1       1.159   0.071   0.554  0.00  0.00     0.000 A 
ATOM      3  C3  BNZ d   1      -0.199  -0.079   0.575  0.00  0.00     0.000 A 
ATOM      4  C4  BNZ d   1      -0.805  -0.475   1.713  0.00  0.00     0.000 A 
ATOM      5  C5  BNZ d   1      -0.066  -0.697   2.858  0.00  0.00     0.000 A 
ATOM      6  C6  BNZ d   1       1.297  -0.507   2.843  0.00  0.00     0.000 A 
ENDROOT
TORSDOF 0
ENDMDL
