MODEL 1
REMARK minimizedAffinity -4.14842796
REMARK minimizedRMSD -1
REMARK  0 active torsions:
REMARK  status: ('A' for Active; 'I' for Inactive)
ROOT
ATOM      1  C1  BNZ d   1       1.693  -1.234  -0.789  0.00  0.00     0.000 A 
ATOM      2  C2  BNZ d   1       2.414  -1.826   0.214  0.00  0.00     0.000 A 
ATOM      3  C3  BNZ d   1       2.007  -1.736   1.515  0.00  0.00     0.000 A 
ATOM      4  C4  BNZ d   1       0.904  -1.021   1.817  0.00  0.00     0.000 A 
ATOM      5  C5  BNZ d   1       0.171  -0.411   0.818  0.00  0.00     0.000 A 
ATOM      6  C6  BNZ d   1       0.562  -0.537  -0.495  0.00  0.00     0.000 A 
ENDROOT
TORSDOF 0
ENDMDL
