MODEL 1
REMARK minimizedAffinity -2.91329074
REMARK minimizedRMSD -1
REMARK  0 active torsions:
REMARK  status: ('A' for Active; 'I' for Inactive)
ROOT
ATOM      1  C1  BNZ d   1      -1.988   1.930  -1.859  0.00  0.00     0.000 A 
ATOM      2  C2  BNZ d   1      -1.083   0.916  -2.031  0.00  0.00     0.000 A 
ATOM      3  C3  BNZ d   1       0.153   1.163  -2.559  0.00  0.00     0.000 A 
ATOM      4  C4  BNZ d   1       0.469   2.414  -2.951  0.00  0.00     0.000 A 
ATOM      5  C5  BNZ d   1      -0.436   3.446  -2.793  0.00  0.00     0.000 A 
ATOM      6  C6  BNZ d   1      -1.665   3.201  -2.225  0.00  0.00     0.000 A 
ENDROOT
TORSDOF 0
ENDMDL
