MODEL 1
REMARK minimizedAffinity -2.96954131
REMARK minimizedRMSD -1
REMARK  0 active torsions:
REMARK  status: ('A' for Active; 'I' for Inactive)
ROOT
ATOM      1  C1  BNZ d   1      -1.218  -0.235   0.470  0.00  0.00     0.000 A 
ATOM      2  C2  BNZ d   1      -0.487  -0.499   1.598  0.00  0.00     0.000 A 
ATOM      3  C3  BNZ d   1       0.876  -0.580   1.546  0.00  0.00     0.000 A 
ATOM      4  C4  BNZ d   1       1.504  -0.437   0.361  0.00  0.00     0.000 A 
ATOM      5  C5  BNZ d   1       0.781  -0.180  -0.787  0.00  0.00     0.000 A 
ATOM      6  C6  BNZ d   1      -0.588  -0.060  -0.724  0.00  0.00     0.000 A 
ENDROOT
TORSDOF 0
ENDMDL
