MODEL 1
REMARK minimizedAffinity -1.76686239
REMARK minimizedRMSD -1
REMARK  0 active torsions:
REMARK  status: ('A' for Active; 'I' for Inactive)
ROOT
ATOM      1  C1  BNZ d   1      -0.049  -0.492  -2.052  0.00  0.00     0.000 A 
ATOM      2  C2  BNZ d   1      -1.085  -0.135  -1.231  0.00  0.00     0.000 A 
ATOM      3  C3  BNZ d   1      -0.936  -0.143   0.128  0.00  0.00     0.000 A 
ATOM      4  C4  BNZ d   1       0.234  -0.545   0.664  0.00  0.00     0.000 A 
ATOM      5  C5  BNZ d   1       1.285  -0.917  -0.150  0.00  0.00     0.000 A 
ATOM      6  C6  BNZ d   1       1.144  -0.871  -1.518  0.00  0.00     0.000 A 
ENDROOT
TORSDOF 0
ENDMDL
