MODEL 1
REMARK minimizedAffinity -2.5202105
REMARK minimizedRMSD -1
REMARK  0 active torsions:
REMARK  status: ('A' for Active; 'I' for Inactive)
ROOT
ATOM      1  C1  BNZ d   1      -0.001   1.543  -2.043  0.00  0.00     0.000 A 
ATOM      2  C2  BNZ d   1      -1.257   0.997  -2.073  0.00  0.00     0.000 A 
ATOM      3  C3  BNZ d   1      -2.327   1.727  -2.512  0.00  0.00     0.000 A 
ATOM      4  C4  BNZ d   1      -2.146   3.012  -2.881  0.00  0.00     0.000 A 
ATOM      5  C5  BNZ d   1      -0.888   3.578  -2.848  0.00  0.00     0.000 A 
ATOM      6  C6  BNZ d   1       0.193   2.829  -2.442  0.00  0.00     0.000 A 
ENDROOT
TORSDOF 0
ENDMDL
