MODEL 1
REMARK minimizedAffinity -3.77864313
REMARK minimizedRMSD -1
REMARK  0 active torsions:
REMARK  status: ('A' for Active; 'I' for Inactive)
ROOT
ATOM      1  C1  BNZ d   1       0.579  -0.060  -0.233  0.00  0.00     0.000 A 
ATOM      2  C2  BNZ d   1       1.401  -0.068   0.863  0.00  0.00     0.000 A 
ATOM      3  C3  BNZ d   1       0.885  -0.198   2.122  0.00  0.00     0.000 A 
ATOM      4  C4  BNZ d   1      -0.451  -0.278   2.287  0.00  0.00     0.000 A 
ATOM      5  C5  BNZ d   1      -1.292  -0.262   1.193  0.00  0.00     0.000 A 
ATOM      6  C6  BNZ d   1      -0.768  -0.171  -0.076  0.00  0.00     0.000 A 
ENDROOT
TORSDOF 0
ENDMDL
