MODEL 1
REMARK minimizedAffinity 13.8429832
REMARK minimizedRMSD -1
REMARK  0 active torsions:
REMARK  status: ('A' for Active; 'I' for Inactive)
ROOT
ATOM      1  C   UNL d   1       1.780  -1.621  -4.624  0.00  0.00     0.023 A 
ATOM      2  C1  UNL d   1       0.439  -1.308  -4.398  0.00  0.00     0.003 A 
ATOM      3  C2  UNL d   1      -0.562  -2.204  -4.779  0.00  0.00     0.048 A 
ATOM      4  C3  UNL d   1      -0.215  -3.412  -5.384  0.00  0.00     0.023 A 
ATOM      5  C4  UNL d   1       1.125  -3.729  -5.611  0.00  0.00     0.048 A 
ATOM      6  C5  UNL d   1       2.122  -2.830  -5.230  0.00  0.00     0.003 A 
ATOM      7  I   UNL d   1      -1.703  -4.747  -5.952  0.00  0.00    -0.146 I 
ENDROOT
TORSDOF 0
ENDMDL
