MODEL 1
REMARK minimizedAffinity 7.9586525
REMARK minimizedRMSD -1
REMARK  0 active torsions:
REMARK  status: ('A' for Active; 'I' for Inactive)
ROOT
ATOM      1  C   UNL d   1       0.796  -1.564   2.230  0.00  0.00     0.023 A 
ATOM      2  C1  UNL d   1       0.491  -0.266   1.819  0.00  0.00     0.003 A 
ATOM      3  C2  UNL d   1       0.337   0.749   2.765  0.00  0.00     0.048 A 
ATOM      4  C3  UNL d   1       0.489   0.460   4.120  0.00  0.00     0.023 A 
ATOM      5  C4  UNL d   1       0.795  -0.837   4.536  0.00  0.00     0.048 A 
ATOM      6  C5  UNL d   1       0.947  -1.849   3.587  0.00  0.00     0.003 A 
ATOM      7  I   UNL d   1       0.260   1.970   5.530  0.00  0.00    -0.146 I 
ENDROOT
TORSDOF 0
ENDMDL
