MODEL 1
REMARK minimizedAffinity 5.50771427
REMARK minimizedRMSD -1
REMARK  0 active torsions:
REMARK  status: ('A' for Active; 'I' for Inactive)
ROOT
ATOM      1  C   UNL d   1      -2.264   1.224   2.554  0.00  0.00     0.023 A 
ATOM      2  C1  UNL d   1      -2.333  -0.120   2.186  0.00  0.00     0.003 A 
ATOM      3  C2  UNL d   1      -1.371  -1.021   2.646  0.00  0.00     0.048 A 
ATOM      4  C3  UNL d   1      -0.343  -0.573   3.474  0.00  0.00     0.023 A 
ATOM      5  C4  UNL d   1      -0.270   0.771   3.846  0.00  0.00     0.048 A 
ATOM      6  C5  UNL d   1      -1.234   1.669   3.383  0.00  0.00     0.003 A 
ATOM      7  I   UNL d   1       1.090  -1.913   4.160  0.00  0.00    -0.146 I 
ENDROOT
TORSDOF 0
ENDMDL
