MODEL 1
REMARK minimizedAffinity 9.97251892
REMARK minimizedRMSD -1
REMARK  0 active torsions:
REMARK  status: ('A' for Active; 'I' for Inactive)
ROOT
ATOM      1  C   UNL d   1       0.536  -0.114   2.713  0.00  0.00     0.023 A 
ATOM      2  C1  UNL d   1       0.031  -1.410   2.811  0.00  0.00     0.003 A 
ATOM      3  C2  UNL d   1       0.559  -2.298   3.750  0.00  0.00     0.048 A 
ATOM      4  C3  UNL d   1       1.592  -1.883   4.590  0.00  0.00     0.023 A 
ATOM      5  C4  UNL d   1       2.100  -0.586   4.497  0.00  0.00     0.048 A 
ATOM      6  C5  UNL d   1       1.570   0.298   3.555  0.00  0.00     0.003 A 
ATOM      7  I   UNL d   1       2.379  -3.202   5.990  0.00  0.00    -0.146 I 
ENDROOT
TORSDOF 0
ENDMDL
