MODEL 1
REMARK minimizedAffinity 12.0059452
REMARK minimizedRMSD -1
REMARK  0 active torsions:
REMARK  status: ('A' for Active; 'I' for Inactive)
ROOT
ATOM      1  C   UNL d   1       0.366  -0.706  -6.000  0.00  0.00     0.023 A 
ATOM      2  C1  UNL d   1      -0.200  -1.974  -5.870  0.00  0.00     0.003 A 
ATOM      3  C2  UNL d   1      -0.471  -2.492  -4.602  0.00  0.00     0.048 A 
ATOM      4  C3  UNL d   1      -0.175  -1.737  -3.468  0.00  0.00     0.023 A 
ATOM      5  C4  UNL d   1       0.391  -0.467  -3.593  0.00  0.00     0.048 A 
ATOM      6  C5  UNL d   1       0.661   0.047  -4.863  0.00  0.00     0.003 A 
ATOM      7  I   UNL d   1      -0.579  -2.506  -1.580  0.00  0.00    -0.146 I 
ENDROOT
TORSDOF 0
ENDMDL
