MODEL 1
REMARK minimizedAffinity 12.3729839
REMARK minimizedRMSD -1
REMARK  0 active torsions:
REMARK  status: ('A' for Active; 'I' for Inactive)
ROOT
ATOM      1  C   UNL d   1       1.268  -0.260   2.869  0.00  0.00     0.023 A 
ATOM      2  C1  UNL d   1       0.921  -1.549   3.274  0.00  0.00     0.003 A 
ATOM      3  C2  UNL d   1      -0.423  -1.925   3.333  0.00  0.00     0.048 A 
ATOM      4  C3  UNL d   1      -1.414  -1.007   2.985  0.00  0.00     0.023 A 
ATOM      5  C4  UNL d   1      -1.070   0.283   2.578  0.00  0.00     0.048 A 
ATOM      6  C5  UNL d   1       0.274   0.655   2.521  0.00  0.00     0.003 A 
ATOM      7  I   UNL d   1      -3.414  -1.565   3.072  0.00  0.00    -0.146 I 
ENDROOT
TORSDOF 0
ENDMDL
