MODEL 1
REMARK minimizedAffinity 9.2032423
REMARK minimizedRMSD -1
REMARK  0 active torsions:
REMARK  status: ('A' for Active; 'I' for Inactive)
ROOT
ATOM      1  C   UNL d   1      -1.210  -0.968   2.050  0.00  0.00     0.023 A 
ATOM      2  C1  UNL d   1      -0.992   0.399   2.225  0.00  0.00     0.003 A 
ATOM      3  C2  UNL d   1       0.248   0.858   2.672  0.00  0.00     0.048 A 
ATOM      4  C3  UNL d   1       1.267  -0.055   2.941  0.00  0.00     0.023 A 
ATOM      5  C4  UNL d   1       1.055  -1.423   2.766  0.00  0.00     0.048 A 
ATOM      6  C5  UNL d   1      -0.188  -1.878   2.320  0.00  0.00     0.003 A 
ATOM      7  I   UNL d   1       3.115   0.626   3.606  0.00  0.00    -0.146 I 
ENDROOT
TORSDOF 0
ENDMDL
