MODEL 1
REMARK minimizedAffinity 14.4313326
REMARK minimizedRMSD -1
REMARK  0 active torsions:
REMARK  status: ('A' for Active; 'I' for Inactive)
ROOT
ATOM      1  C   UNL d   1       1.251  -0.160   3.058  0.00  0.00     0.023 A 
ATOM      2  C1  UNL d   1       0.216   0.713   2.721  0.00  0.00     0.003 A 
ATOM      3  C2  UNL d   1      -1.072   0.219   2.502  0.00  0.00     0.048 A 
ATOM      4  C3  UNL d   1      -1.318  -1.148   2.622  0.00  0.00     0.023 A 
ATOM      5  C4  UNL d   1      -0.285  -2.025   2.959  0.00  0.00     0.048 A 
ATOM      6  C5  UNL d   1       1.001  -1.527   3.176  0.00  0.00     0.003 A 
ATOM      7  I   UNL d   1      -3.234  -1.885   2.297  0.00  0.00    -0.146 I 
ENDROOT
TORSDOF 0
ENDMDL
