MODEL 1
REMARK minimizedAffinity 11.2020187
REMARK minimizedRMSD -1
REMARK  0 active torsions:
REMARK  status: ('A' for Active; 'I' for Inactive)
ROOT
ATOM      1  C   UNL d   1       0.924  -1.312  -3.889  0.00  0.00     0.023 A 
ATOM      2  C1  UNL d   1       0.942   0.080  -3.979  0.00  0.00     0.003 A 
ATOM      3  C2  UNL d   1       2.054   0.731  -4.518  0.00  0.00     0.048 A 
ATOM      4  C3  UNL d   1       3.144  -0.016  -4.965  0.00  0.00     0.023 A 
ATOM      5  C4  UNL d   1       3.129  -1.409  -4.877  0.00  0.00     0.048 A 
ATOM      6  C5  UNL d   1       2.016  -2.056  -4.337  0.00  0.00     0.003 A 
ATOM      7  I   UNL d   1       4.799   0.951  -5.766  0.00  0.00    -0.146 I 
ENDROOT
TORSDOF 0
ENDMDL
