MODEL 1
REMARK minimizedAffinity 12.8749084
REMARK minimizedRMSD -1
REMARK  0 active torsions:
REMARK  status: ('A' for Active; 'I' for Inactive)
ROOT
ATOM      1  C   UNL d   1       1.398  -0.040   2.741  0.00  0.00     0.023 A 
ATOM      2  C1  UNL d   1       1.176  -1.122   1.889  0.00  0.00     0.003 A 
ATOM      3  C2  UNL d   1      -0.120  -1.602   1.692  0.00  0.00     0.048 A 
ATOM      4  C3  UNL d   1      -1.190  -0.996   2.350  0.00  0.00     0.023 A 
ATOM      5  C4  UNL d   1      -0.973   0.088   3.202  0.00  0.00     0.048 A 
ATOM      6  C5  UNL d   1       0.325   0.564   3.397  0.00  0.00     0.003 A 
ATOM      7  I   UNL d   1      -3.120  -1.709   2.058  0.00  0.00    -0.146 I 
ENDROOT
TORSDOF 0
ENDMDL
