MODEL 1
REMARK minimizedAffinity -3.62463474
REMARK minimizedRMSD -1
REMARK  0 active torsions:
REMARK  status: ('A' for Active; 'I' for Inactive)
ROOT
ATOM      1  C4' PXY d   1       2.786  -0.615   2.898  0.00  0.00     0.077 C 
ATOM      2  C1' PXY d   1      -1.268   0.334  -1.112  0.00  0.00     0.077 C 
ATOM      3  C1  PXY d   1      -0.196   0.092  -0.067  0.00  0.00    -0.082 A 
ATOM      4  C2  PXY d   1      -0.299  -0.946   0.747  0.00  0.00     0.003 A 
ATOM      5  C3  PXY d   1       0.645  -1.162   1.718  0.00  0.00     0.003 A 
ATOM      6  C4  PXY d   1       1.732  -0.337   1.823  0.00  0.00    -0.082 A 
ATOM      7  C5  PXY d   1       1.850   0.718   0.989  0.00  0.00     0.003 A 
ATOM      8  C6  PXY d   1       0.860   0.943   0.036  0.00  0.00     0.003 A 
ENDROOT
TORSDOF 0
ENDMDL
