MODEL 1
REMARK minimizedAffinity -3.34083748
REMARK minimizedRMSD -1
REMARK  0 active torsions:
REMARK  status: ('A' for Active; 'I' for Inactive)
ROOT
ATOM      1  C4' PXY d   1       1.638  -2.292   2.820  0.00  0.00     0.077 C 
ATOM      2  C1' PXY d   1       0.801   2.117  -0.823  0.00  0.00     0.077 C 
ATOM      3  C1  PXY d   1       1.008   0.959   0.133  0.00  0.00    -0.082 A 
ATOM      4  C2  PXY d   1       2.110   0.902   0.862  0.00  0.00     0.003 A 
ATOM      5  C3  PXY d   1       2.327  -0.155   1.708  0.00  0.00     0.003 A 
ATOM      6  C4  PXY d   1       1.383  -1.136   1.848  0.00  0.00    -0.082 A 
ATOM      7  C5  PXY d   1       0.251  -1.079   1.115  0.00  0.00     0.003 A 
ATOM      8  C6  PXY d   1       0.068  -0.020   0.232  0.00  0.00     0.003 A 
ENDROOT
TORSDOF 0
ENDMDL
