MODEL 1
REMARK minimizedAffinity -2.95506454
REMARK minimizedRMSD -1
REMARK  0 active torsions:
REMARK  status: ('A' for Active; 'I' for Inactive)
ROOT
ATOM      1  C4' PXY d   1       1.638  -2.190   2.891  0.00  0.00     0.077 C 
ATOM      2  C1' PXY d   1       1.206   2.152  -0.901  0.00  0.00     0.077 C 
ATOM      3  C1  PXY d   1       1.332   1.013   0.091  0.00  0.00    -0.082 A 
ATOM      4  C2  PXY d   1       0.276   0.263   0.364  0.00  0.00     0.003 A 
ATOM      5  C3  PXY d   1       0.364  -0.751   1.283  0.00  0.00     0.003 A 
ATOM      6  C4  PXY d   1       1.559  -1.035   1.889  0.00  0.00    -0.082 A 
ATOM      7  C5  PXY d   1       2.643  -0.282   1.608  0.00  0.00     0.003 A 
ATOM      8  C6  PXY d   1       2.523   0.769   0.703  0.00  0.00     0.003 A 
ENDROOT
TORSDOF 0
ENDMDL
