MODEL 1
REMARK minimizedAffinity -4.15345478
REMARK minimizedRMSD -1
REMARK  0 active torsions:
REMARK  status: ('A' for Active; 'I' for Inactive)
ROOT
ATOM      1  C4' PXY d   1       1.454   1.034   0.348  0.00  0.00     0.077 C 
ATOM      2  C1' PXY d   1      -3.047  -0.334  -3.012  0.00  0.00     0.077 C 
ATOM      3  C1  PXY d   1      -1.875   0.027  -2.121  0.00  0.00    -0.082 A 
ATOM      4  C2  PXY d   1      -0.742   0.440  -2.666  0.00  0.00     0.003 A 
ATOM      5  C3  PXY d   1       0.338   0.740  -1.877  0.00  0.00     0.003 A 
ATOM      6  C4  PXY d   1       0.241   0.668  -0.513  0.00  0.00    -0.082 A 
ATOM      7  C5  PXY d   1      -0.915   0.257   0.051  0.00  0.00     0.003 A 
ATOM      8  C6  PXY d   1      -1.986  -0.082  -0.769  0.00  0.00     0.003 A 
ENDROOT
TORSDOF 0
ENDMDL
