MODEL 1
REMARK minimizedAffinity -2.96772552
REMARK minimizedRMSD -1
REMARK  0 active torsions:
REMARK  status: ('A' for Active; 'I' for Inactive)
ROOT
ATOM      1  C4' PXY d   1      -3.024   1.019  -2.936  0.00  0.00     0.077 C 
ATOM      2  C1' PXY d   1       0.099  -1.567   1.184  0.00  0.00     0.077 C 
ATOM      3  C1  PXY d   1      -0.716  -0.898   0.095  0.00  0.00    -0.082 A 
ATOM      4  C2  PXY d   1      -0.997   0.391   0.187  0.00  0.00     0.003 A 
ATOM      5  C3  PXY d   1      -1.760   1.005  -0.772  0.00  0.00     0.003 A 
ATOM      6  C4  PXY d   1      -2.196   0.304  -1.865  0.00  0.00    -0.082 A 
ATOM      7  C5  PXY d   1      -1.904  -1.010  -1.972  0.00  0.00     0.003 A 
ATOM      8  C6  PXY d   1      -1.163  -1.624  -0.966  0.00  0.00     0.003 A 
ENDROOT
TORSDOF 0
ENDMDL
