MODEL 1
REMARK minimizedAffinity -3.71500826
REMARK minimizedRMSD -1
REMARK  0 active torsions:
REMARK  status: ('A' for Active; 'I' for Inactive)
ROOT
ATOM      1  C4' PXY d   1       2.820  -0.135   1.909  0.00  0.00     0.077 C 
ATOM      2  C1' PXY d   1      -1.906   0.413  -1.374  0.00  0.00     0.077 C 
ATOM      3  C1  PXY d   1      -0.660   0.277  -0.522  0.00  0.00    -0.082 A 
ATOM      4  C2  PXY d   1      -0.558  -0.730   0.331  0.00  0.00     0.003 A 
ATOM      5  C3  PXY d   1       0.548  -0.851   1.132  0.00  0.00     0.003 A 
ATOM      6  C4  PXY d   1       1.584   0.038   1.021  0.00  0.00    -0.082 A 
ATOM      7  C5  PXY d   1       1.492   1.061   0.146  0.00  0.00     0.003 A 
ATOM      8  C6  PXY d   1       0.343   1.190  -0.629  0.00  0.00     0.003 A 
ENDROOT
TORSDOF 0
ENDMDL
