MODEL 1
REMARK minimizedAffinity -2.62804127
REMARK minimizedRMSD -1
REMARK  0 active torsions:
REMARK  status: ('A' for Active; 'I' for Inactive)
ROOT
ATOM      1  C4' PXY d   1      -1.952   0.093  -1.259  0.00  0.00     0.077 C 
ATOM      2  C1' PXY d   1       3.040   0.225   1.652  0.00  0.00     0.077 C 
ATOM      3  C1  PXY d   1       1.730   0.178   0.892  0.00  0.00    -0.082 A 
ATOM      4  C2  PXY d   1       1.503   1.052  -0.076  0.00  0.00     0.003 A 
ATOM      5  C3  PXY d   1       0.310   1.044  -0.752  0.00  0.00     0.003 A 
ATOM      6  C4  PXY d   1      -0.639   0.098  -0.471  0.00  0.00    -0.082 A 
ATOM      7  C5  PXY d   1      -0.411  -0.804   0.507  0.00  0.00     0.003 A 
ATOM      8  C6  PXY d   1       0.789  -0.753   1.210  0.00  0.00     0.003 A 
ENDROOT
TORSDOF 0
ENDMDL
