MODEL 1
REMARK minimizedAffinity 15.537096
REMARK minimizedRMSD -1
REMARK  0 active torsions:
REMARK  status: ('A' for Active; 'I' for Inactive)
ROOT
ATOM      1  C   UNL d   1       5.561  -3.015  -0.236  0.00  0.00    -0.002 A 
ATOM      2  C1  UNL d   1       5.636  -1.645  -0.442  0.00  0.00     0.010 A 
ATOM      3  C2  UNL d   1       5.774  -1.127  -1.732  0.00  0.00     0.041 A 
ATOM      4  C3  UNL d   1       5.833  -2.019  -2.821  0.00  0.00    -0.075 A 
ATOM      5  S   UNL d   1       5.999  -1.613  -4.489  0.00  0.00     0.015 SA
ATOM      6  C4  UNL d   1       5.973  -3.249  -4.966  0.00  0.00     0.022 A 
ATOM      7  C5  UNL d   1       5.842  -4.098  -3.892  0.00  0.00     0.026 A 
ATOM      8  C6  UNL d   1       5.759  -3.403  -2.638  0.00  0.00    -0.082 A 
ATOM      9  C7  UNL d   1       5.620  -3.896  -1.319  0.00  0.00     0.045 A 
ENDROOT
TORSDOF 0
ENDMDL
