MODEL 1
REMARK minimizedAffinity 13.9898806
REMARK minimizedRMSD -1
REMARK  0 active torsions:
REMARK  status: ('A' for Active; 'I' for Inactive)
ROOT
ATOM      1  C   UNL d   1       0.248   5.240  -0.353  0.00  0.00    -0.002 A 
ATOM      2  C1  UNL d   1      -0.313   3.981  -0.197  0.00  0.00     0.010 A 
ATOM      3  C2  UNL d   1       0.195   3.089   0.750  0.00  0.00     0.041 A 
ATOM      4  C3  UNL d   1       1.287   3.489   1.546  0.00  0.00    -0.075 A 
ATOM      5  S   UNL d   1       2.075   2.565   2.769  0.00  0.00     0.015 SA
ATOM      6  C4  UNL d   1       3.175   3.821   3.114  0.00  0.00     0.022 A 
ATOM      7  C5  UNL d   1       2.961   4.925   2.324  0.00  0.00     0.026 A 
ATOM      8  C6  UNL d   1       1.869   4.752   1.407  0.00  0.00    -0.082 A 
ATOM      9  C7  UNL d   1       1.331   5.633   0.438  0.00  0.00     0.045 A 
ENDROOT
TORSDOF 0
ENDMDL
