MODEL 1
REMARK minimizedAffinity 24.5578251
REMARK minimizedRMSD -1
REMARK  0 active torsions:
REMARK  status: ('A' for Active; 'I' for Inactive)
ROOT
ATOM      1  C   UNL d   1      -3.927   2.539  -4.274  0.00  0.00    -0.002 A 
ATOM      2  C1  UNL d   1      -3.050   1.789  -5.045  0.00  0.00     0.010 A 
ATOM      3  C2  UNL d   1      -2.157   0.900  -4.442  0.00  0.00     0.041 A 
ATOM      4  C3  UNL d   1      -2.162   0.776  -3.039  0.00  0.00    -0.075 A 
ATOM      5  S   UNL d   1      -1.159  -0.249  -2.083  0.00  0.00     0.015 SA
ATOM      6  C4  UNL d   1      -1.871   0.284  -0.629  0.00  0.00     0.022 A 
ATOM      7  C5  UNL d   1      -2.852   1.221  -0.849  0.00  0.00     0.026 A 
ATOM      8  C6  UNL d   1      -3.036   1.520  -2.242  0.00  0.00    -0.082 A 
ATOM      9  C7  UNL d   1      -3.929   2.413  -2.883  0.00  0.00     0.045 A 
ENDROOT
TORSDOF 0
ENDMDL
