MODEL 1
REMARK minimizedAffinity 22.8126564
REMARK minimizedRMSD -1
REMARK  0 active torsions:
REMARK  status: ('A' for Active; 'I' for Inactive)
ROOT
ATOM      1  C   UNL d   1       5.974  -2.107  -3.344  0.00  0.00    -0.002 A 
ATOM      2  C1  UNL d   1       5.998  -2.233  -1.962  0.00  0.00     0.010 A 
ATOM      3  C2  UNL d   1       5.312  -3.273  -1.332  0.00  0.00     0.041 A 
ATOM      4  C3  UNL d   1       4.597  -4.195  -2.122  0.00  0.00    -0.075 A 
ATOM      5  S   UNL d   1       3.684  -5.549  -1.569  0.00  0.00     0.015 SA
ATOM      6  C4  UNL d   1       3.241  -5.992  -3.154  0.00  0.00     0.022 A 
ATOM      7  C5  UNL d   1       3.768  -5.139  -4.094  0.00  0.00     0.026 A 
ATOM      8  C6  UNL d   1       4.558  -4.089  -3.515  0.00  0.00    -0.082 A 
ATOM      9  C7  UNL d   1       5.263  -3.023  -4.124  0.00  0.00     0.045 A 
ENDROOT
TORSDOF 0
ENDMDL
