MODEL 1
REMARK minimizedAffinity 21.767767
REMARK minimizedRMSD -1
REMARK  0 active torsions:
REMARK  status: ('A' for Active; 'I' for Inactive)
ROOT
ATOM      1  C   UNL d   1       0.431  -1.432   4.776  0.00  0.00    -0.002 A 
ATOM      2  C1  UNL d   1       1.298  -2.183   3.995  0.00  0.00     0.010 A 
ATOM      3  C2  UNL d   1       2.508  -1.642   3.557  0.00  0.00     0.041 A 
ATOM      4  C3  UNL d   1       2.836  -0.322   3.922  0.00  0.00    -0.075 A 
ATOM      5  S   UNL d   1       4.264   0.548   3.502  0.00  0.00     0.015 SA
ATOM      6  C4  UNL d   1       3.758   1.937   4.351  0.00  0.00     0.022 A 
ATOM      7  C5  UNL d   1       2.531   1.758   4.946  0.00  0.00     0.026 A 
ATOM      8  C6  UNL d   1       1.980   0.454   4.709  0.00  0.00    -0.082 A 
ATOM      9  C7  UNL d   1       0.760  -0.123   5.137  0.00  0.00     0.045 A 
ENDROOT
TORSDOF 0
ENDMDL
