MODEL 1
REMARK minimizedAffinity 2.17317367
REMARK minimizedRMSD -1
REMARK  0 active torsions:
REMARK  status: ('A' for Active; 'I' for Inactive)
ROOT
ATOM      1  C   UNL d   1      -0.082   0.261   2.336  0.00  0.00     0.020 A 
ATOM      2  C1  UNL d   1       0.267   1.471   2.934  0.00  0.00     0.020 A 
ATOM      3  C2  UNL d   1       0.348   2.633   2.164  0.00  0.00     0.034 A 
ATOM      4  C3  UNL d   1       0.080   2.588   0.791  0.00  0.00     0.017 A 
ATOM      5  C4  UNL d   1      -0.271   1.373   0.191  0.00  0.00     0.017 A 
ATOM      6  C5  UNL d   1      -0.350   0.212   0.967  0.00  0.00     0.034 A 
ATOM      7 Cl   UNL d   1      -0.616   1.238  -1.497  0.00  0.00    -0.070 Cl
ATOM      8 Cl1  UNL d   1       0.198   4.063  -0.100  0.00  0.00    -0.070 Cl
ENDROOT
TORSDOF 0
ENDMDL
