MODEL 1
REMARK minimizedAffinity 10.495121
REMARK minimizedRMSD -1
REMARK  0 active torsions:
REMARK  status: ('A' for Active; 'I' for Inactive)
ROOT
ATOM      1  C   UNL d   1       0.881   0.843   2.272  0.00  0.00     0.020 A 
ATOM      2  C1  UNL d   1       0.592   2.129   2.726  0.00  0.00     0.020 A 
ATOM      3  C2  UNL d   1       0.379   3.162   1.811  0.00  0.00     0.034 A 
ATOM      4  C3  UNL d   1       0.455   2.910   0.436  0.00  0.00     0.017 A 
ATOM      5  C4  UNL d   1       0.745   1.619  -0.019  0.00  0.00     0.017 A 
ATOM      6  C5  UNL d   1       0.958   0.589   0.902  0.00  0.00     0.034 A 
ATOM      7 Cl   UNL d   1       0.856   1.231  -1.700  0.00  0.00    -0.070 Cl
ATOM      8 Cl1  UNL d   1       0.180   4.234  -0.640  0.00  0.00    -0.070 Cl
ENDROOT
TORSDOF 0
ENDMDL
