MODEL 1
REMARK minimizedAffinity 7.90755653
REMARK minimizedRMSD -1
REMARK  0 active torsions:
REMARK  status: ('A' for Active; 'I' for Inactive)
ROOT
ATOM      1  C   UNL d   1       0.797  -6.000  -2.319  0.00  0.00     0.020 A 
ATOM      2  C1  UNL d   1       0.278  -4.980  -1.523  0.00  0.00     0.020 A 
ATOM      3  C2  UNL d   1      -0.478  -3.959  -2.102  0.00  0.00     0.034 A 
ATOM      4  C3  UNL d   1      -0.716  -3.954  -3.481  0.00  0.00     0.017 A 
ATOM      5  C4  UNL d   1      -0.194  -4.978  -4.279  0.00  0.00     0.017 A 
ATOM      6  C5  UNL d   1       0.562  -5.999  -3.694  0.00  0.00     0.034 A 
ATOM      7 Cl   UNL d   1      -0.446  -5.041  -5.988  0.00  0.00    -0.070 Cl
ATOM      8 Cl1  UNL d   1      -1.660  -2.660  -4.129  0.00  0.00    -0.070 Cl
ENDROOT
TORSDOF 0
ENDMDL
