MODEL 1
REMARK minimizedAffinity 5.59396219
REMARK minimizedRMSD -1
REMARK  0 active torsions:
REMARK  status: ('A' for Active; 'I' for Inactive)
ROOT
ATOM      1  C   UNL d   1      -1.261   2.843   1.130  0.00  0.00     0.020 A 
ATOM      2  C1  UNL d   1      -1.298   1.473   0.869  0.00  0.00     0.020 A 
ATOM      3  C2  UNL d   1      -0.289   0.642   1.359  0.00  0.00     0.034 A 
ATOM      4  C3  UNL d   1       0.762   1.179   2.112  0.00  0.00     0.017 A 
ATOM      5  C4  UNL d   1       0.798   2.553   2.373  0.00  0.00     0.017 A 
ATOM      6  C5  UNL d   1      -0.215   3.381   1.880  0.00  0.00     0.034 A 
ATOM      7 Cl   UNL d   1       2.062   3.289   3.295  0.00  0.00    -0.070 Cl
ATOM      8 Cl1  UNL d   1       1.976   0.092   2.687  0.00  0.00    -0.070 Cl
ENDROOT
TORSDOF 0
ENDMDL
