MODEL 1
REMARK minimizedAffinity 8.67398834
REMARK minimizedRMSD -1
REMARK  0 active torsions:
REMARK  status: ('A' for Active; 'I' for Inactive)
ROOT
ATOM      1  C   UNL d   1      -0.429   2.718   1.951  0.00  0.00     0.020 A 
ATOM      2  C1  UNL d   1      -0.140   1.359   1.829  0.00  0.00     0.020 A 
ATOM      3  C2  UNL d   1       0.037   0.793   0.565  0.00  0.00     0.034 A 
ATOM      4  C3  UNL d   1      -0.073   1.586  -0.583  0.00  0.00     0.017 A 
ATOM      5  C4  UNL d   1      -0.363   2.950  -0.460  0.00  0.00     0.017 A 
ATOM      6  C5  UNL d   1      -0.540   3.511   0.808  0.00  0.00     0.034 A 
ATOM      7 Cl   UNL d   1      -0.515   3.992  -1.830  0.00  0.00    -0.070 Cl
ATOM      8 Cl1  UNL d   1       0.159   0.820  -2.114  0.00  0.00    -0.070 Cl
ENDROOT
TORSDOF 0
ENDMDL
