MODEL 1
REMARK minimizedAffinity 8.21905804
REMARK minimizedRMSD -1
REMARK  0 active torsions:
REMARK  status: ('A' for Active; 'I' for Inactive)
ROOT
ATOM      1  C   UNL d   1      -0.594   0.292  -2.914  0.00  0.00     0.020 A 
ATOM      2  C1  UNL d   1      -1.541  -0.676  -3.246  0.00  0.00     0.020 A 
ATOM      3  C2  UNL d   1      -1.446  -1.961  -2.706  0.00  0.00     0.034 A 
ATOM      4  C3  UNL d   1      -0.402  -2.281  -1.831  0.00  0.00     0.017 A 
ATOM      5  C4  UNL d   1       0.548  -1.309  -1.498  0.00  0.00     0.017 A 
ATOM      6  C5  UNL d   1       0.448  -0.024  -2.042  0.00  0.00     0.034 A 
ATOM      7 Cl   UNL d   1       1.865  -1.629  -0.425  0.00  0.00    -0.070 Cl
ATOM      8 Cl1  UNL d   1      -0.346  -3.889  -1.201  0.00  0.00    -0.070 Cl
ENDROOT
TORSDOF 0
ENDMDL
