MODEL 1
REMARK minimizedAffinity 6.01865578
REMARK minimizedRMSD -1
REMARK  0 active torsions:
REMARK  status: ('A' for Active; 'I' for Inactive)
ROOT
ATOM      1  C   UNL d   1       0.756  -0.049   3.155  0.00  0.00     0.020 A 
ATOM      2  C1  UNL d   1      -0.023   1.023   2.721  0.00  0.00     0.020 A 
ATOM      3  C2  UNL d   1      -0.290   1.185   1.360  0.00  0.00     0.034 A 
ATOM      4  C3  UNL d   1       0.221   0.274   0.428  0.00  0.00     0.017 A 
ATOM      5  C4  UNL d   1       1.002  -0.802   0.865  0.00  0.00     0.017 A 
ATOM      6  C5  UNL d   1       1.266  -0.960   2.229  0.00  0.00     0.034 A 
ATOM      7 Cl   UNL d   1       1.667  -1.967  -0.224  0.00  0.00    -0.070 Cl
ATOM      8 Cl1  UNL d   1      -0.151   0.536  -1.239  0.00  0.00    -0.070 Cl
ENDROOT
TORSDOF 0
ENDMDL
