MODEL 1
REMARK minimizedAffinity 5.19699907
REMARK minimizedRMSD -1
REMARK  0 active torsions:
REMARK  status: ('A' for Active; 'I' for Inactive)
ROOT
ATOM      1  C   UNL d   1       0.327   0.041   2.166  0.00  0.00     0.020 A 
ATOM      2  C1  UNL d   1      -0.088   0.447   0.899  0.00  0.00     0.020 A 
ATOM      3  C2  UNL d   1       0.085   1.774   0.499  0.00  0.00     0.034 A 
ATOM      4  C3  UNL d   1       0.674   2.699   1.368  0.00  0.00     0.017 A 
ATOM      5  C4  UNL d   1       1.091   2.291   2.640  0.00  0.00     0.017 A 
ATOM      6  C5  UNL d   1       0.915   0.961   3.035  0.00  0.00     0.034 A 
ATOM      7 Cl   UNL d   1       1.826   3.375   3.767  0.00  0.00    -0.070 Cl
ATOM      8 Cl1  UNL d   1       0.857   4.324   0.807  0.00  0.00    -0.070 Cl
ENDROOT
TORSDOF 0
ENDMDL
