MODEL 1
REMARK minimizedAffinity -3.21463132
REMARK minimizedRMSD -1
REMARK  0 active torsions:
REMARK  status: ('A' for Active; 'I' for Inactive)
ROOT
ATOM      1  O1  BZF d   1      -0.354   1.574   0.761  0.00  0.00    -0.204 OA
ATOM      2  C2  BZF d   1      -1.319   0.887   0.050  0.00  0.00     0.174 A 
ATOM      3  C3  BZF d   1      -0.786  -0.191  -0.560  0.00  0.00    -0.012 A 
ATOM      4  C3A BZF d   1       0.579  -0.230  -0.133  0.00  0.00    -0.107 A 
ATOM      5  C4  BZF d   1       1.619  -1.078  -0.386  0.00  0.00     0.055 A 
ATOM      6  C5  BZF d   1       2.844  -0.793   0.128  0.00  0.00    -0.016 A 
ATOM      7  C6  BZF d   1       3.066   0.332   0.895  0.00  0.00     0.022 A 
ATOM      8  C7  BZF d   1       2.064   1.200   1.178  0.00  0.00     0.029 A 
ATOM      9  C7A BZF d   1       0.817   0.898   0.687  0.00  0.00     0.058 A 
ENDROOT
TORSDOF 0
ENDMDL
