MODEL 1
REMARK minimizedAffinity -5.2131772
REMARK minimizedRMSD -1
REMARK  0 active torsions:
REMARK  status: ('A' for Active; 'I' for Inactive)
ROOT
ATOM      1  O1  BZF d   1      -0.163   1.131   0.275  0.00  0.00    -0.204 OA
ATOM      2  C2  BZF d   1      -1.054   0.091   0.091  0.00  0.00     0.174 A 
ATOM      3  C3  BZF d   1      -0.424  -1.099   0.176  0.00  0.00    -0.012 A 
ATOM      4  C3A BZF d   1       0.928  -0.785   0.520  0.00  0.00    -0.107 A 
ATOM      5  C4  BZF d   1       2.037  -1.546   0.760  0.00  0.00     0.055 A 
ATOM      6  C5  BZF d   1       3.223  -0.928   0.999  0.00  0.00    -0.016 A 
ATOM      7  C6  BZF d   1       3.338   0.447   1.001  0.00  0.00     0.022 A 
ATOM      8  C7  BZF d   1       2.266   1.244   0.773  0.00  0.00     0.029 A 
ATOM      9  C7A BZF d   1       1.059   0.622   0.564  0.00  0.00     0.058 A 
ENDROOT
TORSDOF 0
ENDMDL
