MODEL 1
REMARK minimizedAffinity -2.45506668
REMARK minimizedRMSD -1
REMARK  0 active torsions:
REMARK  status: ('A' for Active; 'I' for Inactive)
ROOT
ATOM      1  O1  BZF d   1      -0.887   0.755  -0.000  0.00  0.00    -0.204 OA
ATOM      2  C2  BZF d   1      -1.394  -0.530   0.005  0.00  0.00     0.174 A 
ATOM      3  C3  BZF d   1      -0.398  -1.436   0.076  0.00  0.00    -0.012 A 
ATOM      4  C3A BZF d   1       0.801  -0.668   0.210  0.00  0.00    -0.107 A 
ATOM      5  C4  BZF d   1       2.119  -1.000   0.342  0.00  0.00     0.055 A 
ATOM      6  C5  BZF d   1       3.050  -0.010   0.377  0.00  0.00    -0.016 A 
ATOM      7  C6  BZF d   1       2.698   1.320   0.277  0.00  0.00     0.022 A 
ATOM      8  C7  BZF d   1       1.403   1.699   0.151  0.00  0.00     0.029 A 
ATOM      9  C7A BZF d   1       0.458   0.702   0.149  0.00  0.00     0.058 A 
ENDROOT
TORSDOF 0
ENDMDL
