MODEL 1
REMARK minimizedAffinity -6.61511707
REMARK minimizedRMSD -1
REMARK  0 active torsions:
REMARK  status: ('A' for Active; 'I' for Inactive)
ROOT
ATOM      1  O1  BZF d   1      -0.859  -1.458   1.152  0.00  0.00    -0.204 OA
ATOM      2  C2  BZF d   1      -1.525  -0.367   0.629  0.00  0.00     0.174 A 
ATOM      3  C3  BZF d   1      -0.659   0.617   0.314  0.00  0.00    -0.012 A 
ATOM      4  C3A BZF d   1       0.639   0.074   0.575  0.00  0.00    -0.107 A 
ATOM      5  C4  BZF d   1       1.906   0.565   0.442  0.00  0.00     0.055 A 
ATOM      6  C5  BZF d   1       2.955  -0.195   0.854  0.00  0.00    -0.016 A 
ATOM      7  C6  BZF d   1       2.773  -1.445   1.407  0.00  0.00     0.022 A 
ATOM      8  C7  BZF d   1       1.535  -1.977   1.554  0.00  0.00     0.029 A 
ATOM      9  C7A BZF d   1       0.475  -1.225   1.108  0.00  0.00     0.058 A 
ENDROOT
TORSDOF 0
ENDMDL
