MODEL 1
REMARK minimizedAffinity -5.38810539
REMARK minimizedRMSD -1
REMARK  0 active torsions:
REMARK  status: ('A' for Active; 'I' for Inactive)
ROOT
ATOM      1  O1  BZF d   1      -0.561  -1.029   0.615  0.00  0.00    -0.204 OA
ATOM      2  C2  BZF d   1      -0.912   0.248   0.222  0.00  0.00     0.174 A 
ATOM      3  C3  BZF d   1       0.173   1.048   0.169  0.00  0.00    -0.012 A 
ATOM      4  C3A BZF d   1       1.284   0.195   0.463  0.00  0.00    -0.107 A 
ATOM      5  C4  BZF d   1       2.631   0.403   0.546  0.00  0.00     0.055 A 
ATOM      6  C5  BZF d   1       3.435  -0.624   0.926  0.00  0.00    -0.016 A 
ATOM      7  C6  BZF d   1       2.927  -1.868   1.236  0.00  0.00     0.022 A 
ATOM      8  C7  BZF d   1       1.598  -2.124   1.163  0.00  0.00     0.029 A 
ATOM      9  C7A BZF d   1       0.786  -1.097   0.748  0.00  0.00     0.058 A 
ENDROOT
TORSDOF 0
ENDMDL
