MODEL 1
REMARK minimizedAffinity -5.9341135
REMARK minimizedRMSD -1
REMARK  0 active torsions:
REMARK  status: ('A' for Active; 'I' for Inactive)
ROOT
ATOM      1  O1  BZF d   1      -0.338  -0.511  -0.001  0.00  0.00    -0.204 OA
ATOM      2  C2  BZF d   1      -0.635   0.765  -0.438  0.00  0.00     0.174 A 
ATOM      3  C3  BZF d   1       0.362   1.620  -0.131  0.00  0.00    -0.012 A 
ATOM      4  C3A BZF d   1       1.384   0.810   0.458  0.00  0.00    -0.107 A 
ATOM      5  C4  BZF d   1       2.628   1.081   0.954  0.00  0.00     0.055 A 
ATOM      6  C5  BZF d   1       3.344   0.078   1.526  0.00  0.00    -0.016 A 
ATOM      7  C6  BZF d   1       2.846  -1.205   1.623  0.00  0.00     0.022 A 
ATOM      8  C7  BZF d   1       1.620  -1.524   1.141  0.00  0.00     0.029 A 
ATOM      9  C7A BZF d   1       0.908  -0.519   0.533  0.00  0.00     0.058 A 
ENDROOT
TORSDOF 0
ENDMDL
