MODEL 1
REMARK minimizedAffinity 1.96423483
REMARK minimizedRMSD -1
REMARK  0 active torsions:
REMARK  status: ('A' for Active; 'I' for Inactive)
ROOT
ATOM      1  O1  BZF d   1       1.869  -2.186   2.345  0.00  0.00    -0.204 OA
ATOM      2  C2  BZF d   1       2.787  -1.155   2.301  0.00  0.00     0.174 A 
ATOM      3  C3  BZF d   1       2.393  -0.199   1.435  0.00  0.00    -0.012 A 
ATOM      4  C3A BZF d   1       1.104  -0.618   0.974  0.00  0.00    -0.107 A 
ATOM      5  C4  BZF d   1       0.195  -0.078   0.110  0.00  0.00     0.055 A 
ATOM      6  C5  BZF d   1      -0.935  -0.774  -0.180  0.00  0.00    -0.016 A 
ATOM      7  C6  BZF d   1      -1.185  -2.014   0.371  0.00  0.00     0.022 A 
ATOM      8  C7  BZF d   1      -0.315  -2.588   1.237  0.00  0.00     0.029 A 
ATOM      9  C7A BZF d   1       0.812  -1.872   1.558  0.00  0.00     0.058 A 
ENDROOT
TORSDOF 0
ENDMDL
