MODEL 1
REMARK minimizedAffinity -6.46939945
REMARK minimizedRMSD -1
REMARK  0 active torsions:
REMARK  status: ('A' for Active; 'I' for Inactive)
ROOT
ATOM      1  O1  BZF d   1      -0.413  -0.010  -0.006  0.00  0.00    -0.204 OA
ATOM      2  C2  BZF d   1      -0.264   1.321  -0.346  0.00  0.00     0.174 A 
ATOM      3  C3  BZF d   1       0.925   1.793   0.080  0.00  0.00    -0.012 A 
ATOM      4  C3A BZF d   1       1.598   0.664   0.645  0.00  0.00    -0.107 A 
ATOM      5  C4  BZF d   1       2.825   0.493   1.220  0.00  0.00     0.055 A 
ATOM      6  C5  BZF d   1       3.148  -0.722   1.737  0.00  0.00    -0.016 A 
ATOM      7  C6  BZF d   1       2.269  -1.784   1.700  0.00  0.00     0.022 A 
ATOM      8  C7  BZF d   1       1.043  -1.664   1.135  0.00  0.00     0.029 A 
ATOM      9  C7A BZF d   1       0.726  -0.447   0.583  0.00  0.00     0.058 A 
ENDROOT
TORSDOF 0
ENDMDL
