MODEL 1
REMARK minimizedAffinity -2.30362654
REMARK minimizedRMSD -1
REMARK  0 active torsions:
REMARK  status: ('A' for Active; 'I' for Inactive)
ROOT
ATOM      1  O1  BZF d   1      -0.265  -1.079  -0.384  0.00  0.00    -0.204 OA
ATOM      2  C2  BZF d   1      -0.100  -0.026   0.494  0.00  0.00     0.174 A 
ATOM      3  C3  BZF d   1      -0.983   0.959   0.230  0.00  0.00    -0.012 A 
ATOM      4  C3A BZF d   1      -1.808   0.453  -0.823  0.00  0.00    -0.107 A 
ATOM      5  C4  BZF d   1      -2.876   0.961  -1.506  0.00  0.00     0.055 A 
ATOM      6  C5  BZF d   1      -3.410   0.241  -2.528  0.00  0.00    -0.016 A 
ATOM      7  C6  BZF d   1      -2.899  -0.986  -2.896  0.00  0.00     0.022 A 
ATOM      8  C7  BZF d   1      -1.844  -1.534  -2.245  0.00  0.00     0.029 A 
ATOM      9  C7A BZF d   1      -1.323  -0.823  -1.191  0.00  0.00     0.058 A 
ENDROOT
TORSDOF 0
ENDMDL
