MODEL 1
REMARK minimizedAffinity 0.719900131
REMARK minimizedRMSD -1
REMARK  0 active torsions:
REMARK  status: ('A' for Active; 'I' for Inactive)
ROOT
ATOM      1  O1  BZF d   1       0.202   1.442   1.192  0.00  0.00    -0.204 OA
ATOM      2  C2  BZF d   1       0.499   2.276   0.132  0.00  0.00     0.174 A 
ATOM      3  C3  BZF d   1       0.537   1.584  -1.025  0.00  0.00    -0.012 A 
ATOM      4  C3A BZF d   1       0.154   0.250  -0.678  0.00  0.00    -0.107 A 
ATOM      5  C4  BZF d   1      -0.010  -0.898  -1.400  0.00  0.00     0.055 A 
ATOM      6  C5  BZF d   1      -0.320  -2.049  -0.749  0.00  0.00    -0.016 A 
ATOM      7  C6  BZF d   1      -0.467  -2.091   0.622  0.00  0.00     0.022 A 
ATOM      8  C7  BZF d   1      -0.319  -0.977   1.381  0.00  0.00     0.029 A 
ATOM      9  C7A BZF d   1      -0.039   0.195   0.722  0.00  0.00     0.058 A 
ENDROOT
TORSDOF 0
ENDMDL
