MODEL 1
REMARK minimizedAffinity -0.480010897
REMARK minimizedRMSD -1
REMARK  0 active torsions:
REMARK  status: ('A' for Active; 'I' for Inactive)
ROOT
ATOM      1  C   UNL d   1       1.315  -5.999  -4.976  0.00  0.00     0.077 C 
ATOM      2  C1  UNL d   1       2.754  -5.986  -4.553  0.00  0.00    -0.074 A 
ATOM      3  C2  UNL d   1       3.782  -5.989  -5.501  0.00  0.00    -0.005 A 
ATOM      4  C3  UNL d   1       5.116  -5.967  -5.093  0.00  0.00     0.006 A 
ATOM      5  C4  UNL d   1       5.434  -5.943  -3.734  0.00  0.00    -0.005 A 
ATOM      6  C5  UNL d   1       4.420  -5.939  -2.772  0.00  0.00    -0.074 A 
ATOM      7  C6  UNL d   1       4.744  -5.903  -1.308  0.00  0.00     0.077 C 
ATOM      8  C7  UNL d   1       3.082  -5.954  -3.191  0.00  0.00    -0.001 A 
ENDROOT
TORSDOF 0
ENDMDL
