MODEL 1
REMARK minimizedAffinity 5.56057549
REMARK minimizedRMSD -1
REMARK  0 active torsions:
REMARK  status: ('A' for Active; 'I' for Inactive)
ROOT
ATOM      1  C   UNL d   1       1.920   0.437   5.436  0.00  0.00     0.077 C 
ATOM      2  C1  UNL d   1       2.400   0.754   4.051  0.00  0.00    -0.074 A 
ATOM      3  C2  UNL d   1       2.282   2.045   3.527  0.00  0.00    -0.005 A 
ATOM      4  C3  UNL d   1       2.742   2.327   2.241  0.00  0.00     0.006 A 
ATOM      5  C4  UNL d   1       3.324   1.322   1.467  0.00  0.00    -0.005 A 
ATOM      6  C5  UNL d   1       3.451   0.025   1.974  0.00  0.00    -0.074 A 
ATOM      7  C6  UNL d   1       4.083  -1.064   1.159  0.00  0.00     0.077 C 
ATOM      8  C7  UNL d   1       2.993  -0.249   3.270  0.00  0.00    -0.001 A 
ENDROOT
TORSDOF 0
ENDMDL
