MODEL 1
REMARK minimizedAffinity 6.2616272
REMARK minimizedRMSD -1
REMARK  0 active torsions:
REMARK  status: ('A' for Active; 'I' for Inactive)
ROOT
ATOM      1  C   UNL d   1      -1.309  -0.365  -0.120  0.00  0.00     0.077 C 
ATOM      2  C1  UNL d   1      -2.154  -0.211  -1.349  0.00  0.00    -0.074 A 
ATOM      3  C2  UNL d   1      -2.535   1.055  -1.804  0.00  0.00    -0.005 A 
ATOM      4  C3  UNL d   1      -3.313   1.184  -2.955  0.00  0.00     0.006 A 
ATOM      5  C4  UNL d   1      -3.717   0.050  -3.660  0.00  0.00    -0.005 A 
ATOM      6  C5  UNL d   1      -3.344  -1.224  -3.221  0.00  0.00    -0.074 A 
ATOM      7  C6  UNL d   1      -3.761  -2.453  -3.973  0.00  0.00     0.077 C 
ATOM      8  C7  UNL d   1      -2.556  -1.345  -2.068  0.00  0.00    -0.001 A 
ENDROOT
TORSDOF 0
ENDMDL
