MODEL 1
REMARK minimizedAffinity 6.0627861
REMARK minimizedRMSD -1
REMARK  0 active torsions:
REMARK  status: ('A' for Active; 'I' for Inactive)
ROOT
ATOM      1  C   UNL d   1       3.877  -5.992  -1.956  0.00  0.00     0.077 C 
ATOM      2  C1  UNL d   1       2.879  -5.981  -0.836  0.00  0.00    -0.074 A 
ATOM      3  C2  UNL d   1       1.505  -5.999  -1.099  0.00  0.00    -0.005 A 
ATOM      4  C3  UNL d   1       0.588  -5.999  -0.047  0.00  0.00     0.006 A 
ATOM      5  C4  UNL d   1       1.035  -5.980   1.275  0.00  0.00    -0.005 A 
ATOM      6  C5  UNL d   1       2.405  -5.963   1.556  0.00  0.00    -0.074 A 
ATOM      7  C6  UNL d   1       2.902  -5.952   2.971  0.00  0.00     0.077 C 
ATOM      8  C7  UNL d   1       3.320  -5.970   0.494  0.00  0.00    -0.001 A 
ENDROOT
TORSDOF 0
ENDMDL
