MODEL 1
REMARK minimizedAffinity 11.3187113
REMARK minimizedRMSD -1
REMARK  0 active torsions:
REMARK  status: ('A' for Active; 'I' for Inactive)
ROOT
ATOM      1  C   UNL d   1       0.813  -0.605   1.859  0.00  0.00     0.077 C 
ATOM      2  C1  UNL d   1       1.715  -1.639   2.465  0.00  0.00    -0.074 A 
ATOM      3  C2  UNL d   1       2.278  -1.447   3.731  0.00  0.00    -0.005 A 
ATOM      4  C3  UNL d   1       3.107  -2.422   4.287  0.00  0.00     0.006 A 
ATOM      5  C4  UNL d   1       3.382  -3.595   3.583  0.00  0.00    -0.005 A 
ATOM      6  C5  UNL d   1       2.827  -3.804   2.317  0.00  0.00    -0.074 A 
ATOM      7  C6  UNL d   1       3.104  -5.064   1.551  0.00  0.00     0.077 C 
ATOM      8  C7  UNL d   1       1.989  -2.824   1.768  0.00  0.00    -0.001 A 
ENDROOT
TORSDOF 0
ENDMDL
