MODEL 1
REMARK minimizedAffinity 2.26563263
REMARK minimizedRMSD -1
REMARK  0 active torsions:
REMARK  status: ('A' for Active; 'I' for Inactive)
ROOT
ATOM      1  C   UNL d   1       0.443  -5.976   0.620  0.00  0.00     0.077 C 
ATOM      2  C1  UNL d   1       1.890  -5.976   0.228  0.00  0.00    -0.074 A 
ATOM      3  C2  UNL d   1       2.897  -5.989   1.199  0.00  0.00    -0.005 A 
ATOM      4  C3  UNL d   1       4.240  -5.999   0.820  0.00  0.00     0.006 A 
ATOM      5  C4  UNL d   1       4.588  -5.996  -0.531  0.00  0.00    -0.005 A 
ATOM      6  C5  UNL d   1       3.595  -5.983  -1.516  0.00  0.00    -0.074 A 
ATOM      7  C6  UNL d   1       3.952  -5.989  -2.973  0.00  0.00     0.077 C 
ATOM      8  C7  UNL d   1       2.248  -5.980  -1.127  0.00  0.00    -0.001 A 
ENDROOT
TORSDOF 0
ENDMDL
