MODEL 1
REMARK minimizedAffinity -3.7122128
REMARK minimizedRMSD -1
REMARK  0 active torsions:
REMARK  status: ('A' for Active; 'I' for Inactive)
ROOT
ATOM      1  C   UNL d   1       4.633  -0.475  -5.978  0.00  0.00     0.077 C 
ATOM      2  C1  UNL d   1       4.694  -1.973  -5.992  0.00  0.00    -0.074 A 
ATOM      3  C2  UNL d   1       5.922  -2.643  -5.993  0.00  0.00    -0.005 A 
ATOM      4  C3  UNL d   1       5.963  -4.037  -5.997  0.00  0.00     0.006 A 
ATOM      5  C4  UNL d   1       4.778  -4.775  -6.000  0.00  0.00    -0.005 A 
ATOM      6  C5  UNL d   1       3.541  -4.123  -5.998  0.00  0.00    -0.074 A 
ATOM      7  C6  UNL d   1       2.259  -4.900  -5.991  0.00  0.00     0.077 C 
ATOM      8  C7  UNL d   1       3.508  -2.721  -5.987  0.00  0.00    -0.001 A 
ENDROOT
TORSDOF 0
ENDMDL
