MODEL 1
REMARK minimizedAffinity 5.75934076
REMARK minimizedRMSD -1
REMARK  0 active torsions:
REMARK  status: ('A' for Active; 'I' for Inactive)
ROOT
ATOM      1  C   UNL d   1      -0.242   2.286   1.271  0.00  0.00     0.077 C 
ATOM      2  C1  UNL d   1       0.228   1.201   0.348  0.00  0.00    -0.074 A 
ATOM      3  C2  UNL d   1       0.705  -0.014   0.850  0.00  0.00    -0.005 A 
ATOM      4  C3  UNL d   1       1.129  -1.017  -0.021  0.00  0.00     0.006 A 
ATOM      5  C4  UNL d   1       1.081  -0.816  -1.401  0.00  0.00    -0.005 A 
ATOM      6  C5  UNL d   1       0.607   0.392  -1.922  0.00  0.00    -0.074 A 
ATOM      7  C6  UNL d   1       0.539   0.621  -3.402  0.00  0.00     0.077 C 
ATOM      8  C7  UNL d   1       0.176   1.393  -1.040  0.00  0.00    -0.001 A 
ENDROOT
TORSDOF 0
ENDMDL
