MODEL 1
REMARK minimizedAffinity 2.06358647
REMARK minimizedRMSD -1
REMARK  0 active torsions:
REMARK  status: ('A' for Active; 'I' for Inactive)
ROOT
ATOM      1  C   UNL d   1       3.426   0.212   1.780  0.00  0.00     0.077 C 
ATOM      2  C1  UNL d   1       2.235   0.292   0.872  0.00  0.00    -0.074 A 
ATOM      3  C2  UNL d   1       1.982  -0.709  -0.071  0.00  0.00    -0.005 A 
ATOM      4  C3  UNL d   1       0.864  -0.626  -0.902  0.00  0.00     0.006 A 
ATOM      5  C4  UNL d   1      -0.010   0.457  -0.798  0.00  0.00    -0.005 A 
ATOM      6  C5  UNL d   1       0.227   1.467   0.140  0.00  0.00    -0.074 A 
ATOM      7  C6  UNL d   1      -0.708   2.632   0.271  0.00  0.00     0.077 C 
ATOM      8  C7  UNL d   1       1.348   1.373   0.976  0.00  0.00    -0.001 A 
ENDROOT
TORSDOF 0
ENDMDL
