MODEL 1
REMARK minimizedAffinity 5.41972303
REMARK minimizedRMSD -1
REMARK  2 active torsions:
REMARK  status: ('A' for Active; 'I' for Inactive)
REMARK    1  A    between atoms: C1_2  and  C2_3 
REMARK    2  A    between atoms: C2_3  and  C3_4 
ROOT
ATOM      1  C3  UNL d   1      -2.182   0.154   2.441  0.00  0.00    -0.075 A 
ATOM      2  C4  UNL d   1      -1.039  -0.136   3.200  0.00  0.00     0.002 A 
ATOM      3  C5  UNL d   1      -1.044  -1.190   4.114  0.00  0.00     0.002 A 
ATOM      4  C6  UNL d   1      -2.193  -1.958   4.290  0.00  0.00    -0.004 A 
ATOM      5  C7  UNL d   1      -3.340  -1.668   3.553  0.00  0.00     0.002 A 
ATOM      6  C8  UNL d   1      -3.336  -0.617   2.634  0.00  0.00     0.002 A 
ENDROOT
BRANCH   1   7
ATOM      7  C2  UNL d   1      -2.173   1.274   1.429  0.00  0.00     0.056 C 
BRANCH   7   8
ATOM      8  C1  UNL d   1      -2.494   0.826  -0.001  0.00  0.00     0.007 C 
ATOM      9  C   UNL d   1      -1.533  -0.230  -0.529  0.00  0.00     0.009 C 
ENDBRANCH   7   8
ENDBRANCH   1   7
TORSDOF 2
ENDMDL
