MODEL 1
REMARK minimizedAffinity 4.25824356
REMARK minimizedRMSD -1
REMARK  2 active torsions:
REMARK  status: ('A' for Active; 'I' for Inactive)
REMARK    1  A    between atoms: C1_2  and  C2_3 
REMARK    2  A    between atoms: C2_3  and  C3_4 
ROOT
ATOM      1  C3  UNL d   1       0.121  -0.033   1.157  0.00  0.00    -0.075 A 
ATOM      2  C4  UNL d   1      -0.793   0.480   0.226  0.00  0.00     0.002 A 
ATOM      3  C5  UNL d   1      -2.093   0.804   0.614  0.00  0.00     0.002 A 
ATOM      4  C6  UNL d   1      -2.498   0.610   1.933  0.00  0.00    -0.004 A 
ATOM      5  C7  UNL d   1      -1.604   0.085   2.863  0.00  0.00     0.002 A 
ATOM      6  C8  UNL d   1      -0.301  -0.236   2.478  0.00  0.00     0.002 A 
ENDROOT
BRANCH   1   7
ATOM      7  C2  UNL d   1       1.539  -0.358   0.750  0.00  0.00     0.056 C 
BRANCH   7   8
ATOM      8  C1  UNL d   1       2.084   0.529  -0.374  0.00  0.00     0.007 C 
ATOM      9  C   UNL d   1       3.007   1.632   0.126  0.00  0.00     0.009 C 
ENDBRANCH   7   8
ENDBRANCH   1   7
TORSDOF 2
ENDMDL
