MODEL 1
REMARK minimizedAffinity 10.6883497
REMARK minimizedRMSD -1
REMARK  2 active torsions:
REMARK  status: ('A' for Active; 'I' for Inactive)
REMARK    1  A    between atoms: C1_2  and  C2_3 
REMARK    2  A    between atoms: C2_3  and  C3_4 
ROOT
ATOM      1  C3  UNL d   1      -0.556   0.124   0.433  0.00  0.00    -0.075 A 
ATOM      2  C4  UNL d   1      -1.587   0.050  -0.515  0.00  0.00     0.002 A 
ATOM      3  C5  UNL d   1      -2.912   0.269  -0.138  0.00  0.00     0.002 A 
ATOM      4  C6  UNL d   1      -3.224   0.553   1.189  0.00  0.00    -0.004 A 
ATOM      5  C7  UNL d   1      -2.209   0.613   2.142  0.00  0.00     0.002 A 
ATOM      6  C8  UNL d   1      -0.882   0.399   1.767  0.00  0.00     0.002 A 
ENDROOT
BRANCH   1   7
ATOM      7  C2  UNL d   1       0.884  -0.083   0.026  0.00  0.00     0.056 C 
BRANCH   7   8
ATOM      8  C1  UNL d   1       1.900   0.549   0.983  0.00  0.00     0.007 C 
ATOM      9  C   UNL d   1       3.011   1.304   0.267  0.00  0.00     0.009 C 
ENDBRANCH   7   8
ENDBRANCH   1   7
TORSDOF 2
ENDMDL
