MODEL 1
REMARK minimizedAffinity 6.79476786
REMARK minimizedRMSD -1
REMARK  2 active torsions:
REMARK  status: ('A' for Active; 'I' for Inactive)
REMARK    1  A    between atoms: C1_2  and  C2_3 
REMARK    2  A    between atoms: C2_3  and  C3_4 
ROOT
ATOM      1  C3  UNL d   1      -2.956   0.080   0.289  0.00  0.00    -0.075 A 
ATOM      2  C4  UNL d   1      -3.188   0.263   1.660  0.00  0.00     0.002 A 
ATOM      3  C5  UNL d   1      -2.139   0.594   2.519  0.00  0.00     0.002 A 
ATOM      4  C6  UNL d   1      -0.845   0.735   2.020  0.00  0.00    -0.004 A 
ATOM      5  C7  UNL d   1      -0.600   0.539   0.663  0.00  0.00     0.002 A 
ATOM      6  C8  UNL d   1      -1.649   0.213  -0.199  0.00  0.00     0.002 A 
ENDROOT
BRANCH   1   7
ATOM      7  C2  UNL d   1      -4.092  -0.249  -0.649  0.00  0.00     0.056 C 
BRANCH   7   8
ATOM      8  C1  UNL d   1      -4.329  -1.750  -0.839  0.00  0.00     0.007 C 
ATOM      9  C   UNL d   1      -5.555  -2.062  -1.687  0.00  0.00     0.009 C 
ENDBRANCH   7   8
ENDBRANCH   1   7
TORSDOF 2
ENDMDL
