MODEL 1
REMARK minimizedAffinity 5.71608639
REMARK minimizedRMSD -1
REMARK  2 active torsions:
REMARK  status: ('A' for Active; 'I' for Inactive)
REMARK    1  A    between atoms: C1_2  and  C2_3 
REMARK    2  A    between atoms: C2_3  and  C3_4 
ROOT
ATOM      1  C3  UNL d   1      -1.150   0.131   1.231  0.00  0.00    -0.075 A 
ATOM      2  C4  UNL d   1      -1.966  -0.120   0.118  0.00  0.00     0.002 A 
ATOM      3  C5  UNL d   1      -1.408  -0.546  -1.088  0.00  0.00     0.002 A 
ATOM      4  C6  UNL d   1      -0.029  -0.714  -1.200  0.00  0.00    -0.004 A 
ATOM      5  C7  UNL d   1       0.792  -0.452  -0.106  0.00  0.00     0.002 A 
ATOM      6  C8  UNL d   1       0.236  -0.031   1.104  0.00  0.00     0.002 A 
ENDROOT
BRANCH   1   7
ATOM      7  C2  UNL d   1      -1.750   0.563   2.548  0.00  0.00     0.056 C 
BRANCH   7   8
ATOM      8  C1  UNL d   1      -1.680  -0.504   3.645  0.00  0.00     0.007 C 
ATOM      9  C   UNL d   1      -2.946  -1.344   3.749  0.00  0.00     0.009 C 
ENDBRANCH   7   8
ENDBRANCH   1   7
TORSDOF 2
ENDMDL
