MODEL 1
REMARK minimizedAffinity 4.76149416
REMARK minimizedRMSD -1
REMARK  2 active torsions:
REMARK  status: ('A' for Active; 'I' for Inactive)
REMARK    1  A    between atoms: C1_2  and  C2_3 
REMARK    2  A    between atoms: C2_3  and  C3_4 
ROOT
ATOM      1  C3  UNL d   1      -0.657  -0.433   1.010  0.00  0.00    -0.075 A 
ATOM      2  C4  UNL d   1      -1.562  -0.658  -0.038  0.00  0.00     0.002 A 
ATOM      3  C5  UNL d   1      -1.115  -1.141  -1.268  0.00  0.00     0.002 A 
ATOM      4  C6  UNL d   1       0.240  -1.395  -1.469  0.00  0.00    -0.004 A 
ATOM      5  C7  UNL d   1       1.150  -1.160  -0.441  0.00  0.00     0.002 A 
ATOM      6  C8  UNL d   1       0.705  -0.680   0.793  0.00  0.00     0.002 A 
ENDROOT
BRANCH   1   7
ATOM      7  C2  UNL d   1      -1.138   0.062   2.353  0.00  0.00     0.056 C 
BRANCH   7   8
ATOM      8  C1  UNL d   1      -1.040  -0.979   3.473  0.00  0.00     0.007 C 
ATOM      9  C   UNL d   1      -2.386  -1.314   4.102  0.00  0.00     0.009 C 
ENDBRANCH   7   8
ENDBRANCH   1   7
TORSDOF 2
ENDMDL
