MODEL 1
REMARK minimizedAffinity 2.88664269
REMARK minimizedRMSD -1
REMARK  2 active torsions:
REMARK  status: ('A' for Active; 'I' for Inactive)
REMARK    1  A    between atoms: C1_2  and  C2_3 
REMARK    2  A    between atoms: C2_3  and  C3_4 
ROOT
ATOM      1  C3  UNL d   1      -0.402  -0.638   2.212  0.00  0.00    -0.075 A 
ATOM      2  C4  UNL d   1      -1.703  -0.344   2.646  0.00  0.00     0.002 A 
ATOM      3  C5  UNL d   1      -2.701  -0.022   1.726  0.00  0.00     0.002 A 
ATOM      4  C6  UNL d   1      -2.410   0.020   0.365  0.00  0.00    -0.004 A 
ATOM      5  C7  UNL d   1      -1.117  -0.254  -0.077  0.00  0.00     0.002 A 
ATOM      6  C8  UNL d   1      -0.117  -0.580   0.841  0.00  0.00     0.002 A 
ENDROOT
BRANCH   1   7
ATOM      7  C2  UNL d   1       0.676  -1.015   3.200  0.00  0.00     0.056 C 
BRANCH   7   8
ATOM      8  C1  UNL d   1       0.140  -1.530   4.540  0.00  0.00     0.007 C 
ATOM      9  C   UNL d   1       1.242  -1.929   5.513  0.00  0.00     0.009 C 
ENDBRANCH   7   8
ENDBRANCH   1   7
TORSDOF 2
ENDMDL
