MODEL 1
REMARK minimizedAffinity -1.33944428
REMARK minimizedRMSD -1
REMARK  2 active torsions:
REMARK  status: ('A' for Active; 'I' for Inactive)
REMARK    1  A    between atoms: C1_2  and  C2_3 
REMARK    2  A    between atoms: C2_3  and  C3_4 
ROOT
ATOM      1  C3  UNL d   1      -1.489  -0.151   0.793  0.00  0.00    -0.075 A 
ATOM      2  C4  UNL d   1      -1.838  -0.458   2.117  0.00  0.00     0.002 A 
ATOM      3  C5  UNL d   1      -1.425   0.363   3.166  0.00  0.00     0.002 A 
ATOM      4  C6  UNL d   1      -0.651   1.492   2.908  0.00  0.00    -0.004 A 
ATOM      5  C7  UNL d   1      -0.285   1.798   1.599  0.00  0.00     0.002 A 
ATOM      6  C8  UNL d   1      -0.701   0.981   0.547  0.00  0.00     0.002 A 
ENDROOT
BRANCH   1   7
ATOM      7  C2  UNL d   1      -1.958  -1.019  -0.350  0.00  0.00     0.056 C 
BRANCH   7   8
ATOM      8  C1  UNL d   1      -2.852  -2.187   0.079  0.00  0.00     0.007 C 
ATOM      9  C   UNL d   1      -4.091  -2.347  -0.792  0.00  0.00     0.009 C 
ENDBRANCH   7   8
ENDBRANCH   1   7
TORSDOF 2
ENDMDL
