MODEL 1
REMARK minimizedAffinity -3.46387768
REMARK minimizedRMSD -1
REMARK  2 active torsions:
REMARK  status: ('A' for Active; 'I' for Inactive)
REMARK    1  A    between atoms: C1_2  and  C2_3 
REMARK    2  A    between atoms: C2_3  and  C3_4 
ROOT
ATOM      1  C3  UNL d   1      -0.009   0.613   2.000  0.00  0.00    -0.075 A 
ATOM      2  C4  UNL d   1      -1.245  -0.020   2.200  0.00  0.00     0.002 A 
ATOM      3  C5  UNL d   1      -1.957  -0.542   1.120  0.00  0.00     0.002 A 
ATOM      4  C6  UNL d   1      -1.449  -0.430  -0.172  0.00  0.00    -0.004 A 
ATOM      5  C7  UNL d   1      -0.231   0.212  -0.385  0.00  0.00     0.002 A 
ATOM      6  C8  UNL d   1       0.486   0.731   0.694  0.00  0.00     0.002 A 
ENDROOT
BRANCH   1   7
ATOM      7  C2  UNL d   1       0.780   1.154   3.168  0.00  0.00     0.056 C 
BRANCH   7   8
ATOM      8  C1  UNL d   1       0.339   2.548   3.627  0.00  0.00     0.007 C 
ATOM      9  C   UNL d   1      -0.629   2.515   4.802  0.00  0.00     0.009 C 
ENDBRANCH   7   8
ENDBRANCH   1   7
TORSDOF 2
ENDMDL
