MODEL 1
REMARK minimizedAffinity 8.53448296
REMARK minimizedRMSD -1
REMARK  2 active torsions:
REMARK  status: ('A' for Active; 'I' for Inactive)
REMARK    1  A    between atoms: C1_2  and  C2_3 
REMARK    2  A    between atoms: C2_3  and  C3_4 
ROOT
ATOM      1  C3  UNL d   1      -0.070  -0.074   0.845  0.00  0.00    -0.075 A 
ATOM      2  C4  UNL d   1      -0.510  -0.574  -0.389  0.00  0.00     0.002 A 
ATOM      3  C5  UNL d   1      -1.866  -0.556  -0.718  0.00  0.00     0.002 A 
ATOM      4  C6  UNL d   1      -2.798  -0.050   0.185  0.00  0.00    -0.004 A 
ATOM      5  C7  UNL d   1      -2.374   0.434   1.421  0.00  0.00     0.002 A 
ATOM      6  C8  UNL d   1      -1.017   0.422   1.750  0.00  0.00     0.002 A 
ENDROOT
BRANCH   1   7
ATOM      7  C2  UNL d   1       1.399  -0.062   1.195  0.00  0.00     0.056 C 
BRANCH   7   8
ATOM      8  C1  UNL d   1       2.268   0.731   0.213  0.00  0.00     0.007 C 
ATOM      9  C   UNL d   1       2.970   1.919   0.857  0.00  0.00     0.009 C 
ENDBRANCH   7   8
ENDBRANCH   1   7
TORSDOF 2
ENDMDL
