MODEL 1
REMARK minimizedAffinity 7.89012098
REMARK minimizedRMSD -1
REMARK  2 active torsions:
REMARK  status: ('A' for Active; 'I' for Inactive)
REMARK    1  A    between atoms: C1_2  and  C2_3 
REMARK    2  A    between atoms: C2_3  and  C3_4 
ROOT
ATOM      1  C3  UNL d   1       0.158   0.051   0.773  0.00  0.00    -0.075 A 
ATOM      2  C4  UNL d   1      -1.057   0.619   1.183  0.00  0.00     0.002 A 
ATOM      3  C5  UNL d   1      -2.244   0.304   0.523  0.00  0.00     0.002 A 
ATOM      4  C6  UNL d   1      -2.232  -0.572  -0.560  0.00  0.00    -0.004 A 
ATOM      5  C7  UNL d   1      -1.028  -1.129  -0.987  0.00  0.00     0.002 A 
ATOM      6  C8  UNL d   1       0.161  -0.819  -0.325  0.00  0.00     0.002 A 
ENDROOT
BRANCH   1   7
ATOM      7  C2  UNL d   1       1.443   0.365   1.502  0.00  0.00     0.056 C 
BRANCH   7   8
ATOM      8  C1  UNL d   1       2.281   1.466   0.844  0.00  0.00     0.007 C 
ATOM      9  C   UNL d   1       2.001   2.852   1.409  0.00  0.00     0.009 C 
ENDBRANCH   7   8
ENDBRANCH   1   7
TORSDOF 2
ENDMDL
