MODEL 1
REMARK minimizedAffinity -4.17448759
REMARK minimizedRMSD -1
REMARK  3 active torsions:
REMARK  status: ('A' for Active; 'I' for Inactive)
REMARK    1  A    between atoms: C3'_2  and  C2'_3 
REMARK    2  A    between atoms: C2'_3  and  C1'_4 
REMARK    3  A    between atoms: C1'_4  and  C1_5 
ROOT
ATOM      1  C1  N4B d   1       0.039   0.097   0.071  0.00  0.00    -0.075 A 
ATOM      2  C2  N4B d   1       0.477   0.157   1.413  0.00  0.00     0.002 A 
ATOM      3  C3  N4B d   1      -0.298   0.780   2.360  0.00  0.00     0.002 A 
ATOM      4  C4  N4B d   1      -1.500   1.363   1.988  0.00  0.00    -0.004 A 
ATOM      5  C5  N4B d   1      -1.927   1.279   0.695  0.00  0.00     0.002 A 
ATOM      6  C6  N4B d   1      -1.161   0.653  -0.267  0.00  0.00     0.002 A 
ENDROOT
BRANCH   1   7
ATOM      7  C1' N4B d   1       0.891  -0.498  -1.016  0.00  0.00     0.057 C 
BRANCH   7   8
ATOM      8  C2' N4B d   1       1.099  -1.983  -0.734  0.00  0.00     0.009 C 
BRANCH   8   9
ATOM      9  C3' N4B d   1       0.717  -2.846  -1.924  0.00  0.00     0.004 C 
ATOM     10  C4' N4B d   1       0.362  -2.039  -3.137  0.00  0.00     0.003 C 
ENDBRANCH   8   9
ENDBRANCH   7   8
ENDBRANCH   1   7
TORSDOF 3
ENDMDL
