MODEL 1
REMARK minimizedAffinity -5.52291918
REMARK minimizedRMSD -1
REMARK  3 active torsions:
REMARK  status: ('A' for Active; 'I' for Inactive)
REMARK    1  A    between atoms: C3'_2  and  C2'_3 
REMARK    2  A    between atoms: C2'_3  and  C1'_4 
REMARK    3  A    between atoms: C1'_4  and  C1_5 
ROOT
ATOM      1  C1  N4B d   1       0.094  -0.084   0.093  0.00  0.00    -0.075 A 
ATOM      2  C2  N4B d   1       0.254   0.232   1.460  0.00  0.00     0.002 A 
ATOM      3  C3  N4B d   1      -0.691   0.993   2.104  0.00  0.00     0.002 A 
ATOM      4  C4  N4B d   1      -1.789   1.463   1.399  0.00  0.00    -0.004 A 
ATOM      5  C5  N4B d   1      -1.949   1.132   0.086  0.00  0.00     0.002 A 
ATOM      6  C6  N4B d   1      -1.010   0.364  -0.573  0.00  0.00     0.002 A 
ENDROOT
BRANCH   1   7
ATOM      7  C1' N4B d   1       1.142  -0.841  -0.676  0.00  0.00     0.057 C 
BRANCH   7   8
ATOM      8  C2' N4B d   1       0.643  -2.258  -0.942  0.00  0.00     0.009 C 
BRANCH   8   9
ATOM      9  C3' N4B d   1       1.254  -2.848  -2.202  0.00  0.00     0.004 C 
ATOM     10  C4' N4B d   1       0.434  -2.575  -3.428  0.00  0.00     0.003 C 
ENDBRANCH   8   9
ENDBRANCH   7   8
ENDBRANCH   1   7
TORSDOF 3
ENDMDL
