MODEL 1
REMARK minimizedAffinity -5.14916229
REMARK minimizedRMSD -1
REMARK  3 active torsions:
REMARK  status: ('A' for Active; 'I' for Inactive)
REMARK    1  A    between atoms: C3'_2  and  C2'_3 
REMARK    2  A    between atoms: C2'_3  and  C1'_4 
REMARK    3  A    between atoms: C1'_4  and  C1_5 
ROOT
ATOM      1  C1  N4B d   1       0.767  -1.618  -1.075  0.00  0.00    -0.075 A 
ATOM      2  C2  N4B d   1       0.833  -2.941  -0.587  0.00  0.00     0.002 A 
ATOM      3  C3  N4B d   1       0.424  -3.987  -1.378  0.00  0.00     0.002 A 
ATOM      4  C4  N4B d   1      -0.070  -3.733  -2.648  0.00  0.00    -0.004 A 
ATOM      5  C5  N4B d   1      -0.107  -2.454  -3.122  0.00  0.00     0.002 A 
ATOM      6  C6  N4B d   1       0.304  -1.394  -2.340  0.00  0.00     0.002 A 
ENDROOT
BRANCH   1   7
ATOM      7  C1' N4B d   1       1.122  -0.436  -0.216  0.00  0.00     0.057 C 
BRANCH   7   8
ATOM      8  C2' N4B d   1      -0.074   0.509  -0.144  0.00  0.00     0.009 C 
BRANCH   8   9
ATOM      9  C3' N4B d   1      -0.841   0.357   1.158  0.00  0.00     0.004 C 
ATOM     10  C4' N4B d   1      -1.966   1.340   1.288  0.00  0.00     0.003 C 
ENDBRANCH   8   9
ENDBRANCH   7   8
ENDBRANCH   1   7
TORSDOF 3
ENDMDL
