MODEL 1
REMARK minimizedAffinity -6.12744093
REMARK minimizedRMSD -1
REMARK  3 active torsions:
REMARK  status: ('A' for Active; 'I' for Inactive)
REMARK    1  A    between atoms: C3'_2  and  C2'_3 
REMARK    2  A    between atoms: C2'_3  and  C1'_4 
REMARK    3  A    between atoms: C1'_4  and  C1_5 
ROOT
ATOM      1  C1  N4B d   1      -0.401   0.751   0.490  0.00  0.00    -0.075 A 
ATOM      2  C2  N4B d   1      -1.319   1.297   1.413  0.00  0.00     0.002 A 
ATOM      3  C3  N4B d   1      -1.730   2.601   1.283  0.00  0.00     0.002 A 
ATOM      4  C4  N4B d   1      -1.224   3.380   0.254  0.00  0.00    -0.004 A 
ATOM      5  C5  N4B d   1      -0.357   2.838  -0.649  0.00  0.00     0.002 A 
ATOM      6  C6  N4B d   1       0.061   1.528  -0.533  0.00  0.00     0.002 A 
ENDROOT
BRANCH   1   7
ATOM      7  C1' N4B d   1       0.143  -0.643   0.641  0.00  0.00     0.057 C 
BRANCH   7   8
ATOM      8  C2' N4B d   1       0.831  -1.056  -0.657  0.00  0.00     0.009 C 
BRANCH   8   9
ATOM      9  C3' N4B d   1       0.888  -2.565  -0.815  0.00  0.00     0.004 C 
ATOM     10  C4' N4B d   1       0.479  -3.022  -2.184  0.00  0.00     0.003 C 
ENDBRANCH   8   9
ENDBRANCH   7   8
ENDBRANCH   1   7
TORSDOF 3
ENDMDL
