MODEL 1
REMARK minimizedAffinity -5.15284443
REMARK minimizedRMSD -1
REMARK  3 active torsions:
REMARK  status: ('A' for Active; 'I' for Inactive)
REMARK    1  A    between atoms: C3'_2  and  C2'_3 
REMARK    2  A    between atoms: C2'_3  and  C1'_4 
REMARK    3  A    between atoms: C1'_4  and  C1_5 
ROOT
ATOM      1  C1  N4B d   1      -0.134   0.405  -0.101  0.00  0.00    -0.075 A 
ATOM      2  C2  N4B d   1      -0.554   1.661  -0.592  0.00  0.00     0.002 A 
ATOM      3  C3  N4B d   1      -1.442   2.418   0.132  0.00  0.00     0.002 A 
ATOM      4  C4  N4B d   1      -1.936   1.934   1.334  0.00  0.00    -0.004 A 
ATOM      5  C5  N4B d   1      -1.505   0.731   1.813  0.00  0.00     0.002 A 
ATOM      6  C6  N4B d   1      -0.610  -0.039   1.098  0.00  0.00     0.002 A 
ENDROOT
BRANCH   1   7
ATOM      7  C1' N4B d   1       0.769  -0.496  -0.898  0.00  0.00     0.057 C 
BRANCH   7   8
ATOM      8  C2' N4B d   1       0.885  -1.843  -0.189  0.00  0.00     0.009 C 
BRANCH   8   9
ATOM      9  C3' N4B d   1       1.031  -2.992  -1.172  0.00  0.00     0.004 C 
ATOM     10  C4' N4B d   1       0.602  -4.308  -0.595  0.00  0.00     0.003 C 
ENDBRANCH   8   9
ENDBRANCH   7   8
ENDBRANCH   1   7
TORSDOF 3
ENDMDL
