MODEL 1
REMARK minimizedAffinity -5.46390581
REMARK minimizedRMSD -1
REMARK  3 active torsions:
REMARK  status: ('A' for Active; 'I' for Inactive)
REMARK    1  A    between atoms: C3'_2  and  C2'_3 
REMARK    2  A    between atoms: C2'_3  and  C1'_4 
REMARK    3  A    between atoms: C1'_4  and  C1_5 
ROOT
ATOM      1  C1  N4B d   1       0.472  -0.052  -0.642  0.00  0.00    -0.075 A 
ATOM      2  C2  N4B d   1       0.997   1.142  -1.181  0.00  0.00     0.002 A 
ATOM      3  C3  N4B d   1       0.280   2.310  -1.091  0.00  0.00     0.002 A 
ATOM      4  C4  N4B d   1      -0.968   2.304  -0.485  0.00  0.00    -0.004 A 
ATOM      5  C5  N4B d   1      -1.457   1.151   0.056  0.00  0.00     0.002 A 
ATOM      6  C6  N4B d   1      -0.745  -0.029  -0.024  0.00  0.00     0.002 A 
ENDROOT
BRANCH   1   7
ATOM      7  C1' N4B d   1       1.180  -1.371  -0.792  0.00  0.00     0.057 C 
BRANCH   7   8
ATOM      8  C2' N4B d   1       0.416  -2.240  -1.786  0.00  0.00     0.009 C 
BRANCH   8   9
ATOM      9  C3' N4B d   1       1.008  -3.635  -1.894  0.00  0.00     0.004 C 
ATOM     10  C4' N4B d   1       0.421  -4.429  -3.022  0.00  0.00     0.003 C 
ENDBRANCH   8   9
ENDBRANCH   7   8
ENDBRANCH   1   7
TORSDOF 3
ENDMDL
