MODEL 1
REMARK minimizedAffinity -4.15707111
REMARK minimizedRMSD -1
REMARK  3 active torsions:
REMARK  status: ('A' for Active; 'I' for Inactive)
REMARK    1  A    between atoms: C3'_2  and  C2'_3 
REMARK    2  A    between atoms: C2'_3  and  C1'_4 
REMARK    3  A    between atoms: C1'_4  and  C1_5 
ROOT
ATOM      1  C1  N4B d   1       0.222   0.055   0.255  0.00  0.00    -0.075 A 
ATOM      2  C2  N4B d   1      -0.512  -0.211   1.431  0.00  0.00     0.002 A 
ATOM      3  C3  N4B d   1      -1.285   0.775   1.995  0.00  0.00     0.002 A 
ATOM      4  C4  N4B d   1      -1.324   2.033   1.414  0.00  0.00    -0.004 A 
ATOM      5  C5  N4B d   1      -0.632   2.274   0.263  0.00  0.00     0.002 A 
ATOM      6  C6  N4B d   1       0.146   1.292  -0.317  0.00  0.00     0.002 A 
ENDROOT
BRANCH   1   7
ATOM      7  C1' N4B d   1       1.149  -0.964  -0.350  0.00  0.00     0.057 C 
BRANCH   7   8
ATOM      8  C2' N4B d   1       0.391  -1.766  -1.404  0.00  0.00     0.009 C 
BRANCH   8   9
ATOM      9  C3' N4B d   1       0.865  -3.208  -1.471  0.00  0.00     0.004 C 
ATOM     10  C4' N4B d   1      -0.070  -4.092  -2.241  0.00  0.00     0.003 C 
ENDBRANCH   8   9
ENDBRANCH   7   8
ENDBRANCH   1   7
TORSDOF 3
ENDMDL
