MODEL 1
REMARK minimizedAffinity -6.30058193
REMARK minimizedRMSD -1
REMARK  3 active torsions:
REMARK  status: ('A' for Active; 'I' for Inactive)
REMARK    1  A    between atoms: C3'_2  and  C2'_3 
REMARK    2  A    between atoms: C2'_3  and  C1'_4 
REMARK    3  A    between atoms: C1'_4  and  C1_5 
ROOT
ATOM      1  C1  N4B d   1      -0.158   0.418   0.251  0.00  0.00    -0.075 A 
ATOM      2  C2  N4B d   1      -0.947   1.304  -0.515  0.00  0.00     0.002 A 
ATOM      3  C3  N4B d   1      -1.880   2.101   0.102  0.00  0.00     0.002 A 
ATOM      4  C4  N4B d   1      -2.054   2.016   1.475  0.00  0.00    -0.004 A 
ATOM      5  C5  N4B d   1      -1.270   1.176   2.211  0.00  0.00     0.002 A 
ATOM      6  C6  N4B d   1      -0.326   0.372   1.604  0.00  0.00     0.002 A 
ENDROOT
BRANCH   1   7
ATOM      7  C1' N4B d   1       0.814  -0.535  -0.389  0.00  0.00     0.057 C 
BRANCH   7   8
ATOM      8  C2' N4B d   1       0.039  -1.595  -1.166  0.00  0.00     0.009 C 
BRANCH   8   9
ATOM      9  C3' N4B d   1       0.755  -2.934  -1.168  0.00  0.00     0.004 C 
ATOM     10  C4' N4B d   1      -0.190  -4.099  -1.201  0.00  0.00     0.003 C 
ENDBRANCH   8   9
ENDBRANCH   7   8
ENDBRANCH   1   7
TORSDOF 3
ENDMDL
