MODEL 1
REMARK minimizedAffinity -6.07140827
REMARK minimizedRMSD -1
REMARK  3 active torsions:
REMARK  status: ('A' for Active; 'I' for Inactive)
REMARK    1  A    between atoms: C3'_2  and  C2'_3 
REMARK    2  A    between atoms: C2'_3  and  C1'_4 
REMARK    3  A    between atoms: C1'_4  and  C1_5 
ROOT
ATOM      1  C1  N4B d   1      -0.043  -0.194   0.442  0.00  0.00    -0.075 A 
ATOM      2  C2  N4B d   1      -0.812  -0.118   1.624  0.00  0.00     0.002 A 
ATOM      3  C3  N4B d   1      -1.541   1.013   1.898  0.00  0.00     0.002 A 
ATOM      4  C4  N4B d   1      -1.501   2.084   1.018  0.00  0.00    -0.004 A 
ATOM      5  C5  N4B d   1      -0.776   1.993  -0.134  0.00  0.00     0.002 A 
ATOM      6  C6  N4B d   1      -0.042   0.861  -0.424  0.00  0.00     0.002 A 
ENDROOT
BRANCH   1   7
ATOM      7  C1' N4B d   1       0.837  -1.376   0.141  0.00  0.00     0.057 C 
BRANCH   7   8
ATOM      8  C2' N4B d   1       0.406  -1.998  -1.184  0.00  0.00     0.009 C 
BRANCH   8   9
ATOM      9  C3' N4B d   1       0.806  -3.460  -1.282  0.00  0.00     0.004 C 
ATOM     10  C4' N4B d   1       1.772  -3.871  -0.212  0.00  0.00     0.003 C 
ENDBRANCH   8   9
ENDBRANCH   7   8
ENDBRANCH   1   7
TORSDOF 3
ENDMDL
