MODEL 1
REMARK minimizedAffinity -1.85603666
REMARK minimizedRMSD -1
REMARK  3 active torsions:
REMARK  status: ('A' for Active; 'I' for Inactive)
REMARK    1  A    between atoms: C3'_2  and  C2'_3 
REMARK    2  A    between atoms: C2'_3  and  C1'_4 
REMARK    3  A    between atoms: C1'_4  and  C1_5 
ROOT
ATOM      1  C1  N4B d   1      -0.482   1.959   0.927  0.00  0.00    -0.075 A 
ATOM      2  C2  N4B d   1       0.015   1.394  -0.269  0.00  0.00     0.002 A 
ATOM      3  C3  N4B d   1       0.521   2.206  -1.253  0.00  0.00     0.002 A 
ATOM      4  C4  N4B d   1       0.523   3.581  -1.074  0.00  0.00    -0.004 A 
ATOM      5  C5  N4B d   1       0.065   4.117   0.094  0.00  0.00     0.002 A 
ATOM      6  C6  N4B d   1      -0.443   3.313   1.094  0.00  0.00     0.002 A 
ENDROOT
BRANCH   1   7
ATOM      7  C1' N4B d   1      -1.124   1.117   1.996  0.00  0.00     0.057 C 
BRANCH   7   8
ATOM      8  C2' N4B d   1      -1.214  -0.326   1.510  0.00  0.00     0.009 C 
BRANCH   8   9
ATOM      9  C3' N4B d   1      -0.336  -1.257   2.329  0.00  0.00     0.004 C 
ATOM     10  C4' N4B d   1       1.108  -1.196   1.928  0.00  0.00     0.003 C 
ENDBRANCH   8   9
ENDBRANCH   7   8
ENDBRANCH   1   7
TORSDOF 3
ENDMDL
