MODEL 1
REMARK minimizedAffinity 3.89522004
REMARK minimizedRMSD -1
REMARK  2 active torsions:
REMARK  status: ('A' for Active; 'I' for Inactive)
REMARK    1  A    between atoms: C1_2  and  C2_3 
REMARK    2  A    between atoms: C2_3  and  C3_4 
ROOT
ATOM      1  C3  UNL d   1       4.955  -5.330  -3.663  0.00  0.00    -0.075 A 
ATOM      2  C4  UNL d   1       5.459  -5.768  -4.896  0.00  0.00     0.002 A 
ATOM      3  C5  UNL d   1       4.600  -6.000  -5.971  0.00  0.00     0.002 A 
ATOM      4  C6  UNL d   1       3.228  -5.806  -5.824  0.00  0.00    -0.004 A 
ATOM      5  C7  UNL d   1       2.714  -5.387  -4.599  0.00  0.00     0.002 A 
ATOM      6  C8  UNL d   1       3.572  -5.150  -3.523  0.00  0.00     0.002 A 
ENDROOT
BRANCH   1   7
ATOM      7  C2  UNL d   1       5.882  -5.049  -2.505  0.00  0.00     0.056 C 
BRANCH   7   8
ATOM      8  C1  UNL d   1       5.933  -3.575  -2.090  0.00  0.00     0.007 C 
ATOM      9  C   UNL d   1       5.946  -2.618  -3.274  0.00  0.00     0.009 C 
ENDBRANCH   7   8
ENDBRANCH   1   7
TORSDOF 2
ENDMDL
