MODEL 1
REMARK minimizedAffinity 1.66606545
REMARK minimizedRMSD -1
REMARK  2 active torsions:
REMARK  status: ('A' for Active; 'I' for Inactive)
REMARK    1  A    between atoms: C1_2  and  C2_3 
REMARK    2  A    between atoms: C2_3  and  C3_4 
ROOT
ATOM      1  C3  UNL d   1      -3.218   3.130  -5.239  0.00  0.00    -0.075 A 
ATOM      2  C4  UNL d   1      -4.045   3.974  -5.993  0.00  0.00     0.002 A 
ATOM      3  C5  UNL d   1      -5.428   3.789  -6.000  0.00  0.00     0.002 A 
ATOM      4  C6  UNL d   1      -5.999   2.754  -5.262  0.00  0.00    -0.004 A 
ATOM      5  C7  UNL d   1      -5.185   1.900  -4.522  0.00  0.00     0.002 A 
ATOM      6  C8  UNL d   1      -3.802   2.085  -4.510  0.00  0.00     0.002 A 
ENDROOT
BRANCH   1   7
ATOM      7  C2  UNL d   1      -1.723   3.343  -5.204  0.00  0.00     0.056 C 
BRANCH   7   8
ATOM      8  C1  UNL d   1      -1.125   3.339  -3.793  0.00  0.00     0.007 C 
ATOM      9  C   UNL d   1      -0.401   2.043  -3.452  0.00  0.00     0.009 C 
ENDBRANCH   7   8
ENDBRANCH   1   7
TORSDOF 2
ENDMDL
