MODEL 1
REMARK minimizedAffinity 9.64548111
REMARK minimizedRMSD -1
REMARK  2 active torsions:
REMARK  status: ('A' for Active; 'I' for Inactive)
REMARK    1  A    between atoms: C1_2  and  C2_3 
REMARK    2  A    between atoms: C2_3  and  C3_4 
ROOT
ATOM      1  C3  UNL d   1       3.686   2.196   3.765  0.00  0.00    -0.075 A 
ATOM      2  C4  UNL d   1       4.854   1.427   3.660  0.00  0.00     0.002 A 
ATOM      3  C5  UNL d   1       6.000   1.779   4.375  0.00  0.00     0.002 A 
ATOM      4  C6  UNL d   1       5.995   2.906   5.193  0.00  0.00    -0.004 A 
ATOM      5  C7  UNL d   1       4.846   3.687   5.291  0.00  0.00     0.002 A 
ATOM      6  C8  UNL d   1       3.696   3.335   4.581  0.00  0.00     0.002 A 
ENDROOT
BRANCH   1   7
ATOM      7  C2  UNL d   1       2.434   1.804   3.018  0.00  0.00     0.056 C 
BRANCH   7   8
ATOM      8  C1  UNL d   1       2.596   1.787   1.494  0.00  0.00     0.007 C 
ATOM      9  C   UNL d   1       1.276   1.922   0.748  0.00  0.00     0.009 C 
ENDBRANCH   7   8
ENDBRANCH   1   7
TORSDOF 2
ENDMDL
