MODEL 1
REMARK minimizedAffinity 4.25595951
REMARK minimizedRMSD -1
REMARK  2 active torsions:
REMARK  status: ('A' for Active; 'I' for Inactive)
REMARK    1  A    between atoms: C1_2  and  C2_3 
REMARK    2  A    between atoms: C2_3  and  C3_4 
ROOT
ATOM      1  C3  UNL d   1       0.769   2.282   1.951  0.00  0.00    -0.075 A 
ATOM      2  C4  UNL d   1       1.377   2.003   0.718  0.00  0.00     0.002 A 
ATOM      3  C5  UNL d   1       2.724   1.644   0.658  0.00  0.00     0.002 A 
ATOM      4  C6  UNL d   1       3.481   1.569   1.825  0.00  0.00    -0.004 A 
ATOM      5  C7  UNL d   1       2.892   1.860   3.053  0.00  0.00     0.002 A 
ATOM      6  C8  UNL d   1       1.543   2.215   3.117  0.00  0.00     0.002 A 
ENDROOT
BRANCH   1   7
ATOM      7  C2  UNL d   1      -0.695   2.642   2.026  0.00  0.00     0.056 C 
BRANCH   7   8
ATOM      8  C1  UNL d   1      -1.307   2.478   3.422  0.00  0.00     0.007 C 
ATOM      9  C   UNL d   1      -1.815   3.787   4.012  0.00  0.00     0.009 C 
ENDBRANCH   7   8
ENDBRANCH   1   7
TORSDOF 2
ENDMDL
