MODEL 1
REMARK minimizedAffinity 9.07728958
REMARK minimizedRMSD -1
REMARK  2 active torsions:
REMARK  status: ('A' for Active; 'I' for Inactive)
REMARK    1  A    between atoms: C1_2  and  C2_3 
REMARK    2  A    between atoms: C2_3  and  C3_4 
ROOT
ATOM      1  C3  UNL d   1       3.843   3.139   3.799  0.00  0.00    -0.075 A 
ATOM      2  C4  UNL d   1       4.668   4.272   3.753  0.00  0.00     0.002 A 
ATOM      3  C5  UNL d   1       4.704   5.166   4.823  0.00  0.00     0.002 A 
ATOM      4  C6  UNL d   1       3.910   4.945   5.947  0.00  0.00    -0.004 A 
ATOM      5  C7  UNL d   1       3.075   3.832   5.996  0.00  0.00     0.002 A 
ATOM      6  C8  UNL d   1       3.040   2.933   4.929  0.00  0.00     0.002 A 
ENDROOT
BRANCH   1   7
ATOM      7  C2  UNL d   1       3.822   2.152   2.657  0.00  0.00     0.056 C 
BRANCH   7   8
ATOM      8  C1  UNL d   1       2.428   1.603   2.333  0.00  0.00     0.007 C 
ATOM      9  C   UNL d   1       1.926   2.016   0.956  0.00  0.00     0.009 C 
ENDBRANCH   7   8
ENDBRANCH   1   7
TORSDOF 2
ENDMDL
