MODEL 1
REMARK minimizedAffinity 9.608531
REMARK minimizedRMSD -1
REMARK  2 active torsions:
REMARK  status: ('A' for Active; 'I' for Inactive)
REMARK    1  A    between atoms: C1_2  and  C2_3 
REMARK    2  A    between atoms: C2_3  and  C3_4 
ROOT
ATOM      1  C3  UNL d   1       2.269   1.383   0.384  0.00  0.00    -0.075 A 
ATOM      2  C4  UNL d   1       3.168   0.366   0.030  0.00  0.00     0.002 A 
ATOM      3  C5  UNL d   1       4.191   0.612  -0.886  0.00  0.00     0.002 A 
ATOM      4  C6  UNL d   1       4.323   1.871  -1.466  0.00  0.00    -0.004 A 
ATOM      5  C7  UNL d   1       3.426   2.885  -1.135  0.00  0.00     0.002 A 
ATOM      6  C8  UNL d   1       2.404   2.643  -0.215  0.00  0.00     0.002 A 
ENDROOT
BRANCH   1   7
ATOM      7  C2  UNL d   1       1.178   1.132   1.396  0.00  0.00     0.056 C 
BRANCH   7   8
ATOM      8  C1  UNL d   1      -0.219   1.546   0.923  0.00  0.00     0.007 C 
ATOM      9  C   UNL d   1      -1.214   1.714   2.063  0.00  0.00     0.009 C 
ENDBRANCH   7   8
ENDBRANCH   1   7
TORSDOF 2
ENDMDL
