MODEL 1
REMARK minimizedAffinity 4.74961519
REMARK minimizedRMSD -1
REMARK  2 active torsions:
REMARK  status: ('A' for Active; 'I' for Inactive)
REMARK    1  A    between atoms: C1_2  and  C2_3 
REMARK    2  A    between atoms: C2_3  and  C3_4 
ROOT
ATOM      1  C3  UNL d   1       3.558  -5.503  -5.222  0.00  0.00    -0.075 A 
ATOM      2  C4  UNL d   1       2.467  -5.924  -5.995  0.00  0.00     0.002 A 
ATOM      3  C5  UNL d   1       1.189  -5.995  -5.438  0.00  0.00     0.002 A 
ATOM      4  C6  UNL d   1       0.989  -5.655  -4.102  0.00  0.00    -0.004 A 
ATOM      5  C7  UNL d   1       2.069  -5.251  -3.320  0.00  0.00     0.002 A 
ATOM      6  C8  UNL d   1       3.347  -5.176  -3.876  0.00  0.00     0.002 A 
ENDROOT
BRANCH   1   7
ATOM      7  C2  UNL d   1       4.938  -5.396  -5.827  0.00  0.00     0.056 C 
BRANCH   7   8
ATOM      8  C1  UNL d   1       6.000  -4.853  -4.865  0.00  0.00     0.007 C 
ATOM      9  C   UNL d   1       5.787  -3.391  -4.498  0.00  0.00     0.009 C 
ENDBRANCH   7   8
ENDBRANCH   1   7
TORSDOF 2
ENDMDL
