MODEL 1
REMARK minimizedAffinity -0.553340912
REMARK minimizedRMSD -1
REMARK  2 active torsions:
REMARK  status: ('A' for Active; 'I' for Inactive)
REMARK    1  A    between atoms: C1_2  and  C2_3 
REMARK    2  A    between atoms: C2_3  and  C3_4 
ROOT
ATOM      1  C3  UNL d   1       4.520  -4.943  -4.462  0.00  0.00    -0.075 A 
ATOM      2  C4  UNL d   1       3.472  -4.783  -3.543  0.00  0.00     0.002 A 
ATOM      3  C5  UNL d   1       2.189  -5.239  -3.846  0.00  0.00     0.002 A 
ATOM      4  C6  UNL d   1       1.935  -5.850  -5.072  0.00  0.00    -0.004 A 
ATOM      5  C7  UNL d   1       2.964  -5.998  -5.999  0.00  0.00     0.002 A 
ATOM      6  C8  UNL d   1       4.250  -5.547  -5.697  0.00  0.00     0.002 A 
ENDROOT
BRANCH   1   7
ATOM      7  C2  UNL d   1       5.917  -4.478  -4.128  0.00  0.00     0.056 C 
BRANCH   7   8
ATOM      8  C1  UNL d   1       5.997  -3.018  -3.671  0.00  0.00     0.007 C 
ATOM      9  C   UNL d   1       6.000  -2.862  -2.157  0.00  0.00     0.009 C 
ENDBRANCH   7   8
ENDBRANCH   1   7
TORSDOF 2
ENDMDL
