MODEL 1
REMARK minimizedAffinity 12.7064962
REMARK minimizedRMSD -1
REMARK  2 active torsions:
REMARK  status: ('A' for Active; 'I' for Inactive)
REMARK    1  A    between atoms: C1_2  and  C2_3 
REMARK    2  A    between atoms: C2_3  and  C3_4 
ROOT
ATOM      1  C3  UNL d   1       5.242  -3.894  -4.775  0.00  0.00    -0.075 A 
ATOM      2  C4  UNL d   1       3.840  -3.897  -4.810  0.00  0.00     0.002 A 
ATOM      3  C5  UNL d   1       3.148  -4.947  -5.415  0.00  0.00     0.002 A 
ATOM      4  C6  UNL d   1       3.848  -6.000  -6.000  0.00  0.00    -0.004 A 
ATOM      5  C7  UNL d   1       5.241  -5.999  -5.985  0.00  0.00     0.002 A 
ATOM      6  C8  UNL d   1       5.935  -4.952  -5.377  0.00  0.00     0.002 A 
ENDROOT
BRANCH   1   7
ATOM      7  C2  UNL d   1       5.996  -2.775  -4.096  0.00  0.00     0.056 C 
BRANCH   7   8
ATOM      8  C1  UNL d   1       5.188  -2.043  -3.019  0.00  0.00     0.007 C 
ATOM      9  C   UNL d   1       5.994  -0.983  -2.281  0.00  0.00     0.009 C 
ENDBRANCH   7   8
ENDBRANCH   1   7
TORSDOF 2
ENDMDL
