MODEL 1
REMARK minimizedAffinity 15.2106018
REMARK minimizedRMSD -1
REMARK  2 active torsions:
REMARK  status: ('A' for Active; 'I' for Inactive)
REMARK    1  A    between atoms: C1_2  and  C2_3 
REMARK    2  A    between atoms: C2_3  and  C3_4 
ROOT
ATOM      1  C3  UNL d   1      -2.270  -3.881   2.761  0.00  0.00    -0.075 A 
ATOM      2  C4  UNL d   1      -1.838  -3.693   4.082  0.00  0.00     0.002 A 
ATOM      3  C5  UNL d   1      -2.111  -4.651   5.059  0.00  0.00     0.002 A 
ATOM      4  C6  UNL d   1      -2.825  -5.801   4.731  0.00  0.00    -0.004 A 
ATOM      5  C7  UNL d   1      -3.273  -5.991   3.426  0.00  0.00     0.002 A 
ATOM      6  C8  UNL d   1      -2.998  -5.036   2.445  0.00  0.00     0.002 A 
ENDROOT
BRANCH   1   7
ATOM      7  C2  UNL d   1      -1.953  -2.863   1.692  0.00  0.00     0.056 C 
BRANCH   7   8
ATOM      8  C1  UNL d   1      -1.049  -3.393   0.574  0.00  0.00     0.007 C 
ATOM      9  C   UNL d   1      -1.779  -3.581  -0.750  0.00  0.00     0.009 C 
ENDBRANCH   7   8
ENDBRANCH   1   7
TORSDOF 2
ENDMDL
