MODEL 1
REMARK minimizedAffinity 6.48979998
REMARK minimizedRMSD -1
REMARK  2 active torsions:
REMARK  status: ('A' for Active; 'I' for Inactive)
REMARK    1  A    between atoms: C1_2  and  C2_3 
REMARK    2  A    between atoms: C2_3  and  C3_4 
ROOT
ATOM      1  C3  UNL d   1       3.435  -5.341  -5.346  0.00  0.00    -0.075 A 
ATOM      2  C4  UNL d   1       4.510  -5.998  -5.962  0.00  0.00     0.002 A 
ATOM      3  C5  UNL d   1       5.785  -5.433  -5.950  0.00  0.00     0.002 A 
ATOM      4  C6  UNL d   1       6.000  -4.202  -5.332  0.00  0.00    -0.004 A 
ATOM      5  C7  UNL d   1       4.935  -3.533  -4.732  0.00  0.00     0.002 A 
ATOM      6  C8  UNL d   1       3.659  -4.099  -4.738  0.00  0.00     0.002 A 
ENDROOT
BRANCH   1   7
ATOM      7  C2  UNL d   1       2.058  -5.962  -5.329  0.00  0.00     0.056 C 
BRANCH   7   8
ATOM      8  C1  UNL d   1       1.364  -5.904  -3.964  0.00  0.00     0.007 C 
ATOM      9  C   UNL d   1       1.896  -4.795  -3.066  0.00  0.00     0.009 C 
ENDBRANCH   7   8
ENDBRANCH   1   7
TORSDOF 2
ENDMDL
