MODEL 1
REMARK minimizedAffinity 7.73932171
REMARK minimizedRMSD -1
REMARK  2 active torsions:
REMARK  status: ('A' for Active; 'I' for Inactive)
REMARK    1  A    between atoms: C1_2  and  C2_3 
REMARK    2  A    between atoms: C2_3  and  C3_4 
ROOT
ATOM      1  C3  UNL d   1       4.463   2.226  -3.744  0.00  0.00    -0.075 A 
ATOM      2  C4  UNL d   1       5.593   3.056  -3.740  0.00  0.00     0.002 A 
ATOM      3  C5  UNL d   1       5.896   3.846  -4.849  0.00  0.00     0.002 A 
ATOM      4  C6  UNL d   1       5.081   3.808  -5.979  0.00  0.00    -0.004 A 
ATOM      5  C7  UNL d   1       3.965   2.974  -6.000  0.00  0.00     0.002 A 
ATOM      6  C8  UNL d   1       3.657   2.187  -4.889  0.00  0.00     0.002 A 
ENDROOT
BRANCH   1   7
ATOM      7  C2  UNL d   1       4.113   1.392  -2.535  0.00  0.00     0.056 C 
BRANCH   7   8
ATOM      8  C1  UNL d   1       4.086   2.179  -1.220  0.00  0.00     0.007 C 
ATOM      9  C   UNL d   1       2.792   1.997  -0.438  0.00  0.00     0.009 C 
ENDBRANCH   7   8
ENDBRANCH   1   7
TORSDOF 2
ENDMDL
