MODEL 1
REMARK minimizedAffinity 13.2983961
REMARK minimizedRMSD -1
REMARK  2 active torsions:
REMARK  status: ('A' for Active; 'I' for Inactive)
REMARK    1  A    between atoms: C1_2  and  C2_3 
REMARK    2  A    between atoms: C2_3  and  C3_4 
ROOT
ATOM      1  C3  UNL d   1       2.882   1.639  -0.006  0.00  0.00    -0.075 A 
ATOM      2  C4  UNL d   1       1.543   2.056  -0.036  0.00  0.00     0.002 A 
ATOM      3  C5  UNL d   1       0.805   2.153   1.145  0.00  0.00     0.002 A 
ATOM      4  C6  UNL d   1       1.392   1.827   2.365  0.00  0.00    -0.004 A 
ATOM      5  C7  UNL d   1       2.716   1.396   2.404  0.00  0.00     0.002 A 
ATOM      6  C8  UNL d   1       3.458   1.301   1.226  0.00  0.00     0.002 A 
ENDROOT
BRANCH   1   7
ATOM      7  C2  UNL d   1       3.694   1.560  -1.277  0.00  0.00     0.056 C 
BRANCH   7   8
ATOM      8  C1  UNL d   1       4.498   2.828  -1.583  0.00  0.00     0.007 C 
ATOM      9  C   UNL d   1       6.000   2.586  -1.646  0.00  0.00     0.009 C 
ENDBRANCH   7   8
ENDBRANCH   1   7
TORSDOF 2
ENDMDL
