MODEL 1
REMARK minimizedAffinity 15.8020058
REMARK minimizedRMSD -1
REMARK  2 active torsions:
REMARK  status: ('A' for Active; 'I' for Inactive)
REMARK    1  A    between atoms: C1_2  and  C2_3 
REMARK    2  A    between atoms: C2_3  and  C3_4 
ROOT
ATOM      1  C3  UNL d   1      -2.059  -3.577   0.099  0.00  0.00    -0.075 A 
ATOM      2  C4  UNL d   1      -2.252  -4.808   0.743  0.00  0.00     0.002 A 
ATOM      3  C5  UNL d   1      -1.873  -5.999   0.123  0.00  0.00     0.002 A 
ATOM      4  C6  UNL d   1      -1.307  -5.975  -1.150  0.00  0.00    -0.004 A 
ATOM      5  C7  UNL d   1      -1.126  -4.760  -1.806  0.00  0.00     0.002 A 
ATOM      6  C8  UNL d   1      -1.500  -3.566  -1.186  0.00  0.00     0.002 A 
ENDROOT
BRANCH   1   7
ATOM      7  C2  UNL d   1      -2.441  -2.282   0.777  0.00  0.00     0.056 C 
BRANCH   7   8
ATOM      8  C1  UNL d   1      -1.541  -1.909   1.960  0.00  0.00     0.007 C 
ATOM      9  C   UNL d   1      -1.620  -0.434   2.332  0.00  0.00     0.009 C 
ENDBRANCH   7   8
ENDBRANCH   1   7
TORSDOF 2
ENDMDL
