MODEL 1
REMARK minimizedAffinity 14.9866047
REMARK minimizedRMSD -1
REMARK  2 active torsions:
REMARK  status: ('A' for Active; 'I' for Inactive)
REMARK    1  A    between atoms: C1_2  and  C2_3 
REMARK    2  A    between atoms: C2_3  and  C3_4 
ROOT
ATOM      1  C3  UNL d   1       2.388   2.250   2.291  0.00  0.00    -0.075 A 
ATOM      2  C4  UNL d   1       1.086   1.853   2.632  0.00  0.00     0.002 A 
ATOM      3  C5  UNL d   1       0.080   1.823   1.666  0.00  0.00     0.002 A 
ATOM      4  C6  UNL d   1       0.358   2.196   0.353  0.00  0.00    -0.004 A 
ATOM      5  C7  UNL d   1       1.643   2.608   0.007  0.00  0.00     0.002 A 
ATOM      6  C8  UNL d   1       2.654   2.635   0.970  0.00  0.00     0.002 A 
ENDROOT
BRANCH   1   7
ATOM      7  C2  UNL d   1       3.489   2.257   3.325  0.00  0.00     0.056 C 
BRANCH   7   8
ATOM      8  C1  UNL d   1       4.778   1.566   2.868  0.00  0.00     0.007 C 
ATOM      9  C   UNL d   1       5.999   1.976   3.680  0.00  0.00     0.009 C 
ENDBRANCH   7   8
ENDBRANCH   1   7
TORSDOF 2
ENDMDL
