MODEL 1
REMARK minimizedAffinity 12.9984913
REMARK minimizedRMSD -1
REMARK  2 active torsions:
REMARK  status: ('A' for Active; 'I' for Inactive)
REMARK    1  A    between atoms: C1_2  and  C2_3 
REMARK    2  A    between atoms: C2_3  and  C3_4 
ROOT
ATOM      1  C3  UNL d   1       0.852   2.062   1.512  0.00  0.00    -0.075 A 
ATOM      2  C4  UNL d   1       1.811   2.145   2.532  0.00  0.00     0.002 A 
ATOM      3  C5  UNL d   1       3.172   2.122   2.227  0.00  0.00     0.002 A 
ATOM      4  C6  UNL d   1       3.591   2.005   0.904  0.00  0.00    -0.004 A 
ATOM      5  C7  UNL d   1       2.647   1.905  -0.116  0.00  0.00     0.002 A 
ATOM      6  C8  UNL d   1       1.284   1.933   0.186  0.00  0.00     0.002 A 
ENDROOT
BRANCH   1   7
ATOM      7  C2  UNL d   1      -0.623   2.116   1.832  0.00  0.00     0.056 C 
BRANCH   7   8
ATOM      8  C1  UNL d   1      -1.463   2.852   0.783  0.00  0.00     0.007 C 
ATOM      9  C   UNL d   1      -2.950   2.538   0.875  0.00  0.00     0.009 C 
ENDBRANCH   7   8
ENDBRANCH   1   7
TORSDOF 2
ENDMDL
