MODEL 1
REMARK minimizedAffinity -0.260942161
REMARK minimizedRMSD -1
REMARK  2 active torsions:
REMARK  status: ('A' for Active; 'I' for Inactive)
REMARK    1  A    between atoms: C1_2  and  C2_3 
REMARK    2  A    between atoms: C2_3  and  C3_4 
ROOT
ATOM      1  C3  UNL d   1       1.121   0.950   0.286  0.00  0.00    -0.075 A 
ATOM      2  C4  UNL d   1      -0.051   1.276   0.984  0.00  0.00     0.002 A 
ATOM      3  C5  UNL d   1       0.003   2.075   2.126  0.00  0.00     0.002 A 
ATOM      4  C6  UNL d   1       1.227   2.550   2.590  0.00  0.00    -0.004 A 
ATOM      5  C7  UNL d   1       2.400   2.219   1.915  0.00  0.00     0.002 A 
ATOM      6  C8  UNL d   1       2.349   1.423   0.769  0.00  0.00     0.002 A 
ENDROOT
BRANCH   1   7
ATOM      7  C2  UNL d   1       1.067   0.110  -0.967  0.00  0.00     0.056 C 
BRANCH   7   8
ATOM      8  C1  UNL d   1       2.029   0.569  -2.068  0.00  0.00     0.007 C 
ATOM      9  C   UNL d   1       1.470   0.378  -3.472  0.00  0.00     0.009 C 
ENDBRANCH   7   8
ENDBRANCH   1   7
TORSDOF 2
ENDMDL
