MODEL 1
REMARK minimizedAffinity -3.51632953
REMARK minimizedRMSD -1
REMARK  0 active torsions:
REMARK  status: ('A' for Active; 'I' for Inactive)
ROOT
ATOM      1  N1  IND d   1       0.554  -2.329  -0.667  0.00  0.00    -0.196 N 
ATOM      2  C2  IND d   1      -0.064  -3.096   0.281  0.00  0.00     0.054 A 
ATOM      3  C3  IND d   1      -0.834  -2.325   1.081  0.00  0.00    -0.031 A 
ATOM      4  C4  IND d   1      -1.308   0.202   0.953  0.00  0.00     0.051 A 
ATOM      5  C5  IND d   1      -0.943   1.334   0.279  0.00  0.00    -0.031 A 
ATOM      6  C6  IND d   1      -0.044   1.301  -0.768  0.00  0.00     0.015 A 
ATOM      7  C7  IND d   1       0.517   0.129  -1.188  0.00  0.00    -0.016 A 
ATOM      8  C8  IND d   1       0.154  -1.021  -0.502  0.00  0.00    -0.047 A 
ATOM      9  C9  IND d   1      -0.725  -0.988   0.589  0.00  0.00    -0.096 A 
ATOM     10  HN1 IND d   1       1.101  -2.615  -1.265  0.00  0.00     0.298 HD
ENDROOT
TORSDOF 0
ENDMDL
