MODEL 1
REMARK minimizedAffinity -3.04134178
REMARK minimizedRMSD -1
REMARK  0 active torsions:
REMARK  status: ('A' for Active; 'I' for Inactive)
ROOT
ATOM      1  N1  IND d   1      -0.616   0.736   0.004  0.00  0.00    -0.196 N 
ATOM      2  C2  IND d   1       0.034   1.294  -1.062  0.00  0.00     0.054 A 
ATOM      3  C3  IND d   1       0.871   0.395  -1.626  0.00  0.00    -0.031 A 
ATOM      4  C4  IND d   1       1.258  -2.079  -1.028  0.00  0.00     0.051 A 
ATOM      5  C5  IND d   1       0.920  -3.030  -0.107  0.00  0.00    -0.031 A 
ATOM      6  C6  IND d   1       0.032  -2.770   0.917  0.00  0.00     0.015 A 
ATOM      7  C7  IND d   1      -0.561  -1.547   1.052  0.00  0.00    -0.016 A 
ATOM      8  C8  IND d   1      -0.215  -0.577   0.123  0.00  0.00    -0.047 A 
ATOM      9  C9  IND d   1       0.718  -0.822  -0.893  0.00  0.00    -0.096 A 
ATOM     10  HN1 IND d   1      -1.180   1.137   0.513  0.00  0.00     0.298 HD
ENDROOT
TORSDOF 0
ENDMDL
