MODEL 1
REMARK minimizedAffinity -0.786357045
REMARK minimizedRMSD -1
REMARK  0 active torsions:
REMARK  status: ('A' for Active; 'I' for Inactive)
ROOT
ATOM      1  N1  IND d   1       0.709   0.715  -1.244  0.00  0.00    -0.196 N 
ATOM      2  C2  IND d   1       0.446   1.962  -0.749  0.00  0.00     0.054 A 
ATOM      3  C3  IND d   1      -0.375   1.879   0.322  0.00  0.00    -0.031 A 
ATOM      4  C4  IND d   1      -1.327  -0.206   1.495  0.00  0.00     0.051 A 
ATOM      5  C5  IND d   1      -1.395  -1.566   1.385  0.00  0.00    -0.031 A 
ATOM      6  C6  IND d   1      -0.750  -2.250   0.375  0.00  0.00     0.015 A 
ATOM      7  C7  IND d   1      -0.000  -1.596  -0.561  0.00  0.00    -0.016 A 
ATOM      8  C8  IND d   1       0.066  -0.214  -0.457  0.00  0.00    -0.047 A 
ATOM      9  C9  IND d   1      -0.621   0.489   0.541  0.00  0.00    -0.096 A 
ATOM     10  HN1 IND d   1       1.195   0.541  -1.932  0.00  0.00     0.298 HD
ENDROOT
TORSDOF 0
ENDMDL
