MODEL 1
REMARK minimizedAffinity -3.11426687
REMARK minimizedRMSD -1
REMARK  0 active torsions:
REMARK  status: ('A' for Active; 'I' for Inactive)
ROOT
ATOM      1  N1  IND d   1       1.516   0.494  -0.455  0.00  0.00    -0.196 N 
ATOM      2  C2  IND d   1       0.930   1.673  -0.087  0.00  0.00     0.054 A 
ATOM      3  C3  IND d   1      -0.262   1.440   0.507  0.00  0.00    -0.031 A 
ATOM      4  C4  IND d   1      -1.398  -0.800   1.071  0.00  0.00     0.051 A 
ATOM      5  C5  IND d   1      -1.265  -2.149   0.898  0.00  0.00    -0.031 A 
ATOM      6  C6  IND d   1      -0.174  -2.697   0.255  0.00  0.00     0.015 A 
ATOM      7  C7  IND d   1       0.834  -1.914  -0.232  0.00  0.00    -0.016 A 
ATOM      8  C8  IND d   1       0.698  -0.543  -0.064  0.00  0.00    -0.047 A 
ATOM      9  C9  IND d   1      -0.427   0.022   0.550  0.00  0.00    -0.096 A 
ATOM     10  HN1 IND d   1       2.269   0.414  -0.863  0.00  0.00     0.298 HD
ENDROOT
TORSDOF 0
ENDMDL
