MODEL 1
REMARK minimizedAffinity -2.10164762
REMARK minimizedRMSD -1
REMARK  0 active torsions:
REMARK  status: ('A' for Active; 'I' for Inactive)
ROOT
ATOM      1  N1  IND d   1      -0.971   0.779   0.404  0.00  0.00    -0.196 N 
ATOM      2  C2  IND d   1       0.360   0.960   0.153  0.00  0.00     0.054 A 
ATOM      3  C3  IND d   1       0.999  -0.231   0.123  0.00  0.00    -0.031 A 
ATOM      4  C4  IND d   1       0.039  -2.608   0.359  0.00  0.00     0.051 A 
ATOM      5  C5  IND d   1      -1.118  -3.280   0.637  0.00  0.00    -0.031 A 
ATOM      6  C6  IND d   1      -2.311  -2.620   0.853  0.00  0.00     0.015 A 
ATOM      7  C7  IND d   1      -2.393  -1.258   0.788  0.00  0.00    -0.016 A 
ATOM      8  C8  IND d   1      -1.218  -0.572   0.513  0.00  0.00    -0.047 A 
ATOM      9  C9  IND d   1       0.004  -1.234   0.335  0.00  0.00    -0.096 A 
ATOM     10  HN1 IND d   1      -1.557   1.404   0.482  0.00  0.00     0.298 HD
ENDROOT
TORSDOF 0
ENDMDL
