MODEL 1
REMARK minimizedAffinity -1.98587227
REMARK minimizedRMSD -1
REMARK  0 active torsions:
REMARK  status: ('A' for Active; 'I' for Inactive)
ROOT
ATOM      1  N1  IND d   1       0.821   0.362  -0.166  0.00  0.00    -0.196 N 
ATOM      2  C2  IND d   1       0.019   1.173   0.588  0.00  0.00     0.054 A 
ATOM      3  C3  IND d   1      -1.007   0.464   1.111  0.00  0.00    -0.031 A 
ATOM      4  C4  IND d   1      -1.508  -2.055   0.945  0.00  0.00     0.051 A 
ATOM      5  C5  IND d   1      -1.079  -3.201   0.335  0.00  0.00    -0.031 A 
ATOM      6  C6  IND d   1       0.029  -3.218  -0.488  0.00  0.00     0.015 A 
ATOM      7  C7  IND d   1       0.759  -2.088  -0.723  0.00  0.00    -0.016 A 
ATOM      8  C8  IND d   1       0.323  -0.922  -0.111  0.00  0.00    -0.047 A 
ATOM      9  C9  IND d   1      -0.826  -0.889   0.691  0.00  0.00    -0.096 A 
ATOM     10  HN1 IND d   1       1.519   0.611  -0.601  0.00  0.00     0.298 HD
ENDROOT
TORSDOF 0
ENDMDL
