MODEL 1
REMARK minimizedAffinity -3.22935224
REMARK minimizedRMSD -1
REMARK  0 active torsions:
REMARK  status: ('A' for Active; 'I' for Inactive)
ROOT
ATOM      1  N1  IND d   1      -0.401  -1.432   1.321  0.00  0.00    -0.196 N 
ATOM      2  C2  IND d   1      -0.046  -2.735   1.109  0.00  0.00     0.054 A 
ATOM      3  C3  IND d   1       0.427  -2.896  -0.147  0.00  0.00    -0.031 A 
ATOM      4  C4  IND d   1       0.802  -1.139  -1.991  0.00  0.00     0.051 A 
ATOM      5  C5  IND d   1       0.594   0.181  -2.280  0.00  0.00    -0.031 A 
ATOM      6  C6  IND d   1       0.034   1.048  -1.364  0.00  0.00     0.015 A 
ATOM      7  C7  IND d   1      -0.329   0.629  -0.115  0.00  0.00    -0.016 A 
ATOM      8  C8  IND d   1      -0.125  -0.712   0.179  0.00  0.00    -0.047 A 
ATOM      9  C9  IND d   1       0.403  -1.606  -0.761  0.00  0.00    -0.096 A 
ATOM     10  HN1 IND d   1      -0.740  -1.116   2.045  0.00  0.00     0.298 HD
ENDROOT
TORSDOF 0
ENDMDL
