MODEL 1
REMARK minimizedAffinity -6.82074928
REMARK minimizedRMSD -1
REMARK  0 active torsions:
REMARK  status: ('A' for Active; 'I' for Inactive)
ROOT
ATOM      1  N1  IND d   1      -0.275  -1.325   1.395  0.00  0.00    -0.196 N 
ATOM      2  C2  IND d   1      -0.187  -2.680   1.239  0.00  0.00     0.054 A 
ATOM      3  C3  IND d   1      -0.002  -2.993  -0.063  0.00  0.00    -0.031 A 
ATOM      4  C4  IND d   1       0.287  -1.437  -2.094  0.00  0.00     0.051 A 
ATOM      5  C5  IND d   1       0.246  -0.119  -2.456  0.00  0.00    -0.031 A 
ATOM      6  C6  IND d   1       0.028   0.884  -1.534  0.00  0.00     0.015 A 
ATOM      7  C7  IND d   1      -0.147   0.607  -0.207  0.00  0.00    -0.016 A 
ATOM      8  C8  IND d   1      -0.113  -0.730   0.163  0.00  0.00    -0.047 A 
ATOM      9  C9  IND d   1       0.066  -1.756  -0.775  0.00  0.00    -0.096 A 
ATOM     10  HN1 IND d   1      -0.408  -0.913   2.138  0.00  0.00     0.298 HD
ENDROOT
TORSDOF 0
ENDMDL
