MODEL 1
REMARK minimizedAffinity -3.73586035
REMARK minimizedRMSD -1
REMARK  0 active torsions:
REMARK  status: ('A' for Active; 'I' for Inactive)
ROOT
ATOM      1  N1  IND d   1       0.229   1.762   1.266  0.00  0.00    -0.196 N 
ATOM      2  C2  IND d   1       1.141   2.288   0.394  0.00  0.00     0.054 A 
ATOM      3  C3  IND d   1       1.556   1.343  -0.479  0.00  0.00    -0.031 A 
ATOM      4  C4  IND d   1       0.795  -1.104  -0.725  0.00  0.00     0.051 A 
ATOM      5  C5  IND d   1       0.007  -2.052  -0.135  0.00  0.00    -0.031 A 
ATOM      6  C6  IND d   1      -0.766  -1.770   0.974  0.00  0.00     0.015 A 
ATOM      7  C7  IND d   1      -0.787  -0.521   1.528  0.00  0.00    -0.016 A 
ATOM      8  C8  IND d   1       0.018   0.441   0.935  0.00  0.00    -0.047 A 
ATOM      9  C9  IND d   1       0.836   0.150  -0.164  0.00  0.00    -0.096 A 
ATOM     10  HN1 IND d   1      -0.149   2.185   1.912  0.00  0.00     0.298 HD
ENDROOT
TORSDOF 0
ENDMDL
