MODEL 1
REMARK minimizedAffinity -3.93494415
REMARK minimizedRMSD -1
REMARK  0 active torsions:
REMARK  status: ('A' for Active; 'I' for Inactive)
ROOT
ATOM      1  N1  IND d   1       0.288  -0.115  -2.491  0.00  0.00    -0.196 N 
ATOM      2  C2  IND d   1      -0.036   1.134  -2.041  0.00  0.00     0.054 A 
ATOM      3  C3  IND d   1      -0.276   1.107  -0.710  0.00  0.00    -0.031 A 
ATOM      4  C4  IND d   1      -0.094  -0.856   0.945  0.00  0.00     0.051 A 
ATOM      5  C5  IND d   1       0.133  -2.203   0.998  0.00  0.00    -0.031 A 
ATOM      6  C6  IND d   1       0.433  -2.936  -0.132  0.00  0.00     0.015 A 
ATOM      7  C7  IND d   1       0.528  -2.346  -1.360  0.00  0.00    -0.016 A 
ATOM      8  C8  IND d   1       0.290  -0.980  -1.419  0.00  0.00    -0.047 A 
ATOM      9  C9  IND d   1      -0.056  -0.238  -0.283  0.00  0.00    -0.096 A 
ATOM     10  HN1 IND d   1       0.462  -0.325  -3.306  0.00  0.00     0.298 HD
ENDROOT
TORSDOF 0
ENDMDL
