MODEL 1
REMARK minimizedAffinity -4.02891874
REMARK minimizedRMSD -1
REMARK  0 active torsions:
REMARK  status: ('A' for Active; 'I' for Inactive)
ROOT
ATOM      1  N1  IND d   1       0.721  -2.632   0.074  0.00  0.00    -0.196 N 
ATOM      2  C2  IND d   1      -0.258  -3.190   0.848  0.00  0.00     0.054 A 
ATOM      3  C3  IND d   1      -1.126  -2.241   1.264  0.00  0.00    -0.031 A 
ATOM      4  C4  IND d   1      -1.190   0.273   0.712  0.00  0.00     0.051 A 
ATOM      5  C5  IND d   1      -0.484   1.254   0.074  0.00  0.00    -0.031 A 
ATOM      6  C6  IND d   1       0.682   0.984  -0.613  0.00  0.00     0.015 A 
ATOM      7  C7  IND d   1       1.182  -0.285  -0.697  0.00  0.00    -0.016 A 
ATOM      8  C8  IND d   1       0.471  -1.283  -0.044  0.00  0.00    -0.047 A 
ATOM      9  C9  IND d   1      -0.690  -1.007   0.690  0.00  0.00    -0.096 A 
ATOM     10  HN1 IND d   1       1.383  -3.053  -0.279  0.00  0.00     0.298 HD
ENDROOT
TORSDOF 0
ENDMDL
