MODEL 1
REMARK minimizedAffinity -3.3413744
REMARK minimizedRMSD -1
REMARK  0 active torsions:
REMARK  status: ('A' for Active; 'I' for Inactive)
ROOT
ATOM      1  N1  IND d   1      -1.394  -2.231   0.877  0.00  0.00    -0.196 N 
ATOM      2  C2  IND d   1      -0.718  -3.202   0.194  0.00  0.00     0.054 A 
ATOM      3  C3  IND d   1       0.211  -2.647  -0.617  0.00  0.00    -0.031 A 
ATOM      4  C4  IND d   1       0.861  -0.173  -0.906  0.00  0.00     0.051 A 
ATOM      5  C5  IND d   1       0.500   1.087  -0.521  0.00  0.00    -0.031 A 
ATOM      6  C6  IND d   1      -0.530   1.311   0.370  0.00  0.00     0.015 A 
ATOM      7  C7  IND d   1      -1.233   0.276   0.920  0.00  0.00    -0.016 A 
ATOM      8  C8  IND d   1      -0.874  -1.005   0.526  0.00  0.00    -0.047 A 
ATOM      9  C9  IND d   1       0.142  -1.235  -0.410  0.00  0.00    -0.096 A 
ATOM     10  HN1 IND d   1      -2.037  -2.363   1.433  0.00  0.00     0.298 HD
ENDROOT
TORSDOF 0
ENDMDL
