MODEL 1
REMARK minimizedAffinity -3.54467964
REMARK minimizedRMSD -1
REMARK  0 active torsions:
REMARK  status: ('A' for Active; 'I' for Inactive)
ROOT
ATOM      1  N1  IND d   1      -0.199   1.013  -0.448  0.00  0.00    -0.196 N 
ATOM      2  C2  IND d   1       0.448   0.732  -1.618  0.00  0.00     0.054 A 
ATOM      3  C3  IND d   1       0.819  -0.568  -1.650  0.00  0.00    -0.031 A 
ATOM      4  C4  IND d   1       0.376  -2.437   0.064  0.00  0.00     0.051 A 
ATOM      5  C5  IND d   1      -0.145  -2.657   1.308  0.00  0.00    -0.031 A 
ATOM      6  C6  IND d   1      -0.725  -1.644   2.044  0.00  0.00     0.015 A 
ATOM      7  C7  IND d   1      -0.816  -0.371   1.557  0.00  0.00    -0.016 A 
ATOM      8  C8  IND d   1      -0.282  -0.143   0.297  0.00  0.00    -0.047 A 
ATOM      9  C9  IND d   1       0.346  -1.157  -0.438  0.00  0.00    -0.096 A 
ATOM     10  HN1 IND d   1      -0.504   1.783  -0.215  0.00  0.00     0.298 HD
ENDROOT
TORSDOF 0
ENDMDL
