MODEL 1
REMARK minimizedAffinity -0.482502043
REMARK minimizedRMSD -1
REMARK  0 active torsions:
REMARK  status: ('A' for Active; 'I' for Inactive)
ROOT
ATOM      1  N1  IND d   1      -1.479  -0.136   0.548  0.00  0.00    -0.196 N 
ATOM      2  C2  IND d   1      -0.691   0.846   0.015  0.00  0.00     0.054 A 
ATOM      3  C3  IND d   1       0.505   0.339  -0.359  0.00  0.00    -0.031 A 
ATOM      4  C4  IND d   1       1.347  -2.092  -0.282  0.00  0.00     0.051 A 
ATOM      5  C5  IND d   1       0.999  -3.339   0.155  0.00  0.00    -0.031 A 
ATOM      6  C6  IND d   1      -0.219  -3.588   0.755  0.00  0.00     0.015 A 
ATOM      7  C7  IND d   1      -1.142  -2.596   0.931  0.00  0.00    -0.016 A 
ATOM      8  C8  IND d   1      -0.789  -1.327   0.495  0.00  0.00    -0.047 A 
ATOM      9  C9  IND d   1       0.462  -1.060  -0.077  0.00  0.00    -0.096 A 
ATOM     10  HN1 IND d   1      -2.271  -0.028   0.863  0.00  0.00     0.298 HD
ENDROOT
TORSDOF 0
ENDMDL
