MODEL 1
REMARK minimizedAffinity -0.146198958
REMARK minimizedRMSD -1
REMARK  0 active torsions:
REMARK  status: ('A' for Active; 'I' for Inactive)
ROOT
ATOM      1  N1  IND d   1       0.185  -1.139  -2.395  0.00  0.00    -0.196 N 
ATOM      2  C2  IND d   1       0.260   0.199  -2.667  0.00  0.00     0.054 A 
ATOM      3  C3  IND d   1      -0.144   0.920  -1.597  0.00  0.00    -0.031 A 
ATOM      4  C4  IND d   1      -0.872   0.114   0.737  0.00  0.00     0.051 A 
ATOM      5  C5  IND d   1      -1.135  -1.020   1.451  0.00  0.00    -0.031 A 
ATOM      6  C6  IND d   1      -0.966  -2.278   0.910  0.00  0.00     0.015 A 
ATOM      7  C7  IND d   1      -0.514  -2.449  -0.368  0.00  0.00    -0.016 A 
ATOM      8  C8  IND d   1      -0.252  -1.299  -1.099  0.00  0.00    -0.047 A 
ATOM      9  C9  IND d   1      -0.463  -0.019  -0.569  0.00  0.00    -0.096 A 
ATOM     10  HN1 IND d   1       0.379  -1.774  -2.942  0.00  0.00     0.298 HD
ENDROOT
TORSDOF 0
ENDMDL
