MODEL 1
REMARK minimizedAffinity -3.61027026
REMARK minimizedRMSD -1
REMARK  0 active torsions:
REMARK  status: ('A' for Active; 'I' for Inactive)
ROOT
ATOM      1  N1  IND d   1       0.338   0.689  -0.920  0.00  0.00    -0.196 N 
ATOM      2  C2  IND d   1      -0.368   1.674  -0.285  0.00  0.00     0.054 A 
ATOM      3  C3  IND d   1      -1.121   1.147   0.706  0.00  0.00    -0.031 A 
ATOM      4  C4  IND d   1      -1.272  -1.287   1.530  0.00  0.00     0.051 A 
ATOM      5  C5  IND d   1      -0.840  -2.551   1.240  0.00  0.00    -0.031 A 
ATOM      6  C6  IND d   1       0.026  -2.804   0.196  0.00  0.00     0.015 A 
ATOM      7  C7  IND d   1       0.503  -1.797  -0.593  0.00  0.00    -0.016 A 
ATOM      8  C8  IND d   1       0.062  -0.513  -0.306  0.00  0.00    -0.047 A 
ATOM      9  C9  IND d   1      -0.850  -0.255   0.725  0.00  0.00    -0.096 A 
ATOM     10  HN1 IND d   1       0.865   0.802  -1.589  0.00  0.00     0.298 HD
ENDROOT
TORSDOF 0
ENDMDL
