MODEL 1
REMARK minimizedAffinity -2.72266316
REMARK minimizedRMSD -1
REMARK  0 active torsions:
REMARK  status: ('A' for Active; 'I' for Inactive)
ROOT
ATOM      1  N1  IND d   1      -0.702   0.766   0.641  0.00  0.00    -0.196 N 
ATOM      2  C2  IND d   1       0.078   1.522  -0.189  0.00  0.00     0.054 A 
ATOM      3  C3  IND d   1       0.906   0.729  -0.906  0.00  0.00    -0.031 A 
ATOM      4  C4  IND d   1       1.079  -1.839  -0.953  0.00  0.00     0.051 A 
ATOM      5  C5  IND d   1       0.597  -2.962  -0.342  0.00  0.00    -0.031 A 
ATOM      6  C6  IND d   1      -0.365  -2.899   0.646  0.00  0.00     0.015 A 
ATOM      7  C7  IND d   1      -0.890  -1.706   1.054  0.00  0.00    -0.016 A 
ATOM      8  C8  IND d   1      -0.397  -0.562   0.440  0.00  0.00    -0.047 A 
ATOM      9  C9  IND d   1       0.609  -0.617  -0.533  0.00  0.00    -0.096 A 
ATOM     10  HN1 IND d   1      -1.285   1.069   1.195  0.00  0.00     0.298 HD
ENDROOT
TORSDOF 0
ENDMDL
