MODEL 1
REMARK minimizedAffinity 14.4201746
REMARK minimizedRMSD -1
REMARK  1 active torsions:
REMARK  status: ('A' for Active; 'I' for Inactive)
REMARK    1  A    between atoms: C1_2  and  C2_3 
ROOT
ATOM      1  C2  UNL d   1       0.225   3.798   0.849  0.00  0.00    -0.081 A 
ATOM      2  C3  UNL d   1      -0.064   3.800  -0.521  0.00  0.00     0.006 A 
ATOM      3  C4  UNL d   1       0.869   3.317  -1.442  0.00  0.00     0.002 A 
ATOM      4  C5  UNL d   1       2.101   2.817  -1.008  0.00  0.00    -0.080 A 
ATOM      5  C6  UNL d   1       3.099   2.267  -1.984  0.00  0.00     0.076 C 
ATOM      6  C7  UNL d   1       2.396   2.831   0.359  0.00  0.00     0.002 A 
ATOM      7  C8  UNL d   1       1.465   3.314   1.280  0.00  0.00     0.006 A 
ENDROOT
BRANCH   1   8
ATOM      8  C1  UNL d   1      -0.805   4.258   1.850  0.00  0.00     0.054 C 
ATOM      9  C   UNL d   1      -1.053   3.199   2.915  0.00  0.00     0.018 C 
ENDBRANCH   1   8
TORSDOF 1
ENDMDL
