MODEL 1
REMARK minimizedAffinity 9.19326115
REMARK minimizedRMSD -1
REMARK  1 active torsions:
REMARK  status: ('A' for Active; 'I' for Inactive)
REMARK    1  A    between atoms: C1_2  and  C2_3 
ROOT
ATOM      1  C2  UNL d   1       1.110   3.335   1.797  0.00  0.00    -0.081 A 
ATOM      2  C3  UNL d   1      -0.147   3.364   2.414  0.00  0.00     0.006 A 
ATOM      3  C4  UNL d   1      -0.608   2.258   3.133  0.00  0.00     0.002 A 
ATOM      4  C5  UNL d   1       0.183   1.110   3.253  0.00  0.00    -0.080 A 
ATOM      5  C6  UNL d   1      -0.287  -0.072   4.048  0.00  0.00     0.076 C 
ATOM      6  C7  UNL d   1       1.430   1.075   2.622  0.00  0.00     0.002 A 
ATOM      7  C8  UNL d   1       1.891   2.180   1.902  0.00  0.00     0.006 A 
ENDROOT
BRANCH   1   8
ATOM      8  C1  UNL d   1       1.637   4.549   1.075  0.00  0.00     0.054 C 
ATOM      9  C   UNL d   1       2.948   5.028   1.682  0.00  0.00     0.018 C 
ENDBRANCH   1   8
TORSDOF 1
ENDMDL
