MODEL 1
REMARK minimizedAffinity 6.63821697
REMARK minimizedRMSD -1
REMARK  1 active torsions:
REMARK  status: ('A' for Active; 'I' for Inactive)
REMARK    1  A    between atoms: C1_2  and  C2_3 
ROOT
ATOM      1  C2  UNL d   1      -2.125  -2.729  -3.574  0.00  0.00    -0.081 A 
ATOM      2  C3  UNL d   1      -2.307  -1.472  -2.984  0.00  0.00     0.006 A 
ATOM      3  C4  UNL d   1      -1.823  -1.216  -1.699  0.00  0.00     0.002 A 
ATOM      4  C5  UNL d   1      -1.142  -2.209  -0.986  0.00  0.00    -0.080 A 
ATOM      5  C6  UNL d   1      -0.591  -1.938   0.382  0.00  0.00     0.076 C 
ATOM      6  C7  UNL d   1      -0.975  -3.470  -1.569  0.00  0.00     0.002 A 
ATOM      7  C8  UNL d   1      -1.460  -3.727  -2.853  0.00  0.00     0.006 A 
ENDROOT
BRANCH   1   8
ATOM      8  C1  UNL d   1      -2.588  -2.987  -4.985  0.00  0.00     0.054 C 
ATOM      9  C   UNL d   1      -1.529  -2.581  -5.999  0.00  0.00     0.018 C 
ENDBRANCH   1   8
TORSDOF 1
ENDMDL
