MODEL 1
REMARK minimizedAffinity 8.96306229
REMARK minimizedRMSD -1
REMARK  1 active torsions:
REMARK  status: ('A' for Active; 'I' for Inactive)
REMARK    1  A    between atoms: C1_2  and  C2_3 
ROOT
ATOM      1  C2  UNL d   1       3.361   0.746  -5.394  0.00  0.00    -0.081 A 
ATOM      2  C3  UNL d   1       2.530  -0.252  -5.918  0.00  0.00     0.006 A 
ATOM      3  C4  UNL d   1       2.686  -1.583  -5.523  0.00  0.00     0.002 A 
ATOM      4  C5  UNL d   1       3.669  -1.936  -4.593  0.00  0.00    -0.080 A 
ATOM      5  C6  UNL d   1       3.828  -3.357  -4.138  0.00  0.00     0.076 C 
ATOM      6  C7  UNL d   1       4.511  -0.942  -4.083  0.00  0.00     0.002 A 
ATOM      7  C8  UNL d   1       4.356   0.388  -4.478  0.00  0.00     0.006 A 
ENDROOT
BRANCH   1   8
ATOM      8  C1  UNL d   1       3.153   2.191  -5.769  0.00  0.00     0.054 C 
ATOM      9  C   UNL d   1       1.680   2.497  -5.999  0.00  0.00     0.018 C 
ENDBRANCH   1   8
TORSDOF 1
ENDMDL
