MODEL 1
REMARK minimizedAffinity 12.0745096
REMARK minimizedRMSD -1
REMARK  1 active torsions:
REMARK  status: ('A' for Active; 'I' for Inactive)
REMARK    1  A    between atoms: C1_2  and  C2_3 
ROOT
ATOM      1  C2  UNL d   1      -1.760  -2.699  -2.234  0.00  0.00    -0.081 A 
ATOM      2  C3  UNL d   1      -1.561  -1.911  -3.374  0.00  0.00     0.006 A 
ATOM      3  C4  UNL d   1      -2.126  -2.280  -4.597  0.00  0.00     0.002 A 
ATOM      4  C5  UNL d   1      -2.906  -3.437  -4.699  0.00  0.00    -0.080 A 
ATOM      5  C6  UNL d   1      -3.543  -3.828  -5.999  0.00  0.00     0.076 C 
ATOM      6  C7  UNL d   1      -3.090  -4.234  -3.564  0.00  0.00     0.002 A 
ATOM      7  C8  UNL d   1      -2.524  -3.866  -2.341  0.00  0.00     0.006 A 
ENDROOT
BRANCH   1   8
ATOM      8  C1  UNL d   1      -1.205  -2.270  -0.900  0.00  0.00     0.054 C 
ATOM      9  C   UNL d   1      -0.051  -3.163  -0.467  0.00  0.00     0.018 C 
ENDBRANCH   1   8
TORSDOF 1
ENDMDL
