MODEL 1
REMARK minimizedAffinity 10.873064
REMARK minimizedRMSD -1
REMARK  1 active torsions:
REMARK  status: ('A' for Active; 'I' for Inactive)
REMARK    1  A    between atoms: C1_2  and  C2_3 
ROOT
ATOM      1  C2  UNL d   1       2.247   4.907  -5.102  0.00  0.00    -0.081 A 
ATOM      2  C3  UNL d   1       1.936   5.170  -3.762  0.00  0.00     0.006 A 
ATOM      3  C4  UNL d   1       1.490   4.146  -2.924  0.00  0.00     0.002 A 
ATOM      4  C5  UNL d   1       1.354   2.840  -3.408  0.00  0.00    -0.080 A 
ATOM      5  C6  UNL d   1       0.905   1.726  -2.511  0.00  0.00     0.076 C 
ATOM      6  C7  UNL d   1       1.647   2.580  -4.751  0.00  0.00     0.002 A 
ATOM      7  C8  UNL d   1       2.093   3.604  -5.590  0.00  0.00     0.006 A 
ENDROOT
BRANCH   1   8
ATOM      8  C1  UNL d   1       2.790   5.996  -5.991  0.00  0.00     0.054 C 
ATOM      9  C   UNL d   1       4.312   5.998  -5.996  0.00  0.00     0.018 C 
ENDBRANCH   1   8
TORSDOF 1
ENDMDL
