MODEL 1
REMARK minimizedAffinity 3.13679767
REMARK minimizedRMSD -1
REMARK  1 active torsions:
REMARK  status: ('A' for Active; 'I' for Inactive)
REMARK    1  A    between atoms: C1_2  and  C2_3 
ROOT
ATOM      1  C2  UNL d   1      -1.685  -2.899  -1.951  0.00  0.00    -0.081 A 
ATOM      2  C3  UNL d   1      -0.648  -3.527  -1.249  0.00  0.00     0.006 A 
ATOM      3  C4  UNL d   1      -0.588  -3.450   0.144  0.00  0.00     0.002 A 
ATOM      4  C5  UNL d   1      -1.566  -2.751   0.860  0.00  0.00    -0.080 A 
ATOM      5  C6  UNL d   1      -1.530  -2.687   2.358  0.00  0.00     0.076 C 
ATOM      6  C7  UNL d   1      -2.592  -2.109   0.158  0.00  0.00     0.002 A 
ATOM      7  C8  UNL d   1      -2.652  -2.184  -1.235  0.00  0.00     0.006 A 
ENDROOT
BRANCH   1   8
ATOM      8  C1  UNL d   1      -1.789  -3.034  -3.448  0.00  0.00     0.054 C 
ATOM      9  C   UNL d   1      -2.649  -4.227  -3.838  0.00  0.00     0.018 C 
ENDBRANCH   1   8
TORSDOF 1
ENDMDL
