MODEL 1
REMARK minimizedAffinity 7.5135746
REMARK minimizedRMSD -1
REMARK  1 active torsions:
REMARK  status: ('A' for Active; 'I' for Inactive)
REMARK    1  A    between atoms: C1_2  and  C2_3 
ROOT
ATOM      1  C2  UNL d   1      -1.677  -2.235   1.287  0.00  0.00    -0.081 A 
ATOM      2  C3  UNL d   1      -2.841  -1.747   0.681  0.00  0.00     0.006 A 
ATOM      3  C4  UNL d   1      -2.975  -1.761  -0.709  0.00  0.00     0.002 A 
ATOM      4  C5  UNL d   1      -1.952  -2.269  -1.516  0.00  0.00    -0.080 A 
ATOM      5  C6  UNL d   1      -2.096  -2.318  -3.008  0.00  0.00     0.076 C 
ATOM      6  C7  UNL d   1      -0.781  -2.740  -0.912  0.00  0.00     0.002 A 
ATOM      7  C8  UNL d   1      -0.646  -2.726   0.478  0.00  0.00     0.006 A 
ENDROOT
BRANCH   1   8
ATOM      8  C1  UNL d   1      -1.555  -2.281   2.788  0.00  0.00     0.054 C 
ATOM      9  C   UNL d   1      -2.073  -3.600   3.345  0.00  0.00     0.018 C 
ENDBRANCH   1   8
TORSDOF 1
ENDMDL
