MODEL 1
REMARK minimizedAffinity 5.82276773
REMARK minimizedRMSD -1
REMARK  1 active torsions:
REMARK  status: ('A' for Active; 'I' for Inactive)
REMARK    1  A    between atoms: C1_2  and  C2_3 
ROOT
ATOM      1  C2  UNL d   1      -1.718  -2.599   1.142  0.00  0.00    -0.081 A 
ATOM      2  C3  UNL d   1      -2.782  -1.899   0.561  0.00  0.00     0.006 A 
ATOM      3  C4  UNL d   1      -2.860  -1.755  -0.827  0.00  0.00     0.002 A 
ATOM      4  C5  UNL d   1      -1.882  -2.314  -1.655  0.00  0.00    -0.080 A 
ATOM      5  C6  UNL d   1      -1.970  -2.193  -3.147  0.00  0.00     0.076 C 
ATOM      6  C7  UNL d   1      -0.809  -2.999  -1.073  0.00  0.00     0.002 A 
ATOM      7  C8  UNL d   1      -0.730  -3.143   0.314  0.00  0.00     0.006 A 
ENDROOT
BRANCH   1   8
ATOM      8  C1  UNL d   1      -1.664  -2.812   2.634  0.00  0.00     0.054 C 
ATOM      9  C   UNL d   1      -2.427  -4.064   3.042  0.00  0.00     0.018 C 
ENDBRANCH   1   8
TORSDOF 1
ENDMDL
