MODEL 1
REMARK minimizedAffinity 6.65540409
REMARK minimizedRMSD -1
REMARK  1 active torsions:
REMARK  status: ('A' for Active; 'I' for Inactive)
REMARK    1  A    between atoms: C1_2  and  C2_3 
ROOT
ATOM      1  C2  UNL d   1       3.565   1.153  -5.520  0.00  0.00    -0.081 A 
ATOM      2  C3  UNL d   1       4.674   0.818  -4.734  0.00  0.00     0.006 A 
ATOM      3  C4  UNL d   1       4.890  -0.505  -4.343  0.00  0.00     0.002 A 
ATOM      4  C5  UNL d   1       4.006  -1.516  -4.736  0.00  0.00    -0.080 A 
ATOM      5  C6  UNL d   1       4.242  -2.945  -4.347  0.00  0.00     0.076 C 
ATOM      6  C7  UNL d   1       2.888  -1.178  -5.506  0.00  0.00     0.002 A 
ATOM      7  C8  UNL d   1       2.671   0.145  -5.898  0.00  0.00     0.006 A 
ENDROOT
BRANCH   1   8
ATOM      8  C1  UNL d   1       3.364   2.569  -5.999  0.00  0.00     0.054 C 
ATOM      9  C   UNL d   1       1.971   3.076  -5.657  0.00  0.00     0.018 C 
ENDBRANCH   1   8
TORSDOF 1
ENDMDL
