MODEL 1
REMARK minimizedAffinity 5.31588697
REMARK minimizedRMSD -1
REMARK  1 active torsions:
REMARK  status: ('A' for Active; 'I' for Inactive)
REMARK    1  A    between atoms: C1_2  and  C2_3 
ROOT
ATOM      1  C2  UNL d   1      -2.891  -2.966  -3.506  0.00  0.00    -0.081 A 
ATOM      2  C3  UNL d   1      -3.978  -3.835  -3.351  0.00  0.00     0.006 A 
ATOM      3  C4  UNL d   1      -4.709  -3.849  -2.161  0.00  0.00     0.002 A 
ATOM      4  C5  UNL d   1      -4.372  -2.989  -1.110  0.00  0.00    -0.080 A 
ATOM      5  C6  UNL d   1      -5.168  -2.972   0.161  0.00  0.00     0.076 C 
ATOM      6  C7  UNL d   1      -3.276  -2.132  -1.259  0.00  0.00     0.002 A 
ATOM      7  C8  UNL d   1      -2.543  -2.119  -2.448  0.00  0.00     0.006 A 
ENDROOT
BRANCH   1   8
ATOM      8  C1  UNL d   1      -2.140  -2.903  -4.812  0.00  0.00     0.054 C 
ATOM      9  C   UNL d   1      -3.086  -3.002  -5.999  0.00  0.00     0.018 C 
ENDBRANCH   1   8
TORSDOF 1
ENDMDL
