MODEL 1
REMARK minimizedAffinity 12.1350431
REMARK minimizedRMSD -1
REMARK  1 active torsions:
REMARK  status: ('A' for Active; 'I' for Inactive)
REMARK    1  A    between atoms: C1_2  and  C2_3 
ROOT
ATOM      1  C2  UNL d   1       1.060   3.665   1.552  0.00  0.00    -0.081 A 
ATOM      2  C3  UNL d   1       0.112   4.640   1.215  0.00  0.00     0.006 A 
ATOM      3  C4  UNL d   1      -1.190   4.564   1.716  0.00  0.00     0.002 A 
ATOM      4  C5  UNL d   1      -1.564   3.518   2.566  0.00  0.00    -0.080 A 
ATOM      5  C6  UNL d   1      -2.950   3.442   3.134  0.00  0.00     0.076 C 
ATOM      6  C7  UNL d   1      -0.623   2.535   2.888  0.00  0.00     0.002 A 
ATOM      7  C8  UNL d   1       0.679   2.609   2.388  0.00  0.00     0.006 A 
ENDROOT
BRANCH   1   8
ATOM      8  C1  UNL d   1       2.482   3.779   1.066  0.00  0.00     0.054 C 
ATOM      9  C   UNL d   1       3.103   5.106   1.479  0.00  0.00     0.018 C 
ENDBRANCH   1   8
TORSDOF 1
ENDMDL
