MODEL 1
REMARK minimizedAffinity 11.1851454
REMARK minimizedRMSD -1
REMARK  1 active torsions:
REMARK  status: ('A' for Active; 'I' for Inactive)
REMARK    1  A    between atoms: C1_2  and  C2_3 
ROOT
ATOM      1  C2  UNL d   1      -0.984  -1.218   1.611  0.00  0.00    -0.081 A 
ATOM      2  C3  UNL d   1      -0.216  -0.059   1.777  0.00  0.00     0.006 A 
ATOM      3  C4  UNL d   1       0.004   0.469   3.052  0.00  0.00     0.002 A 
ATOM      4  C5  UNL d   1      -0.533  -0.158   4.182  0.00  0.00    -0.080 A 
ATOM      5  C6  UNL d   1      -0.279   0.381   5.558  0.00  0.00     0.076 C 
ATOM      6  C7  UNL d   1      -1.315  -1.306   4.015  0.00  0.00     0.002 A 
ATOM      7  C8  UNL d   1      -1.536  -1.833   2.740  0.00  0.00     0.006 A 
ENDROOT
BRANCH   1   8
ATOM      8  C1  UNL d   1      -1.169  -1.825   0.244  0.00  0.00     0.054 C 
ATOM      9  C   UNL d   1      -2.169  -1.030  -0.584  0.00  0.00     0.018 C 
ENDBRANCH   1   8
TORSDOF 1
ENDMDL
