MODEL 1
REMARK minimizedAffinity 2.68980002
REMARK minimizedRMSD -1
REMARK  1 active torsions:
REMARK  status: ('A' for Active; 'I' for Inactive)
REMARK    1  A    between atoms: C1_2  and  C2_3 
ROOT
ATOM      1  C2  UNL d   1       1.316   4.091  -0.009  0.00  0.00    -0.081 A 
ATOM      2  C3  UNL d   1       0.798   3.890  -1.294  0.00  0.00     0.006 A 
ATOM      3  C4  UNL d   1      -0.402   4.494  -1.677  0.00  0.00     0.002 A 
ATOM      4  C5  UNL d   1      -1.099   5.316  -0.785  0.00  0.00    -0.080 A 
ATOM      5  C6  UNL d   1      -2.372   5.995  -1.193  0.00  0.00     0.076 C 
ATOM      6  C7  UNL d   1      -0.591   5.503   0.505  0.00  0.00     0.002 A 
ATOM      7  C8  UNL d   1       0.608   4.898   0.888  0.00  0.00     0.006 A 
ENDROOT
BRANCH   1   8
ATOM      8  C1  UNL d   1       2.642   3.493   0.385  0.00  0.00     0.054 C 
ATOM      9  C   UNL d   1       3.577   3.383  -0.811  0.00  0.00     0.018 C 
ENDBRANCH   1   8
TORSDOF 1
ENDMDL
