MODEL 1
REMARK minimizedAffinity 2.38307309
REMARK minimizedRMSD -1
REMARK  0 active torsions:
REMARK  status: ('A' for Active; 'I' for Inactive)
ROOT
ATOM      1  C   UNL d   1       1.641   1.144  -1.895  0.00  0.00     0.078 C 
ATOM      2  C1  UNL d   1       2.037   2.141  -0.847  0.00  0.00    -0.077 A 
ATOM      3  C2  UNL d   1       2.580   1.726   0.375  0.00  0.00    -0.001 A 
ATOM      4  C3  UNL d   1       2.935   2.665   1.344  0.00  0.00     0.003 A 
ATOM      5  C4  UNL d   1       2.750   4.025   1.103  0.00  0.00    -0.005 A 
ATOM      6  C5  UNL d   1       2.207   4.447  -0.109  0.00  0.00     0.003 A 
ATOM      7  C6  UNL d   1       1.852   3.509  -1.080  0.00  0.00    -0.001 A 
ENDROOT
TORSDOF 0
ENDMDL
