MODEL 1
REMARK minimizedAffinity -0.782727659
REMARK minimizedRMSD -1
REMARK  0 active torsions:
REMARK  status: ('A' for Active; 'I' for Inactive)
ROOT
ATOM      1  C   UNL d   1      -4.154   3.825   5.177  0.00  0.00     0.078 C 
ATOM      2  C1  UNL d   1      -4.561   2.417   4.860  0.00  0.00    -0.077 A 
ATOM      3  C2  UNL d   1      -4.865   1.508   5.880  0.00  0.00    -0.001 A 
ATOM      4  C3  UNL d   1      -5.233   0.197   5.571  0.00  0.00     0.003 A 
ATOM      5  C4  UNL d   1      -5.300  -0.216   4.242  0.00  0.00    -0.005 A 
ATOM      6  C5  UNL d   1      -4.997   0.682   3.220  0.00  0.00     0.003 A 
ATOM      7  C6  UNL d   1      -4.628   1.992   3.527  0.00  0.00    -0.001 A 
ENDROOT
TORSDOF 0
ENDMDL
