MODEL 1
REMARK minimizedAffinity 4.84140158
REMARK minimizedRMSD -1
REMARK  0 active torsions:
REMARK  status: ('A' for Active; 'I' for Inactive)
ROOT
ATOM      1  C   UNL d   1      -5.042   5.529   1.992  0.00  0.00     0.078 C 
ATOM      2  C1  UNL d   1      -4.481   5.518   3.383  0.00  0.00    -0.077 A 
ATOM      3  C2  UNL d   1      -5.242   5.055   4.464  0.00  0.00    -0.001 A 
ATOM      4  C3  UNL d   1      -4.710   5.060   5.754  0.00  0.00     0.003 A 
ATOM      5  C4  UNL d   1      -3.416   5.527   5.976  0.00  0.00    -0.005 A 
ATOM      6  C5  UNL d   1      -2.653   5.992   4.907  0.00  0.00     0.003 A 
ATOM      7  C6  UNL d   1      -3.183   5.988   3.616  0.00  0.00    -0.001 A 
ENDROOT
TORSDOF 0
ENDMDL
