MODEL 1
REMARK minimizedAffinity -1.15906966
REMARK minimizedRMSD -1
REMARK  0 active torsions:
REMARK  status: ('A' for Active; 'I' for Inactive)
ROOT
ATOM      1  C   UNL d   1      -2.931   6.000   5.992  0.00  0.00     0.078 C 
ATOM      2  C1  UNL d   1      -3.390   5.990   4.565  0.00  0.00    -0.077 A 
ATOM      3  C2  UNL d   1      -2.469   5.986   3.511  0.00  0.00    -0.001 A 
ATOM      4  C3  UNL d   1      -2.910   5.987   2.187  0.00  0.00     0.003 A 
ATOM      5  C4  UNL d   1      -4.275   5.993   1.904  0.00  0.00    -0.005 A 
ATOM      6  C5  UNL d   1      -5.200   6.000   2.946  0.00  0.00     0.003 A 
ATOM      7  C6  UNL d   1      -4.760   5.999   4.271  0.00  0.00    -0.001 A 
ENDROOT
TORSDOF 0
ENDMDL
