MODEL 1
REMARK minimizedAffinity -1.8069638
REMARK minimizedRMSD -1
REMARK  0 active torsions:
REMARK  status: ('A' for Active; 'I' for Inactive)
ROOT
ATOM      1  C   UNL d   1      -2.627   6.000   1.816  0.00  0.00     0.078 C 
ATOM      2  C1  UNL d   1      -3.046   5.990   3.255  0.00  0.00    -0.077 A 
ATOM      3  C2  UNL d   1      -4.400   5.986   3.612  0.00  0.00    -0.001 A 
ATOM      4  C3  UNL d   1      -4.775   5.987   4.957  0.00  0.00     0.003 A 
ATOM      5  C4  UNL d   1      -3.803   5.993   5.955  0.00  0.00    -0.005 A 
ATOM      6  C5  UNL d   1      -2.453   5.999   5.609  0.00  0.00     0.003 A 
ATOM      7  C6  UNL d   1      -2.076   5.998   4.265  0.00  0.00    -0.001 A 
ENDROOT
TORSDOF 0
ENDMDL
