MODEL 1
REMARK minimizedAffinity 2.56844139
REMARK minimizedRMSD -1
REMARK  0 active torsions:
REMARK  status: ('A' for Active; 'I' for Inactive)
ROOT
ATOM      1  C   UNL d   1      -5.633   5.938   2.531  0.00  0.00     0.078 C 
ATOM      2  C1  UNL d   1      -4.606   5.962   3.624  0.00  0.00    -0.077 A 
ATOM      3  C2  UNL d   1      -3.238   5.947   3.328  0.00  0.00    -0.001 A 
ATOM      4  C3  UNL d   1      -2.293   5.959   4.355  0.00  0.00     0.003 A 
ATOM      5  C4  UNL d   1      -2.706   5.986   5.685  0.00  0.00    -0.005 A 
ATOM      6  C5  UNL d   1      -4.066   5.999   5.990  0.00  0.00     0.003 A 
ATOM      7  C6  UNL d   1      -5.012   5.986   4.964  0.00  0.00    -0.001 A 
ENDROOT
TORSDOF 0
ENDMDL
