MODEL 1
REMARK minimizedAffinity 4.00289488
REMARK minimizedRMSD -1
REMARK  0 active torsions:
REMARK  status: ('A' for Active; 'I' for Inactive)
ROOT
ATOM      1  C   UNL d   1       0.955   3.450  -4.812  0.00  0.00     0.078 C 
ATOM      2  C1  UNL d   1       1.080   2.334  -3.820  0.00  0.00    -0.077 A 
ATOM      3  C2  UNL d   1       1.946   2.436  -2.724  0.00  0.00    -0.001 A 
ATOM      4  C3  UNL d   1       2.060   1.385  -1.814  0.00  0.00     0.003 A 
ATOM      5  C4  UNL d   1       1.312   0.222  -1.989  0.00  0.00    -0.005 A 
ATOM      6  C5  UNL d   1       0.449   0.110  -3.078  0.00  0.00     0.003 A 
ATOM      7  C6  UNL d   1       0.334   1.161  -3.990  0.00  0.00    -0.001 A 
ENDROOT
TORSDOF 0
ENDMDL
