MODEL 1
REMARK minimizedAffinity 10.4834585
REMARK minimizedRMSD -1
REMARK  0 active torsions:
REMARK  status: ('A' for Active; 'I' for Inactive)
ROOT
ATOM      1  C   UNL d   1       2.010   0.120  -1.516  0.00  0.00     0.078 C 
ATOM      2  C1  UNL d   1       1.781   1.411  -2.244  0.00  0.00    -0.077 A 
ATOM      3  C2  UNL d   1       2.511   2.562  -1.919  0.00  0.00    -0.001 A 
ATOM      4  C3  UNL d   1       2.281   3.759  -2.599  0.00  0.00     0.003 A 
ATOM      5  C4  UNL d   1       1.320   3.818  -3.607  0.00  0.00    -0.005 A 
ATOM      6  C5  UNL d   1       0.588   2.679  -3.935  0.00  0.00     0.003 A 
ATOM      7  C6  UNL d   1       0.817   1.481  -3.257  0.00  0.00    -0.001 A 
ENDROOT
TORSDOF 0
ENDMDL
