MODEL 1
REMARK minimizedAffinity -2.63173175
REMARK minimizedRMSD -1
REMARK  0 active torsions:
REMARK  status: ('A' for Active; 'I' for Inactive)
ROOT
ATOM      1  C   UNL d   1      -2.989   5.804   5.764  0.00  0.00     0.078 C 
ATOM      2  C1  UNL d   1      -3.472   5.812   4.344  0.00  0.00    -0.077 A 
ATOM      3  C2  UNL d   1      -4.826   5.621   4.043  0.00  0.00    -0.001 A 
ATOM      4  C3  UNL d   1      -5.261   5.622   2.716  0.00  0.00     0.003 A 
ATOM      5  C4  UNL d   1      -4.347   5.811   1.681  0.00  0.00    -0.005 A 
ATOM      6  C5  UNL d   1      -2.998   6.000   1.971  0.00  0.00     0.003 A 
ATOM      7  C6  UNL d   1      -2.562   6.000   3.297  0.00  0.00    -0.001 A 
ENDROOT
TORSDOF 0
ENDMDL
