MODEL 1
REMARK minimizedAffinity -2.04115915
REMARK minimizedRMSD -1
REMARK  0 active torsions:
REMARK  status: ('A' for Active; 'I' for Inactive)
ROOT
ATOM      1  C   UNL d   1      -3.016   5.998   5.968  0.00  0.00     0.078 C 
ATOM      2  C1  UNL d   1      -3.492   5.988   4.546  0.00  0.00    -0.077 A 
ATOM      3  C2  UNL d   1      -2.584   5.999   3.481  0.00  0.00    -0.001 A 
ATOM      4  C3  UNL d   1      -3.042   5.999   2.162  0.00  0.00     0.003 A 
ATOM      5  C4  UNL d   1      -4.409   5.989   1.897  0.00  0.00    -0.005 A 
ATOM      6  C5  UNL d   1      -5.321   5.981   2.950  0.00  0.00     0.003 A 
ATOM      7  C6  UNL d   1      -4.865   5.980   4.269  0.00  0.00    -0.001 A 
ENDROOT
TORSDOF 0
ENDMDL
