MODEL 1
REMARK minimizedAffinity -0.0257909857
REMARK minimizedRMSD -1
REMARK  0 active torsions:
REMARK  status: ('A' for Active; 'I' for Inactive)
ROOT
ATOM      1  C   UNL d   1      -5.455   5.658   2.255  0.00  0.00     0.078 C 
ATOM      2  C1  UNL d   1      -4.643   5.765   3.510  0.00  0.00    -0.077 A 
ATOM      3  C2  UNL d   1      -5.257   5.758   4.769  0.00  0.00    -0.001 A 
ATOM      4  C3  UNL d   1      -4.489   5.868   5.929  0.00  0.00     0.003 A 
ATOM      5  C4  UNL d   1      -3.103   5.988   5.843  0.00  0.00    -0.005 A 
ATOM      6  C5  UNL d   1      -2.484   5.999   4.595  0.00  0.00     0.003 A 
ATOM      7  C6  UNL d   1      -3.250   5.889   3.433  0.00  0.00    -0.001 A 
ENDROOT
TORSDOF 0
ENDMDL
