MODEL 1
REMARK minimizedAffinity -2.68483114
REMARK minimizedRMSD -1
REMARK  0 active torsions:
REMARK  status: ('A' for Active; 'I' for Inactive)
ROOT
ATOM      1  C   UNL d   1      -5.612   5.983   2.996  0.00  0.00     0.078 C 
ATOM      2  C1  UNL d   1      -4.298   5.996   3.718  0.00  0.00    -0.077 A 
ATOM      3  C2  UNL d   1      -3.088   5.997   3.014  0.00  0.00    -0.001 A 
ATOM      4  C3  UNL d   1      -1.872   5.999   3.700  0.00  0.00     0.003 A 
ATOM      5  C4  UNL d   1      -1.855   5.999   5.094  0.00  0.00    -0.005 A 
ATOM      6  C5  UNL d   1      -3.055   5.996   5.803  0.00  0.00     0.003 A 
ATOM      7  C6  UNL d   1      -4.271   5.993   5.119  0.00  0.00    -0.001 A 
ENDROOT
TORSDOF 0
ENDMDL
