MODEL 1
REMARK minimizedAffinity -3.05941057
REMARK minimizedRMSD -1
REMARK  0 active torsions:
REMARK  status: ('A' for Active; 'I' for Inactive)
ROOT
ATOM      1  C   UNL d   1       2.349   0.142  -1.993  0.00  0.00     0.078 C 
ATOM      2  C1  UNL d   1       2.001   1.072  -3.116  0.00  0.00    -0.077 A 
ATOM      3  C2  UNL d   1       0.773   1.745  -3.141  0.00  0.00    -0.001 A 
ATOM      4  C3  UNL d   1       0.458   2.600  -4.198  0.00  0.00     0.003 A 
ATOM      5  C4  UNL d   1       1.365   2.791  -5.238  0.00  0.00    -0.005 A 
ATOM      6  C5  UNL d   1       2.589   2.124  -5.223  0.00  0.00     0.003 A 
ATOM      7  C6  UNL d   1       2.905   1.268  -4.167  0.00  0.00    -0.001 A 
ENDROOT
TORSDOF 0
ENDMDL
