MODEL 1
REMARK minimizedAffinity 5.96693325
REMARK minimizedRMSD -1
REMARK  0 active torsions:
REMARK  status: ('A' for Active; 'I' for Inactive)
ROOT
ATOM      1  C   UNL d   1       3.085   3.231  -5.970  0.00  0.00     0.078 C 
ATOM      2  C1  UNL d   1       2.545   2.522  -4.765  0.00  0.00    -0.077 A 
ATOM      3  C2  UNL d   1       1.174   2.531  -4.477  0.00  0.00    -0.001 A 
ATOM      4  C3  UNL d   1       0.686   1.875  -3.346  0.00  0.00     0.003 A 
ATOM      5  C4  UNL d   1       1.561   1.205  -2.493  0.00  0.00    -0.005 A 
ATOM      6  C5  UNL d   1       2.927   1.192  -2.770  0.00  0.00     0.003 A 
ATOM      7  C6  UNL d   1       3.417   1.848  -3.901  0.00  0.00    -0.001 A 
ENDROOT
TORSDOF 0
ENDMDL
