MODEL 1
REMARK minimizedAffinity 0.436280012
REMARK minimizedRMSD -1
REMARK  0 active torsions:
REMARK  status: ('A' for Active; 'I' for Inactive)
ROOT
ATOM      1  C   UNL d   1      -2.867   5.994   5.998  0.00  0.00     0.078 C 
ATOM      2  C1  UNL d   1      -3.397   5.899   4.599  0.00  0.00    -0.077 A 
ATOM      3  C2  UNL d   1      -4.761   5.697   4.356  0.00  0.00    -0.001 A 
ATOM      4  C3  UNL d   1      -5.238   5.601   3.048  0.00  0.00     0.003 A 
ATOM      5  C4  UNL d   1      -4.358   5.705   1.972  0.00  0.00    -0.005 A 
ATOM      6  C5  UNL d   1      -2.999   5.903   2.204  0.00  0.00     0.003 A 
ATOM      7  C6  UNL d   1      -2.520   6.000   3.511  0.00  0.00    -0.001 A 
ENDROOT
TORSDOF 0
ENDMDL
