MODEL 1
REMARK minimizedAffinity 3.03423643
REMARK minimizedRMSD -1
REMARK  0 active torsions:
REMARK  status: ('A' for Active; 'I' for Inactive)
ROOT
ATOM      1  C   UNL d   1      -5.543   5.647   2.235  0.00  0.00     0.078 C 
ATOM      2  C1  UNL d   1      -4.274   5.761   3.025  0.00  0.00    -0.077 A 
ATOM      3  C2  UNL d   1      -4.295   5.779   4.425  0.00  0.00    -0.001 A 
ATOM      4  C3  UNL d   1      -3.107   5.895   5.148  0.00  0.00     0.003 A 
ATOM      5  C4  UNL d   1      -1.888   5.997   4.479  0.00  0.00    -0.005 A 
ATOM      6  C5  UNL d   1      -1.857   5.982   3.086  0.00  0.00     0.003 A 
ATOM      7  C6  UNL d   1      -3.045   5.866   2.362  0.00  0.00    -0.001 A 
ENDROOT
TORSDOF 0
ENDMDL
