MODEL 1
REMARK minimizedAffinity -0.848186851
REMARK minimizedRMSD -1
REMARK  0 active torsions:
REMARK  status: ('A' for Active; 'I' for Inactive)
ROOT
ATOM      1  C   UNL d   1      -5.582   5.980   1.807  0.00  0.00     0.078 C 
ATOM      2  C1  UNL d   1      -4.532   5.993   2.878  0.00  0.00    -0.077 A 
ATOM      3  C2  UNL d   1      -3.170   5.986   2.553  0.00  0.00    -0.001 A 
ATOM      4  C3  UNL d   1      -2.204   5.988   3.560  0.00  0.00     0.003 A 
ATOM      5  C4  UNL d   1      -2.589   5.995   4.899  0.00  0.00    -0.005 A 
ATOM      6  C5  UNL d   1      -3.942   6.000   5.232  0.00  0.00     0.003 A 
ATOM      7  C6  UNL d   1      -4.910   5.998   4.227  0.00  0.00    -0.001 A 
ENDROOT
TORSDOF 0
ENDMDL
