MODEL 1
REMARK minimizedAffinity 6.10102701
REMARK minimizedRMSD -1
REMARK  0 active torsions:
REMARK  status: ('A' for Active; 'I' for Inactive)
ROOT
ATOM      1  C   UNL d   1      -5.624   5.248   1.421  0.00  0.00     0.078 C 
ATOM      2  C1  UNL d   1      -4.668   5.325   2.574  0.00  0.00    -0.077 A 
ATOM      3  C2  UNL d   1      -5.041   5.927   3.782  0.00  0.00    -0.001 A 
ATOM      4  C3  UNL d   1      -4.137   6.000   4.843  0.00  0.00     0.003 A 
ATOM      5  C4  UNL d   1      -2.854   5.475   4.706  0.00  0.00    -0.005 A 
ATOM      6  C5  UNL d   1      -2.472   4.876   3.507  0.00  0.00     0.003 A 
ATOM      7  C6  UNL d   1      -3.375   4.802   2.445  0.00  0.00    -0.001 A 
ENDROOT
TORSDOF 0
ENDMDL
