MODEL 1
REMARK minimizedAffinity 3.62748528
REMARK minimizedRMSD -1
REMARK  1 active torsions:
REMARK  status: ('A' for Active; 'I' for Inactive)
REMARK    1  A    between atoms: C1_2  and  C2_3 
ROOT
ATOM      1  C2  UNL d   1      -0.529   0.836   1.288  0.00  0.00    -0.077 A 
ATOM      2  C3  UNL d   1      -1.469  -0.203   1.329  0.00  0.00     0.002 A 
ATOM      3  C4  UNL d   1      -1.068  -1.507   1.627  0.00  0.00     0.002 A 
ATOM      4  C5  UNL d   1       0.272  -1.783   1.889  0.00  0.00    -0.004 A 
ATOM      5  C6  UNL d   1       1.215  -0.757   1.848  0.00  0.00     0.002 A 
ATOM      6  C7  UNL d   1       0.816   0.547   1.550  0.00  0.00     0.002 A 
ENDROOT
BRANCH   1   7
ATOM      7  C1  UNL d   1      -0.967   2.251   1.016  0.00  0.00     0.055 C 
ATOM      8  C   UNL d   1      -1.218   2.478  -0.468  0.00  0.00     0.019 C 
ENDBRANCH   1   7
TORSDOF 1
ENDMDL
