MODEL 1
REMARK minimizedAffinity 1.49601185
REMARK minimizedRMSD -1
REMARK  1 active torsions:
REMARK  status: ('A' for Active; 'I' for Inactive)
REMARK    1  A    between atoms: C1_2  and  C2_3 
ROOT
ATOM      1  C2  UNL d   1      -1.009  -2.394   0.804  0.00  0.00    -0.077 A 
ATOM      2  C3  UNL d   1      -1.115  -1.060   1.223  0.00  0.00     0.002 A 
ATOM      3  C4  UNL d   1       0.022  -0.348   1.609  0.00  0.00     0.002 A 
ATOM      4  C5  UNL d   1       1.273  -0.959   1.577  0.00  0.00    -0.004 A 
ATOM      5  C6  UNL d   1       1.389  -2.286   1.165  0.00  0.00     0.002 A 
ATOM      6  C7  UNL d   1       0.254  -3.000   0.779  0.00  0.00     0.002 A 
ENDROOT
BRANCH   1   7
ATOM      7  C1  UNL d   1      -2.227  -3.148   0.340  0.00  0.00     0.055 C 
ATOM      8  C   UNL d   1      -1.889  -4.099  -0.799  0.00  0.00     0.019 C 
ENDBRANCH   1   7
TORSDOF 1
ENDMDL
