MODEL 1
REMARK minimizedAffinity 7.96741486
REMARK minimizedRMSD -1
REMARK  1 active torsions:
REMARK  status: ('A' for Active; 'I' for Inactive)
REMARK    1  A    between atoms: C1_2  and  C2_3 
ROOT
ATOM      1  C2  UNL d   1       1.624  -1.497   4.488  0.00  0.00    -0.077 A 
ATOM      2  C3  UNL d   1       1.474  -1.801   3.128  0.00  0.00     0.002 A 
ATOM      3  C4  UNL d   1       1.476  -0.783   2.172  0.00  0.00     0.002 A 
ATOM      4  C5  UNL d   1       1.632   0.545   2.567  0.00  0.00    -0.004 A 
ATOM      5  C6  UNL d   1       1.780   0.857   3.917  0.00  0.00     0.002 A 
ATOM      6  C7  UNL d   1       1.776  -0.159   4.874  0.00  0.00     0.002 A 
ENDROOT
BRANCH   1   7
ATOM      7  C1  UNL d   1       1.671  -2.598   5.515  0.00  0.00     0.055 C 
ATOM      8  C   UNL d   1       0.275  -2.967   5.996  0.00  0.00     0.019 C 
ENDBRANCH   1   7
TORSDOF 1
ENDMDL
