MODEL 1
REMARK minimizedAffinity 1.30846536
REMARK minimizedRMSD -1
REMARK  1 active torsions:
REMARK  status: ('A' for Active; 'I' for Inactive)
REMARK    1  A    between atoms: C1_2  and  C2_3 
ROOT
ATOM      1  C2  UNL d   1      -0.879  -4.374  -1.828  0.00  0.00    -0.077 A 
ATOM      2  C3  UNL d   1      -1.397  -3.089  -1.614  0.00  0.00     0.002 A 
ATOM      3  C4  UNL d   1      -2.446  -2.891  -0.714  0.00  0.00     0.002 A 
ATOM      4  C5  UNL d   1      -2.984  -3.973  -0.019  0.00  0.00    -0.004 A 
ATOM      5  C6  UNL d   1      -2.477  -5.255  -0.227  0.00  0.00     0.002 A 
ATOM      6  C7  UNL d   1      -1.429  -5.455  -1.126  0.00  0.00     0.002 A 
ENDROOT
BRANCH   1   7
ATOM      7  C1  UNL d   1       0.286  -4.583  -2.760  0.00  0.00     0.055 C 
ATOM      8  C   UNL d   1       1.496  -5.133  -2.020  0.00  0.00     0.019 C 
ENDBRANCH   1   7
TORSDOF 1
ENDMDL
