MODEL 1
REMARK minimizedAffinity 1.62880623
REMARK minimizedRMSD -1
REMARK  1 active torsions:
REMARK  status: ('A' for Active; 'I' for Inactive)
REMARK    1  A    between atoms: C1_2  and  C2_3 
ROOT
ATOM      1  C2  UNL d   1       0.294  -0.541   1.871  0.00  0.00    -0.077 A 
ATOM      2  C3  UNL d   1       0.970  -1.685   1.423  0.00  0.00     0.002 A 
ATOM      3  C4  UNL d   1       1.802  -2.398   2.289  0.00  0.00     0.002 A 
ATOM      4  C5  UNL d   1       1.963  -1.978   3.607  0.00  0.00    -0.004 A 
ATOM      5  C6  UNL d   1       1.297  -0.840   4.062  0.00  0.00     0.002 A 
ATOM      6  C7  UNL d   1       0.466  -0.126   3.198  0.00  0.00     0.002 A 
ENDROOT
BRANCH   1   7
ATOM      7  C1  UNL d   1      -0.642   0.201   0.953  0.00  0.00     0.055 C 
ATOM      8  C   UNL d   1      -1.943  -0.562   0.756  0.00  0.00     0.019 C 
ENDBRANCH   1   7
TORSDOF 1
ENDMDL
