MODEL 1
REMARK minimizedAffinity 2.93873119
REMARK minimizedRMSD -1
REMARK  1 active torsions:
REMARK  status: ('A' for Active; 'I' for Inactive)
REMARK    1  A    between atoms: C1_2  and  C2_3 
ROOT
ATOM      1  C2  UNL d   1      -0.921   0.168   0.629  0.00  0.00    -0.077 A 
ATOM      2  C3  UNL d   1       0.448   0.061   0.910  0.00  0.00     0.002 A 
ATOM      3  C4  UNL d   1       1.033  -1.192   1.107  0.00  0.00     0.002 A 
ATOM      4  C5  UNL d   1       0.257  -2.346   1.020  0.00  0.00    -0.004 A 
ATOM      5  C6  UNL d   1      -1.106  -2.250   0.742  0.00  0.00     0.002 A 
ATOM      6  C7  UNL d   1      -1.692  -0.999   0.547  0.00  0.00     0.002 A 
ENDROOT
BRANCH   1   7
ATOM      7  C1  UNL d   1      -1.544   1.514   0.368  0.00  0.00     0.055 C 
ATOM      8  C   UNL d   1      -0.503   2.624   0.414  0.00  0.00     0.019 C 
ENDBRANCH   1   7
TORSDOF 1
ENDMDL
