MODEL 1
REMARK minimizedAffinity -1.27617395
REMARK minimizedRMSD -1
REMARK  1 active torsions:
REMARK  status: ('A' for Active; 'I' for Inactive)
REMARK    1  A    between atoms: C1_2  and  C2_3 
ROOT
ATOM      1  C2  UNL d   1       5.336   3.366  -2.979  0.00  0.00    -0.077 A 
ATOM      2  C3  UNL d   1       4.027   2.995  -2.639  0.00  0.00     0.002 A 
ATOM      3  C4  UNL d   1       3.397   3.564  -1.531  0.00  0.00     0.002 A 
ATOM      4  C5  UNL d   1       4.065   4.510  -0.757  0.00  0.00    -0.004 A 
ATOM      5  C6  UNL d   1       5.368   4.884  -1.085  0.00  0.00     0.002 A 
ATOM      6  C7  UNL d   1       6.000   4.316  -2.191  0.00  0.00     0.002 A 
ENDROOT
BRANCH   1   7
ATOM      7  C1  UNL d   1       6.000   2.790  -4.202  0.00  0.00     0.055 C 
ATOM      8  C   UNL d   1       5.995   1.269  -4.170  0.00  0.00     0.019 C 
ENDBRANCH   1   7
TORSDOF 1
ENDMDL
