MODEL 1
REMARK minimizedAffinity 1.05894446
REMARK minimizedRMSD -1
REMARK  1 active torsions:
REMARK  status: ('A' for Active; 'I' for Inactive)
REMARK    1  A    between atoms: C1_2  and  C2_3 
ROOT
ATOM      1  C2  UNL d   1       4.846   3.945  -1.821  0.00  0.00    -0.077 A 
ATOM      2  C3  UNL d   1       5.998   4.076  -2.609  0.00  0.00     0.002 A 
ATOM      3  C4  UNL d   1       6.000   3.640  -3.935  0.00  0.00     0.002 A 
ATOM      4  C5  UNL d   1       4.852   3.074  -4.486  0.00  0.00    -0.004 A 
ATOM      5  C6  UNL d   1       3.701   2.938  -3.710  0.00  0.00     0.002 A 
ATOM      6  C7  UNL d   1       3.698   3.372  -2.384  0.00  0.00     0.002 A 
ENDROOT
BRANCH   1   7
ATOM      7  C1  UNL d   1       4.826   4.460  -0.405  0.00  0.00     0.055 C 
ATOM      8  C   UNL d   1       5.897   5.520  -0.187  0.00  0.00     0.019 C 
ENDBRANCH   1   7
TORSDOF 1
ENDMDL
