MODEL 1
REMARK minimizedAffinity 0.678297162
REMARK minimizedRMSD -1
REMARK  1 active torsions:
REMARK  status: ('A' for Active; 'I' for Inactive)
REMARK    1  A    between atoms: C1_2  and  C2_3 
ROOT
ATOM      1  C2  UNL d   1       1.227  -1.767   2.804  0.00  0.00    -0.077 A 
ATOM      2  C3  UNL d   1       1.834  -0.514   2.970  0.00  0.00     0.002 A 
ATOM      3  C4  UNL d   1       1.771   0.442   1.955  0.00  0.00     0.002 A 
ATOM      4  C5  UNL d   1       1.098   0.157   0.768  0.00  0.00    -0.004 A 
ATOM      5  C6  UNL d   1       0.493  -1.087   0.592  0.00  0.00     0.002 A 
ATOM      6  C7  UNL d   1       0.557  -2.044   1.605  0.00  0.00     0.002 A 
ENDROOT
BRANCH   1   7
ATOM      7  C1  UNL d   1       1.252  -2.781   3.917  0.00  0.00     0.055 C 
ATOM      8  C   UNL d   1       2.198  -3.930   3.598  0.00  0.00     0.019 C 
ENDBRANCH   1   7
TORSDOF 1
ENDMDL
