MODEL 1
REMARK minimizedAffinity -1.69137859
REMARK minimizedRMSD -1
REMARK  1 active torsions:
REMARK  status: ('A' for Active; 'I' for Inactive)
REMARK    1  A    between atoms: C1_2  and  C2_3 
ROOT
ATOM      1  C2  UNL d   1       5.193  -1.670  -5.995  0.00  0.00    -0.077 A 
ATOM      2  C3  UNL d   1       3.793  -1.741  -5.995  0.00  0.00     0.002 A 
ATOM      3  C4  UNL d   1       3.149  -2.979  -5.999  0.00  0.00     0.002 A 
ATOM      4  C5  UNL d   1       3.896  -4.155  -5.998  0.00  0.00    -0.004 A 
ATOM      5  C6  UNL d   1       5.289  -4.095  -6.000  0.00  0.00     0.002 A 
ATOM      6  C7  UNL d   1       5.935  -2.858  -5.997  0.00  0.00     0.002 A 
ENDROOT
BRANCH   1   7
ATOM      7  C1  UNL d   1       5.890  -0.335  -5.941  0.00  0.00     0.055 C 
ATOM      8  C   UNL d   1       4.890   0.809  -5.863  0.00  0.00     0.019 C 
ENDBRANCH   1   7
TORSDOF 1
ENDMDL
