MODEL 1
REMARK minimizedAffinity 7.44648409
REMARK minimizedRMSD -1
REMARK  3 active torsions:
REMARK  status: ('A' for Active; 'I' for Inactive)
REMARK    1  A    between atoms: C3'_2  and  C2'_3 
REMARK    2  A    between atoms: C2'_3  and  C1'_4 
REMARK    3  A    between atoms: C1'_4  and  C1_5 
ROOT
ATOM      1  C1  N4B d   1       3.475   0.315   0.358  0.00  0.00    -0.075 A 
ATOM      2  C2  N4B d   1       3.008  -0.929   0.838  0.00  0.00     0.002 A 
ATOM      3  C3  N4B d   1       3.826  -1.717   1.611  0.00  0.00     0.002 A 
ATOM      4  C4  N4B d   1       5.114  -1.293   1.900  0.00  0.00    -0.004 A 
ATOM      5  C5  N4B d   1       5.548  -0.079   1.454  0.00  0.00     0.002 A 
ATOM      6  C6  N4B d   1       4.736   0.725   0.680  0.00  0.00     0.002 A 
ENDROOT
BRANCH   1   7
ATOM      7  C1' N4B d   1       2.648   1.172  -0.561  0.00  0.00     0.057 C 
BRANCH   7   8
ATOM      8  C2' N4B d   1       1.638   0.293  -1.291  0.00  0.00     0.009 C 
BRANCH   8   9
ATOM      9  C3' N4B d   1       0.395   1.069  -1.693  0.00  0.00     0.004 C 
ATOM     10  C4' N4B d   1      -0.604   0.226  -2.427  0.00  0.00     0.003 C 
ENDBRANCH   8   9
ENDBRANCH   7   8
ENDBRANCH   1   7
TORSDOF 3
ENDMDL
