MODEL 1
REMARK minimizedAffinity 3.16127563
REMARK minimizedRMSD -1
REMARK  3 active torsions:
REMARK  status: ('A' for Active; 'I' for Inactive)
REMARK    1  A    between atoms: C3'_2  and  C2'_3 
REMARK    2  A    between atoms: C2'_3  and  C1'_4 
REMARK    3  A    between atoms: C1'_4  and  C1_5 
ROOT
ATOM      1  C1  N4B d   1      -5.328   1.584  -1.945  0.00  0.00    -0.075 A 
ATOM      2  C2  N4B d   1      -4.661   0.412  -1.528  0.00  0.00     0.002 A 
ATOM      3  C3  N4B d   1      -3.994   0.392  -0.327  0.00  0.00     0.002 A 
ATOM      4  C4  N4B d   1      -3.965   1.533   0.460  0.00  0.00    -0.004 A 
ATOM      5  C5  N4B d   1      -4.633   2.654   0.062  0.00  0.00     0.002 A 
ATOM      6  C6  N4B d   1      -5.311   2.687  -1.141  0.00  0.00     0.002 A 
ENDROOT
BRANCH   1   7
ATOM      7  C1' N4B d   1      -5.997   1.681  -3.289  0.00  0.00     0.057 C 
BRANCH   7   8
ATOM      8  C2' N4B d   1      -6.000   0.305  -3.948  0.00  0.00     0.009 C 
BRANCH   8   9
ATOM      9  C3' N4B d   1      -5.985   0.400  -5.464  0.00  0.00     0.004 C 
ATOM     10  C4' N4B d   1      -5.519   1.738  -5.957  0.00  0.00     0.003 C 
ENDBRANCH   8   9
ENDBRANCH   7   8
ENDBRANCH   1   7
TORSDOF 3
ENDMDL
