MODEL 1
REMARK minimizedAffinity 11.7291594
REMARK minimizedRMSD -1
REMARK  3 active torsions:
REMARK  status: ('A' for Active; 'I' for Inactive)
REMARK    1  A    between atoms: C3'_2  and  C2'_3 
REMARK    2  A    between atoms: C2'_3  and  C1'_4 
REMARK    3  A    between atoms: C1'_4  and  C1_5 
ROOT
ATOM      1  C1  N4B d   1       3.266   0.952   0.767  0.00  0.00    -0.075 A 
ATOM      2  C2  N4B d   1       2.288   1.554  -0.055  0.00  0.00     0.002 A 
ATOM      3  C3  N4B d   1       1.653   0.813  -1.021  0.00  0.00     0.002 A 
ATOM      4  C4  N4B d   1       1.991  -0.521  -1.195  0.00  0.00    -0.004 A 
ATOM      5  C5  N4B d   1       2.918  -1.101  -0.380  0.00  0.00     0.002 A 
ATOM      6  C6  N4B d   1       3.562  -0.370   0.598  0.00  0.00     0.002 A 
ENDROOT
BRANCH   1   7
ATOM      7  C1' N4B d   1       4.048   1.743   1.780  0.00  0.00     0.057 C 
BRANCH   7   8
ATOM      8  C2' N4B d   1       3.223   2.948   2.220  0.00  0.00     0.009 C 
BRANCH   8   9
ATOM      9  C3' N4B d   1       2.945   2.931   3.713  0.00  0.00     0.004 C 
ATOM     10  C4' N4B d   1       1.823   3.846   4.106  0.00  0.00     0.003 C 
ENDBRANCH   8   9
ENDBRANCH   7   8
ENDBRANCH   1   7
TORSDOF 3
ENDMDL
