MODEL 1
REMARK minimizedAffinity 14.3665581
REMARK minimizedRMSD -1
REMARK  3 active torsions:
REMARK  status: ('A' for Active; 'I' for Inactive)
REMARK    1  A    between atoms: C3'_2  and  C2'_3 
REMARK    2  A    between atoms: C2'_3  and  C1'_4 
REMARK    3  A    between atoms: C1'_4  and  C1_5 
ROOT
ATOM      1  C1  N4B d   1      -5.214   4.723   3.660  0.00  0.00    -0.075 A 
ATOM      2  C2  N4B d   1      -5.989   4.782   4.839  0.00  0.00     0.002 A 
ATOM      3  C3  N4B d   1      -5.445   5.287   5.994  0.00  0.00     0.002 A 
ATOM      4  C4  N4B d   1      -4.127   5.720   5.999  0.00  0.00    -0.004 A 
ATOM      5  C5  N4B d   1      -3.393   5.684   4.850  0.00  0.00     0.002 A 
ATOM      6  C6  N4B d   1      -3.929   5.183   3.680  0.00  0.00     0.002 A 
ENDROOT
BRANCH   1   7
ATOM      7  C1' N4B d   1      -5.739   4.100   2.395  0.00  0.00     0.057 C 
BRANCH   7   8
ATOM      8  C2' N4B d   1      -4.565   3.591   1.564  0.00  0.00     0.009 C 
BRANCH   8   9
ATOM      9  C3' N4B d   1      -5.020   2.996   0.243  0.00  0.00     0.004 C 
ATOM     10  C4' N4B d   1      -4.594   1.568   0.071  0.00  0.00     0.003 C 
ENDBRANCH   8   9
ENDBRANCH   7   8
ENDBRANCH   1   7
TORSDOF 3
ENDMDL
