MODEL 1
REMARK minimizedAffinity 6.86547041
REMARK minimizedRMSD -1
REMARK  0 active torsions:
REMARK  status: ('A' for Active; 'I' for Inactive)
ROOT
ATOM      1  C   UNL d   1       1.032  -5.200   5.860  0.00  0.00    -0.002 A 
ATOM      2  C1  UNL d   1      -0.004  -5.271   4.940  0.00  0.00     0.010 A 
ATOM      3  C2  UNL d   1      -0.323  -4.170   4.143  0.00  0.00     0.041 A 
ATOM      4  C3  UNL d   1       0.426  -2.985   4.286  0.00  0.00    -0.075 A 
ATOM      5  S   UNL d   1       0.216  -1.511   3.417  0.00  0.00     0.015 SA
ATOM      6  C4  UNL d   1       1.498  -0.753   4.246  0.00  0.00     0.022 A 
ATOM      7  C5  UNL d   1       2.082  -1.589   5.167  0.00  0.00     0.026 A 
ATOM      8  C6  UNL d   1       1.475  -2.890   5.205  0.00  0.00    -0.082 A 
ATOM      9  C7  UNL d   1       1.772  -4.023   6.000  0.00  0.00     0.045 A 
ENDROOT
TORSDOF 0
ENDMDL
