MODEL 1
REMARK minimizedAffinity -0.307900637
REMARK minimizedRMSD -1
REMARK  0 active torsions:
REMARK  status: ('A' for Active; 'I' for Inactive)
ROOT
ATOM      1  C   UNL d   1       3.743   1.547   5.769  0.00  0.00    -0.002 A 
ATOM      2  C1  UNL d   1       4.877   2.237   5.364  0.00  0.00     0.010 A 
ATOM      3  C2  UNL d   1       4.839   3.620   5.180  0.00  0.00     0.041 A 
ATOM      4  C3  UNL d   1       3.631   4.306   5.413  0.00  0.00    -0.075 A 
ATOM      5  S   UNL d   1       3.350   6.000   5.253  0.00  0.00     0.015 SA
ATOM      6  C4  UNL d   1       1.718   5.848   5.720  0.00  0.00     0.022 A 
ATOM      7  C5  UNL d   1       1.379   4.544   5.994  0.00  0.00     0.026 A 
ATOM      8  C6  UNL d   1       2.476   3.634   5.823  0.00  0.00    -0.082 A 
ATOM      9  C7  UNL d   1       2.546   2.231   6.000  0.00  0.00     0.045 A 
ENDROOT
TORSDOF 0
ENDMDL
