MODEL 1
REMARK minimizedAffinity 11.797883
REMARK minimizedRMSD -1
REMARK  0 active torsions:
REMARK  status: ('A' for Active; 'I' for Inactive)
ROOT
ATOM      1  C   UNL d   1       5.986   4.327   5.901  0.00  0.00    -0.002 A 
ATOM      2  C1  UNL d   1       4.792   5.034   5.902  0.00  0.00     0.010 A 
ATOM      3  C2  UNL d   1       3.569   4.361   5.926  0.00  0.00     0.041 A 
ATOM      4  C3  UNL d   1       3.566   2.953   5.951  0.00  0.00    -0.075 A 
ATOM      5  S   UNL d   1       2.188   1.916   5.984  0.00  0.00     0.015 SA
ATOM      6  C4  UNL d   1       3.153   0.511   5.998  0.00  0.00     0.022 A 
ATOM      7  C5  UNL d   1       4.495   0.807   5.978  0.00  0.00     0.026 A 
ATOM      8  C6  UNL d   1       4.755   2.219   5.951  0.00  0.00    -0.082 A 
ATOM      9  C7  UNL d   1       5.979   2.930   5.926  0.00  0.00     0.045 A 
ENDROOT
TORSDOF 0
ENDMDL
