MODEL 1
REMARK minimizedAffinity 8.95014954
REMARK minimizedRMSD -1
REMARK  0 active torsions:
REMARK  status: ('A' for Active; 'I' for Inactive)
ROOT
ATOM      1  C   UNL d   1      -5.998   1.939   0.288  0.00  0.00    -0.002 A 
ATOM      2  C1  UNL d   1      -5.198   1.375   1.272  0.00  0.00     0.010 A 
ATOM      3  C2  UNL d   1      -4.105   2.075   1.786  0.00  0.00     0.041 A 
ATOM      4  C3  UNL d   1      -3.828   3.365   1.292  0.00  0.00    -0.075 A 
ATOM      5  S   UNL d   1      -2.543   4.410   1.773  0.00  0.00     0.015 SA
ATOM      6  C4  UNL d   1      -3.027   5.629   0.686  0.00  0.00     0.022 A 
ATOM      7  C5  UNL d   1      -4.140   5.265  -0.036  0.00  0.00     0.026 A 
ATOM      8  C6  UNL d   1      -4.620   3.955   0.302  0.00  0.00    -0.082 A 
ATOM      9  C7  UNL d   1      -5.721   3.219  -0.199  0.00  0.00     0.045 A 
ENDROOT
TORSDOF 0
ENDMDL
