MODEL 1
REMARK minimizedAffinity 9.03453732
REMARK minimizedRMSD -1
REMARK  0 active torsions:
REMARK  status: ('A' for Active; 'I' for Inactive)
ROOT
ATOM      1  C   UNL d   1       0.060  -1.129   4.499  0.00  0.00    -0.002 A 
ATOM      2  C1  UNL d   1       1.123  -1.339   5.367  0.00  0.00     0.010 A 
ATOM      3  C2  UNL d   1       1.381  -2.612   5.878  0.00  0.00     0.041 A 
ATOM      4  C3  UNL d   1       0.547  -3.682   5.497  0.00  0.00    -0.075 A 
ATOM      5  S   UNL d   1       0.674  -5.327   5.997  0.00  0.00     0.015 SA
ATOM      6  C4  UNL d   1      -0.679  -5.790   5.069  0.00  0.00     0.022 A 
ATOM      7  C5  UNL d   1      -1.226  -4.728   4.389  0.00  0.00     0.026 A 
ATOM      8  C6  UNL d   1      -0.528  -3.496   4.624  0.00  0.00    -0.082 A 
ATOM      9  C7  UNL d   1      -0.765  -2.193   4.124  0.00  0.00     0.045 A 
ENDROOT
TORSDOF 0
ENDMDL
