MODEL 1
REMARK minimizedAffinity 17.0598392
REMARK minimizedRMSD -1
REMARK  0 active torsions:
REMARK  status: ('A' for Active; 'I' for Inactive)
ROOT
ATOM      1  C   UNL d   1       4.501   2.130   0.792  0.00  0.00    -0.002 A 
ATOM      2  C1  UNL d   1       5.568   3.001   0.620  0.00  0.00     0.010 A 
ATOM      3  C2  UNL d   1       6.000   3.811   1.672  0.00  0.00     0.041 A 
ATOM      4  C3  UNL d   1       5.337   3.729   2.913  0.00  0.00    -0.075 A 
ATOM      5  S   UNL d   1       5.693   4.623   4.343  0.00  0.00     0.015 SA
ATOM      6  C4  UNL d   1       4.439   3.869   5.216  0.00  0.00     0.022 A 
ATOM      7  C5  UNL d   1       3.755   2.955   4.451  0.00  0.00     0.026 A 
ATOM      8  C6  UNL d   1       4.262   2.858   3.111  0.00  0.00    -0.082 A 
ATOM      9  C7  UNL d   1       3.847   2.051   2.024  0.00  0.00     0.045 A 
ENDROOT
TORSDOF 0
ENDMDL
