MODEL 1
REMARK minimizedAffinity 2.47904444
REMARK minimizedRMSD -1
REMARK  0 active torsions:
REMARK  status: ('A' for Active; 'I' for Inactive)
ROOT
ATOM      1  C   UNL d   1       1.455   4.179   5.996  0.00  0.00    -0.002 A 
ATOM      2  C1  UNL d   1       2.393   5.203   5.985  0.00  0.00     0.010 A 
ATOM      3  C2  UNL d   1       3.759   4.915   5.979  0.00  0.00     0.041 A 
ATOM      4  C3  UNL d   1       4.171   3.568   5.982  0.00  0.00    -0.075 A 
ATOM      5  S   UNL d   1       5.791   2.976   5.975  0.00  0.00     0.015 SA
ATOM      6  C4  UNL d   1       5.277   1.351   5.984  0.00  0.00     0.022 A 
ATOM      7  C5  UNL d   1       3.906   1.244   5.993  0.00  0.00     0.026 A 
ATOM      8  C6  UNL d   1       3.246   2.520   5.992  0.00  0.00    -0.082 A 
ATOM      9  C7  UNL d   1       1.869   2.844   5.999  0.00  0.00     0.045 A 
ENDROOT
TORSDOF 0
ENDMDL
