MODEL 1
REMARK minimizedAffinity 8.31486511
REMARK minimizedRMSD -1
REMARK  0 active torsions:
REMARK  status: ('A' for Active; 'I' for Inactive)
ROOT
ATOM      1  C   UNL d   1      -5.492  -1.206   1.488  0.00  0.00     0.077 C 
ATOM      2  C1  UNL d   1      -4.383  -0.249   1.806  0.00  0.00    -0.074 A 
ATOM      3  C2  UNL d   1      -3.044  -0.639   1.700  0.00  0.00    -0.005 A 
ATOM      4  C3  UNL d   1      -2.022   0.265   1.990  0.00  0.00     0.006 A 
ATOM      5  C4  UNL d   1      -2.329   1.567   2.388  0.00  0.00    -0.005 A 
ATOM      6  C5  UNL d   1      -3.661   1.975   2.500  0.00  0.00    -0.074 A 
ATOM      7  C6  UNL d   1      -4.008   3.374   2.917  0.00  0.00     0.077 C 
ATOM      8  C7  UNL d   1      -4.682   1.063   2.200  0.00  0.00    -0.001 A 
ENDROOT
TORSDOF 0
ENDMDL
