MODEL 1
REMARK minimizedAffinity 16.4377022
REMARK minimizedRMSD -1
REMARK  0 active torsions:
REMARK  status: ('A' for Active; 'I' for Inactive)
ROOT
ATOM      1  C   UNL d   1      -2.908  -1.294   5.793  0.00  0.00     0.077 C 
ATOM      2  C1  UNL d   1      -2.362  -1.264   4.397  0.00  0.00    -0.074 A 
ATOM      3  C2  UNL d   1      -2.949  -0.463   3.412  0.00  0.00    -0.005 A 
ATOM      4  C3  UNL d   1      -2.423  -0.438   2.121  0.00  0.00     0.006 A 
ATOM      5  C4  UNL d   1      -1.307  -1.213   1.801  0.00  0.00    -0.005 A 
ATOM      6  C5  UNL d   1      -0.707  -2.019   2.773  0.00  0.00    -0.074 A 
ATOM      7  C6  UNL d   1       0.499  -2.850   2.448  0.00  0.00     0.077 C 
ATOM      8  C7  UNL d   1      -1.236  -2.033   4.070  0.00  0.00    -0.001 A 
ENDROOT
TORSDOF 0
ENDMDL
