MODEL 1
REMARK minimizedAffinity 6.83687019
REMARK minimizedRMSD -1
REMARK  0 active torsions:
REMARK  status: ('A' for Active; 'I' for Inactive)
ROOT
ATOM      1  C   UNL d   1      -4.364   2.231   3.248  0.00  0.00     0.077 C 
ATOM      2  C1  UNL d   1      -3.274   1.341   2.728  0.00  0.00    -0.074 A 
ATOM      3  C2  UNL d   1      -3.016   0.100   3.319  0.00  0.00    -0.005 A 
ATOM      4  C3  UNL d   1      -2.005  -0.721   2.818  0.00  0.00     0.006 A 
ATOM      5  C4  UNL d   1      -1.244  -0.310   1.723  0.00  0.00    -0.005 A 
ATOM      6  C5  UNL d   1      -1.489   0.927   1.118  0.00  0.00    -0.074 A 
ATOM      7  C6  UNL d   1      -0.687   1.380  -0.066  0.00  0.00     0.077 C 
ATOM      8  C7  UNL d   1      -2.511   1.743   1.623  0.00  0.00    -0.001 A 
ENDROOT
TORSDOF 0
ENDMDL
