MODEL 1
REMARK minimizedAffinity 10.5606518
REMARK minimizedRMSD -1
REMARK  0 active torsions:
REMARK  status: ('A' for Active; 'I' for Inactive)
ROOT
ATOM      1  C   UNL d   1      -0.510  -3.645  -6.000  0.00  0.00     0.077 C 
ATOM      2  C1  UNL d   1      -0.100  -2.297  -5.485  0.00  0.00    -0.074 A 
ATOM      3  C2  UNL d   1       0.974  -2.162  -4.600  0.00  0.00    -0.005 A 
ATOM      4  C3  UNL d   1       1.350  -0.901  -4.136  0.00  0.00     0.006 A 
ATOM      5  C4  UNL d   1       0.655   0.235  -4.552  0.00  0.00    -0.005 A 
ATOM      6  C5  UNL d   1      -0.421   0.120  -5.437  0.00  0.00    -0.074 A 
ATOM      7  C6  UNL d   1      -1.172   1.333  -5.901  0.00  0.00     0.077 C 
ATOM      8  C7  UNL d   1      -0.788  -1.150  -5.904  0.00  0.00    -0.001 A 
ENDROOT
TORSDOF 0
ENDMDL
