MODEL 1
REMARK minimizedAffinity 3.6962111
REMARK minimizedRMSD -1
REMARK  0 active torsions:
REMARK  status: ('A' for Active; 'I' for Inactive)
ROOT
ATOM      1  C   UNL d   1      -4.161   2.713   2.598  0.00  0.00     0.077 C 
ATOM      2  C1  UNL d   1      -3.150   1.669   2.230  0.00  0.00    -0.074 A 
ATOM      3  C2  UNL d   1      -2.509   1.695   0.987  0.00  0.00    -0.005 A 
ATOM      4  C3  UNL d   1      -1.563   0.722   0.663  0.00  0.00     0.006 A 
ATOM      5  C4  UNL d   1      -1.249  -0.285   1.576  0.00  0.00    -0.005 A 
ATOM      6  C5  UNL d   1      -1.879  -0.327   2.824  0.00  0.00    -0.074 A 
ATOM      7  C6  UNL d   1      -1.546  -1.397   3.821  0.00  0.00     0.077 C 
ATOM      8  C7  UNL d   1      -2.823   0.658   3.146  0.00  0.00    -0.001 A 
ENDROOT
TORSDOF 0
ENDMDL
