MODEL 1
REMARK minimizedAffinity 3.86969781
REMARK minimizedRMSD -1
REMARK  0 active torsions:
REMARK  status: ('A' for Active; 'I' for Inactive)
ROOT
ATOM      1  C   UNL d   1      -5.264  -4.042  -5.999  0.00  0.00     0.077 C 
ATOM      2  C1  UNL d   1      -5.272  -3.079  -4.849  0.00  0.00    -0.074 A 
ATOM      3  C2  UNL d   1      -4.962  -1.729  -5.040  0.00  0.00    -0.005 A 
ATOM      4  C3  UNL d   1      -4.983  -0.843  -3.963  0.00  0.00     0.006 A 
ATOM      5  C4  UNL d   1      -5.314  -1.298  -2.686  0.00  0.00    -0.005 A 
ATOM      6  C5  UNL d   1      -5.628  -2.645  -2.476  0.00  0.00    -0.074 A 
ATOM      7  C6  UNL d   1      -5.995  -3.148  -1.112  0.00  0.00     0.077 C 
ATOM      8  C7  UNL d   1      -5.611  -3.527  -3.565  0.00  0.00    -0.001 A 
ENDROOT
TORSDOF 0
ENDMDL
