MODEL 1
REMARK minimizedAffinity 8.99158859
REMARK minimizedRMSD -1
REMARK  0 active torsions:
REMARK  status: ('A' for Active; 'I' for Inactive)
ROOT
ATOM      1  C   UNL d   1      -0.513  -2.099  -6.000  0.00  0.00     0.077 C 
ATOM      2  C1  UNL d   1       0.394  -1.152  -5.271  0.00  0.00    -0.074 A 
ATOM      3  C2  UNL d   1       0.757  -1.385  -3.941  0.00  0.00    -0.005 A 
ATOM      4  C3  UNL d   1       1.609  -0.501  -3.279  0.00  0.00     0.006 A 
ATOM      5  C4  UNL d   1       2.107   0.622  -3.940  0.00  0.00    -0.005 A 
ATOM      6  C5  UNL d   1       1.756   0.871  -5.271  0.00  0.00    -0.074 A 
ATOM      7  C6  UNL d   1       2.290   2.069  -5.999  0.00  0.00     0.077 C 
ATOM      8  C7  UNL d   1       0.905  -0.026  -5.931  0.00  0.00    -0.001 A 
ENDROOT
TORSDOF 0
ENDMDL
