MODEL 1
REMARK minimizedAffinity 11.2934151
REMARK minimizedRMSD -1
REMARK  0 active torsions:
REMARK  status: ('A' for Active; 'I' for Inactive)
ROOT
ATOM      1  C   UNL d   1       4.698  -0.009  -6.000  0.00  0.00     0.077 C 
ATOM      2  C1  UNL d   1       3.402  -0.204  -5.270  0.00  0.00    -0.074 A 
ATOM      3  C2  UNL d   1       3.144   0.468  -4.071  0.00  0.00    -0.005 A 
ATOM      4  C3  UNL d   1       1.931   0.284  -3.409  0.00  0.00     0.006 A 
ATOM      5  C4  UNL d   1       0.965  -0.574  -3.937  0.00  0.00    -0.005 A 
ATOM      6  C5  UNL d   1       1.205  -1.254  -5.135  0.00  0.00    -0.074 A 
ATOM      7  C6  UNL d   1       0.174  -2.172  -5.721  0.00  0.00     0.077 C 
ATOM      8  C7  UNL d   1       2.424  -1.058  -5.798  0.00  0.00    -0.001 A 
ENDROOT
TORSDOF 0
ENDMDL
