MODEL 1
REMARK minimizedAffinity 4.22621536
REMARK minimizedRMSD -1
REMARK  0 active torsions:
REMARK  status: ('A' for Active; 'I' for Inactive)
ROOT
ATOM      1  C   UNL d   1      -3.035  -1.708   5.373  0.00  0.00     0.077 C 
ATOM      2  C1  UNL d   1      -2.240  -1.064   4.276  0.00  0.00    -0.074 A 
ATOM      3  C2  UNL d   1      -0.887  -1.368   4.095  0.00  0.00    -0.005 A 
ATOM      4  C3  UNL d   1      -0.163  -0.768   3.065  0.00  0.00     0.006 A 
ATOM      5  C4  UNL d   1      -0.783   0.141   2.207  0.00  0.00    -0.005 A 
ATOM      6  C5  UNL d   1      -2.135   0.457   2.372  0.00  0.00    -0.074 A 
ATOM      7  C6  UNL d   1      -2.820   1.424   1.453  0.00  0.00     0.077 C 
ATOM      8  C7  UNL d   1      -2.858  -0.156   3.405  0.00  0.00    -0.001 A 
ENDROOT
TORSDOF 0
ENDMDL
