MODEL 1
REMARK minimizedAffinity 16.211319
REMARK minimizedRMSD -1
REMARK  0 active torsions:
REMARK  status: ('A' for Active; 'I' for Inactive)
ROOT
ATOM      1  C   UNL d   1      -5.999  -0.164   0.751  0.00  0.00     0.077 C 
ATOM      2  C1  UNL d   1      -5.042  -1.307   0.586  0.00  0.00    -0.074 A 
ATOM      3  C2  UNL d   1      -3.668  -1.127   0.775  0.00  0.00    -0.005 A 
ATOM      4  C3  UNL d   1      -2.792  -2.202   0.628  0.00  0.00     0.006 A 
ATOM      5  C4  UNL d   1      -3.279  -3.465   0.289  0.00  0.00    -0.005 A 
ATOM      6  C5  UNL d   1      -4.650  -3.664   0.097  0.00  0.00    -0.074 A 
ATOM      7  C6  UNL d   1      -5.191  -5.017  -0.257  0.00  0.00     0.077 C 
ATOM      8  C7  UNL d   1      -5.525  -2.580   0.254  0.00  0.00    -0.001 A 
ENDROOT
TORSDOF 0
ENDMDL
