MODEL 1
REMARK minimizedAffinity 9.80549145
REMARK minimizedRMSD -1
REMARK  0 active torsions:
REMARK  status: ('A' for Active; 'I' for Inactive)
ROOT
ATOM      1  C   UNL d   1      -1.235  -3.784   0.747  0.00  0.00     0.077 C 
ATOM      2  C1  UNL d   1      -2.669  -3.541   0.381  0.00  0.00    -0.074 A 
ATOM      3  C2  UNL d   1      -3.423  -4.525  -0.267  0.00  0.00    -0.005 A 
ATOM      4  C3  UNL d   1      -4.758  -4.288  -0.592  0.00  0.00     0.006 A 
ATOM      5  C4  UNL d   1      -5.353  -3.066  -0.275  0.00  0.00    -0.005 A 
ATOM      6  C5  UNL d   1      -4.615  -2.070   0.373  0.00  0.00    -0.074 A 
ATOM      7  C6  UNL d   1      -5.241  -0.755   0.731  0.00  0.00     0.077 C 
ATOM      8  C7  UNL d   1      -3.276  -2.319   0.703  0.00  0.00    -0.001 A 
ENDROOT
TORSDOF 0
ENDMDL
