MODEL 1
REMARK minimizedAffinity 6.93115187
REMARK minimizedRMSD -1
REMARK  0 active torsions:
REMARK  status: ('A' for Active; 'I' for Inactive)
ROOT
ATOM      1  C   UNL d   1      -2.263  -0.011   0.164  0.00  0.00     0.077 C 
ATOM      2  C1  UNL d   1      -2.110   1.295   0.885  0.00  0.00    -0.074 A 
ATOM      3  C2  UNL d   1      -3.159   2.219   0.929  0.00  0.00    -0.005 A 
ATOM      4  C3  UNL d   1      -3.006   3.425   1.612  0.00  0.00     0.006 A 
ATOM      5  C4  UNL d   1      -1.804   3.719   2.257  0.00  0.00    -0.005 A 
ATOM      6  C5  UNL d   1      -0.744   2.808   2.224  0.00  0.00    -0.074 A 
ATOM      7  C6  UNL d   1       0.551   3.104   2.920  0.00  0.00     0.077 C 
ATOM      8  C7  UNL d   1      -0.909   1.594   1.542  0.00  0.00    -0.001 A 
ENDROOT
TORSDOF 0
ENDMDL
