MODEL 1
REMARK minimizedAffinity 7.90441036
REMARK minimizedRMSD -1
REMARK  0 active torsions:
REMARK  status: ('A' for Active; 'I' for Inactive)
ROOT
ATOM      1  C   UNL d   1       0.778   2.585   3.455  0.00  0.00     0.077 C 
ATOM      2  C1  UNL d   1      -0.335   2.223   2.518  0.00  0.00    -0.074 A 
ATOM      3  C2  UNL d   1      -0.206   1.152   1.628  0.00  0.00    -0.005 A 
ATOM      4  C3  UNL d   1      -1.254   0.821   0.769  0.00  0.00     0.006 A 
ATOM      5  C4  UNL d   1      -2.440   1.556   0.791  0.00  0.00    -0.005 A 
ATOM      6  C5  UNL d   1      -2.587   2.631   1.674  0.00  0.00    -0.074 A 
ATOM      7  C6  UNL d   1      -3.858   3.426   1.717  0.00  0.00     0.077 C 
ATOM      8  C7  UNL d   1      -1.532   2.953   2.539  0.00  0.00    -0.001 A 
ENDROOT
TORSDOF 0
ENDMDL
