MODEL 1
REMARK minimizedAffinity 12.2024908
REMARK minimizedRMSD -1
REMARK  0 active torsions:
REMARK  status: ('A' for Active; 'I' for Inactive)
ROOT
ATOM      1  C   UNL d   1      -3.149   2.962   1.109  0.00  0.00     0.077 C 
ATOM      2  C1  UNL d   1      -4.143   4.014   1.503  0.00  0.00    -0.074 A 
ATOM      3  C2  UNL d   1      -5.074   4.504   0.582  0.00  0.00    -0.005 A 
ATOM      4  C3  UNL d   1      -5.998   5.476   0.965  0.00  0.00     0.006 A 
ATOM      5  C4  UNL d   1      -6.000   5.968   2.271  0.00  0.00    -0.005 A 
ATOM      6  C5  UNL d   1      -5.076   5.489   3.206  0.00  0.00    -0.074 A 
ATOM      7  C6  UNL d   1      -5.071   5.999   4.616  0.00  0.00     0.077 C 
ATOM      8  C7  UNL d   1      -4.156   4.507   2.815  0.00  0.00    -0.001 A 
ENDROOT
TORSDOF 0
ENDMDL
