MODEL 1
REMARK minimizedAffinity 12.5581284
REMARK minimizedRMSD -1
REMARK  0 active torsions:
REMARK  status: ('A' for Active; 'I' for Inactive)
ROOT
ATOM      1  C   UNL d   1      -6.000  -0.720   0.859  0.00  0.00     0.077 C 
ATOM      2  C1  UNL d   1      -4.845  -1.666   0.716  0.00  0.00    -0.074 A 
ATOM      3  C2  UNL d   1      -3.539  -1.254   1.001  0.00  0.00    -0.005 A 
ATOM      4  C3  UNL d   1      -2.476  -2.148   0.872  0.00  0.00     0.006 A 
ATOM      5  C4  UNL d   1      -2.707  -3.460   0.457  0.00  0.00    -0.005 A 
ATOM      6  C5  UNL d   1      -4.006  -3.890   0.169  0.00  0.00    -0.074 A 
ATOM      7  C6  UNL d   1      -4.274  -5.300  -0.269  0.00  0.00     0.077 C 
ATOM      8  C7  UNL d   1      -5.070  -2.988   0.307  0.00  0.00    -0.001 A 
ENDROOT
TORSDOF 0
ENDMDL
