MODEL 1
REMARK minimizedAffinity 11.9555359
REMARK minimizedRMSD -1
REMARK  0 active torsions:
REMARK  status: ('A' for Active; 'I' for Inactive)
ROOT
ATOM      1  C   UNL d   1       4.634   2.825  -5.975  0.00  0.00     0.077 C 
ATOM      2  C1  UNL d   1       3.868   2.067  -4.931  0.00  0.00    -0.074 A 
ATOM      3  C2  UNL d   1       3.698   2.587  -3.645  0.00  0.00    -0.005 A 
ATOM      4  C3  UNL d   1       2.975   1.875  -2.688  0.00  0.00     0.006 A 
ATOM      5  C4  UNL d   1       2.416   0.637  -3.007  0.00  0.00    -0.005 A 
ATOM      6  C5  UNL d   1       2.575   0.101  -4.289  0.00  0.00    -0.074 A 
ATOM      7  C6  UNL d   1       1.973  -1.224  -4.652  0.00  0.00     0.077 C 
ATOM      8  C7  UNL d   1       3.297   0.826  -5.247  0.00  0.00    -0.001 A 
ENDROOT
TORSDOF 0
ENDMDL
