MODEL 1
REMARK minimizedAffinity 8.52734566
REMARK minimizedRMSD -1
REMARK  0 active torsions:
REMARK  status: ('A' for Active; 'I' for Inactive)
ROOT
ATOM      1  C   UNL d   1      -0.863  -1.679   2.749  0.00  0.00     0.077 C 
ATOM      2  C1  UNL d   1      -1.914  -1.190   1.797  0.00  0.00    -0.074 A 
ATOM      3  C2  UNL d   1      -2.702  -2.090   1.072  0.00  0.00    -0.005 A 
ATOM      4  C3  UNL d   1      -3.682  -1.620   0.198  0.00  0.00     0.006 A 
ATOM      5  C4  UNL d   1      -3.884  -0.248   0.040  0.00  0.00    -0.005 A 
ATOM      6  C5  UNL d   1      -3.106   0.666   0.757  0.00  0.00    -0.074 A 
ATOM      7  C6  UNL d   1      -3.317   2.144   0.607  0.00  0.00     0.077 C 
ATOM      8  C7  UNL d   1      -2.128   0.187   1.639  0.00  0.00    -0.001 A 
ENDROOT
TORSDOF 0
ENDMDL
