MODEL 1
REMARK minimizedAffinity 4.71458721
REMARK minimizedRMSD -1
REMARK  0 active torsions:
REMARK  status: ('A' for Active; 'I' for Inactive)
ROOT
ATOM      1  C1  DEN d   1      -3.461   5.992  -4.336  0.00  0.00     0.130 A 
ATOM      2  C2  DEN d   1      -3.788   5.963  -2.913  0.00  0.00    -0.031 A 
ATOM      3  C3  DEN d   1      -2.522   5.952  -2.153  0.00  0.00     0.027 A 
ATOM      4  C4  DEN d   1      -0.099   5.983  -3.037  0.00  0.00     0.027 A 
ATOM      5  C5  DEN d   1       0.682   5.997  -4.172  0.00  0.00    -0.003 A 
ATOM      6  C6  DEN d   1       0.142   5.976  -5.430  0.00  0.00     0.001 A 
ATOM      7  C7  DEN d   1      -1.219   5.986  -5.585  0.00  0.00     0.017 A 
ATOM      8  C8  DEN d   1      -2.013   5.964  -4.446  0.00  0.00    -0.094 A 
ATOM      9  C9  DEN d   1      -1.448   5.998  -3.182  0.00  0.00    -0.072 A 
ENDROOT
TORSDOF 0
ENDMDL
