MODEL 1
REMARK minimizedAffinity -2.73580956
REMARK minimizedRMSD -1
REMARK  0 active torsions:
REMARK  status: ('A' for Active; 'I' for Inactive)
ROOT
ATOM      1  C1  DEN d   1      -1.497   5.971  -6.000  0.00  0.00     0.130 A 
ATOM      2  C2  DEN d   1      -0.068   5.989  -5.699  0.00  0.00    -0.031 A 
ATOM      3  C3  DEN d   1       0.089   5.994  -4.230  0.00  0.00     0.027 A 
ATOM      4  C4  DEN d   1      -1.732   5.970  -2.404  0.00  0.00     0.027 A 
ATOM      5  C5  DEN d   1      -3.089   5.965  -2.172  0.00  0.00    -0.003 A 
ATOM      6  C6  DEN d   1      -4.004   5.996  -3.191  0.00  0.00     0.001 A 
ATOM      7  C7  DEN d   1      -3.572   5.987  -4.491  0.00  0.00     0.017 A 
ATOM      8  C8  DEN d   1      -2.205   6.000  -4.733  0.00  0.00    -0.094 A 
ATOM      9  C9  DEN d   1      -1.296   5.956  -3.689  0.00  0.00    -0.072 A 
ENDROOT
TORSDOF 0
ENDMDL
