MODEL 1
REMARK minimizedAffinity 0.711834729
REMARK minimizedRMSD -1
REMARK  0 active torsions:
REMARK  status: ('A' for Active; 'I' for Inactive)
ROOT
ATOM      1  C1  DEN d   1       1.420   5.916  -5.965  0.00  0.00     0.130 A 
ATOM      2  C2  DEN d   1       2.421   5.945  -4.902  0.00  0.00    -0.031 A 
ATOM      3  C3  DEN d   1       1.712   5.982  -3.607  0.00  0.00     0.027 A 
ATOM      4  C4  DEN d   1      -0.826   5.993  -3.147  0.00  0.00     0.027 A 
ATOM      5  C5  DEN d   1      -2.073   5.989  -3.733  0.00  0.00    -0.003 A 
ATOM      6  C6  DEN d   1      -2.242   5.995  -5.092  0.00  0.00     0.001 A 
ATOM      7  C7  DEN d   1      -1.145   5.959  -5.912  0.00  0.00     0.017 A 
ATOM      8  C8  DEN d   1       0.115   5.970  -5.330  0.00  0.00    -0.094 A 
ATOM      9  C9  DEN d   1       0.265   5.953  -3.953  0.00  0.00    -0.072 A 
ENDROOT
TORSDOF 0
ENDMDL
