MODEL 1
REMARK minimizedAffinity -0.456325054
REMARK minimizedRMSD -1
REMARK  0 active torsions:
REMARK  status: ('A' for Active; 'I' for Inactive)
ROOT
ATOM      1  C1  DEN d   1       0.367   5.932  -3.842  0.00  0.00     0.130 A 
ATOM      2  C2  DEN d   1       0.641   5.935  -5.276  0.00  0.00    -0.031 A 
ATOM      3  C3  DEN d   1      -0.652   5.960  -5.988  0.00  0.00     0.027 A 
ATOM      4  C4  DEN d   1      -3.040   6.000  -5.014  0.00  0.00     0.027 A 
ATOM      5  C5  DEN d   1      -3.778   5.995  -3.852  0.00  0.00    -0.003 A 
ATOM      6  C6  DEN d   1      -3.193   5.936  -2.615  0.00  0.00     0.001 A 
ATOM      7  C7  DEN d   1      -1.827   5.924  -2.511  0.00  0.00     0.017 A 
ATOM      8  C8  DEN d   1      -1.076   5.921  -3.679  0.00  0.00    -0.094 A 
ATOM      9  C9  DEN d   1      -1.686   5.993  -4.919  0.00  0.00    -0.072 A 
ENDROOT
TORSDOF 0
ENDMDL
