MODEL 1
REMARK minimizedAffinity -2.15610552
REMARK minimizedRMSD -1
REMARK  0 active torsions:
REMARK  status: ('A' for Active; 'I' for Inactive)
ROOT
ATOM      1  C1  DEN d   1      -2.328   5.970  -2.910  0.00  0.00     0.130 A 
ATOM      2  C2  DEN d   1      -3.402   5.978  -3.901  0.00  0.00    -0.031 A 
ATOM      3  C3  DEN d   1      -2.785   5.974  -5.242  0.00  0.00     0.027 A 
ATOM      4  C4  DEN d   1      -0.285   5.954  -5.879  0.00  0.00     0.027 A 
ATOM      5  C5  DEN d   1       0.999   5.957  -5.383  0.00  0.00    -0.003 A 
ATOM      6  C6  DEN d   1       1.263   5.998  -4.039  0.00  0.00     0.001 A 
ATOM      7  C7  DEN d   1       0.227   5.993  -3.144  0.00  0.00     0.017 A 
ATOM      8  C8  DEN d   1      -1.071   5.998  -3.637  0.00  0.00    -0.094 A 
ATOM      9  C9  DEN d   1      -1.317   5.943  -4.998  0.00  0.00    -0.072 A 
ENDROOT
TORSDOF 0
ENDMDL
