MODEL 1
REMARK minimizedAffinity 1.35980761
REMARK minimizedRMSD -1
REMARK  0 active torsions:
REMARK  status: ('A' for Active; 'I' for Inactive)
ROOT
ATOM      1  C1  DEN d   1      -0.203   5.934  -2.477  0.00  0.00     0.130 A 
ATOM      2  C2  DEN d   1      -1.565   5.960  -3.004  0.00  0.00    -0.031 A 
ATOM      3  C3  DEN d   1      -1.484   5.989  -4.478  0.00  0.00     0.027 A 
ATOM      4  C4  DEN d   1       0.606   5.992  -5.989  0.00  0.00     0.027 A 
ATOM      5  C5  DEN d   1       1.984   5.987  -5.999  0.00  0.00    -0.003 A 
ATOM      6  C6  DEN d   1       2.723   5.999  -4.846  0.00  0.00     0.001 A 
ATOM      7  C7  DEN d   1       2.088   5.970  -3.633  0.00  0.00     0.017 A 
ATOM      8  C8  DEN d   1       0.699   5.982  -3.614  0.00  0.00    -0.094 A 
ATOM      9  C9  DEN d   1      -0.030   5.957  -4.791  0.00  0.00    -0.072 A 
ENDROOT
TORSDOF 0
ENDMDL
