MODEL 1
REMARK minimizedAffinity 0.661411881
REMARK minimizedRMSD -1
REMARK  0 active torsions:
REMARK  status: ('A' for Active; 'I' for Inactive)
ROOT
ATOM      1  C1  DEN d   1      -3.566   5.998  -4.175  0.00  0.00     0.130 A 
ATOM      2  C2  DEN d   1      -4.126   5.983  -2.826  0.00  0.00    -0.031 A 
ATOM      3  C3  DEN d   1      -3.004   5.970  -1.866  0.00  0.00     0.027 A 
ATOM      4  C4  DEN d   1      -0.467   5.976  -2.334  0.00  0.00     0.027 A 
ATOM      5  C5  DEN d   1       0.492   5.975  -3.322  0.00  0.00    -0.003 A 
ATOM      6  C6  DEN d   1       0.168   5.947  -4.653  0.00  0.00     0.001 A 
ATOM      7  C7  DEN d   1      -1.148   5.965  -5.033  0.00  0.00     0.017 A 
ATOM      8  C8  DEN d   1      -2.120   5.959  -4.041  0.00  0.00    -0.094 A 
ATOM      9  C9  DEN d   1      -1.774   5.999  -2.702  0.00  0.00    -0.072 A 
ENDROOT
TORSDOF 0
ENDMDL
