MODEL 1
REMARK minimizedAffinity 6.59960365
REMARK minimizedRMSD -1
REMARK  0 active torsions:
REMARK  status: ('A' for Active; 'I' for Inactive)
ROOT
ATOM      1  C1  DEN d   1       0.121   0.747   2.286  0.00  0.00     0.130 A 
ATOM      2  C2  DEN d   1      -0.509  -0.535   1.979  0.00  0.00    -0.031 A 
ATOM      3  C3  DEN d   1      -0.632  -0.643   0.512  0.00  0.00     0.027 A 
ATOM      4  C4  DEN d   1       0.091   1.037  -1.306  0.00  0.00     0.027 A 
ATOM      5  C5  DEN d   1       0.659   2.271  -1.532  0.00  0.00    -0.003 A 
ATOM      6  C6  DEN d   1       1.054   3.092  -0.508  0.00  0.00     0.001 A 
ATOM      7  C7  DEN d   1       0.926   2.668   0.788  0.00  0.00     0.017 A 
ATOM      8  C8  DEN d   1       0.347   1.428   1.024  0.00  0.00    -0.094 A 
ATOM      9  C9  DEN d   1      -0.034   0.609  -0.025  0.00  0.00    -0.072 A 
ENDROOT
TORSDOF 0
ENDMDL
