MODEL 1
REMARK minimizedAffinity 14.5022135
REMARK minimizedRMSD -1
REMARK  0 active torsions:
REMARK  status: ('A' for Active; 'I' for Inactive)
ROOT
ATOM      1  C1  DEN d   1       1.835  -0.433  -3.110  0.00  0.00     0.130 A 
ATOM      2  C2  DEN d   1       2.296   0.921  -3.404  0.00  0.00    -0.031 A 
ATOM      3  C3  DEN d   1       1.509   1.434  -4.544  0.00  0.00     0.027 A 
ATOM      4  C4  DEN d   1      -0.371   0.270  -5.872  0.00  0.00     0.027 A 
ATOM      5  C5  DEN d   1      -1.104  -0.889  -5.999  0.00  0.00    -0.003 A 
ATOM      6  C6  DEN d   1      -0.887  -1.981  -5.201  0.00  0.00     0.001 A 
ATOM      7  C7  DEN d   1       0.056  -1.921  -4.209  0.00  0.00     0.017 A 
ATOM      8  C8  DEN d   1       0.804  -0.758  -4.080  0.00  0.00    -0.094 A 
ATOM      9  C9  DEN d   1       0.561   0.340  -4.888  0.00  0.00    -0.072 A 
ENDROOT
TORSDOF 0
ENDMDL
