MODEL 1
REMARK minimizedAffinity -3.22725582
REMARK minimizedRMSD -1
REMARK  0 active torsions:
REMARK  status: ('A' for Active; 'I' for Inactive)
ROOT
ATOM      1  C1  DEN d   1       1.584   5.870  -3.625  0.00  0.00     0.130 A 
ATOM      2  C2  DEN d   1       0.787   5.903  -4.849  0.00  0.00    -0.031 A 
ATOM      3  C3  DEN d   1       1.715   5.960  -5.996  0.00  0.00     0.027 A 
ATOM      4  C4  DEN d   1       4.294   5.995  -5.998  0.00  0.00     0.027 A 
ATOM      5  C5  DEN d   1       5.417   5.994  -5.200  0.00  0.00    -0.003 A 
ATOM      6  C6  DEN d   1       5.342   5.986  -3.832  0.00  0.00     0.001 A 
ATOM      7  C7  DEN d   1       4.117   5.933  -3.221  0.00  0.00     0.017 A 
ATOM      8  C8  DEN d   1       2.980   5.941  -4.018  0.00  0.00    -0.094 A 
ATOM      9  C9  DEN d   1       3.077   5.938  -5.399  0.00  0.00    -0.072 A 
ENDROOT
TORSDOF 0
ENDMDL
