MODEL 1
REMARK minimizedAffinity 3.62967849
REMARK minimizedRMSD -1
REMARK  0 active torsions:
REMARK  status: ('A' for Active; 'I' for Inactive)
ROOT
ATOM      1  C1  DEN d   1       1.650   5.997  -5.999  0.00  0.00     0.130 A 
ATOM      2  C2  DEN d   1       0.665   4.995  -5.600  0.00  0.00    -0.031 A 
ATOM      3  C3  DEN d   1       1.393   3.826  -5.068  0.00  0.00     0.027 A 
ATOM      4  C4  DEN d   1       3.936   3.473  -4.821  0.00  0.00     0.027 A 
ATOM      5  C5  DEN d   1       5.174   4.038  -5.035  0.00  0.00    -0.003 A 
ATOM      6  C6  DEN d   1       5.324   5.271  -5.611  0.00  0.00     0.001 A 
ATOM      7  C7  DEN d   1       4.215   6.000  -5.953  0.00  0.00     0.017 A 
ATOM      8  C8  DEN d   1       2.964   5.433  -5.748  0.00  0.00    -0.094 A 
ATOM      9  C9  DEN d   1       2.833   4.190  -5.152  0.00  0.00    -0.072 A 
ENDROOT
TORSDOF 0
ENDMDL
