MODEL 1
REMARK minimizedAffinity -2.73566532
REMARK minimizedRMSD -1
REMARK  0 active torsions:
REMARK  status: ('A' for Active; 'I' for Inactive)
ROOT
ATOM      1  C1  DEN d   1       1.461   3.881  -5.053  0.00  0.00     0.130 A 
ATOM      2  C2  DEN d   1       0.926   4.973  -5.861  0.00  0.00    -0.031 A 
ATOM      3  C3  DEN d   1       1.979   5.998  -5.999  0.00  0.00     0.027 A 
ATOM      4  C4  DEN d   1       4.377   5.999  -5.047  0.00  0.00     0.027 A 
ATOM      5  C5  DEN d   1       5.283   5.293  -4.287  0.00  0.00    -0.003 A 
ATOM      6  C6  DEN d   1       4.971   4.093  -3.706  0.00  0.00     0.001 A 
ATOM      7  C7  DEN d   1       3.734   3.540  -3.912  0.00  0.00     0.017 A 
ATOM      8  C8  DEN d   1       2.813   4.250  -4.671  0.00  0.00    -0.094 A 
ATOM      9  C9  DEN d   1       3.152   5.456  -5.261  0.00  0.00    -0.072 A 
ENDROOT
TORSDOF 0
ENDMDL
