MODEL 1
REMARK minimizedAffinity 0.0527321696
REMARK minimizedRMSD -1
REMARK  0 active torsions:
REMARK  status: ('A' for Active; 'I' for Inactive)
ROOT
ATOM      1  C1  DEN d   1      -0.556   5.942  -5.667  0.00  0.00     0.130 A 
ATOM      2  C2  DEN d   1       0.820   5.969  -5.178  0.00  0.00    -0.031 A 
ATOM      3  C3  DEN d   1       0.780   5.995  -3.702  0.00  0.00     0.027 A 
ATOM      4  C4  DEN d   1      -1.269   5.993  -2.135  0.00  0.00     0.027 A 
ATOM      5  C5  DEN d   1      -2.645   5.987  -2.086  0.00  0.00    -0.003 A 
ATOM      6  C6  DEN d   1      -3.416   6.000  -3.219  0.00  0.00     0.001 A 
ATOM      7  C7  DEN d   1      -2.814   5.973  -4.449  0.00  0.00     0.017 A 
ATOM      8  C8  DEN d   1      -1.427   5.987  -4.506  0.00  0.00    -0.094 A 
ATOM      9  C9  DEN d   1      -0.665   5.962  -3.350  0.00  0.00    -0.072 A 
ENDROOT
TORSDOF 0
ENDMDL
