MODEL 1
REMARK minimizedAffinity 14.5059576
REMARK minimizedRMSD -1
REMARK  0 active torsions:
REMARK  status: ('A' for Active; 'I' for Inactive)
ROOT
ATOM      1  C1  DEN d   1      -1.511   5.914  -2.661  0.00  0.00     0.130 A 
ATOM      2  C2  DEN d   1      -2.769   5.978  -3.401  0.00  0.00    -0.031 A 
ATOM      3  C3  DEN d   1      -2.451   5.978  -4.843  0.00  0.00     0.027 A 
ATOM      4  C4  DEN d   1      -0.146   5.881  -5.996  0.00  0.00     0.027 A 
ATOM      5  C5  DEN d   1       1.214   5.830  -5.784  0.00  0.00    -0.003 A 
ATOM      6  C6  DEN d   1       1.758   5.837  -4.527  0.00  0.00     0.001 A 
ATOM      7  C7  DEN d   1       0.935   5.851  -3.432  0.00  0.00     0.017 A 
ATOM      8  C8  DEN d   1      -0.437   5.911  -3.637  0.00  0.00    -0.094 A 
ATOM      9  C9  DEN d   1      -0.968   5.891  -4.916  0.00  0.00    -0.072 A 
ENDROOT
TORSDOF 0
ENDMDL
