MODEL 1
REMARK minimizedAffinity 12.994813
REMARK minimizedRMSD -1
REMARK  0 active torsions:
REMARK  status: ('A' for Active; 'I' for Inactive)
ROOT
ATOM      1  C1  DEN d   1      -0.110   3.907  -4.041  0.00  0.00     0.130 A 
ATOM      2  C2  DEN d   1      -0.143   3.992  -5.498  0.00  0.00    -0.031 A 
ATOM      3  C3  DEN d   1      -1.347   4.754  -5.884  0.00  0.00     0.027 A 
ATOM      4  C4  DEN d   1      -3.152   5.810  -4.374  0.00  0.00     0.027 A 
ATOM      5  C5  DEN d   1      -3.560   5.992  -3.071  0.00  0.00    -0.003 A 
ATOM      6  C6  DEN d   1      -2.870   5.467  -2.011  0.00  0.00     0.001 A 
ATOM      7  C7  DEN d   1      -1.710   4.772  -2.232  0.00  0.00     0.017 A 
ATOM      8  C8  DEN d   1      -1.297   4.579  -3.543  0.00  0.00    -0.094 A 
ATOM      9  C9  DEN d   1      -2.001   5.128  -4.601  0.00  0.00    -0.072 A 
ENDROOT
TORSDOF 0
ENDMDL
