MODEL 1
REMARK minimizedAffinity 5.13229275
REMARK minimizedRMSD -1
REMARK  0 active torsions:
REMARK  status: ('A' for Active; 'I' for Inactive)
ROOT
ATOM      1  C1  DEN d   1       4.718   4.110  -2.192  0.00  0.00     0.130 A 
ATOM      2  C2  DEN d   1       6.000   4.499  -2.772  0.00  0.00    -0.031 A 
ATOM      3  C3  DEN d   1       5.873   4.440  -4.242  0.00  0.00     0.027 A 
ATOM      4  C4  DEN d   1       3.824   3.791  -5.669  0.00  0.00     0.027 A 
ATOM      5  C5  DEN d   1       2.512   3.374  -5.624  0.00  0.00    -0.003 A 
ATOM      6  C6  DEN d   1       1.859   3.143  -4.443  0.00  0.00     0.001 A 
ATOM      7  C7  DEN d   1       2.503   3.370  -3.255  0.00  0.00     0.017 A 
ATOM      8  C8  DEN d   1       3.828   3.783  -3.292  0.00  0.00    -0.094 A 
ATOM      9  C9  DEN d   1       4.467   4.024  -4.496  0.00  0.00    -0.072 A 
ENDROOT
TORSDOF 0
ENDMDL
