MODEL 1
REMARK minimizedAffinity 1.01507819
REMARK minimizedRMSD -1
REMARK  0 active torsions:
REMARK  status: ('A' for Active; 'I' for Inactive)
ROOT
ATOM      1  C1  DEN d   1      -0.744   5.989  -5.769  0.00  0.00     0.130 A 
ATOM      2  C2  DEN d   1       0.715   6.000  -5.831  0.00  0.00    -0.031 A 
ATOM      3  C3  DEN d   1       1.231   5.981  -4.447  0.00  0.00     0.027 A 
ATOM      4  C4  DEN d   1      -0.081   5.933  -2.227  0.00  0.00     0.027 A 
ATOM      5  C5  DEN d   1      -1.339   5.927  -1.667  0.00  0.00    -0.003 A 
ATOM      6  C6  DEN d   1      -2.477   5.975  -2.427  0.00  0.00     0.001 A 
ATOM      7  C7  DEN d   1      -2.381   5.986  -3.793  0.00  0.00     0.017 A 
ATOM      8  C8  DEN d   1      -1.115   6.000  -4.366  0.00  0.00    -0.094 A 
ATOM      9  C9  DEN d   1       0.023   5.938  -3.580  0.00  0.00    -0.072 A 
ENDROOT
TORSDOF 0
ENDMDL
