MODEL 1
REMARK minimizedAffinity 2.48293686
REMARK minimizedRMSD -1
REMARK  0 active torsions:
REMARK  status: ('A' for Active; 'I' for Inactive)
ROOT
ATOM      1  C1  DEN d   1       0.816  -1.814  -2.478  0.00  0.00     0.130 A 
ATOM      2  C2  DEN d   1       0.759  -1.440  -1.068  0.00  0.00    -0.031 A 
ATOM      3  C3  DEN d   1      -0.661  -1.284  -0.694  0.00  0.00     0.027 A 
ATOM      4  C4  DEN d   1      -2.766  -1.587  -2.154  0.00  0.00     0.027 A 
ATOM      5  C5  DEN d   1      -3.221  -1.890  -3.418  0.00  0.00    -0.003 A 
ATOM      6  C6  DEN d   1      -2.368  -2.153  -4.458  0.00  0.00     0.001 A 
ATOM      7  C7  DEN d   1      -1.016  -2.163  -4.240  0.00  0.00     0.017 A 
ATOM      8  C8  DEN d   1      -0.549  -1.852  -2.970  0.00  0.00    -0.094 A 
ATOM      9  C9  DEN d   1      -1.427  -1.600  -1.930  0.00  0.00    -0.072 A 
ENDROOT
TORSDOF 0
ENDMDL
