MODEL 1
REMARK minimizedAffinity -3.28470159
REMARK minimizedRMSD -1
REMARK  1 active torsions:
REMARK  status: ('A' for Active; 'I' for Inactive)
REMARK    1  A    between atoms: C3_4  and  O_7 
ROOT
ATOM      1  C   UNL d   1      -0.780   0.014  -0.954  0.00  0.00    -0.033 A 
ATOM      2  C1  UNL d   1       0.615   0.042  -1.016  0.00  0.00     0.039 A 
ATOM      3  C2  UNL d   1       1.367   0.067   0.160  0.00  0.00    -0.080 A 
ATOM      4  C3  UNL d   1       0.714   0.063   1.389  0.00  0.00     0.150 A 
ATOM      5  C4  UNL d   1      -0.675   0.031   1.458  0.00  0.00    -0.007 A 
ATOM      6  C5  UNL d   1      -1.425   0.007   0.283  0.00  0.00     0.039 A 
ENDROOT
BRANCH   4   7
ATOM      7  O   UNL d   1       1.405   0.091   2.564  0.00  0.00    -0.526 OA
ATOM      8  H5  UNL d   1       2.354   0.140   2.361  0.00  0.00     0.418 HD
ENDBRANCH   4   7
TORSDOF 1
ENDMDL
