MODEL 1
REMARK minimizedAffinity -5.17355204
REMARK minimizedRMSD -1
REMARK  1 active torsions:
REMARK  status: ('A' for Active; 'I' for Inactive)
REMARK    1  A    between atoms: C3_4  and  O_7 
ROOT
ATOM      1  C   UNL d   1      -0.345  -0.138  -0.327  0.00  0.00    -0.033 A 
ATOM      2  C1  UNL d   1       1.046  -0.254  -0.360  0.00  0.00     0.039 A 
ATOM      3  C2  UNL d   1       1.754  -0.516   0.815  0.00  0.00    -0.080 A 
ATOM      4  C3  UNL d   1       1.060  -0.659   2.013  0.00  0.00     0.150 A 
ATOM      5  C4  UNL d   1      -0.326  -0.548   2.052  0.00  0.00    -0.007 A 
ATOM      6  C5  UNL d   1      -1.031  -0.286   0.878  0.00  0.00     0.039 A 
ENDROOT
BRANCH   4   7
ATOM      7  O   UNL d   1       1.708  -0.910   3.186  0.00  0.00    -0.526 OA
ATOM      8  H5  UNL d   1       2.664  -0.932   3.011  0.00  0.00     0.418 HD
ENDBRANCH   4   7
TORSDOF 1
ENDMDL
