MODEL 1
REMARK minimizedAffinity -2.93164277
REMARK minimizedRMSD -1
REMARK  1 active torsions:
REMARK  status: ('A' for Active; 'I' for Inactive)
REMARK    1  A    between atoms: C3_4  and  O_7 
ROOT
ATOM      1  C   UNL d   1      -0.826  -0.038   2.448  0.00  0.00    -0.033 A 
ATOM      2  C1  UNL d   1      -0.653   0.618   1.228  0.00  0.00     0.039 A 
ATOM      3  C2  UNL d   1       0.234   0.107   0.278  0.00  0.00    -0.080 A 
ATOM      4  C3  UNL d   1       0.938  -1.060   0.560  0.00  0.00     0.150 A 
ATOM      5  C4  UNL d   1       0.767  -1.722   1.771  0.00  0.00    -0.007 A 
ATOM      6  C5  UNL d   1      -0.117  -1.209   2.719  0.00  0.00     0.039 A 
ENDROOT
BRANCH   4   7
ATOM      7  O   UNL d   1       1.818  -1.595  -0.334  0.00  0.00    -0.526 OA
ATOM      8  H5  UNL d   1       1.854  -1.016  -1.114  0.00  0.00     0.418 HD
ENDBRANCH   4   7
TORSDOF 1
ENDMDL
