MODEL 1
REMARK minimizedAffinity -2.6883986
REMARK minimizedRMSD -1
REMARK  1 active torsions:
REMARK  status: ('A' for Active; 'I' for Inactive)
REMARK    1  A    between atoms: C3_4  and  O_7 
ROOT
ATOM      1  C   UNL d   1      -1.005   3.446  -2.623  0.00  0.00    -0.033 A 
ATOM      2  C1  UNL d   1      -1.936   2.592  -2.029  0.00  0.00     0.039 A 
ATOM      3  C2  UNL d   1      -1.612   1.252  -1.803  0.00  0.00    -0.080 A 
ATOM      4  C3  UNL d   1      -0.356   0.781  -2.175  0.00  0.00     0.150 A 
ATOM      5  C4  UNL d   1       0.578   1.627  -2.763  0.00  0.00    -0.007 A 
ATOM      6  C5  UNL d   1       0.252   2.964  -2.989  0.00  0.00     0.039 A 
ENDROOT
BRANCH   4   7
ATOM      7  O   UNL d   1       0.003  -0.519  -1.979  0.00  0.00    -0.526 OA
ATOM      8  H5  UNL d   1      -0.751  -0.992  -1.590  0.00  0.00     0.418 HD
ENDBRANCH   4   7
TORSDOF 1
ENDMDL
