MODEL 1
REMARK minimizedAffinity -2.48626781
REMARK minimizedRMSD -1
REMARK  1 active torsions:
REMARK  status: ('A' for Active; 'I' for Inactive)
REMARK    1  A    between atoms: C3_4  and  O_7 
ROOT
ATOM      1  C   UNL d   1      -1.030   3.428  -3.029  0.00  0.00    -0.033 A 
ATOM      2  C1  UNL d   1      -2.170   2.637  -2.876  0.00  0.00     0.039 A 
ATOM      3  C2  UNL d   1      -2.075   1.382  -2.270  0.00  0.00    -0.080 A 
ATOM      4  C3  UNL d   1      -0.836   0.932  -1.822  0.00  0.00     0.150 A 
ATOM      5  C4  UNL d   1       0.303   1.716  -1.968  0.00  0.00    -0.007 A 
ATOM      6  C5  UNL d   1       0.207   2.968  -2.574  0.00  0.00     0.039 A 
ENDROOT
BRANCH   4   7
ATOM      7  O   UNL d   1      -0.693  -0.288  -1.230  0.00  0.00    -0.526 OA
ATOM      8  H5  UNL d   1      -1.558  -0.730  -1.223  0.00  0.00     0.418 HD
ENDBRANCH   4   7
TORSDOF 1
ENDMDL
