MODEL 1
REMARK minimizedAffinity -3.09719133
REMARK minimizedRMSD -1
REMARK  1 active torsions:
REMARK  status: ('A' for Active; 'I' for Inactive)
REMARK    1  A    between atoms: C3_4  and  O_7 
ROOT
ATOM      1  C   UNL d   1      -0.435  -0.052  -0.771  0.00  0.00    -0.033 A 
ATOM      2  C1  UNL d   1       0.946  -0.225  -0.661  0.00  0.00     0.039 A 
ATOM      3  C2  UNL d   1       1.515  -0.534   0.576  0.00  0.00    -0.080 A 
ATOM      4  C3  UNL d   1       0.694  -0.667   1.693  0.00  0.00     0.150 A 
ATOM      5  C4  UNL d   1      -0.683  -0.500   1.588  0.00  0.00    -0.007 A 
ATOM      6  C5  UNL d   1      -1.250  -0.191   0.353  0.00  0.00     0.039 A 
ENDROOT
BRANCH   4   7
ATOM      7  O   UNL d   1       1.205  -0.963   2.922  0.00  0.00    -0.526 OA
ATOM      8  H5  UNL d   1       2.172  -1.021   2.847  0.00  0.00     0.418 HD
ENDBRANCH   4   7
TORSDOF 1
ENDMDL
