MODEL 1
REMARK minimizedAffinity -1.57362115
REMARK minimizedRMSD -1
REMARK  1 active torsions:
REMARK  status: ('A' for Active; 'I' for Inactive)
REMARK    1  A    between atoms: C3_4  and  O_7 
ROOT
ATOM      1  C   UNL d   1      -1.055   0.026   0.257  0.00  0.00    -0.033 A 
ATOM      2  C1  UNL d   1       0.101  -0.502   0.835  0.00  0.00     0.039 A 
ATOM      3  C2  UNL d   1       1.125  -0.999   0.025  0.00  0.00    -0.080 A 
ATOM      4  C3  UNL d   1       0.980  -0.962  -1.359  0.00  0.00     0.150 A 
ATOM      5  C4  UNL d   1      -0.168  -0.434  -1.942  0.00  0.00    -0.007 A 
ATOM      6  C5  UNL d   1      -1.189   0.061  -1.132  0.00  0.00     0.039 A 
ENDROOT
BRANCH   4   7
ATOM      7  O   UNL d   1       1.949  -1.440  -2.190  0.00  0.00    -0.526 OA
ATOM      8  H5  UNL d   1       2.670  -1.800  -1.647  0.00  0.00     0.418 HD
ENDBRANCH   4   7
TORSDOF 1
ENDMDL
