MODEL 1
REMARK minimizedAffinity -2.94844246
REMARK minimizedRMSD -1
REMARK  1 active torsions:
REMARK  status: ('A' for Active; 'I' for Inactive)
REMARK    1  A    between atoms: C3_4  and  O_7 
ROOT
ATOM      1  C   UNL d   1      -0.548  -0.615  -0.108  0.00  0.00    -0.033 A 
ATOM      2  C1  UNL d   1      -1.213  -0.783   1.108  0.00  0.00     0.039 A 
ATOM      3  C2  UNL d   1      -0.500  -0.742   2.307  0.00  0.00    -0.080 A 
ATOM      4  C3  UNL d   1       0.876  -0.534   2.277  0.00  0.00     0.150 A 
ATOM      5  C4  UNL d   1       1.545  -0.363   1.069  0.00  0.00    -0.007 A 
ATOM      6  C5  UNL d   1       0.831  -0.404  -0.128  0.00  0.00     0.039 A 
ENDROOT
BRANCH   4   7
ATOM      7  O   UNL d   1       1.616  -0.492   3.421  0.00  0.00    -0.526 OA
ATOM      8  H5  UNL d   1       1.025  -0.654   4.176  0.00  0.00     0.418 HD
ENDBRANCH   4   7
TORSDOF 1
ENDMDL
