MODEL 1
REMARK minimizedAffinity 5.31968737
REMARK minimizedRMSD -1
REMARK  1 active torsions:
REMARK  status: ('A' for Active; 'I' for Inactive)
REMARK    1  A    between atoms: C1_2  and  C2_3 
ROOT
ATOM      1  C2  UNL d   1       3.177  -1.711  -3.834  0.00  0.00    -0.081 A 
ATOM      2  C3  UNL d   1       4.435  -2.220  -4.176  0.00  0.00     0.006 A 
ATOM      3  C4  UNL d   1       5.347  -1.436  -4.887  0.00  0.00     0.002 A 
ATOM      4  C5  UNL d   1       5.019  -0.128  -5.260  0.00  0.00    -0.080 A 
ATOM      5  C6  UNL d   1       6.000   0.735  -5.996  0.00  0.00     0.076 C 
ATOM      6  C7  UNL d   1       3.755   0.375  -4.933  0.00  0.00     0.002 A 
ATOM      7  C8  UNL d   1       2.843  -0.409  -4.223  0.00  0.00     0.006 A 
ENDROOT
BRANCH   1   8
ATOM      8  C1  UNL d   1       2.216  -2.532  -3.011  0.00  0.00     0.054 C 
ATOM      9  C   UNL d   1       2.266  -4.001  -3.405  0.00  0.00     0.018 C 
ENDBRANCH   1   8
TORSDOF 1
ENDMDL
