MODEL 1
REMARK minimizedAffinity 14.4659863
REMARK minimizedRMSD -1
REMARK  1 active torsions:
REMARK  status: ('A' for Active; 'I' for Inactive)
REMARK    1  A    between atoms: C1_2  and  C2_3 
ROOT
ATOM      1  C2  UNL d   1       1.368  -1.289   1.777  0.00  0.00    -0.081 A 
ATOM      2  C3  UNL d   1       1.777  -1.243   3.115  0.00  0.00     0.006 A 
ATOM      3  C4  UNL d   1       1.535  -2.323   3.967  0.00  0.00     0.002 A 
ATOM      4  C5  UNL d   1       0.890  -3.470   3.494  0.00  0.00    -0.080 A 
ATOM      5  C6  UNL d   1       0.652  -4.649   4.390  0.00  0.00     0.076 C 
ATOM      6  C7  UNL d   1       0.466  -3.510   2.161  0.00  0.00     0.002 A 
ATOM      7  C8  UNL d   1       0.706  -2.430   1.309  0.00  0.00     0.006 A 
ENDROOT
BRANCH   1   8
ATOM      8  C1  UNL d   1       1.684  -0.152   0.839  0.00  0.00     0.054 C 
ATOM      9  C   UNL d   1       2.634  -0.594  -0.266  0.00  0.00     0.018 C 
ENDBRANCH   1   8
TORSDOF 1
ENDMDL
