MODEL 1
REMARK minimizedAffinity 1.79699194
REMARK minimizedRMSD -1
REMARK  1 active torsions:
REMARK  status: ('A' for Active; 'I' for Inactive)
REMARK    1  A    between atoms: C1_2  and  C2_3 
ROOT
ATOM      1  C2  UNL d   1       4.517  -2.396   3.645  0.00  0.00    -0.081 A 
ATOM      2  C3  UNL d   1       4.276  -1.863   2.373  0.00  0.00     0.006 A 
ATOM      3  C4  UNL d   1       2.970  -1.608   1.947  0.00  0.00     0.002 A 
ATOM      4  C5  UNL d   1       1.885  -1.874   2.788  0.00  0.00    -0.080 A 
ATOM      5  C6  UNL d   1       0.480  -1.576   2.355  0.00  0.00     0.076 C 
ATOM      6  C7  UNL d   1       2.124  -2.422   4.053  0.00  0.00     0.002 A 
ATOM      7  C8  UNL d   1       3.429  -2.678   4.479  0.00  0.00     0.006 A 
ENDROOT
BRANCH   1   8
ATOM      8  C1  UNL d   1       5.927  -2.612   4.132  0.00  0.00     0.054 C 
ATOM      9  C   UNL d   1       5.990  -2.636   5.652  0.00  0.00     0.018 C 
ENDBRANCH   1   8
TORSDOF 1
ENDMDL
