MODEL 1
REMARK minimizedAffinity 1.19424999
REMARK minimizedRMSD -1
REMARK  1 active torsions:
REMARK  status: ('A' for Active; 'I' for Inactive)
REMARK    1  A    between atoms: C1_2  and  C2_3 
ROOT
ATOM      1  C2  UNL d   1       3.709  -1.249  -4.016  0.00  0.00    -0.081 A 
ATOM      2  C3  UNL d   1       4.937  -1.558  -4.614  0.00  0.00     0.006 A 
ATOM      3  C4  UNL d   1       5.675  -0.569  -5.267  0.00  0.00     0.002 A 
ATOM      4  C5  UNL d   1       5.202   0.746  -5.328  0.00  0.00    -0.080 A 
ATOM      5  C6  UNL d   1       5.999   1.824  -6.000  0.00  0.00     0.076 C 
ATOM      6  C7  UNL d   1       3.967   1.051  -4.746  0.00  0.00     0.002 A 
ATOM      7  C8  UNL d   1       3.228   0.063  -4.093  0.00  0.00     0.006 A 
ENDROOT
BRANCH   1   8
ATOM      8  C1  UNL d   1       2.941  -2.300  -3.255  0.00  0.00     0.054 C 
ATOM      9  C   UNL d   1       2.624  -1.836  -1.840  0.00  0.00     0.018 C 
ENDBRANCH   1   8
TORSDOF 1
ENDMDL
