MODEL 1
REMARK minimizedAffinity 21.4324532
REMARK minimizedRMSD -1
REMARK  1 active torsions:
REMARK  status: ('A' for Active; 'I' for Inactive)
REMARK    1  A    between atoms: C1_2  and  C2_3 
ROOT
ATOM      1  C2  UNL d   1      -5.167   2.481  -3.390  0.00  0.00    -0.081 A 
ATOM      2  C3  UNL d   1      -5.731   3.063  -2.248  0.00  0.00     0.006 A 
ATOM      3  C4  UNL d   1      -5.064   3.006  -1.022  0.00  0.00     0.002 A 
ATOM      4  C5  UNL d   1      -3.821   2.374  -0.919  0.00  0.00    -0.080 A 
ATOM      5  C6  UNL d   1      -3.080   2.332   0.385  0.00  0.00     0.076 C 
ATOM      6  C7  UNL d   1      -3.265   1.778  -2.056  0.00  0.00     0.002 A 
ATOM      7  C8  UNL d   1      -3.932   1.834  -3.282  0.00  0.00     0.006 A 
ENDROOT
BRANCH   1   8
ATOM      8  C1  UNL d   1      -5.853   2.598  -4.728  0.00  0.00     0.054 C 
ATOM      9  C   UNL d   1      -4.866   2.423  -5.873  0.00  0.00     0.018 C 
ENDBRANCH   1   8
TORSDOF 1
ENDMDL
