MODEL 1
REMARK minimizedAffinity -4.14749622
REMARK minimizedRMSD -1
REMARK  0 active torsions:
REMARK  status: ('A' for Active; 'I' for Inactive)
ROOT
ATOM      1  C   UNL d   1       0.655  -0.698  -0.687  0.00  0.00     0.078 C 
ATOM      2  C1  UNL d   1      -0.306   0.199   0.034  0.00  0.00    -0.077 A 
ATOM      3  C2  UNL d   1      -0.553   0.040   1.403  0.00  0.00    -0.001 A 
ATOM      4  C3  UNL d   1      -1.457   0.876   2.059  0.00  0.00     0.003 A 
ATOM      5  C4  UNL d   1      -2.123   1.877   1.354  0.00  0.00    -0.005 A 
ATOM      6  C5  UNL d   1      -1.886   2.041  -0.009  0.00  0.00     0.003 A 
ATOM      7  C6  UNL d   1      -0.982   1.206  -0.667  0.00  0.00    -0.001 A 
ENDROOT
TORSDOF 0
ENDMDL
