MODEL 1
REMARK minimizedAffinity -6.04684448
REMARK minimizedRMSD -1
REMARK  0 active torsions:
REMARK  status: ('A' for Active; 'I' for Inactive)
ROOT
ATOM      1  C   UNL d   1       0.173   2.965  -1.664  0.00  0.00     0.078 C 
ATOM      2  C1  UNL d   1      -0.261   1.926  -0.674  0.00  0.00    -0.077 A 
ATOM      3  C2  UNL d   1      -1.241   2.209   0.285  0.00  0.00    -0.001 A 
ATOM      4  C3  UNL d   1      -1.629   1.236   1.207  0.00  0.00     0.003 A 
ATOM      5  C4  UNL d   1      -1.040  -0.027   1.180  0.00  0.00    -0.005 A 
ATOM      6  C5  UNL d   1      -0.063  -0.318   0.230  0.00  0.00     0.003 A 
ATOM      7  C6  UNL d   1       0.326   0.655  -0.692  0.00  0.00    -0.001 A 
ENDROOT
TORSDOF 0
ENDMDL
