MODEL 1
REMARK minimizedAffinity -3.35659623
REMARK minimizedRMSD -1
REMARK  0 active torsions:
REMARK  status: ('A' for Active; 'I' for Inactive)
ROOT
ATOM      1  C   UNL d   1       0.198   1.006  -1.131  0.00  0.00     0.078 C 
ATOM      2  C1  UNL d   1       0.429  -0.443  -1.440  0.00  0.00    -0.077 A 
ATOM      3  C2  UNL d   1      -0.110  -1.030  -2.591  0.00  0.00    -0.001 A 
ATOM      4  C3  UNL d   1       0.105  -2.382  -2.860  0.00  0.00     0.003 A 
ATOM      5  C4  UNL d   1       0.858  -3.160  -1.982  0.00  0.00    -0.005 A 
ATOM      6  C5  UNL d   1       1.396  -2.585  -0.833  0.00  0.00     0.003 A 
ATOM      7  C6  UNL d   1       1.182  -1.232  -0.562  0.00  0.00    -0.001 A 
ENDROOT
TORSDOF 0
ENDMDL
