MODEL 1
REMARK minimizedAffinity -5.61515522
REMARK minimizedRMSD -1
REMARK  0 active torsions:
REMARK  status: ('A' for Active; 'I' for Inactive)
ROOT
ATOM      1  C   UNL d   1       1.485  -0.440  -0.362  0.00  0.00     0.078 C 
ATOM      2  C1  UNL d   1       0.340   0.248   0.321  0.00  0.00    -0.077 A 
ATOM      3  C2  UNL d   1      -0.144   1.477  -0.143  0.00  0.00    -0.001 A 
ATOM      4  C3  UNL d   1      -1.203   2.110   0.508  0.00  0.00     0.003 A 
ATOM      5  C4  UNL d   1      -1.787   1.523   1.629  0.00  0.00    -0.005 A 
ATOM      6  C5  UNL d   1      -1.311   0.301   2.099  0.00  0.00     0.003 A 
ATOM      7  C6  UNL d   1      -0.252  -0.334   1.449  0.00  0.00    -0.001 A 
ENDROOT
TORSDOF 0
ENDMDL
