MODEL 1
REMARK minimizedAffinity -1.90348732
REMARK minimizedRMSD -1
REMARK  0 active torsions:
REMARK  status: ('A' for Active; 'I' for Inactive)
ROOT
ATOM      1  C   UNL d   1      -0.344   2.605  -1.172  0.00  0.00     0.078 C 
ATOM      2  C1  UNL d   1      -0.080   1.217  -0.669  0.00  0.00    -0.077 A 
ATOM      3  C2  UNL d   1      -0.635   0.768   0.535  0.00  0.00    -0.001 A 
ATOM      4  C3  UNL d   1      -0.373  -0.523   0.996  0.00  0.00     0.003 A 
ATOM      5  C4  UNL d   1       0.447  -1.376   0.258  0.00  0.00    -0.005 A 
ATOM      6  C5  UNL d   1       1.005  -0.937  -0.941  0.00  0.00     0.003 A 
ATOM      7  C6  UNL d   1       0.744   0.353  -1.402  0.00  0.00    -0.001 A 
ENDROOT
TORSDOF 0
ENDMDL
