MODEL 1
REMARK minimizedAffinity -5.40419912
REMARK minimizedRMSD -1
REMARK  0 active torsions:
REMARK  status: ('A' for Active; 'I' for Inactive)
ROOT
ATOM      1  C   UNL d   1      -2.172   2.168   1.758  0.00  0.00     0.078 C 
ATOM      2  C1  UNL d   1      -1.135   1.421   0.973  0.00  0.00    -0.077 A 
ATOM      3  C2  UNL d   1      -0.726   0.138   1.356  0.00  0.00    -0.001 A 
ATOM      4  C3  UNL d   1       0.247  -0.542   0.622  0.00  0.00     0.003 A 
ATOM      5  C4  UNL d   1       0.819   0.054  -0.500  0.00  0.00    -0.005 A 
ATOM      6  C5  UNL d   1       0.420   1.331  -0.889  0.00  0.00     0.003 A 
ATOM      7  C6  UNL d   1      -0.553   2.012  -0.155  0.00  0.00    -0.001 A 
ENDROOT
TORSDOF 0
ENDMDL
