MODEL 1
REMARK minimizedAffinity -3.32320857
REMARK minimizedRMSD -1
REMARK  0 active torsions:
REMARK  status: ('A' for Active; 'I' for Inactive)
ROOT
ATOM      1  C   UNL d   1      -2.257   1.885   1.127  0.00  0.00     0.078 C 
ATOM      2  C1  UNL d   1      -0.954   1.462   0.516  0.00  0.00    -0.077 A 
ATOM      3  C2  UNL d   1      -0.212   0.406   1.059  0.00  0.00    -0.001 A 
ATOM      4  C3  UNL d   1       1.004   0.030   0.486  0.00  0.00     0.003 A 
ATOM      5  C4  UNL d   1       1.489   0.705  -0.632  0.00  0.00    -0.005 A 
ATOM      6  C5  UNL d   1       0.759   1.758  -1.178  0.00  0.00     0.003 A 
ATOM      7  C6  UNL d   1      -0.457   2.136  -0.606  0.00  0.00    -0.001 A 
ENDROOT
TORSDOF 0
ENDMDL
