MODEL 1
REMARK minimizedAffinity -4.53689623
REMARK minimizedRMSD -1
REMARK  0 active torsions:
REMARK  status: ('A' for Active; 'I' for Inactive)
ROOT
ATOM      1  C   UNL d   1       0.753  -1.122   0.043  0.00  0.00     0.078 C 
ATOM      2  C1  UNL d   1       0.527   0.253  -0.511  0.00  0.00    -0.077 A 
ATOM      3  C2  UNL d   1       1.574   0.975  -1.098  0.00  0.00    -0.001 A 
ATOM      4  C3  UNL d   1       1.351   2.258  -1.601  0.00  0.00     0.003 A 
ATOM      5  C4  UNL d   1       0.083   2.830  -1.523  0.00  0.00    -0.005 A 
ATOM      6  C5  UNL d   1      -0.964   2.120  -0.939  0.00  0.00     0.003 A 
ATOM      7  C6  UNL d   1      -0.743   0.837  -0.435  0.00  0.00    -0.001 A 
ENDROOT
TORSDOF 0
ENDMDL
