MODEL 1
REMARK minimizedAffinity -4.15855217
REMARK minimizedRMSD -1
REMARK  0 active torsions:
REMARK  status: ('A' for Active; 'I' for Inactive)
ROOT
ATOM      1  C   UNL d   1      -0.732   3.350   0.092  0.00  0.00     0.078 C 
ATOM      2  C1  UNL d   1      -0.989   2.030   0.757  0.00  0.00    -0.077 A 
ATOM      3  C2  UNL d   1      -2.097   1.848   1.594  0.00  0.00    -0.001 A 
ATOM      4  C3  UNL d   1      -2.318   0.617   2.213  0.00  0.00     0.003 A 
ATOM      5  C4  UNL d   1      -1.436  -0.441   2.004  0.00  0.00    -0.005 A 
ATOM      6  C5  UNL d   1      -0.329  -0.268   1.174  0.00  0.00     0.003 A 
ATOM      7  C6  UNL d   1      -0.106   0.962   0.554  0.00  0.00    -0.001 A 
ENDROOT
TORSDOF 0
ENDMDL
