MODEL 1
REMARK minimizedAffinity -2.87621665
REMARK minimizedRMSD -1
REMARK  0 active torsions:
REMARK  status: ('A' for Active; 'I' for Inactive)
ROOT
ATOM      1  C   UNL d   1       0.740  -0.414  -0.365  0.00  0.00     0.078 C 
ATOM      2  C1  UNL d   1       0.765  -1.584  -1.303  0.00  0.00    -0.077 A 
ATOM      3  C2  UNL d   1       0.091  -1.540  -2.530  0.00  0.00    -0.001 A 
ATOM      4  C3  UNL d   1       0.116  -2.639  -3.389  0.00  0.00     0.003 A 
ATOM      5  C4  UNL d   1       0.812  -3.792  -3.030  0.00  0.00    -0.005 A 
ATOM      6  C5  UNL d   1       1.483  -3.847  -1.811  0.00  0.00     0.003 A 
ATOM      7  C6  UNL d   1       1.460  -2.748  -0.950  0.00  0.00    -0.001 A 
ENDROOT
TORSDOF 0
ENDMDL
