MODEL 1
REMARK minimizedAffinity -3.98707294
REMARK minimizedRMSD -1
REMARK  0 active torsions:
REMARK  status: ('A' for Active; 'I' for Inactive)
ROOT
ATOM      1  C   UNL d   1       0.914  -0.856   1.717  0.00  0.00     0.078 C 
ATOM      2  C1  UNL d   1      -0.037   0.225   1.297  0.00  0.00    -0.077 A 
ATOM      3  C2  UNL d   1      -0.492   1.181   2.214  0.00  0.00    -0.001 A 
ATOM      4  C3  UNL d   1      -1.384   2.176   1.812  0.00  0.00     0.003 A 
ATOM      5  C4  UNL d   1      -1.831   2.224   0.493  0.00  0.00    -0.005 A 
ATOM      6  C5  UNL d   1      -1.386   1.276  -0.426  0.00  0.00     0.003 A 
ATOM      7  C6  UNL d   1      -0.493   0.280  -0.026  0.00  0.00    -0.001 A 
ENDROOT
TORSDOF 0
ENDMDL
