MODEL 1
REMARK minimizedAffinity -3.80478263
REMARK minimizedRMSD -1
REMARK  0 active torsions:
REMARK  status: ('A' for Active; 'I' for Inactive)
ROOT
ATOM      1  C   UNL d   1      -2.170   1.682   1.169  0.00  0.00     0.078 C 
ATOM      2  C1  UNL d   1      -1.116   0.780   0.600  0.00  0.00    -0.077 A 
ATOM      3  C2  UNL d   1      -0.610  -0.295   1.341  0.00  0.00    -0.001 A 
ATOM      4  C3  UNL d   1       0.378  -1.121   0.802  0.00  0.00     0.003 A 
ATOM      5  C4  UNL d   1       0.869  -0.880  -0.479  0.00  0.00    -0.005 A 
ATOM      6  C5  UNL d   1       0.374   0.189  -1.223  0.00  0.00     0.003 A 
ATOM      7  C6  UNL d   1      -0.614   1.016  -0.686  0.00  0.00    -0.001 A 
ENDROOT
TORSDOF 0
ENDMDL
