MODEL 1
REMARK minimizedAffinity -4.056952
REMARK minimizedRMSD -1
REMARK  0 active torsions:
REMARK  status: ('A' for Active; 'I' for Inactive)
ROOT
ATOM      1  C   UNL d   1      -0.852  -0.032   1.459  0.00  0.00     0.078 C 
ATOM      2  C1  UNL d   1      -0.337  -0.722   0.231  0.00  0.00    -0.077 A 
ATOM      3  C2  UNL d   1      -1.195  -1.452  -0.600  0.00  0.00    -0.001 A 
ATOM      4  C3  UNL d   1      -0.700  -2.098  -1.734  0.00  0.00     0.003 A 
ATOM      5  C4  UNL d   1       0.656  -2.021  -2.046  0.00  0.00    -0.005 A 
ATOM      6  C5  UNL d   1       1.518  -1.300  -1.224  0.00  0.00     0.003 A 
ATOM      7  C6  UNL d   1       1.025  -0.653  -0.090  0.00  0.00    -0.001 A 
ENDROOT
TORSDOF 0
ENDMDL
