MODEL 1
REMARK minimizedAffinity -5.17922354
REMARK minimizedRMSD -1
REMARK  0 active torsions:
REMARK  status: ('A' for Active; 'I' for Inactive)
ROOT
ATOM      1  C   UNL d   1      -2.224   2.116   1.022  0.00  0.00     0.078 C 
ATOM      2  C1  UNL d   1      -1.013   1.429   0.467  0.00  0.00    -0.077 A 
ATOM      3  C2  UNL d   1      -0.388   1.895  -0.696  0.00  0.00    -0.001 A 
ATOM      4  C3  UNL d   1       0.733   1.239  -1.207  0.00  0.00     0.003 A 
ATOM      5  C4  UNL d   1       1.239   0.113  -0.562  0.00  0.00    -0.005 A 
ATOM      6  C5  UNL d   1       0.623  -0.360   0.595  0.00  0.00     0.003 A 
ATOM      7  C6  UNL d   1      -0.498   0.294   1.107  0.00  0.00    -0.001 A 
ENDROOT
TORSDOF 0
ENDMDL
