MODEL 1
REMARK minimizedAffinity -3.34612417
REMARK minimizedRMSD -1
REMARK  0 active torsions:
REMARK  status: ('A' for Active; 'I' for Inactive)
ROOT
ATOM      1  C   UNL d   1       2.765   0.348   0.389  0.00  0.00     0.077 C 
ATOM      2  C1  UNL d   1       1.277   0.247   0.545  0.00  0.00    -0.074 A 
ATOM      3  C2  UNL d   1       0.599   1.024   1.490  0.00  0.00    -0.005 A 
ATOM      4  C3  UNL d   1      -0.786   0.926   1.618  0.00  0.00     0.006 A 
ATOM      5  C4  UNL d   1      -1.507   0.052   0.803  0.00  0.00    -0.005 A 
ATOM      6  C5  UNL d   1      -0.847  -0.732  -0.148  0.00  0.00    -0.074 A 
ATOM      7  C6  UNL d   1      -1.607  -1.669  -1.038  0.00  0.00     0.077 C 
ATOM      8  C7  UNL d   1       0.545  -0.623  -0.275  0.00  0.00    -0.001 A 
ENDROOT
TORSDOF 0
ENDMDL
