MODEL 1
REMARK minimizedAffinity -3.64867759
REMARK minimizedRMSD -1
REMARK  0 active torsions:
REMARK  status: ('A' for Active; 'I' for Inactive)
ROOT
ATOM      1  C   UNL d   1      -1.173  -0.226   0.365  0.00  0.00     0.077 C 
ATOM      2  C1  UNL d   1       0.062   0.464   0.865  0.00  0.00    -0.074 A 
ATOM      3  C2  UNL d   1       0.033   1.234   2.032  0.00  0.00    -0.005 A 
ATOM      4  C3  UNL d   1       1.192   1.862   2.489  0.00  0.00     0.006 A 
ATOM      5  C4  UNL d   1       2.389   1.725   1.786  0.00  0.00    -0.005 A 
ATOM      6  C5  UNL d   1       2.438   0.958   0.618  0.00  0.00    -0.074 A 
ATOM      7  C6  UNL d   1       3.719   0.792  -0.145  0.00  0.00     0.077 C 
ATOM      8  C7  UNL d   1       1.271   0.325   0.168  0.00  0.00    -0.001 A 
ENDROOT
TORSDOF 0
ENDMDL
