MODEL 1
REMARK minimizedAffinity -2.94318676
REMARK minimizedRMSD -1
REMARK  0 active torsions:
REMARK  status: ('A' for Active; 'I' for Inactive)
ROOT
ATOM      1  C   UNL d   1       2.926  -0.548  -0.713  0.00  0.00     0.077 C 
ATOM      2  C1  UNL d   1       1.596  -0.208  -0.109  0.00  0.00    -0.074 A 
ATOM      3  C2  UNL d   1       0.447  -0.930  -0.449  0.00  0.00    -0.005 A 
ATOM      4  C3  UNL d   1      -0.782  -0.608   0.128  0.00  0.00     0.006 A 
ATOM      5  C4  UNL d   1      -0.874   0.437   1.048  0.00  0.00    -0.005 A 
ATOM      6  C5  UNL d   1       0.264   1.169   1.401  0.00  0.00    -0.074 A 
ATOM      7  C6  UNL d   1       0.185   2.289   2.396  0.00  0.00     0.077 C 
ATOM      8  C7  UNL d   1       1.497   0.835   0.822  0.00  0.00    -0.001 A 
ENDROOT
TORSDOF 0
ENDMDL
