MODEL 1
REMARK minimizedAffinity -2.94702911
REMARK minimizedRMSD -1
REMARK  0 active torsions:
REMARK  status: ('A' for Active; 'I' for Inactive)
ROOT
ATOM      1  C   UNL d   1      -0.627   0.640   1.230  0.00  0.00     0.077 C 
ATOM      2  C1  UNL d   1      -0.612  -0.301   0.062  0.00  0.00    -0.074 A 
ATOM      3  C2  UNL d   1       0.517  -1.076  -0.223  0.00  0.00    -0.005 A 
ATOM      4  C3  UNL d   1       0.512  -1.954  -1.306  0.00  0.00     0.006 A 
ATOM      5  C4  UNL d   1      -0.620  -2.067  -2.114  0.00  0.00    -0.005 A 
ATOM      6  C5  UNL d   1      -1.759  -1.301  -1.844  0.00  0.00    -0.074 A 
ATOM      7  C6  UNL d   1      -2.987  -1.417  -2.697  0.00  0.00     0.077 C 
ATOM      8  C7  UNL d   1      -1.749  -0.426  -0.749  0.00  0.00    -0.001 A 
ENDROOT
TORSDOF 0
ENDMDL
