MODEL 1
REMARK minimizedAffinity -2.90958476
REMARK minimizedRMSD -1
REMARK  0 active torsions:
REMARK  status: ('A' for Active; 'I' for Inactive)
ROOT
ATOM      1  C   UNL d   1       3.300   0.294  -0.195  0.00  0.00     0.077 C 
ATOM      2  C1  UNL d   1       1.829   0.213   0.084  0.00  0.00    -0.074 A 
ATOM      3  C2  UNL d   1       1.250   0.965   1.111  0.00  0.00    -0.005 A 
ATOM      4  C3  UNL d   1      -0.122   0.887   1.353  0.00  0.00     0.006 A 
ATOM      5  C4  UNL d   1      -0.927   0.057   0.571  0.00  0.00    -0.005 A 
ATOM      6  C5  UNL d   1      -0.366  -0.702  -0.460  0.00  0.00    -0.074 A 
ATOM      7  C6  UNL d   1      -1.218  -1.592  -1.316  0.00  0.00     0.077 C 
ATOM      8  C7  UNL d   1       1.012  -0.613  -0.702  0.00  0.00    -0.001 A 
ENDROOT
TORSDOF 0
ENDMDL
