MODEL 1
REMARK minimizedAffinity -4.90452814
REMARK minimizedRMSD -1
REMARK  0 active torsions:
REMARK  status: ('A' for Active; 'I' for Inactive)
ROOT
ATOM      1  C   UNL d   1      -0.689  -1.364  -0.648  0.00  0.00     0.077 C 
ATOM      2  C1  UNL d   1      -0.009  -0.269   0.118  0.00  0.00    -0.074 A 
ATOM      3  C2  UNL d   1      -0.712   0.497   1.054  0.00  0.00    -0.005 A 
ATOM      4  C3  UNL d   1      -0.064   1.506   1.766  0.00  0.00     0.006 A 
ATOM      5  C4  UNL d   1       1.292   1.759   1.550  0.00  0.00    -0.005 A 
ATOM      6  C5  UNL d   1       2.011   1.003   0.619  0.00  0.00    -0.074 A 
ATOM      7  C6  UNL d   1       3.470   1.255   0.382  0.00  0.00     0.077 C 
ATOM      8  C7  UNL d   1       1.354  -0.014  -0.087  0.00  0.00    -0.001 A 
ENDROOT
TORSDOF 0
ENDMDL
