MODEL 1
REMARK minimizedAffinity -3.41612291
REMARK minimizedRMSD -1
REMARK  0 active torsions:
REMARK  status: ('A' for Active; 'I' for Inactive)
ROOT
ATOM      1  C   UNL d   1      -0.550  -0.960  -0.854  0.00  0.00     0.077 C 
ATOM      2  C1  UNL d   1       0.260  -0.028  -0.003  0.00  0.00    -0.074 A 
ATOM      3  C2  UNL d   1      -0.360   0.867   0.874  0.00  0.00    -0.005 A 
ATOM      4  C3  UNL d   1       0.407   1.721   1.666  0.00  0.00     0.006 A 
ATOM      5  C4  UNL d   1       1.800   1.688   1.590  0.00  0.00    -0.005 A 
ATOM      6  C5  UNL d   1       2.438   0.799   0.720  0.00  0.00    -0.074 A 
ATOM      7  C6  UNL d   1       3.934   0.744   0.632  0.00  0.00     0.077 C 
ATOM      8  C7  UNL d   1       1.660  -0.061  -0.068  0.00  0.00    -0.001 A 
ENDROOT
TORSDOF 0
ENDMDL
