MODEL 1
REMARK minimizedAffinity -3.867908
REMARK minimizedRMSD -1
REMARK  0 active torsions:
REMARK  status: ('A' for Active; 'I' for Inactive)
ROOT
ATOM      1  C   UNL d   1      -0.506   1.598   1.551  0.00  0.00     0.077 C 
ATOM      2  C1  UNL d   1      -0.447   0.527   0.502  0.00  0.00    -0.074 A 
ATOM      3  C2  UNL d   1       0.523  -0.479   0.555  0.00  0.00    -0.005 A 
ATOM      4  C3  UNL d   1       0.560  -1.473  -0.423  0.00  0.00     0.006 A 
ATOM      5  C4  UNL d   1      -0.372  -1.471  -1.462  0.00  0.00    -0.005 A 
ATOM      6  C5  UNL d   1      -1.350  -0.474  -1.531  0.00  0.00    -0.074 A 
ATOM      7  C6  UNL d   1      -2.365  -0.463  -2.635  0.00  0.00     0.077 C 
ATOM      8  C7  UNL d   1      -1.384   0.518  -0.541  0.00  0.00    -0.001 A 
ENDROOT
TORSDOF 0
ENDMDL
