MODEL 1
REMARK minimizedAffinity -2.4032166
REMARK minimizedRMSD -1
REMARK  0 active torsions:
REMARK  status: ('A' for Active; 'I' for Inactive)
ROOT
ATOM      1  C   UNL d   1      -0.938   1.491   2.581  0.00  0.00     0.077 C 
ATOM      2  C1  UNL d   1      -0.331   0.788   1.403  0.00  0.00    -0.074 A 
ATOM      3  C2  UNL d   1       1.019   0.958   1.081  0.00  0.00    -0.005 A 
ATOM      4  C3  UNL d   1       1.571   0.291  -0.012  0.00  0.00     0.006 A 
ATOM      5  C4  UNL d   1       0.780  -0.553  -0.793  0.00  0.00    -0.005 A 
ATOM      6  C5  UNL d   1      -0.571  -0.737  -0.486  0.00  0.00    -0.074 A 
ATOM      7  C6  UNL d   1      -1.433  -1.648  -1.309  0.00  0.00     0.077 C 
ATOM      8  C7  UNL d   1      -1.117  -0.068   0.618  0.00  0.00    -0.001 A 
ENDROOT
TORSDOF 0
ENDMDL
