MODEL 1
REMARK minimizedAffinity -1.43422997
REMARK minimizedRMSD -1
REMARK  0 active torsions:
REMARK  status: ('A' for Active; 'I' for Inactive)
ROOT
ATOM      1  C   UNL d   1       3.074   0.289  -0.297  0.00  0.00     0.077 C 
ATOM      2  C1  UNL d   1       1.619   0.158   0.041  0.00  0.00    -0.074 A 
ATOM      3  C2  UNL d   1       1.047   0.920   1.065  0.00  0.00    -0.005 A 
ATOM      4  C3  UNL d   1      -0.310   0.793   1.361  0.00  0.00     0.006 A 
ATOM      5  C4  UNL d   1      -1.108  -0.094   0.638  0.00  0.00    -0.005 A 
ATOM      6  C5  UNL d   1      -0.554  -0.864  -0.390  0.00  0.00    -0.074 A 
ATOM      7  C6  UNL d   1      -1.399  -1.815  -1.184  0.00  0.00     0.077 C 
ATOM      8  C7  UNL d   1       0.809  -0.726  -0.687  0.00  0.00    -0.001 A 
ENDROOT
TORSDOF 0
ENDMDL
