MODEL 1
REMARK minimizedAffinity -4.39405203
REMARK minimizedRMSD -1
REMARK  0 active torsions:
REMARK  status: ('A' for Active; 'I' for Inactive)
ROOT
ATOM      1  C   UNL d   1       3.128   0.919   0.769  0.00  0.00     0.077 C 
ATOM      2  C1  UNL d   1       1.641   0.763   0.883  0.00  0.00    -0.074 A 
ATOM      3  C2  UNL d   1       0.905   1.532   1.791  0.00  0.00    -0.005 A 
ATOM      4  C3  UNL d   1      -0.479   1.382   1.879  0.00  0.00     0.006 A 
ATOM      5  C4  UNL d   1      -1.140   0.464   1.063  0.00  0.00    -0.005 A 
ATOM      6  C5  UNL d   1      -0.421  -0.312   0.148  0.00  0.00    -0.074 A 
ATOM      7  C6  UNL d   1      -1.118  -1.297  -0.744  0.00  0.00     0.077 C 
ATOM      8  C7  UNL d   1       0.968  -0.152   0.061  0.00  0.00    -0.001 A 
ENDROOT
TORSDOF 0
ENDMDL
