MODEL 1
REMARK minimizedAffinity 0.32365647
REMARK minimizedRMSD -1
REMARK  0 active torsions:
REMARK  status: ('A' for Active; 'I' for Inactive)
ROOT
ATOM      1  C   UNL d   1      -3.927  -2.907  -1.113  0.00  0.00     0.077 C 
ATOM      2  C1  UNL d   1      -2.709  -2.161  -1.572  0.00  0.00    -0.074 A 
ATOM      3  C2  UNL d   1      -2.443  -1.990  -2.934  0.00  0.00    -0.005 A 
ATOM      4  C3  UNL d   1      -1.312  -1.285  -3.346  0.00  0.00     0.006 A 
ATOM      5  C4  UNL d   1      -0.437  -0.747  -2.402  0.00  0.00    -0.005 A 
ATOM      6  C5  UNL d   1      -0.688  -0.908  -1.035  0.00  0.00    -0.074 A 
ATOM      7  C6  UNL d   1       0.237  -0.326  -0.007  0.00  0.00     0.077 C 
ATOM      8  C7  UNL d   1      -1.830  -1.611  -0.629  0.00  0.00    -0.001 A 
ENDROOT
TORSDOF 0
ENDMDL
