MODEL 1
REMARK minimizedAffinity 0.408963352
REMARK minimizedRMSD -1
REMARK  0 active torsions:
REMARK  status: ('A' for Active; 'I' for Inactive)
ROOT
ATOM      1  C   UNL d   1      -0.811  -1.096  -1.049  0.00  0.00     0.077 C 
ATOM      2  C1  UNL d   1      -0.227  -0.199   0.002  0.00  0.00    -0.074 A 
ATOM      3  C2  UNL d   1      -1.047   0.439   0.939  0.00  0.00    -0.005 A 
ATOM      4  C3  UNL d   1      -0.488   1.263   1.916  0.00  0.00     0.006 A 
ATOM      5  C4  UNL d   1       0.893   1.458   1.966  0.00  0.00    -0.005 A 
ATOM      6  C5  UNL d   1       1.728   0.828   1.038  0.00  0.00    -0.074 A 
ATOM      7  C6  UNL d   1       3.215   1.019   1.083  0.00  0.00     0.077 C 
ATOM      8  C7  UNL d   1       1.160  -0.004   0.063  0.00  0.00    -0.001 A 
ENDROOT
TORSDOF 0
ENDMDL
