MODEL 1
REMARK minimizedAffinity -1.77448976
REMARK minimizedRMSD -1
REMARK  0 active torsions:
REMARK  status: ('A' for Active; 'I' for Inactive)
ROOT
ATOM      1  C   UNL d   1      -2.867  -1.358  -2.656  0.00  0.00     0.077 C 
ATOM      2  C1  UNL d   1      -1.776  -1.239  -1.634  0.00  0.00    -0.074 A 
ATOM      3  C2  UNL d   1      -0.730  -2.167  -1.588  0.00  0.00    -0.005 A 
ATOM      4  C3  UNL d   1       0.283  -2.039  -0.637  0.00  0.00     0.006 A 
ATOM      5  C4  UNL d   1       0.261  -0.983   0.275  0.00  0.00    -0.005 A 
ATOM      6  C5  UNL d   1      -0.776  -0.045   0.243  0.00  0.00    -0.074 A 
ATOM      7  C6  UNL d   1      -0.810   1.102   1.209  0.00  0.00     0.077 C 
ATOM      8  C7  UNL d   1      -1.786  -0.177  -0.720  0.00  0.00    -0.001 A 
ENDROOT
TORSDOF 0
ENDMDL
