MODEL 1
REMARK minimizedAffinity -4.26907301
REMARK minimizedRMSD -1
REMARK  0 active torsions:
REMARK  status: ('A' for Active; 'I' for Inactive)
ROOT
ATOM      1  C   UNL d   1      -1.356   0.739   1.594  0.00  0.00     0.077 C 
ATOM      2  C1  UNL d   1       0.106   0.683   1.265  0.00  0.00    -0.074 A 
ATOM      3  C2  UNL d   1       1.019   1.532   1.899  0.00  0.00    -0.005 A 
ATOM      4  C3  UNL d   1       2.377   1.462   1.590  0.00  0.00     0.006 A 
ATOM      5  C4  UNL d   1       2.836   0.544   0.645  0.00  0.00    -0.005 A 
ATOM      6  C5  UNL d   1       1.938  -0.313   0.001  0.00  0.00    -0.074 A 
ATOM      7  C6  UNL d   1       2.416  -1.313  -1.011  0.00  0.00     0.077 C 
ATOM      8  C7  UNL d   1       0.576  -0.242   0.322  0.00  0.00    -0.001 A 
ENDROOT
TORSDOF 0
ENDMDL
