MODEL 1
REMARK minimizedAffinity -2.28722811
REMARK minimizedRMSD -1
REMARK  0 active torsions:
REMARK  status: ('A' for Active; 'I' for Inactive)
ROOT
ATOM      1  C   UNL d   1      -0.435  -1.107  -0.950  0.00  0.00     0.077 C 
ATOM      2  C1  UNL d   1      -0.035  -0.120   0.106  0.00  0.00    -0.074 A 
ATOM      3  C2  UNL d   1      -0.978   0.399   0.999  0.00  0.00    -0.005 A 
ATOM      4  C3  UNL d   1      -0.590   1.308   1.982  0.00  0.00     0.006 A 
ATOM      5  C4  UNL d   1       0.743   1.707   2.083  0.00  0.00    -0.005 A 
ATOM      6  C5  UNL d   1       1.701   1.198   1.200  0.00  0.00    -0.074 A 
ATOM      7  C6  UNL d   1       3.140   1.610   1.301  0.00  0.00     0.077 C 
ATOM      8  C7  UNL d   1       1.304   0.280   0.219  0.00  0.00    -0.001 A 
ENDROOT
TORSDOF 0
ENDMDL
