MODEL 1
REMARK minimizedAffinity -3.44582319
REMARK minimizedRMSD -1
REMARK  0 active torsions:
REMARK  status: ('A' for Active; 'I' for Inactive)
ROOT
ATOM      1  C   UNL d   1       2.818   0.323  -0.252  0.00  0.00     0.077 C 
ATOM      2  C1  UNL d   1       1.397   0.355   0.228  0.00  0.00    -0.074 A 
ATOM      3  C2  UNL d   1       0.971   1.316   1.150  0.00  0.00    -0.005 A 
ATOM      4  C3  UNL d   1      -0.355   1.339   1.581  0.00  0.00     0.006 A 
ATOM      5  C4  UNL d   1      -1.268   0.402   1.095  0.00  0.00    -0.005 A 
ATOM      6  C5  UNL d   1      -0.860  -0.567   0.172  0.00  0.00    -0.074 A 
ATOM      7  C6  UNL d   1      -1.831  -1.575  -0.368  0.00  0.00     0.077 C 
ATOM      8  C7  UNL d   1       0.473  -0.579  -0.261  0.00  0.00    -0.001 A 
ENDROOT
TORSDOF 0
ENDMDL
