MODEL 1
REMARK minimizedAffinity -0.512053728
REMARK minimizedRMSD -1
REMARK  0 active torsions:
REMARK  status: ('A' for Active; 'I' for Inactive)
ROOT
ATOM      1  C   UNL d   1       0.324   0.672   1.548  0.00  0.00     0.023 A 
ATOM      2  C1  UNL d   1       0.303   0.600   0.155  0.00  0.00     0.003 A 
ATOM      3  C2  UNL d   1       0.378   1.768  -0.607  0.00  0.00     0.048 A 
ATOM      4  C3  UNL d   1       0.475   3.005   0.031  0.00  0.00     0.023 A 
ATOM      5  C4  UNL d   1       0.497   3.081   1.425  0.00  0.00     0.048 A 
ATOM      6  C5  UNL d   1       0.421   1.911   2.182  0.00  0.00     0.003 A 
ATOM      7  I   UNL d   1       0.587   4.745  -1.100  0.00  0.00    -0.146 I 
ENDROOT
TORSDOF 0
ENDMDL
