MODEL 1
REMARK minimizedAffinity 6.1043663
REMARK minimizedRMSD -1
REMARK  0 active torsions:
REMARK  status: ('A' for Active; 'I' for Inactive)
ROOT
ATOM      1  C   UNL d   1       1.439  -0.331   3.026  0.00  0.00     0.023 A 
ATOM      2  C1  UNL d   1       1.753  -1.054   1.874  0.00  0.00     0.003 A 
ATOM      3  C2  UNL d   1       1.366  -0.575   0.621  0.00  0.00     0.048 A 
ATOM      4  C3  UNL d   1       0.666   0.627   0.526  0.00  0.00     0.023 A 
ATOM      5  C4  UNL d   1       0.350   1.354   1.675  0.00  0.00     0.048 A 
ATOM      6  C5  UNL d   1       0.738   0.871   2.926  0.00  0.00     0.003 A 
ATOM      7  I   UNL d   1       0.090   1.341  -1.339  0.00  0.00    -0.146 I 
ENDROOT
TORSDOF 0
ENDMDL
