MODEL 1
REMARK minimizedAffinity 0.917518556
REMARK minimizedRMSD -1
REMARK  0 active torsions:
REMARK  status: ('A' for Active; 'I' for Inactive)
ROOT
ATOM      1  C   UNL d   1       0.143   4.502  -2.224  0.00  0.00     0.023 A 
ATOM      2  C1  UNL d   1       0.516   5.385  -1.210  0.00  0.00     0.003 A 
ATOM      3  C2  UNL d   1       0.786   4.903   0.073  0.00  0.00     0.048 A 
ATOM      4  C3  UNL d   1       0.683   3.537   0.334  0.00  0.00     0.023 A 
ATOM      5  C4  UNL d   1       0.311   2.650  -0.678  0.00  0.00     0.048 A 
ATOM      6  C5  UNL d   1       0.040   3.137  -1.958  0.00  0.00     0.003 A 
ATOM      7  I   UNL d   1       1.085   2.818   2.242  0.00  0.00    -0.146 I 
ENDROOT
TORSDOF 0
ENDMDL
