MODEL 1
REMARK minimizedAffinity 5.81165552
REMARK minimizedRMSD -1
REMARK  0 active torsions:
REMARK  status: ('A' for Active; 'I' for Inactive)
ROOT
ATOM      1  C   UNL d   1       1.648   2.282   3.068  0.00  0.00     0.023 A 
ATOM      2  C1  UNL d   1       0.662   1.787   2.213  0.00  0.00     0.003 A 
ATOM      3  C2  UNL d   1       0.318   2.494   1.060  0.00  0.00     0.048 A 
ATOM      4  C3  UNL d   1       0.963   3.694   0.766  0.00  0.00     0.023 A 
ATOM      5  C4  UNL d   1       1.951   4.193   1.617  0.00  0.00     0.048 A 
ATOM      6  C5  UNL d   1       2.291   3.483   2.770  0.00  0.00     0.003 A 
ATOM      7  I   UNL d   1       0.452   4.748  -0.951  0.00  0.00    -0.146 I 
ENDROOT
TORSDOF 0
ENDMDL
