MODEL 1
REMARK minimizedAffinity 6.37996006
REMARK minimizedRMSD -1
REMARK  0 active torsions:
REMARK  status: ('A' for Active; 'I' for Inactive)
ROOT
ATOM      1  C   UNL d   1      -4.563   0.488   4.562  0.00  0.00     0.023 A 
ATOM      2  C1  UNL d   1      -5.535   0.359   5.554  0.00  0.00     0.003 A 
ATOM      3  C2  UNL d   1      -5.949  -0.908   5.968  0.00  0.00     0.048 A 
ATOM      4  C3  UNL d   1      -5.386  -2.044   5.385  0.00  0.00     0.023 A 
ATOM      5  C4  UNL d   1      -4.412  -1.920   4.393  0.00  0.00     0.048 A 
ATOM      6  C5  UNL d   1      -4.002  -0.650   3.982  0.00  0.00     0.003 A 
ATOM      7  I   UNL d   1      -6.000  -3.932   5.999  0.00  0.00    -0.146 I 
ENDROOT
TORSDOF 0
ENDMDL
