MODEL 1
REMARK minimizedAffinity -0.614996493
REMARK minimizedRMSD -1
REMARK  0 active torsions:
REMARK  status: ('A' for Active; 'I' for Inactive)
ROOT
ATOM      1  C   UNL d   1       0.027   5.977  -2.048  0.00  0.00     0.023 A 
ATOM      2  C1  UNL d   1      -0.739   5.242  -2.953  0.00  0.00     0.003 A 
ATOM      3  C2  UNL d   1      -0.895   3.865  -2.781  0.00  0.00     0.048 A 
ATOM      4  C3  UNL d   1      -0.282   3.229  -1.702  0.00  0.00     0.023 A 
ATOM      5  C4  UNL d   1       0.485   3.961  -0.793  0.00  0.00     0.048 A 
ATOM      6  C5  UNL d   1       0.638   5.337  -0.969  0.00  0.00     0.003 A 
ATOM      7  I   UNL d   1      -0.513   1.180  -1.444  0.00  0.00    -0.146 I 
ENDROOT
TORSDOF 0
ENDMDL
