MODEL 1
REMARK minimizedAffinity 4.1301446
REMARK minimizedRMSD -1
REMARK  0 active torsions:
REMARK  status: ('A' for Active; 'I' for Inactive)
ROOT
ATOM      1  C   UNL d   1       6.000   4.210   4.195  0.00  0.00     0.172 C 
ATOM      2  N   UNL d   1       5.654   4.644   2.862  0.00  0.00    -0.070 N 
ATOM      3  C1  UNL d   1       5.655   5.940   2.419  0.00  0.00    -0.004 A 
ATOM      4  C2  UNL d   1       5.269   5.934   1.096  0.00  0.00    -0.047 A 
ATOM      5  C3  UNL d   1       5.027   4.588   0.731  0.00  0.00    -0.047 A 
ATOM      6  C4  UNL d   1       5.273   3.811   1.843  0.00  0.00    -0.004 A 
ENDROOT
TORSDOF 0
ENDMDL
