MODEL 1
REMARK minimizedAffinity 5.3059268
REMARK minimizedRMSD -1
REMARK  0 active torsions:
REMARK  status: ('A' for Active; 'I' for Inactive)
ROOT
ATOM      1  C   UNL d   1      -0.782   1.344  -5.990  0.00  0.00     0.172 C 
ATOM      2  N   UNL d   1      -2.013   2.100  -5.994  0.00  0.00    -0.070 N 
ATOM      3  C1  UNL d   1      -2.111   3.466  -5.995  0.00  0.00    -0.004 A 
ATOM      4  C2  UNL d   1      -3.450   3.793  -6.000  0.00  0.00    -0.047 A 
ATOM      5  C3  UNL d   1      -4.181   2.581  -6.000  0.00  0.00    -0.047 A 
ATOM      6  C4  UNL d   1      -3.267   1.549  -5.996  0.00  0.00    -0.004 A 
ENDROOT
TORSDOF 0
ENDMDL
