MODEL 1
REMARK minimizedAffinity 8.24528313
REMARK minimizedRMSD -1
REMARK  0 active torsions:
REMARK  status: ('A' for Active; 'I' for Inactive)
ROOT
ATOM      1  C   UNL d   1       2.959   0.991  -3.070  0.00  0.00     0.172 C 
ATOM      2  N   UNL d   1       1.908   1.406  -3.968  0.00  0.00    -0.070 N 
ATOM      3  C1  UNL d   1       2.062   2.229  -5.052  0.00  0.00    -0.004 A 
ATOM      4  C2  UNL d   1       0.827   2.381  -5.645  0.00  0.00    -0.047 A 
ATOM      5  C3  UNL d   1      -0.101   1.623  -4.892  0.00  0.00    -0.047 A 
ATOM      6  C4  UNL d   1       0.595   1.030  -3.860  0.00  0.00    -0.004 A 
ENDROOT
TORSDOF 0
ENDMDL
