MODEL 1
REMARK minimizedAffinity 1.66840851
REMARK minimizedRMSD -1
REMARK  0 active torsions:
REMARK  status: ('A' for Active; 'I' for Inactive)
ROOT
ATOM      1  C   UNL d   1      -2.369   3.893  -5.998  0.00  0.00     0.172 C 
ATOM      2  N   UNL d   1      -3.813   3.875  -5.998  0.00  0.00    -0.070 N 
ATOM      3  C1  UNL d   1      -4.625   4.978  -5.997  0.00  0.00    -0.004 A 
ATOM      4  C2  UNL d   1      -5.931   4.540  -5.998  0.00  0.00    -0.047 A 
ATOM      5  C3  UNL d   1      -5.903   3.125  -5.999  0.00  0.00    -0.047 A 
ATOM      6  C4  UNL d   1      -4.579   2.740  -5.999  0.00  0.00    -0.004 A 
ENDROOT
TORSDOF 0
ENDMDL
