MODEL 1
REMARK minimizedAffinity 5.27821112
REMARK minimizedRMSD -1
REMARK  0 active torsions:
REMARK  status: ('A' for Active; 'I' for Inactive)
ROOT
ATOM      1  C   UNL d   1      -1.388   2.256  -6.000  0.00  0.00     0.172 C 
ATOM      2  N   UNL d   1      -0.053   2.121  -5.466  0.00  0.00    -0.070 N 
ATOM      3  C1  UNL d   1       0.294   1.397  -4.356  0.00  0.00    -0.004 A 
ATOM      4  C2  UNL d   1       1.655   1.520  -4.180  0.00  0.00    -0.047 A 
ATOM      5  C3  UNL d   1       2.143   2.348  -5.219  0.00  0.00    -0.047 A 
ATOM      6  C4  UNL d   1       1.065   2.706  -6.000  0.00  0.00    -0.004 A 
ENDROOT
TORSDOF 0
ENDMDL
