MODEL 1
REMARK minimizedAffinity -0.492257655
REMARK minimizedRMSD -1
REMARK  0 active torsions:
REMARK  status: ('A' for Active; 'I' for Inactive)
ROOT
ATOM      1  C   UNL d   1       3.752   4.903   0.309  0.00  0.00     0.172 C 
ATOM      2  N   UNL d   1       3.748   4.911   1.753  0.00  0.00    -0.070 N 
ATOM      3  C1  UNL d   1       4.188   5.937   2.547  0.00  0.00    -0.004 A 
ATOM      4  C2  UNL d   1       4.017   5.557   3.861  0.00  0.00    -0.047 A 
ATOM      5  C3  UNL d   1       3.455   4.258   3.856  0.00  0.00    -0.047 A 
ATOM      6  C4  UNL d   1       3.299   3.883   2.539  0.00  0.00    -0.004 A 
ENDROOT
TORSDOF 0
ENDMDL
