MODEL 1
REMARK minimizedAffinity -1.36913049
REMARK minimizedRMSD -1
REMARK  0 active torsions:
REMARK  status: ('A' for Active; 'I' for Inactive)
ROOT
ATOM      1  C   UNL d   1      -5.952   5.448  -6.000  0.00  0.00     0.172 C 
ATOM      2  N   UNL d   1      -5.084   4.293  -5.998  0.00  0.00    -0.070 N 
ATOM      3  C1  UNL d   1      -5.494   2.987  -6.000  0.00  0.00    -0.004 A 
ATOM      4  C2  UNL d   1      -4.369   2.191  -5.998  0.00  0.00    -0.047 A 
ATOM      5  C3  UNL d   1      -3.244   3.049  -5.995  0.00  0.00    -0.047 A 
ATOM      6  C4  UNL d   1      -3.715   4.345  -5.995  0.00  0.00    -0.004 A 
ENDROOT
TORSDOF 0
ENDMDL
