MODEL 1
REMARK minimizedAffinity 0.0558409542
REMARK minimizedRMSD -1
REMARK  0 active torsions:
REMARK  status: ('A' for Active; 'I' for Inactive)
ROOT
ATOM      1  C   UNL d   1      -5.252   5.998  -5.997  0.00  0.00     0.172 C 
ATOM      2  N   UNL d   1      -4.497   4.767  -5.997  0.00  0.00    -0.070 N 
ATOM      3  C1  UNL d   1      -5.028   3.505  -5.999  0.00  0.00    -0.004 A 
ATOM      4  C2  UNL d   1      -3.982   2.607  -5.999  0.00  0.00    -0.047 A 
ATOM      5  C3  UNL d   1      -2.781   3.356  -5.995  0.00  0.00    -0.047 A 
ATOM      6  C4  UNL d   1      -3.129   4.690  -5.994  0.00  0.00    -0.004 A 
ENDROOT
TORSDOF 0
ENDMDL
