MODEL 1
REMARK minimizedAffinity 7.15787649
REMARK minimizedRMSD -1
REMARK  0 active torsions:
REMARK  status: ('A' for Active; 'I' for Inactive)
ROOT
ATOM      1  C   UNL d   1       5.946   1.261  -1.892  0.00  0.00     0.172 C 
ATOM      2  N   UNL d   1       5.194   0.029  -1.932  0.00  0.00    -0.070 N 
ATOM      3  C1  UNL d   1       5.671  -1.209  -1.590  0.00  0.00    -0.004 A 
ATOM      4  C2  UNL d   1       4.649  -2.117  -1.763  0.00  0.00    -0.047 A 
ATOM      5  C3  UNL d   1       3.519  -1.401  -2.226  0.00  0.00    -0.047 A 
ATOM      6  C4  UNL d   1       3.885  -0.075  -2.321  0.00  0.00    -0.004 A 
ENDROOT
TORSDOF 0
ENDMDL
