MODEL 1
REMARK minimizedAffinity 0.519759238
REMARK minimizedRMSD -1
REMARK  0 active torsions:
REMARK  status: ('A' for Active; 'I' for Inactive)
ROOT
ATOM      1  C   UNL d   1       2.264   4.520  -5.997  0.00  0.00     0.172 C 
ATOM      2  N   UNL d   1       0.820   4.490  -5.997  0.00  0.00    -0.070 N 
ATOM      3  C1  UNL d   1       0.045   3.361  -5.995  0.00  0.00    -0.004 A 
ATOM      4  C2  UNL d   1      -1.275   3.756  -5.995  0.00  0.00    -0.047 A 
ATOM      5  C3  UNL d   1      -1.294   5.171  -5.998  0.00  0.00    -0.047 A 
ATOM      6  C4  UNL d   1       0.016   5.600  -5.999  0.00  0.00    -0.004 A 
ENDROOT
TORSDOF 0
ENDMDL
