MODEL 1
REMARK minimizedAffinity 1.38036942
REMARK minimizedRMSD -1
REMARK  0 active torsions:
REMARK  status: ('A' for Active; 'I' for Inactive)
ROOT
ATOM      1  C   UNL d   1      -0.484   3.733  -5.982  0.00  0.00     0.172 C 
ATOM      2  N   UNL d   1      -1.839   3.235  -5.986  0.00  0.00    -0.070 N 
ATOM      3  C1  UNL d   1      -2.205   1.915  -5.978  0.00  0.00    -0.004 A 
ATOM      4  C2  UNL d   1      -3.582   1.859  -5.985  0.00  0.00    -0.047 A 
ATOM      5  C3  UNL d   1      -4.060   3.190  -5.998  0.00  0.00    -0.047 A 
ATOM      6  C4  UNL d   1      -2.960   4.022  -5.999  0.00  0.00    -0.004 A 
ENDROOT
TORSDOF 0
ENDMDL
