MODEL 1
REMARK minimizedAffinity 1.22051048
REMARK minimizedRMSD -1
REMARK  0 active torsions:
REMARK  status: ('A' for Active; 'I' for Inactive)
ROOT
ATOM      1  C   UNL d   1      -3.758   5.740  -5.999  0.00  0.00     0.172 C 
ATOM      2  N   UNL d   1      -3.177   4.418  -5.999  0.00  0.00    -0.070 N 
ATOM      3  C1  UNL d   1      -3.875   3.239  -5.998  0.00  0.00    -0.004 A 
ATOM      4  C2  UNL d   1      -2.961   2.208  -5.999  0.00  0.00    -0.047 A 
ATOM      5  C3  UNL d   1      -1.669   2.786  -5.999  0.00  0.00    -0.047 A 
ATOM      6  C4  UNL d   1      -1.833   4.156  -5.999  0.00  0.00    -0.004 A 
ENDROOT
TORSDOF 0
ENDMDL
