MODEL 1
REMARK minimizedAffinity -0.0576720722
REMARK minimizedRMSD -1
REMARK  0 active torsions:
REMARK  status: ('A' for Active; 'I' for Inactive)
ROOT
ATOM      1  C   UNL d   1      -3.351   2.631  -5.991  0.00  0.00     0.172 C 
ATOM      2  N   UNL d   1      -1.953   2.994  -5.993  0.00  0.00    -0.070 N 
ATOM      3  C1  UNL d   1      -0.901   2.118  -5.989  0.00  0.00    -0.004 A 
ATOM      4  C2  UNL d   1       0.263   2.856  -5.993  0.00  0.00    -0.047 A 
ATOM      5  C3  UNL d   1      -0.102   4.223  -5.999  0.00  0.00    -0.047 A 
ATOM      6  C4  UNL d   1      -1.480   4.280  -5.998  0.00  0.00    -0.004 A 
ENDROOT
TORSDOF 0
ENDMDL
