MODEL 1
REMARK minimizedAffinity -2.08019948
REMARK minimizedRMSD -1
REMARK  0 active torsions:
REMARK  status: ('A' for Active; 'I' for Inactive)
ROOT
ATOM      1  C   UNL d   1      -3.742   2.641  -5.692  0.00  0.00     0.172 C 
ATOM      2  N   UNL d   1      -2.384   3.126  -5.767  0.00  0.00    -0.070 N 
ATOM      3  C1  UNL d   1      -1.255   2.365  -5.618  0.00  0.00    -0.004 A 
ATOM      4  C2  UNL d   1      -0.165   3.195  -5.758  0.00  0.00    -0.047 A 
ATOM      5  C3  UNL d   1      -0.655   4.501  -6.000  0.00  0.00    -0.047 A 
ATOM      6  C4  UNL d   1      -2.032   4.429  -6.000  0.00  0.00    -0.004 A 
ENDROOT
TORSDOF 0
ENDMDL
