MODEL 1
REMARK minimizedAffinity -1.72553468
REMARK minimizedRMSD -1
REMARK  0 active torsions:
REMARK  status: ('A' for Active; 'I' for Inactive)
ROOT
ATOM      1  C   UNL d   1      -4.010   5.558  -6.000  0.00  0.00     0.172 C 
ATOM      2  N   UNL d   1      -2.962   4.565  -5.986  0.00  0.00    -0.070 N 
ATOM      3  C1  UNL d   1      -3.148   3.208  -5.957  0.00  0.00    -0.004 A 
ATOM      4  C2  UNL d   1      -1.905   2.612  -5.953  0.00  0.00    -0.047 A 
ATOM      5  C3  UNL d   1      -0.939   3.646  -5.979  0.00  0.00    -0.047 A 
ATOM      6  C4  UNL d   1      -1.621   4.844  -5.999  0.00  0.00    -0.004 A 
ENDROOT
TORSDOF 0
ENDMDL
