MODEL 1
REMARK minimizedAffinity -2.44706035
REMARK minimizedRMSD -1
REMARK  0 active torsions:
REMARK  status: ('A' for Active; 'I' for Inactive)
ROOT
ATOM      1  C   UNL d   1      -3.397   2.626  -5.718  0.00  0.00     0.172 C 
ATOM      2  N   UNL d   1      -1.971   2.844  -5.779  0.00  0.00    -0.070 N 
ATOM      3  C1  UNL d   1      -1.009   1.882  -5.625  0.00  0.00    -0.004 A 
ATOM      4  C2  UNL d   1       0.221   2.490  -5.752  0.00  0.00    -0.047 A 
ATOM      5  C3  UNL d   1      -0.009   3.866  -5.988  0.00  0.00    -0.047 A 
ATOM      6  C4  UNL d   1      -1.375   4.058  -6.000  0.00  0.00    -0.004 A 
ENDROOT
TORSDOF 0
ENDMDL
