MODEL 1
REMARK minimizedAffinity 4.2399745
REMARK minimizedRMSD -1
REMARK  1 active torsions:
REMARK  status: ('A' for Active; 'I' for Inactive)
REMARK    1  A    between atoms: C1_2  and  C2_3 
ROOT
ATOM      1  C2  UNL d   1       0.075  -5.298  -3.101  0.00  0.00    -0.073 A 
ATOM      2  C3  UNL d   1       0.041  -5.475  -4.489  0.00  0.00    -0.002 A 
ATOM      3  C4  UNL d   1      -1.149  -5.828  -5.125  0.00  0.00     0.004 A 
ATOM      4  C5  UNL d   1      -2.318  -6.000  -4.383  0.00  0.00    -0.004 A 
ATOM      5  C6  UNL d   1      -2.307  -5.816  -2.997  0.00  0.00    -0.075 A 
ATOM      6  C7  UNL d   1      -3.554  -5.999  -2.184  0.00  0.00     0.076 C 
ATOM      7  C8  UNL d   1      -1.106  -5.464  -2.364  0.00  0.00     0.001 A 
ENDROOT
BRANCH   1   8
ATOM      8  C1  UNL d   1       1.357  -4.911  -2.410  0.00  0.00     0.053 C 
ATOM      9  C   UNL d   1       2.471  -5.912  -2.672  0.00  0.00     0.018 C 
ENDBRANCH   1   8
TORSDOF 1
ENDMDL
