MODEL 1
REMARK minimizedAffinity 7.36651325
REMARK minimizedRMSD -1
REMARK  1 active torsions:
REMARK  status: ('A' for Active; 'I' for Inactive)
REMARK    1  A    between atoms: C1_2  and  C2_3 
ROOT
ATOM      1  C2  UNL d   1      -0.868  -5.814  -3.130  0.00  0.00    -0.073 A 
ATOM      2  C3  UNL d   1      -0.392  -5.863  -4.445  0.00  0.00    -0.002 A 
ATOM      3  C4  UNL d   1      -1.283  -5.959  -5.515  0.00  0.00     0.004 A 
ATOM      4  C5  UNL d   1      -2.658  -6.000  -5.281  0.00  0.00    -0.004 A 
ATOM      5  C6  UNL d   1      -3.153  -5.941  -3.975  0.00  0.00    -0.075 A 
ATOM      6  C7  UNL d   1      -4.629  -5.986  -3.706  0.00  0.00     0.076 C 
ATOM      7  C8  UNL d   1      -2.251  -5.847  -2.906  0.00  0.00     0.001 A 
ENDROOT
BRANCH   1   8
ATOM      8  C1  UNL d   1       0.091  -5.704  -1.973  0.00  0.00     0.053 C 
ATOM      9  C   UNL d   1       1.524  -5.996  -2.390  0.00  0.00     0.018 C 
ENDBRANCH   1   8
TORSDOF 1
ENDMDL
