MODEL 1
REMARK minimizedAffinity -0.720791459
REMARK minimizedRMSD -1
REMARK  1 active torsions:
REMARK  status: ('A' for Active; 'I' for Inactive)
REMARK    1  A    between atoms: C1_2  and  C2_3 
ROOT
ATOM      1  C2  UNL d   1      -2.130  -5.983  -3.773  0.00  0.00    -0.073 A 
ATOM      2  C3  UNL d   1      -3.000  -5.986  -4.870  0.00  0.00    -0.002 A 
ATOM      3  C4  UNL d   1      -4.381  -5.996  -4.674  0.00  0.00     0.004 A 
ATOM      4  C5  UNL d   1      -4.907  -5.996  -3.382  0.00  0.00    -0.004 A 
ATOM      5  C6  UNL d   1      -4.055  -5.982  -2.274  0.00  0.00    -0.075 A 
ATOM      6  C7  UNL d   1      -4.605  -5.984  -0.878  0.00  0.00     0.076 C 
ATOM      7  C8  UNL d   1      -2.669  -5.974  -2.478  0.00  0.00     0.001 A 
ENDROOT
BRANCH   1   8
ATOM      8  C1  UNL d   1      -0.638  -5.965  -3.979  0.00  0.00     0.053 C 
ATOM      9  C   UNL d   1       0.120  -5.923  -2.662  0.00  0.00     0.018 C 
ENDBRANCH   1   8
TORSDOF 1
ENDMDL
