MODEL 1
REMARK minimizedAffinity 11.1575022
REMARK minimizedRMSD -1
REMARK  1 active torsions:
REMARK  status: ('A' for Active; 'I' for Inactive)
REMARK    1  A    between atoms: C1_2  and  C2_3 
ROOT
ATOM      1  C2  UNL d   1      -0.422  -5.870  -3.245  0.00  0.00    -0.073 A 
ATOM      2  C3  UNL d   1       0.631  -5.612  -4.130  0.00  0.00    -0.002 A 
ATOM      3  C4  UNL d   1       0.387  -5.487  -5.498  0.00  0.00     0.004 A 
ATOM      4  C5  UNL d   1      -0.910  -5.610  -5.995  0.00  0.00    -0.004 A 
ATOM      5  C6  UNL d   1      -1.978  -5.856  -5.125  0.00  0.00    -0.075 A 
ATOM      6  C7  UNL d   1      -3.379  -5.994  -5.644  0.00  0.00     0.076 C 
ATOM      7  C8  UNL d   1      -1.725  -5.983  -3.753  0.00  0.00     0.001 A 
ENDROOT
BRANCH   1   8
ATOM      8  C1  UNL d   1      -0.165  -6.000  -1.766  0.00  0.00     0.053 C 
ATOM      9  C   UNL d   1      -1.447  -5.904  -0.954  0.00  0.00     0.018 C 
ENDBRANCH   1   8
TORSDOF 1
ENDMDL
