MODEL 1
REMARK minimizedAffinity -3.25451064
REMARK minimizedRMSD -1
REMARK  1 active torsions:
REMARK  status: ('A' for Active; 'I' for Inactive)
REMARK    1  A    between atoms: C1_2  and  C2_3 
ROOT
ATOM      1  C2  UNL d   1      -0.909  -5.503  -4.640  0.00  0.00    -0.073 A 
ATOM      2  C3  UNL d   1      -0.098  -5.642  -3.508  0.00  0.00    -0.002 A 
ATOM      3  C4  UNL d   1      -0.669  -5.884  -2.258  0.00  0.00     0.004 A 
ATOM      4  C5  UNL d   1      -2.053  -5.997  -2.127  0.00  0.00    -0.004 A 
ATOM      5  C6  UNL d   1      -2.879  -5.873  -3.249  0.00  0.00    -0.075 A 
ATOM      6  C7  UNL d   1      -4.370  -5.990  -3.125  0.00  0.00     0.076 C 
ATOM      7  C8  UNL d   1      -2.299  -5.627  -4.501  0.00  0.00     0.001 A 
ENDROOT
BRANCH   1   8
ATOM      8  C1  UNL d   1      -0.298  -5.248  -5.993  0.00  0.00     0.053 C 
ATOM      9  C   UNL d   1       1.200  -5.508  -6.000  0.00  0.00     0.018 C 
ENDBRANCH   1   8
TORSDOF 1
ENDMDL
