MODEL 1
REMARK minimizedAffinity 0.22994487
REMARK minimizedRMSD -1
REMARK  1 active torsions:
REMARK  status: ('A' for Active; 'I' for Inactive)
REMARK    1  A    between atoms: C1_2  and  C2_3 
ROOT
ATOM      1  C2  UNL d   1      -2.004  -5.959  -3.897  0.00  0.00    -0.073 A 
ATOM      2  C3  UNL d   1      -1.803  -5.945  -5.282  0.00  0.00    -0.002 A 
ATOM      3  C4  UNL d   1      -0.510  -5.940  -5.806  0.00  0.00     0.004 A 
ATOM      4  C5  UNL d   1       0.594  -5.956  -4.953  0.00  0.00    -0.004 A 
ATOM      5  C6  UNL d   1       0.413  -5.982  -3.566  0.00  0.00    -0.075 A 
ATOM      6  C7  UNL d   1       1.590  -5.997  -2.635  0.00  0.00     0.076 C 
ATOM      7  C8  UNL d   1      -0.888  -5.984  -3.047  0.00  0.00     0.001 A 
ENDROOT
BRANCH   1   8
ATOM      8  C1  UNL d   1      -3.398  -5.970  -3.326  0.00  0.00     0.053 C 
ATOM      9  C   UNL d   1      -3.886  -4.571  -2.984  0.00  0.00     0.018 C 
ENDBRANCH   1   8
TORSDOF 1
ENDMDL
