MODEL 1
REMARK minimizedAffinity 1.17267752
REMARK minimizedRMSD -1
REMARK  1 active torsions:
REMARK  status: ('A' for Active; 'I' for Inactive)
REMARK    1  A    between atoms: C1_2  and  C2_3 
ROOT
ATOM      1  C2  UNL d   1      -0.736  -5.891  -4.218  0.00  0.00    -0.073 A 
ATOM      2  C3  UNL d   1       0.315  -5.954  -3.296  0.00  0.00    -0.002 A 
ATOM      3  C4  UNL d   1       0.049  -5.997  -1.926  0.00  0.00     0.004 A 
ATOM      4  C5  UNL d   1      -1.268  -5.986  -1.466  0.00  0.00    -0.004 A 
ATOM      5  C6  UNL d   1      -2.332  -5.935  -2.373  0.00  0.00    -0.075 A 
ATOM      6  C7  UNL d   1      -3.754  -5.920  -1.894  0.00  0.00     0.076 C 
ATOM      7  C8  UNL d   1      -2.056  -5.889  -3.746  0.00  0.00     0.001 A 
ENDROOT
BRANCH   1   8
ATOM      8  C1  UNL d   1      -0.454  -5.851  -5.698  0.00  0.00     0.053 C 
ATOM      9  C   UNL d   1       1.030  -5.993  -5.999  0.00  0.00     0.018 C 
ENDBRANCH   1   8
TORSDOF 1
ENDMDL
