MODEL 1
REMARK minimizedAffinity -0.0876274183
REMARK minimizedRMSD -1
REMARK  1 active torsions:
REMARK  status: ('A' for Active; 'I' for Inactive)
REMARK    1  A    between atoms: C1_2  and  C2_3 
ROOT
ATOM      1  C2  UNL d   1      -0.298   2.682  -2.105  0.00  0.00    -0.073 A 
ATOM      2  C3  UNL d   1      -0.213   3.868  -1.367  0.00  0.00    -0.002 A 
ATOM      3  C4  UNL d   1       0.224   3.845  -0.042  0.00  0.00     0.004 A 
ATOM      4  C5  UNL d   1       0.586   2.639   0.556  0.00  0.00    -0.004 A 
ATOM      5  C6  UNL d   1       0.519   1.444  -0.167  0.00  0.00    -0.075 A 
ATOM      6  C7  UNL d   1       0.903   0.137   0.463  0.00  0.00     0.076 C 
ATOM      7  C8  UNL d   1       0.077   1.475  -1.497  0.00  0.00     0.001 A 
ENDROOT
BRANCH   1   8
ATOM      8  C1  UNL d   1      -0.764   2.703  -3.538  0.00  0.00     0.053 C 
ATOM      9  C   UNL d   1      -0.395   4.001  -4.238  0.00  0.00     0.018 C 
ENDBRANCH   1   8
TORSDOF 1
ENDMDL
