MODEL 1
REMARK minimizedAffinity 3.70266604
REMARK minimizedRMSD -1
REMARK  1 active torsions:
REMARK  status: ('A' for Active; 'I' for Inactive)
REMARK    1  A    between atoms: C1_2  and  C2_3 
ROOT
ATOM      1  C2  UNL d   1       0.773  -1.250   1.471  0.00  0.00    -0.073 A 
ATOM      2  C3  UNL d   1      -0.432  -1.283   0.760  0.00  0.00    -0.002 A 
ATOM      3  C4  UNL d   1      -1.230  -2.428   0.778  0.00  0.00     0.004 A 
ATOM      4  C5  UNL d   1      -0.835  -3.547   1.511  0.00  0.00    -0.004 A 
ATOM      5  C6  UNL d   1       0.360  -3.529   2.237  0.00  0.00    -0.075 A 
ATOM      6  C7  UNL d   1       0.800  -4.726   3.028  0.00  0.00     0.076 C 
ATOM      7  C8  UNL d   1       1.157  -2.377   2.212  0.00  0.00     0.001 A 
ENDROOT
BRANCH   1   8
ATOM      8  C1  UNL d   1       1.634  -0.014   1.460  0.00  0.00     0.053 C 
ATOM      9  C   UNL d   1       1.403   0.831   0.217  0.00  0.00     0.018 C 
ENDBRANCH   1   8
TORSDOF 1
ENDMDL
