MODEL 1
REMARK minimizedAffinity 3.19764924
REMARK minimizedRMSD -1
REMARK  1 active torsions:
REMARK  status: ('A' for Active; 'I' for Inactive)
REMARK    1  A    between atoms: C1_2  and  C2_3 
ROOT
ATOM      1  C2  UNL d   1      -3.593   1.447  -2.659  0.00  0.00    -0.073 A 
ATOM      2  C3  UNL d   1      -4.491   2.040  -3.554  0.00  0.00    -0.002 A 
ATOM      3  C4  UNL d   1      -4.036   2.947  -4.512  0.00  0.00     0.004 A 
ATOM      4  C5  UNL d   1      -2.681   3.265  -4.591  0.00  0.00    -0.004 A 
ATOM      5  C6  UNL d   1      -1.766   2.674  -3.713  0.00  0.00    -0.075 A 
ATOM      6  C7  UNL d   1      -0.304   3.007  -3.783  0.00  0.00     0.076 C 
ATOM      7  C8  UNL d   1      -2.231   1.766  -2.752  0.00  0.00     0.001 A 
ENDROOT
BRANCH   1   8
ATOM      8  C1  UNL d   1      -4.078   0.463  -1.627  0.00  0.00     0.053 C 
ATOM      9  C   UNL d   1      -5.528   0.710  -1.241  0.00  0.00     0.018 C 
ENDBRANCH   1   8
TORSDOF 1
ENDMDL
