MODEL 1
REMARK minimizedAffinity 3.40836668
REMARK minimizedRMSD -1
REMARK  1 active torsions:
REMARK  status: ('A' for Active; 'I' for Inactive)
REMARK    1  A    between atoms: C1_2  and  C2_3 
ROOT
ATOM      1  C2  UNL d   1      -2.564  -5.938  -2.660  0.00  0.00    -0.073 A 
ATOM      2  C3  UNL d   1      -1.489  -5.901  -1.764  0.00  0.00    -0.002 A 
ATOM      3  C4  UNL d   1      -0.177  -5.900  -2.239  0.00  0.00     0.004 A 
ATOM      4  C5  UNL d   1       0.074  -5.930  -3.610  0.00  0.00    -0.004 A 
ATOM      5  C6  UNL d   1      -0.987  -5.955  -4.521  0.00  0.00    -0.075 A 
ATOM      6  C7  UNL d   1      -0.734  -5.990  -6.000  0.00  0.00     0.076 C 
ATOM      7  C8  UNL d   1      -2.302  -5.959  -4.037  0.00  0.00     0.001 A 
ENDROOT
BRANCH   1   8
ATOM      8  C1  UNL d   1      -3.983  -5.932  -2.152  0.00  0.00     0.053 C 
ATOM      9  C   UNL d   1      -4.046  -5.998  -0.635  0.00  0.00     0.018 C 
ENDBRANCH   1   8
TORSDOF 1
ENDMDL
