MODEL 1
REMARK minimizedAffinity -1.50693154
REMARK minimizedRMSD -1
REMARK  1 active torsions:
REMARK  status: ('A' for Active; 'I' for Inactive)
REMARK    1  A    between atoms: C1_2  and  C2_3 
ROOT
ATOM      1  C2  UNL d   1      -2.110  -5.986  -2.948  0.00  0.00    -0.073 A 
ATOM      2  C3  UNL d   1      -3.372  -5.994  -3.554  0.00  0.00    -0.002 A 
ATOM      3  C4  UNL d   1      -3.485  -5.995  -4.945  0.00  0.00     0.004 A 
ATOM      4  C5  UNL d   1      -2.341  -5.994  -5.742  0.00  0.00    -0.004 A 
ATOM      5  C6  UNL d   1      -1.072  -5.998  -5.155  0.00  0.00    -0.075 A 
ATOM      6  C7  UNL d   1       0.168  -5.995  -6.000  0.00  0.00     0.076 C 
ATOM      7  C8  UNL d   1      -0.966  -5.995  -3.758  0.00  0.00     0.001 A 
ENDROOT
BRANCH   1   8
ATOM      8  C1  UNL d   1      -1.983  -5.992  -1.446  0.00  0.00     0.053 C 
ATOM      9  C   UNL d   1      -1.855  -4.587  -0.879  0.00  0.00     0.018 C 
ENDBRANCH   1   8
TORSDOF 1
ENDMDL
