MODEL 1
REMARK minimizedAffinity 2.2500174
REMARK minimizedRMSD -1
REMARK  1 active torsions:
REMARK  status: ('A' for Active; 'I' for Inactive)
REMARK    1  A    between atoms: C1_2  and  C2_3 
ROOT
ATOM      1  C2  UNL d   1      -0.433  -5.985  -4.114  0.00  0.00    -0.073 A 
ATOM      2  C3  UNL d   1       0.109  -5.995  -2.824  0.00  0.00    -0.002 A 
ATOM      3  C4  UNL d   1      -0.728  -5.998  -1.707  0.00  0.00     0.004 A 
ATOM      4  C5  UNL d   1      -2.113  -5.998  -1.869  0.00  0.00    -0.004 A 
ATOM      5  C6  UNL d   1      -2.674  -6.000  -3.150  0.00  0.00    -0.075 A 
ATOM      6  C7  UNL d   1      -4.163  -5.997  -3.341  0.00  0.00     0.076 C 
ATOM      7  C8  UNL d   1      -1.827  -5.994  -4.266  0.00  0.00     0.001 A 
ENDROOT
BRANCH   1   8
ATOM      8  C1  UNL d   1       0.467  -5.988  -5.322  0.00  0.00     0.053 C 
ATOM      9  C   UNL d   1       1.561  -4.936  -5.221  0.00  0.00     0.018 C 
ENDBRANCH   1   8
TORSDOF 1
ENDMDL
