MODEL 1
REMARK minimizedAffinity 0.765334964
REMARK minimizedRMSD -1
REMARK  1 active torsions:
REMARK  status: ('A' for Active; 'I' for Inactive)
REMARK    1  A    between atoms: C1_2  and  C2_3 
ROOT
ATOM      1  C2  UNL d   1      -0.736  -5.894  -4.624  0.00  0.00    -0.073 A 
ATOM      2  C3  UNL d   1      -1.979  -5.919  -5.267  0.00  0.00    -0.002 A 
ATOM      3  C4  UNL d   1      -3.157  -5.975  -4.521  0.00  0.00     0.004 A 
ATOM      4  C5  UNL d   1      -3.105  -5.999  -3.127  0.00  0.00    -0.004 A 
ATOM      5  C6  UNL d   1      -1.873  -5.962  -2.467  0.00  0.00    -0.075 A 
ATOM      6  C7  UNL d   1      -1.799  -5.990  -0.968  0.00  0.00     0.076 C 
ATOM      7  C8  UNL d   1      -0.694  -5.909  -3.223  0.00  0.00     0.001 A 
ENDROOT
BRANCH   1   8
ATOM      8  C1  UNL d   1       0.539  -5.827  -5.425  0.00  0.00     0.053 C 
ATOM      9  C   UNL d   1       1.504  -4.788  -4.876  0.00  0.00     0.018 C 
ENDBRANCH   1   8
TORSDOF 1
ENDMDL
