MODEL 1
REMARK minimizedAffinity 14.0749474
REMARK minimizedRMSD -1
REMARK  0 active torsions:
REMARK  status: ('A' for Active; 'I' for Inactive)
ROOT
ATOM      1  C   UNL d   1      -0.202   3.724  -0.727  0.00  0.00     0.124 A 
ATOM      2  C1  UNL d   1      -0.626   2.725   0.138  0.00  0.00     0.062 A 
ATOM      3  C2  UNL d   1      -1.863   2.823   0.768  0.00  0.00     0.162 A 
ATOM      4  C3  UNL d   1      -2.686   3.925   0.535  0.00  0.00    -0.034 A 
ATOM      5  C4  UNL d   1      -2.252   4.926  -0.336  0.00  0.00     0.162 A 
ATOM      6  C5  UNL d   1      -1.015   4.823  -0.963  0.00  0.00     0.062 A 
ATOM      7  F   UNL d   1      -0.607   5.790  -1.798  0.00  0.00    -0.097 F 
ATOM      8  F1  UNL d   1      -3.018   5.999  -0.582  0.00  0.00    -0.096 F 
ATOM      9  I   UNL d   1      -4.536   4.076   1.476  0.00  0.00    -0.060 I 
ATOM     10  F2  UNL d   1      -2.247   1.843   1.599  0.00  0.00    -0.096 F 
ATOM     11  F3  UNL d   1       0.159   1.662   0.368  0.00  0.00    -0.097 F 
ATOM     12  F4  UNL d   1       0.989   3.627  -1.332  0.00  0.00    -0.092 F 
ENDROOT
TORSDOF 0
ENDMDL
