MODEL 1
REMARK minimizedAffinity 27.8918686
REMARK minimizedRMSD -1
REMARK  0 active torsions:
REMARK  status: ('A' for Active; 'I' for Inactive)
ROOT
ATOM      1  C   UNL d   1      -2.223   0.932  -4.268  0.00  0.00     0.124 A 
ATOM      2  C1  UNL d   1      -0.928   0.453  -4.124  0.00  0.00     0.062 A 
ATOM      3  C2  UNL d   1      -0.220   0.694  -2.951  0.00  0.00     0.162 A 
ATOM      4  C3  UNL d   1      -0.804   1.417  -1.911  0.00  0.00    -0.034 A 
ATOM      5  C4  UNL d   1      -2.107   1.897  -2.064  0.00  0.00     0.162 A 
ATOM      6  C5  UNL d   1      -2.811   1.653  -3.239  0.00  0.00     0.062 A 
ATOM      7  F   UNL d   1      -4.062   2.117  -3.376  0.00  0.00    -0.097 F 
ATOM      8  F1  UNL d   1      -2.699   2.596  -1.085  0.00  0.00    -0.096 F 
ATOM      9  I   UNL d   1       0.252   1.780  -0.155  0.00  0.00    -0.060 I 
ATOM     10  F2  UNL d   1       1.030   0.219  -2.839  0.00  0.00    -0.096 F 
ATOM     11  F3  UNL d   1      -0.358  -0.243  -5.118  0.00  0.00    -0.097 F 
ATOM     12  F4  UNL d   1      -2.902   0.700  -5.399  0.00  0.00    -0.092 F 
ENDROOT
TORSDOF 0
ENDMDL
