MODEL 1
REMARK minimizedAffinity 16.2931633
REMARK minimizedRMSD -1
REMARK  0 active torsions:
REMARK  status: ('A' for Active; 'I' for Inactive)
ROOT
ATOM      1  C   UNL d   1       4.748  -3.503   2.834  0.00  0.00     0.124 A 
ATOM      2  C1  UNL d   1       3.897  -2.986   3.801  0.00  0.00     0.062 A 
ATOM      3  C2  UNL d   1       3.048  -1.927   3.492  0.00  0.00     0.162 A 
ATOM      4  C3  UNL d   1       3.046  -1.378   2.210  0.00  0.00    -0.034 A 
ATOM      5  C4  UNL d   1       3.905  -1.902   1.243  0.00  0.00     0.162 A 
ATOM      6  C5  UNL d   1       4.752  -2.961   1.557  0.00  0.00     0.062 A 
ATOM      7  F   UNL d   1       5.573  -3.459   0.621  0.00  0.00    -0.097 F 
ATOM      8  F1  UNL d   1       3.928  -1.398   0.001  0.00  0.00    -0.096 F 
ATOM      9  I   UNL d   1       1.778   0.206   1.745  0.00  0.00    -0.060 I 
ATOM     10  F2  UNL d   1       2.236  -1.447   4.446  0.00  0.00    -0.096 F 
ATOM     11  F3  UNL d   1       3.893  -3.507   5.036  0.00  0.00    -0.097 F 
ATOM     12  F4  UNL d   1       5.565  -4.521   3.134  0.00  0.00    -0.092 F 
ENDROOT
TORSDOF 0
ENDMDL
