MODEL 1
REMARK minimizedAffinity 4.61317968
REMARK minimizedRMSD -1
REMARK  0 active torsions:
REMARK  status: ('A' for Active; 'I' for Inactive)
ROOT
ATOM      1  C   UNL d   1      -0.823   2.481   0.906  0.00  0.00     0.124 A 
ATOM      2  C1  UNL d   1      -0.968   2.999  -0.373  0.00  0.00     0.062 A 
ATOM      3  C2  UNL d   1      -1.900   4.002  -0.622  0.00  0.00     0.162 A 
ATOM      4  C3  UNL d   1      -2.696   4.495   0.413  0.00  0.00    -0.034 A 
ATOM      5  C4  UNL d   1      -2.545   3.969   1.697  0.00  0.00     0.162 A 
ATOM      6  C5  UNL d   1      -1.612   2.966   1.940  0.00  0.00     0.062 A 
ATOM      7  F   UNL d   1      -1.474   2.467   3.177  0.00  0.00    -0.097 F 
ATOM      8  F1  UNL d   1      -3.294   4.420   2.715  0.00  0.00    -0.096 F 
ATOM      9  I   UNL d   1      -4.091   5.995   0.046  0.00  0.00    -0.060 I 
ATOM     10  F2  UNL d   1      -2.018   4.484  -1.868  0.00  0.00    -0.096 F 
ATOM     11  F3  UNL d   1      -0.208   2.531  -1.374  0.00  0.00    -0.097 F 
ATOM     12  F4  UNL d   1       0.074   1.515   1.142  0.00  0.00    -0.092 F 
ENDROOT
TORSDOF 0
ENDMDL
