MODEL 1
REMARK minimizedAffinity 20.4275284
REMARK minimizedRMSD -1
REMARK  0 active torsions:
REMARK  status: ('A' for Active; 'I' for Inactive)
ROOT
ATOM      1  C   UNL d   1       4.901  -3.137   3.573  0.00  0.00     0.124 A 
ATOM      2  C1  UNL d   1       4.990  -2.674   2.267  0.00  0.00     0.062 A 
ATOM      3  C2  UNL d   1       4.034  -1.792   1.771  0.00  0.00     0.162 A 
ATOM      4  C3  UNL d   1       2.981  -1.367   2.581  0.00  0.00    -0.034 A 
ATOM      5  C4  UNL d   1       2.898  -1.837   3.892  0.00  0.00     0.162 A 
ATOM      6  C5  UNL d   1       3.856  -2.718   4.384  0.00  0.00     0.062 A 
ATOM      7  F   UNL d   1       3.768  -3.165   5.645  0.00  0.00    -0.097 F 
ATOM      8  F1  UNL d   1       1.898  -1.449   4.698  0.00  0.00    -0.096 F 
ATOM      9  I   UNL d   1       1.549  -0.049   1.842  0.00  0.00    -0.060 I 
ATOM     10  F2  UNL d   1       4.144  -1.361   0.505  0.00  0.00    -0.096 F 
ATOM     11  F3  UNL d   1       5.998  -3.077   1.481  0.00  0.00    -0.097 F 
ATOM     12  F4  UNL d   1       5.822  -3.986   4.047  0.00  0.00    -0.092 F 
ENDROOT
TORSDOF 0
ENDMDL
