MODEL 1
REMARK minimizedAffinity 1.61414313
REMARK minimizedRMSD -1
REMARK  0 active torsions:
REMARK  status: ('A' for Active; 'I' for Inactive)
ROOT
ATOM      1  C   UNL d   1      -0.878   3.350  -0.084  0.00  0.00     0.124 A 
ATOM      2  C1  UNL d   1      -1.523   4.509  -0.495  0.00  0.00     0.062 A 
ATOM      3  C2  UNL d   1      -2.740   4.872   0.074  0.00  0.00     0.162 A 
ATOM      4  C3  UNL d   1      -3.321   4.077   1.062  0.00  0.00    -0.034 A 
ATOM      5  C4  UNL d   1      -2.667   2.913   1.470  0.00  0.00     0.162 A 
ATOM      6  C5  UNL d   1      -1.450   2.554   0.898  0.00  0.00     0.062 A 
ATOM      7  F   UNL d   1      -0.829   1.434   1.297  0.00  0.00    -0.097 F 
ATOM      8  F1  UNL d   1      -3.196   2.125   2.418  0.00  0.00    -0.096 F 
ATOM      9  I   UNL d   1      -5.140   4.617   1.916  0.00  0.00    -0.060 I 
ATOM     10  F2  UNL d   1      -3.341   5.997  -0.343  0.00  0.00    -0.096 F 
ATOM     11  F3  UNL d   1      -0.973   5.279  -1.444  0.00  0.00    -0.097 F 
ATOM     12  F4  UNL d   1       0.292   3.002  -0.634  0.00  0.00    -0.092 F 
ENDROOT
TORSDOF 0
ENDMDL
