MODEL 1
REMARK minimizedAffinity 26.6118984
REMARK minimizedRMSD -1
REMARK  0 active torsions:
REMARK  status: ('A' for Active; 'I' for Inactive)
ROOT
ATOM      1  C   UNL d   1       1.853  -5.846   0.317  0.00  0.00     0.124 A 
ATOM      2  C1  UNL d   1       0.613  -5.685  -0.286  0.00  0.00     0.062 A 
ATOM      3  C2  UNL d   1       0.521  -5.524  -1.666  0.00  0.00     0.162 A 
ATOM      4  C3  UNL d   1       1.673  -5.523  -2.453  0.00  0.00    -0.034 A 
ATOM      5  C4  UNL d   1       2.916  -5.684  -1.839  0.00  0.00     0.162 A 
ATOM      6  C5  UNL d   1       3.003  -5.845  -0.460  0.00  0.00     0.062 A 
ATOM      7  F   UNL d   1       4.202  -6.000   0.121  0.00  0.00    -0.097 F 
ATOM      8  F1  UNL d   1       4.044  -5.688  -2.565  0.00  0.00    -0.096 F 
ATOM      9  I   UNL d   1       1.540  -5.282  -4.516  0.00  0.00    -0.060 I 
ATOM     10  F2  UNL d   1      -0.690  -5.371  -2.222  0.00  0.00    -0.096 F 
ATOM     11  F3  UNL d   1      -0.500  -5.685   0.462  0.00  0.00    -0.097 F 
ATOM     12  F4  UNL d   1       1.938  -6.000   1.644  0.00  0.00    -0.092 F 
ENDROOT
TORSDOF 0
ENDMDL
