MODEL 1
REMARK minimizedAffinity -4.72072124
REMARK minimizedRMSD -1
REMARK  0 active torsions:
REMARK  status: ('A' for Active; 'I' for Inactive)
ROOT
ATOM      1  C2' OXE d   1       0.031   0.117  -0.897  0.00  0.00     0.078 C 
ATOM      2  C1' OXE d   1       1.802   0.205   1.279  0.00  0.00     0.078 C 
ATOM      3  C1  OXE d   1       0.330   0.067   1.576  0.00  0.00    -0.078 A 
ATOM      4  C2  OXE d   1      -0.534   0.072   0.507  0.00  0.00    -0.078 A 
ATOM      5  C3  OXE d   1      -1.897  -0.108   0.721  0.00  0.00     0.003 A 
ATOM      6  C4  OXE d   1      -2.412  -0.139   2.023  0.00  0.00    -0.002 A 
ATOM      7  C5  OXE d   1      -1.554  -0.106   3.127  0.00  0.00    -0.002 A 
ATOM      8  C6  OXE d   1      -0.180  -0.046   2.920  0.00  0.00     0.003 A 
ENDROOT
TORSDOF 0
ENDMDL
