MODEL 1
REMARK minimizedAffinity -4.28041506
REMARK minimizedRMSD -1
REMARK  0 active torsions:
REMARK  status: ('A' for Active; 'I' for Inactive)
ROOT
ATOM      1  C2' OXE d   1       1.516  -0.267   1.397  0.00  0.00     0.078 C 
ATOM      2  C1' OXE d   1      -0.230  -0.070  -0.792  0.00  0.00     0.078 C 
ATOM      3  C1  OXE d   1      -0.827  -0.007   0.592  0.00  0.00    -0.078 A 
ATOM      4  C2  OXE d   1       0.030  -0.151   1.657  0.00  0.00    -0.078 A 
ATOM      5  C3  OXE d   1      -0.461  -0.047   2.955  0.00  0.00     0.003 A 
ATOM      6  C4  OXE d   1      -1.838   0.051   3.187  0.00  0.00    -0.002 A 
ATOM      7  C5  OXE d   1      -2.732   0.159   2.116  0.00  0.00    -0.002 A 
ATOM      8  C6  OXE d   1      -2.239   0.175   0.816  0.00  0.00     0.003 A 
ENDROOT
TORSDOF 0
ENDMDL
