MODEL 1
REMARK minimizedAffinity -5.69568539
REMARK minimizedRMSD -1
REMARK  0 active torsions:
REMARK  status: ('A' for Active; 'I' for Inactive)
ROOT
ATOM      1  C2' OXE d   1       1.473   0.026   0.782  0.00  0.00     0.078 C 
ATOM      2  C1' OXE d   1      -0.577   0.088  -1.135  0.00  0.00     0.078 C 
ATOM      3  C1  OXE d   1      -0.974  -0.033   0.315  0.00  0.00    -0.078 A 
ATOM      4  C2  OXE d   1       0.037  -0.109   1.243  0.00  0.00    -0.078 A 
ATOM      5  C3  OXE d   1      -0.274  -0.166   2.598  0.00  0.00     0.003 A 
ATOM      6  C4  OXE d   1      -1.604  -0.300   3.015  0.00  0.00    -0.002 A 
ATOM      7  C5  OXE d   1      -2.647  -0.264   2.084  0.00  0.00    -0.002 A 
ATOM      8  C6  OXE d   1      -2.352  -0.089   0.737  0.00  0.00     0.003 A 
ENDROOT
TORSDOF 0
ENDMDL
