MODEL 1
REMARK minimizedAffinity -5.09937334
REMARK minimizedRMSD -1
REMARK  0 active torsions:
REMARK  status: ('A' for Active; 'I' for Inactive)
ROOT
ATOM      1  C2' OXE d   1       0.046  -0.004  -0.794  0.00  0.00     0.078 C 
ATOM      2  C1' OXE d   1       1.437  -0.048   1.643  0.00  0.00     0.078 C 
ATOM      3  C1  OXE d   1      -0.064   0.090   1.692  0.00  0.00    -0.078 A 
ATOM      4  C2  OXE d   1      -0.732   0.158   0.494  0.00  0.00    -0.078 A 
ATOM      5  C3  OXE d   1      -2.122   0.231   0.483  0.00  0.00     0.003 A 
ATOM      6  C4  OXE d   1      -2.833   0.390   1.678  0.00  0.00    -0.002 A 
ATOM      7  C5  OXE d   1      -2.168   0.364   2.909  0.00  0.00    -0.002 A 
ATOM      8  C6  OXE d   1      -0.791   0.172   2.935  0.00  0.00     0.003 A 
ENDROOT
TORSDOF 0
ENDMDL
