MODEL 1
REMARK minimizedAffinity -3.90121388
REMARK minimizedRMSD -1
REMARK  0 active torsions:
REMARK  status: ('A' for Active; 'I' for Inactive)
ROOT
ATOM      1  C2' OXE d   1      -0.602  -0.623   3.024  0.00  0.00     0.078 C 
ATOM      2  C1' OXE d   1      -2.256  -0.607   0.756  0.00  0.00     0.078 C 
ATOM      3  C1  OXE d   1      -0.814  -0.199   0.578  0.00  0.00    -0.078 A 
ATOM      4  C2  OXE d   1      -0.024  -0.165   1.702  0.00  0.00    -0.078 A 
ATOM      5  C3  OXE d   1       1.327   0.151   1.586  0.00  0.00     0.003 A 
ATOM      6  C4  OXE d   1       1.850   0.583   0.361  0.00  0.00    -0.002 A 
ATOM      7  C5  OXE d   1       1.053   0.594  -0.788  0.00  0.00    -0.002 A 
ATOM      8  C6  OXE d   1      -0.268   0.166  -0.705  0.00  0.00     0.003 A 
ENDROOT
TORSDOF 0
ENDMDL
