MODEL 1
REMARK minimizedAffinity -3.8883009
REMARK minimizedRMSD -1
REMARK  0 active torsions:
REMARK  status: ('A' for Active; 'I' for Inactive)
ROOT
ATOM      1  C2' OXE d   1      -0.394   0.285  -1.051  0.00  0.00     0.078 C 
ATOM      2  C1' OXE d   1       1.345   0.086   1.144  0.00  0.00     0.078 C 
ATOM      3  C1  OXE d   1      -0.139   0.076   1.418  0.00  0.00    -0.078 A 
ATOM      4  C2  OXE d   1      -0.981   0.221   0.342  0.00  0.00    -0.078 A 
ATOM      5  C3  OXE d   1      -2.359   0.164   0.533  0.00  0.00     0.003 A 
ATOM      6  C4  OXE d   1      -2.894   0.115   1.826  0.00  0.00    -0.002 A 
ATOM      7  C5  OXE d   1      -2.053   0.007   2.939  0.00  0.00    -0.002 A 
ATOM      8  C6  OXE d   1      -0.677  -0.056   2.749  0.00  0.00     0.003 A 
ENDROOT
TORSDOF 0
ENDMDL
