MODEL 1
REMARK minimizedAffinity -5.4193759
REMARK minimizedRMSD -1
REMARK  0 active torsions:
REMARK  status: ('A' for Active; 'I' for Inactive)
ROOT
ATOM      1  C2' OXE d   1      -0.785  -0.668   3.181  0.00  0.00     0.078 C 
ATOM      2  C1' OXE d   1      -3.095   0.069   1.766  0.00  0.00     0.078 C 
ATOM      3  C1  OXE d   1      -1.762   0.271   1.090  0.00  0.00    -0.078 A 
ATOM      4  C2  OXE d   1      -0.634  -0.049   1.808  0.00  0.00    -0.078 A 
ATOM      5  C3  OXE d   1       0.618   0.066   1.211  0.00  0.00     0.003 A 
ATOM      6  C4  OXE d   1       0.749   0.649  -0.055  0.00  0.00    -0.002 A 
ATOM      7  C5  OXE d   1      -0.384   1.018  -0.787  0.00  0.00    -0.002 A 
ATOM      8  C6  OXE d   1      -1.646   0.797  -0.247  0.00  0.00     0.003 A 
ENDROOT
TORSDOF 0
ENDMDL
