MODEL 1
REMARK minimizedAffinity -5.21761417
REMARK minimizedRMSD -1
REMARK  0 active torsions:
REMARK  status: ('A' for Active; 'I' for Inactive)
ROOT
ATOM      1  C2' OXE d   1      -1.008   0.530  -0.953  0.00  0.00     0.078 C 
ATOM      2  C1' OXE d   1       1.052  -0.328   0.751  0.00  0.00     0.078 C 
ATOM      3  C1  OXE d   1      -0.342  -0.243   1.320  0.00  0.00    -0.078 A 
ATOM      4  C2  OXE d   1      -1.336   0.223   0.493  0.00  0.00    -0.078 A 
ATOM      5  C3  OXE d   1      -2.649   0.269   0.951  0.00  0.00     0.003 A 
ATOM      6  C4  OXE d   1      -2.942  -0.008   2.292  0.00  0.00    -0.002 A 
ATOM      7  C5  OXE d   1      -1.938  -0.445   3.162  0.00  0.00    -0.002 A 
ATOM      8  C6  OXE d   1      -0.643  -0.608   2.682  0.00  0.00     0.003 A 
ENDROOT
TORSDOF 0
ENDMDL
