MODEL 1
REMARK minimizedAffinity -4.98450184
REMARK minimizedRMSD -1
REMARK  0 active torsions:
REMARK  status: ('A' for Active; 'I' for Inactive)
ROOT
ATOM      1  C2' OXE d   1       0.070   0.272  -0.252  0.00  0.00     0.078 C 
ATOM      2  C1' OXE d   1       0.769  -0.359   2.392  0.00  0.00     0.078 C 
ATOM      3  C1  OXE d   1      -0.691  -0.133   2.085  0.00  0.00    -0.078 A 
ATOM      4  C2  OXE d   1      -1.018   0.221   0.798  0.00  0.00    -0.078 A 
ATOM      5  C3  OXE d   1      -2.355   0.387   0.448  0.00  0.00     0.003 A 
ATOM      6  C4  OXE d   1      -3.355   0.348   1.428  0.00  0.00    -0.002 A 
ATOM      7  C5  OXE d   1      -3.038   0.028   2.753  0.00  0.00    -0.002 A 
ATOM      8  C6  OXE d   1      -1.719  -0.257   3.088  0.00  0.00     0.003 A 
ENDROOT
TORSDOF 0
ENDMDL
