MODEL 1
REMARK minimizedAffinity -4.47834301
REMARK minimizedRMSD -1
REMARK  0 active torsions:
REMARK  status: ('A' for Active; 'I' for Inactive)
ROOT
ATOM      1  C2' OXE d   1       1.231  -0.134   0.783  0.00  0.00     0.078 C 
ATOM      2  C1' OXE d   1      -0.875   0.676  -0.887  0.00  0.00     0.078 C 
ATOM      3  C1  OXE d   1      -1.218   0.234   0.514  0.00  0.00    -0.078 A 
ATOM      4  C2  OXE d   1      -0.187  -0.205   1.308  0.00  0.00    -0.078 A 
ATOM      5  C3  OXE d   1      -0.441  -0.573   2.627  0.00  0.00     0.003 A 
ATOM      6  C4  OXE d   1      -1.756  -0.646   3.101  0.00  0.00    -0.002 A 
ATOM      7  C5  OXE d   1      -2.825  -0.242   2.295  0.00  0.00    -0.002 A 
ATOM      8  C6  OXE d   1      -2.570   0.240   1.016  0.00  0.00     0.003 A 
ENDROOT
TORSDOF 0
ENDMDL
