MODEL 1
REMARK minimizedAffinity -1.94095373
REMARK minimizedRMSD -1
REMARK  0 active torsions:
REMARK  status: ('A' for Active; 'I' for Inactive)
ROOT
ATOM      1  C2' OXE d   1       2.708   0.045   1.074  0.00  0.00     0.078 C 
ATOM      2  C1' OXE d   1       0.191   0.471   2.242  0.00  0.00     0.078 C 
ATOM      3  C1  OXE d   1       0.261   0.365   0.739  0.00  0.00    -0.078 A 
ATOM      4  C2  OXE d   1       1.502   0.204   0.173  0.00  0.00    -0.078 A 
ATOM      5  C3  OXE d   1       1.617   0.046  -1.205  0.00  0.00     0.003 A 
ATOM      6  C4  OXE d   1       0.498   0.203  -2.032  0.00  0.00    -0.002 A 
ATOM      7  C5  OXE d   1      -0.771   0.408  -1.478  0.00  0.00    -0.002 A 
ATOM      8  C6  OXE d   1      -0.912   0.449  -0.096  0.00  0.00     0.003 A 
ENDROOT
TORSDOF 0
ENDMDL
