MODEL 1
REMARK minimizedAffinity -5.85493994
REMARK minimizedRMSD -1
REMARK  0 active torsions:
REMARK  status: ('A' for Active; 'I' for Inactive)
ROOT
ATOM      1  C2' OXE d   1       1.701   0.390   0.852  0.00  0.00     0.078 C 
ATOM      2  C1' OXE d   1      -0.495   0.442  -0.897  0.00  0.00     0.078 C 
ATOM      3  C1  OXE d   1      -0.755   0.103   0.550  0.00  0.00    -0.078 A 
ATOM      4  C2  OXE d   1       0.331   0.034   1.388  0.00  0.00    -0.078 A 
ATOM      5  C3  OXE d   1       0.140  -0.222   2.743  0.00  0.00     0.003 A 
ATOM      6  C4  OXE d   1      -1.128  -0.560   3.229  0.00  0.00    -0.002 A 
ATOM      7  C5  OXE d   1      -2.242  -0.534   2.384  0.00  0.00    -0.002 A 
ATOM      8  C6  OXE d   1      -2.080  -0.165   1.053  0.00  0.00     0.003 A 
ENDROOT
TORSDOF 0
ENDMDL
