MODEL 1
REMARK minimizedAffinity -6.60084724
REMARK minimizedRMSD -1
REMARK  0 active torsions:
REMARK  status: ('A' for Active; 'I' for Inactive)
ROOT
ATOM      1  C2' OXE d   1       1.664   0.651   1.118  0.00  0.00     0.078 C 
ATOM      2  C1' OXE d   1      -0.293   0.542  -0.891  0.00  0.00     0.078 C 
ATOM      3  C1  OXE d   1      -0.742   0.364   0.538  0.00  0.00    -0.078 A 
ATOM      4  C2  OXE d   1       0.229   0.373   1.510  0.00  0.00    -0.078 A 
ATOM      5  C3  OXE d   1      -0.136   0.268   2.850  0.00  0.00     0.003 A 
ATOM      6  C4  OXE d   1      -1.464   0.001   3.203  0.00  0.00    -0.002 A 
ATOM      7  C5  OXE d   1      -2.463  -0.051   2.225  0.00  0.00    -0.002 A 
ATOM      8  C6  OXE d   1      -2.125   0.170   0.895  0.00  0.00     0.003 A 
ENDROOT
TORSDOF 0
ENDMDL
