MODEL 1
REMARK minimizedAffinity -5.03664732
REMARK minimizedRMSD -1
REMARK  0 active torsions:
REMARK  status: ('A' for Active; 'I' for Inactive)
ROOT
ATOM      1  C2' OXE d   1      -2.894   2.715   3.195  0.00  0.00     0.078 C 
ATOM      2  C1' OXE d   1      -3.765   1.046   1.113  0.00  0.00     0.078 C 
ATOM      3  C1  OXE d   1      -2.588   0.587   1.937  0.00  0.00    -0.078 A 
ATOM      4  C2  OXE d   1      -2.140   1.431   2.924  0.00  0.00    -0.078 A 
ATOM      5  C3  OXE d   1      -1.093   1.031   3.750  0.00  0.00     0.003 A 
ATOM      6  C4  OXE d   1      -0.394  -0.153   3.486  0.00  0.00    -0.002 A 
ATOM      7  C5  OXE d   1      -0.810  -1.009   2.461  0.00  0.00    -0.002 A 
ATOM      8  C6  OXE d   1      -1.929  -0.675   1.706  0.00  0.00     0.003 A 
ENDROOT
TORSDOF 0
ENDMDL
