MODEL 1
REMARK minimizedAffinity -5.07361841
REMARK minimizedRMSD -1
REMARK  0 active torsions:
REMARK  status: ('A' for Active; 'I' for Inactive)
ROOT
ATOM      1  C2' OXE d   1       0.127   0.268  -0.731  0.00  0.00     0.078 C 
ATOM      2  C1' OXE d   1       1.897  -0.317   1.367  0.00  0.00     0.078 C 
ATOM      3  C1  OXE d   1       0.419  -0.365   1.660  0.00  0.00    -0.078 A 
ATOM      4  C2  OXE d   1      -0.439  -0.032   0.640  0.00  0.00    -0.078 A 
ATOM      5  C3  OXE d   1      -1.814  -0.113   0.841  0.00  0.00     0.003 A 
ATOM      6  C4  OXE d   1      -2.330  -0.382   2.115  0.00  0.00    -0.002 A 
ATOM      7  C5  OXE d   1      -1.472  -0.685   3.178  0.00  0.00    -0.002 A 
ATOM      8  C6  OXE d   1      -0.100  -0.723   2.957  0.00  0.00     0.003 A 
ENDROOT
TORSDOF 0
ENDMDL
