MODEL 1
REMARK minimizedAffinity -6.02679014
REMARK minimizedRMSD -1
REMARK  0 active torsions:
REMARK  status: ('A' for Active; 'I' for Inactive)
ROOT
ATOM      1  C2' OXE d   1      -0.534   0.128  -0.877  0.00  0.00     0.078 C 
ATOM      2  C1' OXE d   1       1.345  -0.249   1.174  0.00  0.00     0.078 C 
ATOM      3  C1  OXE d   1      -0.113  -0.193   1.557  0.00  0.00    -0.078 A 
ATOM      4  C2  OXE d   1      -1.022   0.039   0.553  0.00  0.00    -0.078 A 
ATOM      5  C3  OXE d   1      -2.383   0.045   0.844  0.00  0.00     0.003 A 
ATOM      6  C4  OXE d   1      -2.825  -0.028   2.170  0.00  0.00    -0.002 A 
ATOM      7  C5  OXE d   1      -1.913  -0.224   3.213  0.00  0.00    -0.002 A 
ATOM      8  C6  OXE d   1      -0.560  -0.351   2.919  0.00  0.00     0.003 A 
ENDROOT
TORSDOF 0
ENDMDL
