MODEL 1
REMARK minimizedAffinity -1.89332747
REMARK minimizedRMSD -1
REMARK  0 active torsions:
REMARK  status: ('A' for Active; 'I' for Inactive)
ROOT
ATOM      1  C2' OXE d   1       0.041   0.407  -1.470  0.00  0.00     0.078 C 
ATOM      2  C1' OXE d   1      -1.931   0.612   0.518  0.00  0.00     0.078 C 
ATOM      3  C1  OXE d   1      -0.496   0.475   0.962  0.00  0.00    -0.078 A 
ATOM      4  C2  OXE d   1       0.458   0.328  -0.017  0.00  0.00    -0.078 A 
ATOM      5  C3  OXE d   1       1.802   0.253   0.336  0.00  0.00     0.003 A 
ATOM      6  C4  OXE d   1       2.178   0.171   1.682  0.00  0.00    -0.002 A 
ATOM      7  C5  OXE d   1       1.219   0.279   2.695  0.00  0.00    -0.002 A 
ATOM      8  C6  OXE d   1      -0.114   0.474   2.353  0.00  0.00     0.003 A 
ENDROOT
TORSDOF 0
ENDMDL
