MODEL 1
REMARK minimizedAffinity 0.498187214
REMARK minimizedRMSD -1
REMARK  0 active torsions:
REMARK  status: ('A' for Active; 'I' for Inactive)
ROOT
ATOM      1  C4' PXY d   1      -0.502  -2.148   2.863  0.00  0.00     0.077 C 
ATOM      2  C1' PXY d   1       3.812  -4.916   0.191  0.00  0.00     0.077 C 
ATOM      3  C1  PXY d   1       2.674  -4.200   0.890  0.00  0.00    -0.082 A 
ATOM      4  C2  PXY d   1       2.620  -2.879   0.869  0.00  0.00     0.003 A 
ATOM      5  C3  PXY d   1       1.614  -2.214   1.523  0.00  0.00     0.003 A 
ATOM      6  C4  PXY d   1       0.625  -2.912   2.162  0.00  0.00    -0.082 A 
ATOM      7  C5  PXY d   1       0.667  -4.261   2.180  0.00  0.00     0.003 A 
ATOM      8  C6  PXY d   1       1.718  -4.915   1.544  0.00  0.00     0.003 A 
ENDROOT
TORSDOF 0
ENDMDL
