MODEL 1
REMARK minimizedAffinity 8.13319302
REMARK minimizedRMSD -1
REMARK  0 active torsions:
REMARK  status: ('A' for Active; 'I' for Inactive)
ROOT
ATOM      1  C4' PXY d   1      -5.728   4.324  -5.284  0.00  0.00     0.077 C 
ATOM      2  C1' PXY d   1      -1.003   2.954  -2.248  0.00  0.00     0.077 C 
ATOM      3  C1  PXY d   1      -2.240   3.303  -3.052  0.00  0.00    -0.082 A 
ATOM      4  C2  PXY d   1      -2.708   4.541  -3.029  0.00  0.00     0.003 A 
ATOM      5  C3  PXY d   1      -3.844   4.867  -3.725  0.00  0.00     0.003 A 
ATOM      6  C4  PXY d   1      -4.477   3.928  -4.495  0.00  0.00    -0.082 A 
ATOM      7  C5  PXY d   1      -4.000   2.666  -4.533  0.00  0.00     0.003 A 
ATOM      8  C6  PXY d   1      -2.870   2.346  -3.786  0.00  0.00     0.003 A 
ENDROOT
TORSDOF 0
ENDMDL
