MODEL 1
REMARK minimizedAffinity 6.79015112
REMARK minimizedRMSD -1
REMARK  0 active torsions:
REMARK  status: ('A' for Active; 'I' for Inactive)
ROOT
ATOM      1  C4' PXY d   1       4.079  -2.023   0.030  0.00  0.00     0.077 C 
ATOM      2  C1' PXY d   1      -1.096  -2.170   2.600  0.00  0.00     0.077 C 
ATOM      3  C1  PXY d   1       0.256  -2.135   1.915  0.00  0.00    -0.082 A 
ATOM      4  C2  PXY d   1       1.358  -2.267   2.635  0.00  0.00     0.003 A 
ATOM      5  C3  PXY d   1       2.589  -2.206   2.036  0.00  0.00     0.003 A 
ATOM      6  C4  PXY d   1       2.693  -2.061   0.678  0.00  0.00    -0.082 A 
ATOM      7  C5  PXY d   1       1.573  -1.937  -0.065  0.00  0.00     0.003 A 
ATOM      8  C6  PXY d   1       0.333  -1.961   0.568  0.00  0.00     0.003 A 
ENDROOT
TORSDOF 0
ENDMDL
