MODEL 1
REMARK minimizedAffinity 4.04171038
REMARK minimizedRMSD -1
REMARK  0 active torsions:
REMARK  status: ('A' for Active; 'I' for Inactive)
ROOT
ATOM      1  C4' PXY d   1      -1.678   1.147  -1.725  0.00  0.00     0.077 C 
ATOM      2  C1' PXY d   1      -0.883   5.916  -4.893  0.00  0.00     0.077 C 
ATOM      3  C1  PXY d   1      -1.104   4.670  -4.059  0.00  0.00    -0.082 A 
ATOM      4  C2  PXY d   1      -0.061   3.988  -3.614  0.00  0.00     0.003 A 
ATOM      5  C3  PXY d   1      -0.242   2.841  -2.885  0.00  0.00     0.003 A 
ATOM      6  C4  PXY d   1      -1.503   2.417  -2.563  0.00  0.00    -0.082 A 
ATOM      7  C5  PXY d   1      -2.572   3.113  -3.004  0.00  0.00     0.003 A 
ATOM      8  C6  PXY d   1      -2.367   4.252  -3.778  0.00  0.00     0.003 A 
ENDROOT
TORSDOF 0
ENDMDL
