MODEL 1
REMARK minimizedAffinity 11.8565502
REMARK minimizedRMSD -1
REMARK  0 active torsions:
REMARK  status: ('A' for Active; 'I' for Inactive)
ROOT
ATOM      1  C4' PXY d   1      -0.148  -0.473  -1.108  0.00  0.00     0.077 C 
ATOM      2  C1' PXY d   1      -2.859   4.303  -2.912  0.00  0.00     0.077 C 
ATOM      3  C1  PXY d   1      -2.138   3.053  -2.447  0.00  0.00    -0.082 A 
ATOM      4  C2  PXY d   1      -2.837   2.020  -2.006  0.00  0.00     0.003 A 
ATOM      5  C3  PXY d   1      -2.200   0.894  -1.551  0.00  0.00     0.003 A 
ATOM      6  C4  PXY d   1      -0.834   0.805  -1.597  0.00  0.00    -0.082 A 
ATOM      7  C5  PXY d   1      -0.114   1.851  -2.055  0.00  0.00     0.003 A 
ATOM      8  C6  PXY d   1      -0.778   3.000  -2.474  0.00  0.00     0.003 A 
ENDROOT
TORSDOF 0
ENDMDL
