MODEL 1
REMARK minimizedAffinity 6.40828419
REMARK minimizedRMSD -1
REMARK  0 active torsions:
REMARK  status: ('A' for Active; 'I' for Inactive)
ROOT
ATOM      1  C4' PXY d   1       6.000   4.626  -3.457  0.00  0.00     0.077 C 
ATOM      2  C1' PXY d   1       5.567  -0.814  -5.361  0.00  0.00     0.077 C 
ATOM      3  C1  PXY d   1       5.677   0.608  -4.850  0.00  0.00    -0.082 A 
ATOM      4  C2  PXY d   1       5.560   1.619  -5.696  0.00  0.00     0.003 A 
ATOM      5  C3  PXY d   1       5.689   2.911  -5.256  0.00  0.00     0.003 A 
ATOM      6  C4  PXY d   1       5.886   3.173  -3.927  0.00  0.00    -0.082 A 
ATOM      7  C5  PXY d   1       5.996   2.149  -3.055  0.00  0.00     0.003 A 
ATOM      8  C6  PXY d   1       5.903   0.843  -3.529  0.00  0.00     0.003 A 
ENDROOT
TORSDOF 0
ENDMDL
