MODEL 1
REMARK minimizedAffinity -2.63433385
REMARK minimizedRMSD -1
REMARK  0 active torsions:
REMARK  status: ('A' for Active; 'I' for Inactive)
ROOT
ATOM      1  C4' PXY d   1       1.113  -2.207   0.873  0.00  0.00     0.077 C 
ATOM      2  C1' PXY d   1       1.364   2.059  -3.020  0.00  0.00     0.077 C 
ATOM      3  C1  PXY d   1       1.287   0.936  -2.005  0.00  0.00    -0.082 A 
ATOM      4  C2  PXY d   1       1.909   1.060  -0.843  0.00  0.00     0.003 A 
ATOM      5  C3  PXY d   1       1.876   0.041   0.074  0.00  0.00     0.003 A 
ATOM      6  C4  PXY d   1       1.156  -1.095  -0.179  0.00  0.00    -0.082 A 
ATOM      7  C5  PXY d   1       0.509  -1.225  -1.357  0.00  0.00     0.003 A 
ATOM      8  C6  PXY d   1       0.589  -0.197  -2.291  0.00  0.00     0.003 A 
ENDROOT
TORSDOF 0
ENDMDL
