MODEL 1
REMARK minimizedAffinity 3.87461591
REMARK minimizedRMSD -1
REMARK  0 active torsions:
REMARK  status: ('A' for Active; 'I' for Inactive)
ROOT
ATOM      1  C4' PXY d   1       1.087   3.772  -6.000  0.00  0.00     0.077 C 
ATOM      2  C1' PXY d   1       5.333   0.101  -4.618  0.00  0.00     0.077 C 
ATOM      3  C1  PXY d   1       4.211   1.054  -4.980  0.00  0.00    -0.082 A 
ATOM      4  C2  PXY d   1       4.490   2.185  -5.607  0.00  0.00     0.003 A 
ATOM      5  C3  PXY d   1       3.491   3.073  -5.914  0.00  0.00     0.003 A 
ATOM      6  C4  PXY d   1       2.186   2.776  -5.623  0.00  0.00    -0.082 A 
ATOM      7  C5  PXY d   1       1.892   1.619  -4.992  0.00  0.00     0.003 A 
ATOM      8  C6  PXY d   1       2.925   0.750  -4.653  0.00  0.00     0.003 A 
ENDROOT
TORSDOF 0
ENDMDL
