MODEL 1
REMARK minimizedAffinity 8.61730576
REMARK minimizedRMSD -1
REMARK  0 active torsions:
REMARK  status: ('A' for Active; 'I' for Inactive)
ROOT
ATOM      1  C   UNL d   1       1.666   2.250   1.873  0.00  0.00     0.124 A 
ATOM      2  C1  UNL d   1       0.726   3.009   2.557  0.00  0.00     0.062 A 
ATOM      3  C2  UNL d   1      -0.633   2.804   2.337  0.00  0.00     0.162 A 
ATOM      4  C3  UNL d   1      -1.061   1.834   1.431  0.00  0.00    -0.034 A 
ATOM      5  C4  UNL d   1      -0.110   1.075   0.746  0.00  0.00     0.162 A 
ATOM      6  C5  UNL d   1       1.247   1.284   0.969  0.00  0.00     0.062 A 
ATOM      7  F   UNL d   1       2.154   0.550   0.307  0.00  0.00    -0.097 F 
ATOM      8  F1  UNL d   1      -0.487   0.135  -0.133  0.00  0.00    -0.096 F 
ATOM      9  I   UNL d   1      -3.092   1.524   1.100  0.00  0.00    -0.060 I 
ATOM     10  F2  UNL d   1      -1.519   3.551   3.012  0.00  0.00    -0.096 F 
ATOM     11  F3  UNL d   1       1.128   3.943   3.430  0.00  0.00    -0.097 F 
ATOM     12  F4  UNL d   1       2.973   2.451   2.085  0.00  0.00    -0.092 F 
ENDROOT
TORSDOF 0
ENDMDL
