MODEL 1
REMARK minimizedAffinity 11.1507998
REMARK minimizedRMSD -1
REMARK  0 active torsions:
REMARK  status: ('A' for Active; 'I' for Inactive)
ROOT
ATOM      1  C   UNL d   1       0.284   2.622   1.546  0.00  0.00     0.124 A 
ATOM      2  C1  UNL d   1      -1.082   2.428   1.393  0.00  0.00     0.062 A 
ATOM      3  C2  UNL d   1      -1.565   1.236   0.863  0.00  0.00     0.162 A 
ATOM      4  C3  UNL d   1      -0.681   0.226   0.481  0.00  0.00    -0.034 A 
ATOM      5  C4  UNL d   1       0.691   0.429   0.637  0.00  0.00     0.162 A 
ATOM      6  C5  UNL d   1       1.169   1.622   1.167  0.00  0.00     0.062 A 
ATOM      7  F   UNL d   1       2.489   1.808   1.314  0.00  0.00    -0.097 F 
ATOM      8  F1  UNL d   1       1.569  -0.521   0.281  0.00  0.00    -0.096 F 
ATOM      9  I   UNL d   1      -1.399  -1.559  -0.312  0.00  0.00    -0.060 I 
ATOM     10  F2  UNL d   1      -2.890   1.076   0.727  0.00  0.00    -0.096 F 
ATOM     11  F3  UNL d   1      -1.939   3.393   1.757  0.00  0.00    -0.097 F 
ATOM     12  F4  UNL d   1       0.746   3.771   2.055  0.00  0.00    -0.092 F 
ENDROOT
TORSDOF 0
ENDMDL
