MODEL 1
REMARK minimizedAffinity 6.76103544
REMARK minimizedRMSD -1
REMARK  0 active torsions:
REMARK  status: ('A' for Active; 'I' for Inactive)
ROOT
ATOM      1  C   UNL d   1       0.804   1.545   1.058  0.00  0.00     0.124 A 
ATOM      2  C1  UNL d   1       0.281   0.341   0.610  0.00  0.00     0.062 A 
ATOM      3  C2  UNL d   1      -1.092   0.112   0.659  0.00  0.00     0.162 A 
ATOM      4  C3  UNL d   1      -1.951   1.092   1.157  0.00  0.00    -0.034 A 
ATOM      5  C4  UNL d   1      -1.417   2.300   1.607  0.00  0.00     0.162 A 
ATOM      6  C5  UNL d   1      -0.044   2.524   1.556  0.00  0.00     0.062 A 
ATOM      7  F   UNL d   1       0.460   3.688   1.990  0.00  0.00    -0.097 F 
ATOM      8  F1  UNL d   1      -2.214   3.264   2.092  0.00  0.00    -0.096 F 
ATOM      9  I   UNL d   1      -4.003   0.754   1.232  0.00  0.00    -0.060 I 
ATOM     10  F2  UNL d   1      -1.570  -1.061   0.219  0.00  0.00    -0.096 F 
ATOM     11  F3  UNL d   1       1.099  -0.607   0.129  0.00  0.00    -0.097 F 
ATOM     12  F4  UNL d   1       2.125   1.762   1.010  0.00  0.00    -0.092 F 
ENDROOT
TORSDOF 0
ENDMDL
