MODEL 1
REMARK minimizedAffinity 7.5677824
REMARK minimizedRMSD -1
REMARK  0 active torsions:
REMARK  status: ('A' for Active; 'I' for Inactive)
ROOT
ATOM      1  C   UNL d   1       0.407   3.016   2.902  0.00  0.00     0.124 A 
ATOM      2  C1  UNL d   1      -0.977   3.041   2.798  0.00  0.00     0.062 A 
ATOM      3  C2  UNL d   1      -1.622   2.241   1.859  0.00  0.00     0.162 A 
ATOM      4  C3  UNL d   1      -0.885   1.409   1.017  0.00  0.00    -0.034 A 
ATOM      5  C4  UNL d   1       0.507   1.390   1.128  0.00  0.00     0.162 A 
ATOM      6  C5  UNL d   1       1.147   2.191   2.068  0.00  0.00     0.062 A 
ATOM      7  F   UNL d   1       2.484   2.166   2.167  0.00  0.00    -0.097 F 
ATOM      8  F1  UNL d   1       1.247   0.602   0.334  0.00  0.00    -0.096 F 
ATOM      9  I   UNL d   1      -1.846   0.212  -0.388  0.00  0.00    -0.060 I 
ATOM     10  F2  UNL d   1      -2.961   2.286   1.780  0.00  0.00    -0.096 F 
ATOM     11  F3  UNL d   1      -1.695   3.838   3.603  0.00  0.00    -0.097 F 
ATOM     12  F4  UNL d   1       1.025   3.787   3.806  0.00  0.00    -0.092 F 
ENDROOT
TORSDOF 0
ENDMDL
