MODEL 1
REMARK minimizedAffinity 12.5000992
REMARK minimizedRMSD -1
REMARK  0 active torsions:
REMARK  status: ('A' for Active; 'I' for Inactive)
ROOT
ATOM      1  C   UNL d   1       2.782   1.160  -4.746  0.00  0.00     0.124 A 
ATOM      2  C1  UNL d   1       3.225   1.920  -3.673  0.00  0.00     0.062 A 
ATOM      3  C2  UNL d   1       3.007   1.485  -2.369  0.00  0.00     0.162 A 
ATOM      4  C3  UNL d   1       2.342   0.281  -2.131  0.00  0.00    -0.034 A 
ATOM      5  C4  UNL d   1       1.899  -0.477  -3.216  0.00  0.00     0.162 A 
ATOM      6  C5  UNL d   1       2.120  -0.038  -4.517  0.00  0.00     0.062 A 
ATOM      7  F   UNL d   1       1.691  -0.774  -5.553  0.00  0.00    -0.097 F 
ATOM      8  F1  UNL d   1       1.257  -1.639  -3.023  0.00  0.00    -0.096 F 
ATOM      9  I   UNL d   1       2.014  -0.373  -0.183  0.00  0.00    -0.060 I 
ATOM     10  F2  UNL d   1       3.445   2.240  -1.351  0.00  0.00    -0.096 F 
ATOM     11  F3  UNL d   1       3.864   3.078  -3.892  0.00  0.00    -0.097 F 
ATOM     12  F4  UNL d   1       2.993   1.582  -6.000  0.00  0.00    -0.092 F 
ENDROOT
TORSDOF 0
ENDMDL
