MODEL 1
REMARK minimizedAffinity 11.2811861
REMARK minimizedRMSD -1
REMARK  0 active torsions:
REMARK  status: ('A' for Active; 'I' for Inactive)
ROOT
ATOM      1  C   UNL d   1       1.601   1.970   1.223  0.00  0.00     0.124 A 
ATOM      2  C1  UNL d   1       0.992   1.079   0.350  0.00  0.00     0.062 A 
ATOM      3  C2  UNL d   1      -0.381   0.859   0.418  0.00  0.00     0.162 A 
ATOM      4  C3  UNL d   1      -1.155   1.533   1.363  0.00  0.00    -0.034 A 
ATOM      5  C4  UNL d   1      -0.535   2.426   2.239  0.00  0.00     0.162 A 
ATOM      6  C5  UNL d   1       0.837   2.642   2.166  0.00  0.00     0.062 A 
ATOM      7  F   UNL d   1       1.424   3.503   3.011  0.00  0.00    -0.097 F 
ATOM      8  F1  UNL d   1      -1.249   3.091   3.160  0.00  0.00    -0.096 F 
ATOM      9  I   UNL d   1      -3.208   1.208   1.469  0.00  0.00    -0.060 I 
ATOM     10  F2  UNL d   1      -0.943  -0.007  -0.438  0.00  0.00    -0.096 F 
ATOM     11  F3  UNL d   1       1.728   0.427  -0.562  0.00  0.00    -0.097 F 
ATOM     12  F4  UNL d   1       2.922   2.178   1.155  0.00  0.00    -0.092 F 
ENDROOT
TORSDOF 0
ENDMDL
