MODEL 1
REMARK minimizedAffinity 13.191453
REMARK minimizedRMSD -1
REMARK  0 active torsions:
REMARK  status: ('A' for Active; 'I' for Inactive)
ROOT
ATOM      1  C   UNL d   1      -1.668   2.185  -5.806  0.00  0.00     0.124 A 
ATOM      2  C1  UNL d   1      -1.274   3.513  -5.715  0.00  0.00     0.062 A 
ATOM      3  C2  UNL d   1      -2.227   4.526  -5.701  0.00  0.00     0.162 A 
ATOM      4  C3  UNL d   1      -3.585   4.217  -5.779  0.00  0.00    -0.034 A 
ATOM      5  C4  UNL d   1      -3.974   2.879  -5.871  0.00  0.00     0.162 A 
ATOM      6  C5  UNL d   1      -3.017   1.869  -5.884  0.00  0.00     0.062 A 
ATOM      7  F   UNL d   1      -3.400   0.587  -5.973  0.00  0.00    -0.097 F 
ATOM      8  F1  UNL d   1      -5.271   2.546  -5.947  0.00  0.00    -0.096 F 
ATOM      9  I   UNL d   1      -5.014   5.730  -5.759  0.00  0.00    -0.060 I 
ATOM     10  F2  UNL d   1      -1.817   5.801  -5.612  0.00  0.00    -0.096 F 
ATOM     11  F3  UNL d   1       0.029   3.820  -5.641  0.00  0.00    -0.097 F 
ATOM     12  F4  UNL d   1      -0.748   1.211  -5.820  0.00  0.00    -0.092 F 
ENDROOT
TORSDOF 0
ENDMDL
