MODEL 1
REMARK minimizedAffinity 6.92796326
REMARK minimizedRMSD -1
REMARK  0 active torsions:
REMARK  status: ('A' for Active; 'I' for Inactive)
ROOT
ATOM      1  C   UNL d   1       1.718  -0.423  -1.136  0.00  0.00     0.124 A 
ATOM      2  C1  UNL d   1       0.878  -0.413  -0.031  0.00  0.00     0.062 A 
ATOM      3  C2  UNL d   1      -0.163  -1.332   0.065  0.00  0.00     0.162 A 
ATOM      4  C3  UNL d   1      -0.370  -2.269  -0.948  0.00  0.00    -0.034 A 
ATOM      5  C4  UNL d   1       0.479  -2.272  -2.056  0.00  0.00     0.162 A 
ATOM      6  C5  UNL d   1       1.518  -1.351  -2.147  0.00  0.00     0.062 A 
ATOM      7  F   UNL d   1       2.328  -1.362  -3.215  0.00  0.00    -0.097 F 
ATOM      8  F1  UNL d   1       0.308  -3.159  -3.048  0.00  0.00    -0.096 F 
ATOM      9  I   UNL d   1      -1.926  -3.644  -0.809  0.00  0.00    -0.060 I 
ATOM     10  F2  UNL d   1      -0.959  -1.300   1.144  0.00  0.00    -0.096 F 
ATOM     11  F3  UNL d   1       1.069   0.484   0.947  0.00  0.00    -0.097 F 
ATOM     12  F4  UNL d   1       2.719   0.463  -1.225  0.00  0.00    -0.092 F 
ENDROOT
TORSDOF 0
ENDMDL
