MODEL 1
REMARK minimizedAffinity 16.0116024
REMARK minimizedRMSD -1
REMARK  0 active torsions:
REMARK  status: ('A' for Active; 'I' for Inactive)
ROOT
ATOM      1  C   UNL d   1       2.914   1.108  -4.729  0.00  0.00     0.124 A 
ATOM      2  C1  UNL d   1       2.362  -0.133  -4.443  0.00  0.00     0.062 A 
ATOM      3  C2  UNL d   1       2.232  -0.554  -3.123  0.00  0.00     0.162 A 
ATOM      4  C3  UNL d   1       2.656   0.267  -2.077  0.00  0.00    -0.034 A 
ATOM      5  C4  UNL d   1       3.211   1.513  -2.373  0.00  0.00     0.162 A 
ATOM      6  C5  UNL d   1       3.339   1.929  -3.694  0.00  0.00     0.062 A 
ATOM      7  F   UNL d   1       3.873   3.128  -3.968  0.00  0.00    -0.097 F 
ATOM      8  F1  UNL d   1       3.629   2.327  -1.392  0.00  0.00    -0.096 F 
ATOM      9  I   UNL d   1       2.464  -0.359  -0.102  0.00  0.00    -0.060 I 
ATOM     10  F2  UNL d   1       1.694  -1.758  -2.876  0.00  0.00    -0.096 F 
ATOM     11  F3  UNL d   1       1.952  -0.928  -5.441  0.00  0.00    -0.097 F 
ATOM     12  F4  UNL d   1       3.039   1.511  -6.000  0.00  0.00    -0.092 F 
ENDROOT
TORSDOF 0
ENDMDL
