MODEL 1
REMARK minimizedAffinity 9.03530884
REMARK minimizedRMSD -1
REMARK  0 active torsions:
REMARK  status: ('A' for Active; 'I' for Inactive)
ROOT
ATOM      1  C   UNL d   1      -1.472   1.149   1.065  0.00  0.00     0.124 A 
ATOM      2  C1  UNL d   1      -0.501   0.215   0.730  0.00  0.00     0.062 A 
ATOM      3  C2  UNL d   1       0.829   0.604   0.603  0.00  0.00     0.162 A 
ATOM      4  C3  UNL d   1       1.197   1.934   0.812  0.00  0.00    -0.034 A 
ATOM      5  C4  UNL d   1       0.214   2.867   1.148  0.00  0.00     0.162 A 
ATOM      6  C5  UNL d   1      -1.114   2.473   1.273  0.00  0.00     0.062 A 
ATOM      7  F   UNL d   1      -2.051   3.376   1.597  0.00  0.00    -0.097 F 
ATOM      8  F1  UNL d   1       0.533   4.153   1.356  0.00  0.00    -0.096 F 
ATOM      9  I   UNL d   1       3.185   2.519   0.623  0.00  0.00    -0.060 I 
ATOM     10  F2  UNL d   1       1.747  -0.319   0.278  0.00  0.00    -0.096 F 
ATOM     11  F3  UNL d   1      -0.845  -1.065   0.527  0.00  0.00    -0.097 F 
ATOM     12  F4  UNL d   1      -2.752   0.772   1.186  0.00  0.00    -0.092 F 
ENDROOT
TORSDOF 0
ENDMDL
