MODEL 1
REMARK minimizedAffinity 9.31123734
REMARK minimizedRMSD -1
REMARK  0 active torsions:
REMARK  status: ('A' for Active; 'I' for Inactive)
ROOT
ATOM      1  C   UNL d   1       1.445  -0.649  -1.292  0.00  0.00     0.124 A 
ATOM      2  C1  UNL d   1       0.776  -0.620  -0.077  0.00  0.00     0.062 A 
ATOM      3  C2  UNL d   1      -0.356  -1.405   0.118  0.00  0.00     0.162 A 
ATOM      4  C3  UNL d   1      -0.827  -2.227  -0.906  0.00  0.00    -0.034 A 
ATOM      5  C4  UNL d   1      -0.149  -2.250  -2.126  0.00  0.00     0.162 A 
ATOM      6  C5  UNL d   1       0.982  -1.463  -2.316  0.00  0.00     0.062 A 
ATOM      7  F   UNL d   1       1.627  -1.492  -3.491  0.00  0.00    -0.097 F 
ATOM      8  F1  UNL d   1      -0.575  -3.029  -3.132  0.00  0.00    -0.096 F 
ATOM      9  I   UNL d   1      -2.520  -3.403  -0.619  0.00  0.00    -0.060 I 
ATOM     10  F2  UNL d   1      -0.983  -1.358   1.303  0.00  0.00    -0.096 F 
ATOM     11  F3  UNL d   1       1.221   0.167   0.914  0.00  0.00    -0.097 F 
ATOM     12  F4  UNL d   1       2.534   0.109  -1.477  0.00  0.00    -0.092 F 
ENDROOT
TORSDOF 0
ENDMDL
