MODEL 1
REMARK minimizedAffinity -0.761376083
REMARK minimizedRMSD -1
REMARK  0 active torsions:
REMARK  status: ('A' for Active; 'I' for Inactive)
ROOT
ATOM      1  C   UNL d   1      -3.132   0.875  -0.167  0.00  0.00     0.124 A 
ATOM      2  C1  UNL d   1      -2.359  -0.156  -0.684  0.00  0.00     0.062 A 
ATOM      3  C2  UNL d   1      -0.989  -0.194  -0.439  0.00  0.00     0.162 A 
ATOM      4  C3  UNL d   1      -0.383   0.801   0.328  0.00  0.00    -0.034 A 
ATOM      5  C4  UNL d   1      -1.167   1.835   0.843  0.00  0.00     0.162 A 
ATOM      6  C5  UNL d   1      -2.535   1.869   0.596  0.00  0.00     0.062 A 
ATOM      7  F   UNL d   1      -3.281   2.865   1.096  0.00  0.00    -0.097 F 
ATOM      8  F1  UNL d   1      -0.617   2.808   1.584  0.00  0.00    -0.096 F 
ATOM      9  I   UNL d   1       1.664   0.748   0.696  0.00  0.00    -0.060 I 
ATOM     10  F2  UNL d   1      -0.267  -1.202  -0.951  0.00  0.00    -0.096 F 
ATOM     11  F3  UNL d   1      -2.933  -1.117  -1.422  0.00  0.00    -0.097 F 
ATOM     12  F4  UNL d   1      -4.449   0.910  -0.405  0.00  0.00    -0.092 F 
ENDROOT
TORSDOF 0
ENDMDL
