MODEL 1
REMARK minimizedAffinity 13.7489824
REMARK minimizedRMSD -1
REMARK  0 active torsions:
REMARK  status: ('A' for Active; 'I' for Inactive)
ROOT
ATOM      1  C   UNL d   1      -1.026   1.513   0.988  0.00  0.00     0.124 A 
ATOM      2  C1  UNL d   1      -0.866   2.744   1.607  0.00  0.00     0.062 A 
ATOM      3  C2  UNL d   1       0.408   3.213   1.915  0.00  0.00     0.162 A 
ATOM      4  C3  UNL d   1       1.533   2.449   1.603  0.00  0.00    -0.034 A 
ATOM      5  C4  UNL d   1       1.364   1.211   0.981  0.00  0.00     0.162 A 
ATOM      6  C5  UNL d   1       0.088   0.747   0.675  0.00  0.00     0.062 A 
ATOM      7  F   UNL d   1      -0.064  -0.443   0.077  0.00  0.00    -0.097 F 
ATOM      8  F1  UNL d   1       2.424   0.451   0.667  0.00  0.00    -0.096 F 
ATOM      9  I   UNL d   1       3.440   3.145   2.062  0.00  0.00    -0.060 I 
ATOM     10  F2  UNL d   1       0.533   4.406   2.514  0.00  0.00    -0.096 F 
ATOM     11  F3  UNL d   1      -1.941   3.486   1.911  0.00  0.00    -0.097 F 
ATOM     12  F4  UNL d   1      -2.253   1.064   0.693  0.00  0.00    -0.092 F 
ENDROOT
TORSDOF 0
ENDMDL
