MODEL 1
REMARK minimizedAffinity 14.9682007
REMARK minimizedRMSD -1
REMARK  0 active torsions:
REMARK  status: ('A' for Active; 'I' for Inactive)
ROOT
ATOM      1  C   UNL d   1       1.110   2.891   2.559  0.00  0.00     0.124 A 
ATOM      2  C1  UNL d   1       1.530   1.919   1.662  0.00  0.00     0.062 A 
ATOM      3  C2  UNL d   1       0.603   1.260   0.859  0.00  0.00     0.162 A 
ATOM      4  C3  UNL d   1      -0.754   1.573   0.949  0.00  0.00    -0.034 A 
ATOM      5  C4  UNL d   1      -1.168   2.551   1.854  0.00  0.00     0.162 A 
ATOM      6  C5  UNL d   1      -0.238   3.207   2.654  0.00  0.00     0.062 A 
ATOM      7  F   UNL d   1      -0.645   4.146   3.520  0.00  0.00    -0.097 F 
ATOM      8  F1  UNL d   1      -2.465   2.877   1.966  0.00  0.00    -0.096 F 
ATOM      9  I   UNL d   1      -2.143   0.590  -0.250  0.00  0.00    -0.060 I 
ATOM     10  F2  UNL d   1       1.036   0.325   0.001  0.00  0.00    -0.096 F 
ATOM     11  F3  UNL d   1       2.832   1.611   1.568  0.00  0.00    -0.097 F 
ATOM     12  F4  UNL d   1       2.004   3.522   3.331  0.00  0.00    -0.092 F 
ENDROOT
TORSDOF 0
ENDMDL
