MODEL 1
REMARK minimizedAffinity 15.4125576
REMARK minimizedRMSD -1
REMARK  0 active torsions:
REMARK  status: ('A' for Active; 'I' for Inactive)
ROOT
ATOM      1  C   UNL d   1       2.874   1.435  -4.734  0.00  0.00     0.124 A 
ATOM      2  C1  UNL d   1       2.436   0.148  -4.455  0.00  0.00     0.062 A 
ATOM      3  C2  UNL d   1       2.398  -0.309  -3.141  0.00  0.00     0.162 A 
ATOM      4  C3  UNL d   1       2.798   0.523  -2.095  0.00  0.00    -0.034 A 
ATOM      5  C4  UNL d   1       3.238   1.816  -2.384  0.00  0.00     0.162 A 
ATOM      6  C5  UNL d   1       3.274   2.267  -3.699  0.00  0.00     0.062 A 
ATOM      7  F   UNL d   1       3.697   3.511  -3.967  0.00  0.00    -0.097 F 
ATOM      8  F1  UNL d   1       3.630   2.642  -1.402  0.00  0.00    -0.096 F 
ATOM      9  I   UNL d   1       2.743  -0.156  -0.128  0.00  0.00    -0.060 I 
ATOM     10  F2  UNL d   1       1.971  -1.557  -2.900  0.00  0.00    -0.096 F 
ATOM     11  F3  UNL d   1       2.049  -0.659  -5.454  0.00  0.00    -0.097 F 
ATOM     12  F4  UNL d   1       2.910   1.871  -6.000  0.00  0.00    -0.092 F 
ENDROOT
TORSDOF 0
ENDMDL
