MODEL 1
REMARK minimizedAffinity 5.40361977
REMARK minimizedRMSD -1
REMARK  0 active torsions:
REMARK  status: ('A' for Active; 'I' for Inactive)
ROOT
ATOM      1  C   UNL d   1       2.899   2.899   1.884  0.00  0.00     0.124 A 
ATOM      2  C1  UNL d   1       1.874   3.153   2.784  0.00  0.00     0.062 A 
ATOM      3  C2  UNL d   1       0.573   2.748   2.497  0.00  0.00     0.162 A 
ATOM      4  C3  UNL d   1       0.290   2.085   1.303  0.00  0.00    -0.034 A 
ATOM      5  C4  UNL d   1       1.326   1.834   0.402  0.00  0.00     0.162 A 
ATOM      6  C5  UNL d   1       2.624   2.240   0.694  0.00  0.00     0.062 A 
ATOM      7  F   UNL d   1       3.613   1.994  -0.178  0.00  0.00    -0.097 F 
ATOM      8  F1  UNL d   1       1.089   1.198  -0.755  0.00  0.00    -0.096 F 
ATOM      9  I   UNL d   1      -1.653   1.478   0.870  0.00  0.00    -0.060 I 
ATOM     10  F2  UNL d   1      -0.398   3.007   3.386  0.00  0.00    -0.096 F 
ATOM     11  F3  UNL d   1       2.136   3.790   3.934  0.00  0.00    -0.097 F 
ATOM     12  F4  UNL d   1       4.149   3.291   2.162  0.00  0.00    -0.092 F 
ENDROOT
TORSDOF 0
ENDMDL
