MODEL 1
REMARK minimizedAffinity 10.5447798
REMARK minimizedRMSD -1
REMARK  1 active torsions:
REMARK  status: ('A' for Active; 'I' for Inactive)
REMARK    1  A    between atoms: C1_2  and  C2_3 
ROOT
ATOM      1  C2  UNL d   1       0.482   0.098  -0.280  0.00  0.00    -0.081 A 
ATOM      2  C3  UNL d   1       0.495   0.272   1.109  0.00  0.00     0.006 A 
ATOM      3  C4  UNL d   1       1.342  -0.498   1.911  0.00  0.00     0.002 A 
ATOM      4  C5  UNL d   1       2.194  -1.447   1.337  0.00  0.00    -0.080 A 
ATOM      5  C6  UNL d   1       3.130  -2.258   2.183  0.00  0.00     0.076 C 
ATOM      6  C7  UNL d   1       2.169  -1.633  -0.050  0.00  0.00     0.002 A 
ATOM      7  C8  UNL d   1       1.322  -0.864  -0.852  0.00  0.00     0.006 A 
ENDROOT
BRANCH   1   8
ATOM      8  C1  UNL d   1      -0.382   0.971  -1.154  0.00  0.00     0.054 C 
ATOM      9  C   UNL d   1       0.462   1.834  -2.081  0.00  0.00     0.018 C 
ENDBRANCH   1   8
TORSDOF 1
ENDMDL
