MODEL 1
REMARK minimizedAffinity 12.256918
REMARK minimizedRMSD -1
REMARK  1 active torsions:
REMARK  status: ('A' for Active; 'I' for Inactive)
REMARK    1  A    between atoms: C1_2  and  C2_3 
ROOT
ATOM      1  C2  UNL d   1       0.025  -0.532   0.378  0.00  0.00    -0.081 A 
ATOM      2  C3  UNL d   1      -1.345  -0.424   0.107  0.00  0.00     0.006 A 
ATOM      3  C4  UNL d   1      -1.948  -1.259  -0.838  0.00  0.00     0.002 A 
ATOM      4  C5  UNL d   1      -1.193  -2.219  -1.520  0.00  0.00    -0.080 A 
ATOM      5  C6  UNL d   1      -1.834  -3.142  -2.514  0.00  0.00     0.076 C 
ATOM      6  C7  UNL d   1       0.178  -2.315  -1.262  0.00  0.00     0.002 A 
ATOM      7  C8  UNL d   1       0.782  -1.480  -0.319  0.00  0.00     0.006 A 
ENDROOT
BRANCH   1   8
ATOM      8  C1  UNL d   1       0.665   0.323   1.442  0.00  0.00     0.054 C 
ATOM      9  C   UNL d   1       0.778  -0.429   2.761  0.00  0.00     0.018 C 
ENDBRANCH   1   8
TORSDOF 1
ENDMDL
