MODEL 1
REMARK minimizedAffinity 10.8286667
REMARK minimizedRMSD -1
REMARK  1 active torsions:
REMARK  status: ('A' for Active; 'I' for Inactive)
REMARK    1  A    between atoms: C1_2  and  C2_3 
ROOT
ATOM      1  C2  UNL d   1       4.157  -2.585  -4.032  0.00  0.00    -0.081 A 
ATOM      2  C3  UNL d   1       4.746  -2.447  -5.295  0.00  0.00     0.006 A 
ATOM      3  C4  UNL d   1       5.328  -3.546  -5.930  0.00  0.00     0.002 A 
ATOM      4  C5  UNL d   1       5.325  -4.804  -5.316  0.00  0.00    -0.080 A 
ATOM      5  C6  UNL d   1       5.920  -5.999  -6.000  0.00  0.00     0.076 C 
ATOM      6  C7  UNL d   1       4.752  -4.939  -4.047  0.00  0.00     0.002 A 
ATOM      7  C8  UNL d   1       4.171  -3.839  -3.412  0.00  0.00     0.006 A 
ENDROOT
BRANCH   1   8
ATOM      8  C1  UNL d   1       3.471  -1.416  -3.373  0.00  0.00     0.054 C 
ATOM      9  C   UNL d   1       3.755  -1.378  -1.879  0.00  0.00     0.018 C 
ENDBRANCH   1   8
TORSDOF 1
ENDMDL
