MODEL 1
REMARK minimizedAffinity 13.9113302
REMARK minimizedRMSD -1
REMARK  1 active torsions:
REMARK  status: ('A' for Active; 'I' for Inactive)
REMARK    1  A    between atoms: C1_2  and  C2_3 
ROOT
ATOM      1  C2  UNL d   1       1.954   4.674   1.647  0.00  0.00    -0.081 A 
ATOM      2  C3  UNL d   1       0.772   3.960   1.418  0.00  0.00     0.006 A 
ATOM      3  C4  UNL d   1      -0.390   4.267   2.129  0.00  0.00     0.002 A 
ATOM      4  C5  UNL d   1      -0.392   5.297   3.076  0.00  0.00    -0.080 A 
ATOM      5  C6  UNL d   1      -1.640   5.657   3.825  0.00  0.00     0.076 C 
ATOM      6  C7  UNL d   1       0.794   5.999   3.318  0.00  0.00     0.002 A 
ATOM      7  C8  UNL d   1       1.956   5.693   2.607  0.00  0.00     0.006 A 
ENDROOT
BRANCH   1   8
ATOM      8  C1  UNL d   1       3.192   4.389   0.835  0.00  0.00     0.054 C 
ATOM      9  C   UNL d   1       4.307   5.371   1.163  0.00  0.00     0.018 C 
ENDBRANCH   1   8
TORSDOF 1
ENDMDL
