MODEL 1
REMARK minimizedAffinity 5.04913139
REMARK minimizedRMSD -1
REMARK  1 active torsions:
REMARK  status: ('A' for Active; 'I' for Inactive)
REMARK    1  A    between atoms: C1_2  and  C2_3 
ROOT
ATOM      1  C2  UNL d   1       4.871  -3.614  -4.603  0.00  0.00    -0.081 A 
ATOM      2  C3  UNL d   1       4.296  -2.412  -4.174  0.00  0.00     0.006 A 
ATOM      3  C4  UNL d   1       4.575  -1.908  -2.901  0.00  0.00     0.002 A 
ATOM      4  C5  UNL d   1       5.439  -2.594  -2.040  0.00  0.00    -0.080 A 
ATOM      5  C6  UNL d   1       5.770  -2.049  -0.682  0.00  0.00     0.076 C 
ATOM      6  C7  UNL d   1       6.000  -3.803  -2.462  0.00  0.00     0.002 A 
ATOM      7  C8  UNL d   1       5.721  -4.308  -3.735  0.00  0.00     0.006 A 
ENDROOT
BRANCH   1   8
ATOM      8  C1  UNL d   1       4.624  -4.126  -5.999  0.00  0.00     0.054 C 
ATOM      9  C   UNL d   1       4.352  -5.624  -5.999  0.00  0.00     0.018 C 
ENDBRANCH   1   8
TORSDOF 1
ENDMDL
