MODEL 1
REMARK minimizedAffinity 8.75425816
REMARK minimizedRMSD -1
REMARK  1 active torsions:
REMARK  status: ('A' for Active; 'I' for Inactive)
REMARK    1  A    between atoms: C1_2  and  C2_3 
ROOT
ATOM      1  C2  UNL d   1       5.483  -3.671  -4.887  0.00  0.00    -0.081 A 
ATOM      2  C3  UNL d   1       4.545  -2.665  -5.150  0.00  0.00     0.006 A 
ATOM      3  C4  UNL d   1       4.114  -1.814  -4.130  0.00  0.00     0.002 A 
ATOM      4  C5  UNL d   1       4.619  -1.949  -2.832  0.00  0.00    -0.080 A 
ATOM      5  C6  UNL d   1       4.187  -1.023  -1.734  0.00  0.00     0.076 C 
ATOM      6  C7  UNL d   1       5.542  -2.966  -2.565  0.00  0.00     0.002 A 
ATOM      7  C8  UNL d   1       5.973  -3.817  -3.585  0.00  0.00     0.006 A 
ENDROOT
BRANCH   1   8
ATOM      8  C1  UNL d   1       5.998  -4.548  -5.999  0.00  0.00     0.054 C 
ATOM      9  C   UNL d   1       5.588  -6.000  -5.794  0.00  0.00     0.018 C 
ENDBRANCH   1   8
TORSDOF 1
ENDMDL
