MODEL 1
REMARK minimizedAffinity 7.36129713
REMARK minimizedRMSD -1
REMARK  1 active torsions:
REMARK  status: ('A' for Active; 'I' for Inactive)
REMARK    1  A    between atoms: C1_2  and  C2_3 
ROOT
ATOM      1  C2  UNL d   1       1.903   4.566   0.468  0.00  0.00    -0.081 A 
ATOM      2  C3  UNL d   1       1.871   3.954  -0.791  0.00  0.00     0.006 A 
ATOM      3  C4  UNL d   1       2.994   3.984  -1.622  0.00  0.00     0.002 A 
ATOM      4  C5  UNL d   1       4.169   4.618  -1.204  0.00  0.00    -0.080 A 
ATOM      5  C6  UNL d   1       5.391   4.631  -2.074  0.00  0.00     0.076 C 
ATOM      6  C7  UNL d   1       4.195   5.244   0.046  0.00  0.00     0.002 A 
ATOM      7  C8  UNL d   1       3.072   5.216   0.877  0.00  0.00     0.006 A 
ENDROOT
BRANCH   1   8
ATOM      8  C1  UNL d   1       0.715   4.480   1.392  0.00  0.00     0.054 C 
ATOM      9  C   UNL d   1       0.668   5.667   2.344  0.00  0.00     0.018 C 
ENDBRANCH   1   8
TORSDOF 1
ENDMDL
