MODEL 1
REMARK minimizedAffinity 16.4058781
REMARK minimizedRMSD -1
REMARK  1 active torsions:
REMARK  status: ('A' for Active; 'I' for Inactive)
REMARK    1  A    between atoms: C1_2  and  C2_3 
ROOT
ATOM      1  C2  UNL d   1      -0.946   5.501   3.633  0.00  0.00    -0.081 A 
ATOM      2  C3  UNL d   1       0.354   6.000   3.786  0.00  0.00     0.006 A 
ATOM      3  C4  UNL d   1       1.377   5.582   2.932  0.00  0.00     0.002 A 
ATOM      4  C5  UNL d   1       1.118   4.665   1.908  0.00  0.00    -0.080 A 
ATOM      5  C6  UNL d   1       2.201   4.231   0.966  0.00  0.00     0.076 C 
ATOM      6  C7  UNL d   1      -0.177   4.153   1.766  0.00  0.00     0.002 A 
ATOM      7  C8  UNL d   1      -1.201   4.571   2.620  0.00  0.00     0.006 A 
ENDROOT
BRANCH   1   8
ATOM      8  C1  UNL d   1      -2.066   5.999   4.510  0.00  0.00     0.054 C 
ATOM      9  C   UNL d   1      -1.712   5.872   5.985  0.00  0.00     0.018 C 
ENDBRANCH   1   8
TORSDOF 1
ENDMDL
