MODEL 1
REMARK minimizedAffinity 3.51577067
REMARK minimizedRMSD -1
REMARK  1 active torsions:
REMARK  status: ('A' for Active; 'I' for Inactive)
REMARK    1  A    between atoms: C1_2  and  C2_3 
ROOT
ATOM      1  C2  UNL d   1      -1.740  -3.057  -1.425  0.00  0.00    -0.081 A 
ATOM      2  C3  UNL d   1      -1.495  -4.395  -1.758  0.00  0.00     0.006 A 
ATOM      3  C4  UNL d   1      -2.504  -5.352  -1.629  0.00  0.00     0.002 A 
ATOM      4  C5  UNL d   1      -3.776  -4.987  -1.175  0.00  0.00    -0.080 A 
ATOM      5  C6  UNL d   1      -4.877  -5.999  -1.062  0.00  0.00     0.076 C 
ATOM      6  C7  UNL d   1      -4.015  -3.653  -0.826  0.00  0.00     0.002 A 
ATOM      7  C8  UNL d   1      -3.006  -2.696  -0.953  0.00  0.00     0.006 A 
ENDROOT
BRANCH   1   8
ATOM      8  C1  UNL d   1      -0.673  -2.011  -1.624  0.00  0.00     0.054 C 
ATOM      9  C   UNL d   1      -0.613  -1.051  -0.444  0.00  0.00     0.018 C 
ENDBRANCH   1   8
TORSDOF 1
ENDMDL
