MODEL 1
REMARK minimizedAffinity 15.7493172
REMARK minimizedRMSD -1
REMARK  1 active torsions:
REMARK  status: ('A' for Active; 'I' for Inactive)
REMARK    1  A    between atoms: C1_2  and  C2_3 
ROOT
ATOM      1  C2  UNL d   1      -4.756   2.361   1.786  0.00  0.00    -0.081 A 
ATOM      2  C3  UNL d   1      -4.127   1.155   2.118  0.00  0.00     0.006 A 
ATOM      3  C4  UNL d   1      -4.436   0.501   3.313  0.00  0.00     0.002 A 
ATOM      4  C5  UNL d   1      -5.384   1.038   4.191  0.00  0.00    -0.080 A 
ATOM      5  C6  UNL d   1      -5.747   0.331   5.463  0.00  0.00     0.076 C 
ATOM      6  C7  UNL d   1      -6.000   2.252   3.868  0.00  0.00     0.002 A 
ATOM      7  C8  UNL d   1      -5.691   2.906   2.673  0.00  0.00     0.006 A 
ENDROOT
BRANCH   1   8
ATOM      8  C1  UNL d   1      -4.473   3.035   0.467  0.00  0.00     0.054 C 
ATOM      9  C   UNL d   1      -2.999   3.389   0.332  0.00  0.00     0.018 C 
ENDBRANCH   1   8
TORSDOF 1
ENDMDL
