MODEL 1
REMARK minimizedAffinity 9.92766762
REMARK minimizedRMSD -1
REMARK  1 active torsions:
REMARK  status: ('A' for Active; 'I' for Inactive)
REMARK    1  A    between atoms: C1_2  and  C2_3 
ROOT
ATOM      1  C2  UNL d   1       4.964  -3.138  -2.813  0.00  0.00    -0.081 A 
ATOM      2  C3  UNL d   1       5.932  -4.123  -3.048  0.00  0.00     0.006 A 
ATOM      3  C4  UNL d   1       5.757  -5.058  -4.070  0.00  0.00     0.002 A 
ATOM      4  C5  UNL d   1       4.616  -5.020  -4.879  0.00  0.00    -0.080 A 
ATOM      5  C6  UNL d   1       4.430  -6.000  -6.000  0.00  0.00     0.076 C 
ATOM      6  C7  UNL d   1       3.641  -4.048  -4.633  0.00  0.00     0.002 A 
ATOM      7  C8  UNL d   1       3.815  -3.113  -3.611  0.00  0.00     0.006 A 
ENDROOT
BRANCH   1   8
ATOM      8  C1  UNL d   1       5.180  -2.089  -1.753  0.00  0.00     0.054 C 
ATOM      9  C   UNL d   1       5.999  -2.635  -0.592  0.00  0.00     0.018 C 
ENDBRANCH   1   8
TORSDOF 1
ENDMDL
