MODEL 1
REMARK minimizedAffinity 11.5582857
REMARK minimizedRMSD -1
REMARK  1 active torsions:
REMARK  status: ('A' for Active; 'I' for Inactive)
REMARK    1  A    between atoms: C1_2  and  C2_3 
ROOT
ATOM      1  C2  UNL d   1      -2.550  -5.451  -4.851  0.00  0.00    -0.081 A 
ATOM      2  C3  UNL d   1      -2.626  -6.000  -3.565  0.00  0.00     0.006 A 
ATOM      3  C4  UNL d   1      -1.885  -5.451  -2.516  0.00  0.00     0.002 A 
ATOM      4  C5  UNL d   1      -1.062  -4.341  -2.733  0.00  0.00    -0.080 A 
ATOM      5  C6  UNL d   1      -0.284  -3.724  -1.608  0.00  0.00     0.076 C 
ATOM      6  C7  UNL d   1      -0.972  -3.803  -4.021  0.00  0.00     0.002 A 
ATOM      7  C8  UNL d   1      -1.713  -4.351  -5.071  0.00  0.00     0.006 A 
ENDROOT
BRANCH   1   8
ATOM      8  C1  UNL d   1      -3.397  -6.000  -5.970  0.00  0.00     0.054 C 
ATOM      9  C   UNL d   1      -4.873  -5.997  -5.599  0.00  0.00     0.018 C 
ENDBRANCH   1   8
TORSDOF 1
ENDMDL
