MODEL 1
REMARK minimizedAffinity 4.62015486
REMARK minimizedRMSD -1
REMARK  0 active torsions:
REMARK  status: ('A' for Active; 'I' for Inactive)
ROOT
ATOM      1  N1  IND d   1      -0.830   1.562   0.417  0.00  0.00    -0.196 N 
ATOM      2  C2  IND d   1       0.160   1.252  -0.473  0.00  0.00     0.054 A 
ATOM      3  C3  IND d   1       0.467  -0.062  -0.396  0.00  0.00    -0.031 A 
ATOM      4  C4  IND d   1      -0.597  -1.909   1.047  0.00  0.00     0.051 A 
ATOM      5  C5  IND d   1      -1.513  -2.105   2.043  0.00  0.00    -0.031 A 
ATOM      6  C6  IND d   1      -2.265  -1.068   2.556  0.00  0.00     0.015 A 
ATOM      7  C7  IND d   1      -2.137   0.207   2.082  0.00  0.00    -0.016 A 
ATOM      8  C8  IND d   1      -1.203   0.411   1.076  0.00  0.00    -0.047 A 
ATOM      9  C9  IND d   1      -0.406  -0.630   0.581  0.00  0.00    -0.096 A 
ATOM     10  HN1 IND d   1      -1.164   2.344   0.544  0.00  0.00     0.298 HD
ENDROOT
TORSDOF 0
ENDMDL
