MODEL 1
REMARK minimizedAffinity -1.65552759
REMARK minimizedRMSD -1
REMARK  0 active torsions:
REMARK  status: ('A' for Active; 'I' for Inactive)
ROOT
ATOM      1  N1  IND d   1      -0.497   2.311  -0.334  0.00  0.00    -0.196 N 
ATOM      2  C2  IND d   1       0.476   3.154   0.125  0.00  0.00     0.054 A 
ATOM      3  C3  IND d   1       0.958   3.911  -0.886  0.00  0.00    -0.031 A 
ATOM      4  C4  IND d   1       0.223   4.006  -3.352  0.00  0.00     0.051 A 
ATOM      5  C5  IND d   1      -0.604   3.397  -4.253  0.00  0.00    -0.031 A 
ATOM      6  C6  IND d   1      -1.458   2.377  -3.887  0.00  0.00     0.015 A 
ATOM      7  C7  IND d   1      -1.524   1.933  -2.596  0.00  0.00    -0.016 A 
ATOM      8  C8  IND d   1      -0.680   2.543  -1.680  0.00  0.00    -0.047 A 
ATOM      9  C9  IND d   1       0.219   3.550  -2.055  0.00  0.00    -0.096 A 
ATOM     10  HN1 IND d   1      -0.924   1.733   0.138  0.00  0.00     0.298 HD
ENDROOT
TORSDOF 0
ENDMDL
