MODEL 1
REMARK minimizedAffinity -2.74628472
REMARK minimizedRMSD -1
REMARK  0 active torsions:
REMARK  status: ('A' for Active; 'I' for Inactive)
ROOT
ATOM      1  N1  IND d   1       0.444   3.422   0.184  0.00  0.00    -0.196 N 
ATOM      2  C2  IND d   1       1.736   3.861   0.100  0.00  0.00     0.054 A 
ATOM      3  C3  IND d   1       2.579   2.816  -0.054  0.00  0.00    -0.031 A 
ATOM      4  C4  IND d   1       2.049   0.308  -0.297  0.00  0.00     0.051 A 
ATOM      5  C5  IND d   1       1.014  -0.584  -0.248  0.00  0.00    -0.031 A 
ATOM      6  C6  IND d   1      -0.290  -0.177  -0.052  0.00  0.00     0.015 A 
ATOM      7  C7  IND d   1      -0.611   1.143   0.092  0.00  0.00    -0.016 A 
ATOM      8  C8  IND d   1       0.438   2.050   0.051  0.00  0.00    -0.047 A 
ATOM      9  C9  IND d   1       1.768   1.641  -0.106  0.00  0.00    -0.096 A 
ATOM     10  HN1 IND d   1      -0.248   3.918   0.300  0.00  0.00     0.298 HD
ENDROOT
TORSDOF 0
ENDMDL
