MODEL 1
REMARK minimizedAffinity -0.128005818
REMARK minimizedRMSD -1
REMARK  0 active torsions:
REMARK  status: ('A' for Active; 'I' for Inactive)
ROOT
ATOM      1  N1  IND d   1       2.839   4.131   0.769  0.00  0.00    -0.196 N 
ATOM      2  C2  IND d   1       1.937   5.067   1.191  0.00  0.00     0.054 A 
ATOM      3  C3  IND d   1       0.680   4.686   0.874  0.00  0.00    -0.031 A 
ATOM      4  C4  IND d   1      -0.138   2.518  -0.247  0.00  0.00     0.051 A 
ATOM      5  C5  IND d   1       0.317   1.376  -0.845  0.00  0.00    -0.031 A 
ATOM      6  C6  IND d   1       1.663   1.087  -0.934  0.00  0.00     0.015 A 
ATOM      7  C7  IND d   1       2.608   1.928  -0.417  0.00  0.00    -0.016 A 
ATOM      8  C8  IND d   1       2.150   3.091   0.184  0.00  0.00    -0.047 A 
ATOM      9  C9  IND d   1       0.787   3.410   0.240  0.00  0.00    -0.096 A 
ATOM     10  HN1 IND d   1       3.693   4.182   0.855  0.00  0.00     0.298 HD
ENDROOT
TORSDOF 0
ENDMDL
