MODEL 1
REMARK minimizedAffinity -2.38833666
REMARK minimizedRMSD -1
REMARK  0 active torsions:
REMARK  status: ('A' for Active; 'I' for Inactive)
ROOT
ATOM      1  N1  IND d   1       0.870   2.473   0.073  0.00  0.00    -0.196 N 
ATOM      2  C2  IND d   1       2.057   3.151   0.049  0.00  0.00     0.054 A 
ATOM      3  C3  IND d   1       3.094   2.285   0.065  0.00  0.00    -0.031 A 
ATOM      4  C4  IND d   1       3.075  -0.289   0.026  0.00  0.00     0.051 A 
ATOM      5  C5  IND d   1       2.229  -1.361   0.079  0.00  0.00    -0.031 A 
ATOM      6  C6  IND d   1       0.859  -1.207   0.131  0.00  0.00     0.015 A 
ATOM      7  C7  IND d   1       0.281   0.031   0.120  0.00  0.00    -0.016 A 
ATOM      8  C8  IND d   1       1.137   1.122   0.074  0.00  0.00    -0.047 A 
ATOM      9  C9  IND d   1       2.530   0.972   0.064  0.00  0.00    -0.096 A 
ATOM     10  HN1 IND d   1       0.088   2.831   0.085  0.00  0.00     0.298 HD
ENDROOT
TORSDOF 0
ENDMDL
