MODEL 1
REMARK minimizedAffinity -1.70296645
REMARK minimizedRMSD -1
REMARK  0 active torsions:
REMARK  status: ('A' for Active; 'I' for Inactive)
ROOT
ATOM      1  N1  IND d   1       0.193   1.868  -0.265  0.00  0.00    -0.196 N 
ATOM      2  C2  IND d   1      -0.081   0.658   0.310  0.00  0.00     0.054 A 
ATOM      3  C3  IND d   1      -1.183   0.111  -0.250  0.00  0.00    -0.031 A 
ATOM      4  C4  IND d   1      -2.633   0.978  -2.192  0.00  0.00     0.051 A 
ATOM      5  C5  IND d   1      -2.798   2.056  -3.016  0.00  0.00    -0.031 A 
ATOM      6  C6  IND d   1      -1.955   3.147  -2.965  0.00  0.00     0.015 A 
ATOM      7  C7  IND d   1      -0.905   3.196  -2.093  0.00  0.00    -0.016 A 
ATOM      8  C8  IND d   1      -0.739   2.106  -1.250  0.00  0.00    -0.047 A 
ATOM      9  C9  IND d   1      -1.616   1.014  -1.268  0.00  0.00    -0.096 A 
ATOM     10  HN1 IND d   1       0.840   2.391  -0.047  0.00  0.00     0.298 HD
ENDROOT
TORSDOF 0
ENDMDL
