MODEL 1
REMARK minimizedAffinity -3.87180448
REMARK minimizedRMSD -1
REMARK  0 active torsions:
REMARK  status: ('A' for Active; 'I' for Inactive)
ROOT
ATOM      1  N1  IND d   1       0.354   1.301   0.007  0.00  0.00    -0.196 N 
ATOM      2  C2  IND d   1       1.644   1.514  -0.393  0.00  0.00     0.054 A 
ATOM      3  C3  IND d   1       2.395   0.413  -0.163  0.00  0.00    -0.031 A 
ATOM      4  C4  IND d   1       1.691  -1.882   0.766  0.00  0.00     0.051 A 
ATOM      5  C5  IND d   1       0.624  -2.545   1.304  0.00  0.00    -0.031 A 
ATOM      6  C6  IND d   1      -0.613  -1.949   1.438  0.00  0.00     0.015 A 
ATOM      7  C7  IND d   1      -0.833  -0.665   1.026  0.00  0.00    -0.016 A 
ATOM      8  C8  IND d   1       0.250   0.014   0.485  0.00  0.00    -0.047 A 
ATOM      9  C9  IND d   1       1.518  -0.572   0.386  0.00  0.00    -0.096 A 
ATOM     10  HN1 IND d   1      -0.285   1.875  -0.034  0.00  0.00     0.298 HD
ENDROOT
TORSDOF 0
ENDMDL
