MODEL 1
REMARK minimizedAffinity -4.53509426
REMARK minimizedRMSD -1
REMARK  0 active torsions:
REMARK  status: ('A' for Active; 'I' for Inactive)
ROOT
ATOM      1  N1  IND d   1      -0.949   1.138  -0.200  0.00  0.00    -0.196 N 
ATOM      2  C2  IND d   1       0.140   1.881   0.162  0.00  0.00     0.054 A 
ATOM      3  C3  IND d   1       0.381   2.842  -0.758  0.00  0.00    -0.031 A 
ATOM      4  C4  IND d   1      -0.945   3.441  -2.882  0.00  0.00     0.051 A 
ATOM      5  C5  IND d   1      -1.996   3.023  -3.650  0.00  0.00    -0.031 A 
ATOM      6  C6  IND d   1      -2.768   1.935  -3.299  0.00  0.00     0.015 A 
ATOM      7  C7  IND d   1      -2.525   1.228  -2.155  0.00  0.00    -0.016 A 
ATOM      8  C8  IND d   1      -1.455   1.645  -1.376  0.00  0.00    -0.047 A 
ATOM      9  C9  IND d   1      -0.641   2.723  -1.750  0.00  0.00    -0.096 A 
ATOM     10  HN1 IND d   1      -1.265   0.467   0.235  0.00  0.00     0.298 HD
ENDROOT
TORSDOF 0
ENDMDL
