MODEL 1
REMARK minimizedAffinity -2.44718695
REMARK minimizedRMSD -1
REMARK  0 active torsions:
REMARK  status: ('A' for Active; 'I' for Inactive)
ROOT
ATOM      1  N1  IND d   1       2.350   2.697   0.133  0.00  0.00    -0.196 N 
ATOM      2  C2  IND d   1       1.765   3.911  -0.094  0.00  0.00     0.054 A 
ATOM      3  C3  IND d   1       0.461   3.754  -0.413  0.00  0.00    -0.031 A 
ATOM      4  C4  IND d   1      -0.948   1.601  -0.520  0.00  0.00     0.051 A 
ATOM      5  C5  IND d   1      -0.846   0.241  -0.428  0.00  0.00    -0.031 A 
ATOM      6  C6  IND d   1       0.350  -0.382  -0.135  0.00  0.00     0.015 A 
ATOM      7  C7  IND d   1       1.491   0.335   0.088  0.00  0.00    -0.016 A 
ATOM      8  C8  IND d   1       1.393   1.716  -0.012  0.00  0.00    -0.047 A 
ATOM      9  C9  IND d   1       0.192   2.352  -0.350  0.00  0.00    -0.096 A 
ATOM     10  HN1 IND d   1       3.176   2.567   0.333  0.00  0.00     0.298 HD
ENDROOT
TORSDOF 0
ENDMDL
