MODEL 1
REMARK minimizedAffinity -4.06186247
REMARK minimizedRMSD -1
REMARK  0 active torsions:
REMARK  status: ('A' for Active; 'I' for Inactive)
ROOT
ATOM      1  N1  IND d   1      -0.478   0.852   0.209  0.00  0.00    -0.196 N 
ATOM      2  C2  IND d   1      -1.203   0.717  -0.942  0.00  0.00     0.054 A 
ATOM      3  C3  IND d   1      -0.952  -0.480  -1.519  0.00  0.00    -0.031 A 
ATOM      4  C4  IND d   1       0.534  -2.413  -0.694  0.00  0.00     0.051 A 
ATOM      5  C5  IND d   1       1.425  -2.744   0.289  0.00  0.00    -0.031 A 
ATOM      6  C6  IND d   1       1.731  -1.876   1.317  0.00  0.00     0.015 A 
ATOM      7  C7  IND d   1       1.146  -0.644   1.408  0.00  0.00    -0.016 A 
ATOM      8  C8  IND d   1       0.247  -0.303   0.408  0.00  0.00    -0.047 A 
ATOM      9  C9  IND d   1      -0.035  -1.162  -0.661  0.00  0.00    -0.096 A 
ATOM     10  HN1 IND d   1      -0.475   1.542   0.722  0.00  0.00     0.298 HD
ENDROOT
TORSDOF 0
ENDMDL
