MODEL 1
REMARK minimizedAffinity 3.25337672
REMARK minimizedRMSD -1
REMARK  0 active torsions:
REMARK  status: ('A' for Active; 'I' for Inactive)
ROOT
ATOM      1  N1  IND d   1       0.062  -0.128  -0.767  0.00  0.00    -0.196 N 
ATOM      2  C2  IND d   1      -0.418   0.171   0.477  0.00  0.00     0.054 A 
ATOM      3  C3  IND d   1      -1.646   0.730   0.386  0.00  0.00    -0.031 A 
ATOM      4  C4  IND d   1      -3.099   1.155  -1.696  0.00  0.00     0.051 A 
ATOM      5  C5  IND d   1      -3.074   1.082  -3.060  0.00  0.00    -0.031 A 
ATOM      6  C6  IND d   1      -1.981   0.589  -3.744  0.00  0.00     0.015 A 
ATOM      7  C7  IND d   1      -0.872   0.139  -3.085  0.00  0.00    -0.016 A 
ATOM      8  C8  IND d   1      -0.892   0.218  -1.700  0.00  0.00    -0.047 A 
ATOM      9  C9  IND d   1      -1.981   0.757  -1.002  0.00  0.00    -0.096 A 
ATOM     10  HN1 IND d   1       0.830  -0.474  -0.939  0.00  0.00     0.298 HD
ENDROOT
TORSDOF 0
ENDMDL
