MODEL 1
REMARK minimizedAffinity -1.83645606
REMARK minimizedRMSD -1
REMARK  0 active torsions:
REMARK  status: ('A' for Active; 'I' for Inactive)
ROOT
ATOM      1  N1  IND d   1      -1.722   0.386   0.378  0.00  0.00    -0.196 N 
ATOM      2  C2  IND d   1      -0.466  -0.153   0.344  0.00  0.00     0.054 A 
ATOM      3  C3  IND d   1       0.033  -0.103  -0.912  0.00  0.00    -0.031 A 
ATOM      4  C4  IND d   1      -0.995   0.915  -3.041  0.00  0.00     0.051 A 
ATOM      5  C5  IND d   1      -2.140   1.491  -3.515  0.00  0.00    -0.031 A 
ATOM      6  C6  IND d   1      -3.225   1.735  -2.699  0.00  0.00     0.015 A 
ATOM      7  C7  IND d   1      -3.201   1.422  -1.369  0.00  0.00    -0.016 A 
ATOM      8  C8  IND d   1      -2.043   0.831  -0.886  0.00  0.00    -0.047 A 
ATOM      9  C9  IND d   1      -0.954   0.541  -1.719  0.00  0.00    -0.096 A 
ATOM     10  HN1 IND d   1      -2.226   0.439   1.072  0.00  0.00     0.298 HD
ENDROOT
TORSDOF 0
ENDMDL
