MODEL 1
REMARK minimizedAffinity -2.63221073
REMARK minimizedRMSD -1
REMARK  0 active torsions:
REMARK  status: ('A' for Active; 'I' for Inactive)
ROOT
ATOM      1  N1  IND d   1       1.652  -2.539   1.427  0.00  0.00    -0.196 N 
ATOM      2  C2  IND d   1       0.590  -2.701   0.581  0.00  0.00     0.054 A 
ATOM      3  C3  IND d   1       0.470  -1.630  -0.234  0.00  0.00    -0.031 A 
ATOM      4  C4  IND d   1       1.964   0.458  -0.423  0.00  0.00     0.051 A 
ATOM      5  C5  IND d   1       3.034   1.074   0.165  0.00  0.00    -0.031 A 
ATOM      6  C6  IND d   1       3.713   0.504   1.223  0.00  0.00     0.015 A 
ATOM      7  C7  IND d   1       3.352  -0.714   1.727  0.00  0.00    -0.016 A 
ATOM      8  C8  IND d   1       2.263  -1.338   1.138  0.00  0.00    -0.047 A 
ATOM      9  C9  IND d   1       1.543  -0.746   0.092  0.00  0.00    -0.096 A 
ATOM     10  HN1 IND d   1       1.896  -3.093   2.037  0.00  0.00     0.298 HD
ENDROOT
TORSDOF 0
ENDMDL
