MODEL 1
REMARK minimizedAffinity -1.27027786
REMARK minimizedRMSD -1
REMARK  0 active torsions:
REMARK  status: ('A' for Active; 'I' for Inactive)
ROOT
ATOM      1  N1  IND d   1       1.536   0.775   0.000  0.00  0.00    -0.196 N 
ATOM      2  C2  IND d   1       0.280   0.816  -0.538  0.00  0.00     0.054 A 
ATOM      3  C3  IND d   1      -0.373  -0.343  -0.298  0.00  0.00    -0.031 A 
ATOM      4  C4  IND d   1       0.390  -2.402   1.046  0.00  0.00     0.051 A 
ATOM      5  C5  IND d   1       1.473  -2.922   1.698  0.00  0.00    -0.031 A 
ATOM      6  C6  IND d   1       2.655  -2.221   1.823  0.00  0.00     0.015 A 
ATOM      7  C7  IND d   1       2.795  -0.964   1.307  0.00  0.00    -0.016 A 
ATOM      8  C8  IND d   1       1.700  -0.435   0.638  0.00  0.00    -0.047 A 
ATOM      9  C9  IND d   1       0.512  -1.159   0.472  0.00  0.00    -0.096 A 
ATOM     10  HN1 IND d   1       2.125   1.399  -0.051  0.00  0.00     0.298 HD
ENDROOT
TORSDOF 0
ENDMDL
