MODEL 1
REMARK minimizedAffinity -4.37910414
REMARK minimizedRMSD -1
REMARK  0 active torsions:
REMARK  status: ('A' for Active; 'I' for Inactive)
ROOT
ATOM      1  N1  IND d   1      -2.097   2.004   0.203  0.00  0.00    -0.196 N 
ATOM      2  C2  IND d   1      -1.300   2.979   0.734  0.00  0.00     0.054 A 
ATOM      3  C3  IND d   1      -0.678   3.666  -0.250  0.00  0.00    -0.031 A 
ATOM      4  C4  IND d   1      -0.898   3.427  -2.804  0.00  0.00     0.051 A 
ATOM      5  C5  IND d   1      -1.480   2.650  -3.766  0.00  0.00    -0.031 A 
ATOM      6  C6  IND d   1      -2.316   1.599  -3.449  0.00  0.00     0.015 A 
ATOM      7  C7  IND d   1      -2.612   1.291  -2.151  0.00  0.00    -0.016 A 
ATOM      8  C8  IND d   1      -2.018   2.073  -1.171  0.00  0.00    -0.047 A 
ATOM      9  C9  IND d   1      -1.135   3.114  -1.486  0.00  0.00    -0.096 A 
ATOM     10  HN1 IND d   1      -2.569   1.442   0.651  0.00  0.00     0.298 HD
ENDROOT
TORSDOF 0
ENDMDL
