MODEL 1
REMARK minimizedAffinity 17.2185478
REMARK minimizedRMSD -1
REMARK  1 active torsions:
REMARK  status: ('A' for Active; 'I' for Inactive)
REMARK    1  A    between atoms: C3_4  and  O_7 
ROOT
ATOM      1  C   UNL d   1       2.290  -0.783  -0.918  0.00  0.00    -0.033 A 
ATOM      2  C1  UNL d   1       2.182  -1.121  -2.269  0.00  0.00     0.039 A 
ATOM      3  C2  UNL d   1       1.130  -1.929  -2.705  0.00  0.00    -0.080 A 
ATOM      4  C3  UNL d   1       0.194  -2.390  -1.784  0.00  0.00     0.150 A 
ATOM      5  C4  UNL d   1       0.294  -2.053  -0.438  0.00  0.00    -0.007 A 
ATOM      6  C5  UNL d   1       1.345  -1.247  -0.003  0.00  0.00     0.039 A 
ENDROOT
BRANCH   4   7
ATOM      7  O   UNL d   1      -0.847  -3.184  -2.162  0.00  0.00    -0.526 OA
ATOM      8  H5  UNL d   1      -0.771  -3.358  -3.115  0.00  0.00     0.418 HD
ENDBRANCH   4   7
TORSDOF 1
ENDMDL
