MODEL 1
REMARK minimizedAffinity 11.8802233
REMARK minimizedRMSD -1
REMARK  1 active torsions:
REMARK  status: ('A' for Active; 'I' for Inactive)
REMARK    1  A    between atoms: C3_4  and  O_7 
ROOT
ATOM      1  C   UNL d   1      -5.456   4.765  -5.983  0.00  0.00    -0.033 A 
ATOM      2  C1  UNL d   1      -4.276   5.511  -5.994  0.00  0.00     0.039 A 
ATOM      3  C2  UNL d   1      -3.038   4.864  -5.999  0.00  0.00    -0.080 A 
ATOM      4  C3  UNL d   1      -2.995   3.473  -5.994  0.00  0.00     0.150 A 
ATOM      5  C4  UNL d   1      -4.166   2.723  -5.987  0.00  0.00    -0.007 A 
ATOM      6  C5  UNL d   1      -5.401   3.370  -5.981  0.00  0.00     0.039 A 
ENDROOT
BRANCH   4   7
ATOM      7  O   UNL d   1      -1.811   2.797  -5.993  0.00  0.00    -0.526 OA
ATOM      8  H5  UNL d   1      -1.087   3.445  -5.970  0.00  0.00     0.418 HD
ENDBRANCH   4   7
TORSDOF 1
ENDMDL
