MODEL 1
REMARK minimizedAffinity 7.69174576
REMARK minimizedRMSD -1
REMARK  1 active torsions:
REMARK  status: ('A' for Active; 'I' for Inactive)
REMARK    1  A    between atoms: C3_4  and  O_7 
ROOT
ATOM      1  C   UNL d   1       1.853  -0.838  -1.107  0.00  0.00    -0.033 A 
ATOM      2  C1  UNL d   1       1.766  -1.898  -0.202  0.00  0.00     0.039 A 
ATOM      3  C2  UNL d   1       0.870  -2.944  -0.432  0.00  0.00    -0.080 A 
ATOM      4  C3  UNL d   1       0.068  -2.918  -1.570  0.00  0.00     0.150 A 
ATOM      5  C4  UNL d   1       0.152  -1.868  -2.478  0.00  0.00    -0.007 A 
ATOM      6  C5  UNL d   1       1.047  -0.824  -2.246  0.00  0.00     0.039 A 
ENDROOT
BRANCH   4   7
ATOM      7  O   UNL d   1      -0.825  -3.914  -1.834  0.00  0.00    -0.526 OA
ATOM      8  H5  UNL d   1      -0.793  -4.557  -1.107  0.00  0.00     0.418 HD
ENDBRANCH   4   7
TORSDOF 1
ENDMDL
