MODEL 1
REMARK minimizedAffinity 9.5621233
REMARK minimizedRMSD -1
REMARK  1 active torsions:
REMARK  status: ('A' for Active; 'I' for Inactive)
REMARK    1  A    between atoms: C3_4  and  O_7 
ROOT
ATOM      1  C   UNL d   1       1.478  -2.347  -1.559  0.00  0.00    -0.033 A 
ATOM      2  C1  UNL d   1       2.635  -2.501  -0.793  0.00  0.00     0.039 A 
ATOM      3  C2  UNL d   1       3.440  -1.396  -0.510  0.00  0.00    -0.080 A 
ATOM      4  C3  UNL d   1       3.077  -0.144  -0.998  0.00  0.00     0.150 A 
ATOM      5  C4  UNL d   1       1.924   0.018  -1.759  0.00  0.00    -0.007 A 
ATOM      6  C5  UNL d   1       1.122  -1.087  -2.041  0.00  0.00     0.039 A 
ENDROOT
BRANCH   4   7
ATOM      7  O   UNL d   1       3.834   0.963  -0.753  0.00  0.00    -0.526 OA
ATOM      8  H5  UNL d   1       4.614   0.695  -0.240  0.00  0.00     0.418 HD
ENDBRANCH   4   7
TORSDOF 1
ENDMDL
