MODEL 1
REMARK minimizedAffinity 11.2449436
REMARK minimizedRMSD -1
REMARK  1 active torsions:
REMARK  status: ('A' for Active; 'I' for Inactive)
REMARK    1  A    between atoms: C3_4  and  O_7 
ROOT
ATOM      1  C   UNL d   1      -4.141  -0.271   3.186  0.00  0.00    -0.033 A 
ATOM      2  C1  UNL d   1      -3.752   1.015   2.805  0.00  0.00     0.039 A 
ATOM      3  C2  UNL d   1      -3.177   1.878   3.740  0.00  0.00    -0.080 A 
ATOM      4  C3  UNL d   1      -2.996   1.443   5.050  0.00  0.00     0.150 A 
ATOM      5  C4  UNL d   1      -3.379   0.163   5.436  0.00  0.00    -0.007 A 
ATOM      6  C5  UNL d   1      -3.953  -0.697   4.501  0.00  0.00     0.039 A 
ENDROOT
BRANCH   4   7
ATOM      7  O   UNL d   1      -2.444   2.252   5.999  0.00  0.00    -0.526 OA
ATOM      8  H5  UNL d   1      -2.256   3.115   5.596  0.00  0.00     0.418 HD
ENDBRANCH   4   7
TORSDOF 1
ENDMDL
