MODEL 1
REMARK minimizedAffinity 12.1761751
REMARK minimizedRMSD -1
REMARK  1 active torsions:
REMARK  status: ('A' for Active; 'I' for Inactive)
REMARK    1  A    between atoms: C3_4  and  O_7 
ROOT
ATOM      1  C   UNL d   1      -2.902  -3.132  -2.465  0.00  0.00    -0.033 A 
ATOM      2  C1  UNL d   1      -1.859  -3.885  -1.923  0.00  0.00     0.039 A 
ATOM      3  C2  UNL d   1      -0.660  -3.266  -1.566  0.00  0.00    -0.080 A 
ATOM      4  C3  UNL d   1      -0.517  -1.894  -1.754  0.00  0.00     0.150 A 
ATOM      5  C4  UNL d   1      -1.554  -1.136  -2.289  0.00  0.00    -0.007 A 
ATOM      6  C5  UNL d   1      -2.750  -1.757  -2.646  0.00  0.00     0.039 A 
ENDROOT
BRANCH   4   7
ATOM      7  O   UNL d   1       0.636  -1.245  -1.425  0.00  0.00    -0.526 OA
ATOM      8  H5  UNL d   1       1.273  -1.900  -1.094  0.00  0.00     0.418 HD
ENDBRANCH   4   7
TORSDOF 1
ENDMDL
