MODEL 1
REMARK minimizedAffinity 1.05070746
REMARK minimizedRMSD -1
REMARK  1 active torsions:
REMARK  status: ('A' for Active; 'I' for Inactive)
REMARK    1  A    between atoms: C3_4  and  O_7 
ROOT
ATOM      1  C   UNL d   1      -4.534  -0.812   3.293  0.00  0.00    -0.033 A 
ATOM      2  C1  UNL d   1      -3.801   0.363   3.114  0.00  0.00     0.039 A 
ATOM      3  C2  UNL d   1      -3.966   1.432   3.996  0.00  0.00    -0.080 A 
ATOM      4  C3  UNL d   1      -4.866   1.314   5.052  0.00  0.00     0.150 A 
ATOM      5  C4  UNL d   1      -5.596   0.146   5.238  0.00  0.00    -0.007 A 
ATOM      6  C5  UNL d   1      -5.431  -0.921   4.356  0.00  0.00     0.039 A 
ENDROOT
BRANCH   4   7
ATOM      7  O   UNL d   1      -5.064   2.333   5.935  0.00  0.00    -0.526 OA
ATOM      8  H5  UNL d   1      -4.514   3.087   5.665  0.00  0.00     0.418 HD
ENDBRANCH   4   7
TORSDOF 1
ENDMDL
