MODEL 1
REMARK minimizedAffinity 9.55731869
REMARK minimizedRMSD -1
REMARK  1 active torsions:
REMARK  status: ('A' for Active; 'I' for Inactive)
REMARK    1  A    between atoms: C3_4  and  O_7 
ROOT
ATOM      1  C   UNL d   1       3.108  -3.795  -1.459  0.00  0.00    -0.033 A 
ATOM      2  C1  UNL d   1       4.099  -2.934  -0.983  0.00  0.00     0.039 A 
ATOM      3  C2  UNL d   1       3.847  -1.564  -0.884  0.00  0.00    -0.080 A 
ATOM      4  C3  UNL d   1       2.603  -1.069  -1.264  0.00  0.00     0.150 A 
ATOM      5  C4  UNL d   1       1.610  -1.922  -1.736  0.00  0.00    -0.007 A 
ATOM      6  C5  UNL d   1       1.863  -3.289  -1.834  0.00  0.00     0.039 A 
ENDROOT
BRANCH   4   7
ATOM      7  O   UNL d   1       2.312   0.261  -1.190  0.00  0.00    -0.526 OA
ATOM      8  H5  UNL d   1       3.102   0.731  -0.874  0.00  0.00     0.418 HD
ENDBRANCH   4   7
TORSDOF 1
ENDMDL
