MODEL 1
REMARK minimizedAffinity 11.1015224
REMARK minimizedRMSD -1
REMARK  1 active torsions:
REMARK  status: ('A' for Active; 'I' for Inactive)
REMARK    1  A    between atoms: C3_4  and  O_7 
ROOT
ATOM      1  C   UNL d   1       3.776   1.615  -1.177  0.00  0.00    -0.033 A 
ATOM      2  C1  UNL d   1       2.989   0.465  -1.260  0.00  0.00     0.039 A 
ATOM      3  C2  UNL d   1       3.450  -0.739  -0.725  0.00  0.00    -0.080 A 
ATOM      4  C3  UNL d   1       4.699  -0.780  -0.110  0.00  0.00     0.150 A 
ATOM      5  C4  UNL d   1       5.487   0.363  -0.021  0.00  0.00    -0.007 A 
ATOM      6  C5  UNL d   1       5.025   1.565  -0.557  0.00  0.00     0.039 A 
ENDROOT
BRANCH   4   7
ATOM      7  O   UNL d   1       5.194  -1.933   0.422  0.00  0.00    -0.526 OA
ATOM      8  H5  UNL d   1       4.553  -2.646   0.261  0.00  0.00     0.418 HD
ENDBRANCH   4   7
TORSDOF 1
ENDMDL
