MODEL 1
REMARK minimizedAffinity 7.11941385
REMARK minimizedRMSD -1
REMARK  1 active torsions:
REMARK  status: ('A' for Active; 'I' for Inactive)
REMARK    1  A    between atoms: C3_4  and  O_7 
ROOT
ATOM      1  C   UNL d   1       0.613   0.639   4.316  0.00  0.00    -0.033 A 
ATOM      2  C1  UNL d   1       0.478   0.104   3.033  0.00  0.00     0.039 A 
ATOM      3  C2  UNL d   1      -0.708   0.290   2.319  0.00  0.00    -0.080 A 
ATOM      4  C3  UNL d   1      -1.748   1.012   2.898  0.00  0.00     0.150 A 
ATOM      5  C4  UNL d   1      -1.618   1.551   4.174  0.00  0.00    -0.007 A 
ATOM      6  C5  UNL d   1      -0.434   1.363   4.886  0.00  0.00     0.039 A 
ENDROOT
BRANCH   4   7
ATOM      7  O   UNL d   1      -2.925   1.215   2.242  0.00  0.00    -0.526 OA
ATOM      8  H5  UNL d   1      -2.882   0.762   1.384  0.00  0.00     0.418 HD
ENDBRANCH   4   7
TORSDOF 1
ENDMDL
