MODEL 1
REMARK minimizedAffinity 1.85554481
REMARK minimizedRMSD -1
REMARK  1 active torsions:
REMARK  status: ('A' for Active; 'I' for Inactive)
REMARK    1  A    between atoms: C3_4  and  O_7 
ROOT
ATOM      1  C   UNL d   1      -5.611  -3.888  -6.000  0.00  0.00    -0.033 A 
ATOM      2  C1  UNL d   1      -5.616  -5.283  -5.940  0.00  0.00     0.039 A 
ATOM      3  C2  UNL d   1      -4.906  -5.943  -4.936  0.00  0.00    -0.080 A 
ATOM      4  C3  UNL d   1      -4.197  -5.199  -3.998  0.00  0.00     0.150 A 
ATOM      5  C4  UNL d   1      -4.190  -3.808  -4.049  0.00  0.00    -0.007 A 
ATOM      6  C5  UNL d   1      -4.899  -3.151  -5.053  0.00  0.00     0.039 A 
ENDROOT
BRANCH   4   7
ATOM      7  O   UNL d   1      -3.485  -5.799  -3.002  0.00  0.00    -0.526 OA
ATOM      8  H5  UNL d   1      -3.558  -6.762  -3.109  0.00  0.00     0.418 HD
ENDBRANCH   4   7
TORSDOF 1
ENDMDL
