MODEL 1
REMARK minimizedAffinity 7.77064943
REMARK minimizedRMSD -1
REMARK  1 active torsions:
REMARK  status: ('A' for Active; 'I' for Inactive)
REMARK    1  A    between atoms: C3_4  and  O_7 
ROOT
ATOM      1  C   UNL d   1       1.990   2.318   0.698  0.00  0.00    -0.033 A 
ATOM      2  C1  UNL d   1       1.256   3.352   1.282  0.00  0.00     0.039 A 
ATOM      3  C2  UNL d   1       0.792   4.410   0.498  0.00  0.00    -0.080 A 
ATOM      4  C3  UNL d   1       1.067   4.421  -0.867  0.00  0.00     0.150 A 
ATOM      5  C4  UNL d   1       1.794   3.392  -1.456  0.00  0.00    -0.007 A 
ATOM      6  C5  UNL d   1       2.258   2.337  -0.671  0.00  0.00     0.039 A 
ENDROOT
BRANCH   4   7
ATOM      7  O   UNL d   1       0.639   5.435  -1.672  0.00  0.00    -0.526 OA
ATOM      8  H5  UNL d   1       0.175   6.089  -1.123  0.00  0.00     0.418 HD
ENDBRANCH   4   7
TORSDOF 1
ENDMDL
