MODEL 1
REMARK minimizedAffinity -1.12934887
REMARK minimizedRMSD -1
REMARK  1 active torsions:
REMARK  status: ('A' for Active; 'I' for Inactive)
REMARK    1  A    between atoms: C3_4  and  O_7 
ROOT
ATOM      1  C   UNL d   1       2.919  -5.632  -2.153  0.00  0.00    -0.033 A 
ATOM      2  C1  UNL d   1       1.744  -5.029  -2.608  0.00  0.00     0.039 A 
ATOM      3  C2  UNL d   1       1.424  -3.730  -2.209  0.00  0.00    -0.080 A 
ATOM      4  C3  UNL d   1       2.286  -3.045  -1.357  0.00  0.00     0.150 A 
ATOM      5  C4  UNL d   1       3.459  -3.638  -0.902  0.00  0.00    -0.007 A 
ATOM      6  C5  UNL d   1       3.777  -4.936  -1.301  0.00  0.00     0.039 A 
ENDROOT
BRANCH   4   7
ATOM      7  O   UNL d   1       2.013  -1.777  -0.936  0.00  0.00    -0.526 OA
ATOM      8  H5  UNL d   1       1.157  -1.507  -1.307  0.00  0.00     0.418 HD
ENDBRANCH   4   7
TORSDOF 1
ENDMDL
