MODEL 1
REMARK minimizedAffinity 5.98129463
REMARK minimizedRMSD -1
REMARK  1 active torsions:
REMARK  status: ('A' for Active; 'I' for Inactive)
REMARK    1  A    between atoms: C3_4  and  O_7 
ROOT
ATOM      1  C   UNL d   1      -1.589  -4.304  -2.606  0.00  0.00    -0.033 A 
ATOM      2  C1  UNL d   1      -2.735  -3.988  -3.338  0.00  0.00     0.039 A 
ATOM      3  C2  UNL d   1      -2.974  -2.669  -3.730  0.00  0.00    -0.080 A 
ATOM      4  C3  UNL d   1      -2.059  -1.678  -3.386  0.00  0.00     0.150 A 
ATOM      5  C4  UNL d   1      -0.913  -1.986  -2.660  0.00  0.00    -0.007 A 
ATOM      6  C5  UNL d   1      -0.678  -3.303  -2.268  0.00  0.00     0.039 A 
ENDROOT
BRANCH   4   7
ATOM      7  O   UNL d   1      -2.251  -0.376  -3.742  0.00  0.00    -0.526 OA
ATOM      8  H5  UNL d   1      -3.098  -0.308  -4.214  0.00  0.00     0.418 HD
ENDBRANCH   4   7
TORSDOF 1
ENDMDL
