MODEL 1
REMARK minimizedAffinity 14.3792114
REMARK minimizedRMSD -1
REMARK  1 active torsions:
REMARK  status: ('A' for Active; 'I' for Inactive)
REMARK    1  A    between atoms: C3_4  and  O_7 
ROOT
ATOM      1  C   UNL d   1      -0.170  -1.523  -2.016  0.00  0.00    -0.033 A 
ATOM      2  C1  UNL d   1      -1.296  -0.716  -2.188  0.00  0.00     0.039 A 
ATOM      3  C2  UNL d   1      -2.480  -1.263  -2.686  0.00  0.00    -0.080 A 
ATOM      4  C3  UNL d   1      -2.526  -2.617  -3.006  0.00  0.00     0.150 A 
ATOM      5  C4  UNL d   1      -1.409  -3.428  -2.833  0.00  0.00    -0.007 A 
ATOM      6  C5  UNL d   1      -0.227  -2.880  -2.337  0.00  0.00     0.039 A 
ENDROOT
BRANCH   4   7
ATOM      7  O   UNL d   1      -3.658  -3.195  -3.499  0.00  0.00    -0.526 OA
ATOM      8  H5  UNL d   1      -4.339  -2.508  -3.592  0.00  0.00     0.418 HD
ENDBRANCH   4   7
TORSDOF 1
ENDMDL
