MODEL 1
REMARK minimizedAffinity 5.59388828
REMARK minimizedRMSD -1
REMARK  1 active torsions:
REMARK  status: ('A' for Active; 'I' for Inactive)
REMARK    1  A    between atoms: C3_4  and  O_7 
ROOT
ATOM      1  C   UNL d   1      -1.938  -0.937   2.785  0.00  0.00    -0.033 A 
ATOM      2  C1  UNL d   1      -1.455   0.369   2.680  0.00  0.00     0.039 A 
ATOM      3  C2  UNL d   1      -2.289   1.450   2.971  0.00  0.00    -0.080 A 
ATOM      4  C3  UNL d   1      -3.603   1.212   3.366  0.00  0.00     0.150 A 
ATOM      5  C4  UNL d   1      -4.090  -0.087   3.476  0.00  0.00    -0.007 A 
ATOM      6  C5  UNL d   1      -3.255  -1.165   3.184  0.00  0.00     0.039 A 
ENDROOT
BRANCH   4   7
ATOM      7  O   UNL d   1      -4.456   2.234   3.656  0.00  0.00    -0.526 OA
ATOM      8  H5  UNL d   1      -3.991   3.075   3.508  0.00  0.00     0.418 HD
ENDBRANCH   4   7
TORSDOF 1
ENDMDL
