MODEL 1
REMARK minimizedAffinity 6.21058846
REMARK minimizedRMSD -1
REMARK  1 active torsions:
REMARK  status: ('A' for Active; 'I' for Inactive)
REMARK    1  A    between atoms: C3_4  and  O_7 
ROOT
ATOM      1  C   UNL d   1       2.111  -0.322  -1.035  0.00  0.00    -0.033 A 
ATOM      2  C1  UNL d   1       1.123  -1.272  -1.300  0.00  0.00     0.039 A 
ATOM      3  C2  UNL d   1       1.459  -2.624  -1.394  0.00  0.00    -0.080 A 
ATOM      4  C3  UNL d   1       2.785  -3.012  -1.220  0.00  0.00     0.150 A 
ATOM      5  C4  UNL d   1       3.774  -2.071  -0.952  0.00  0.00    -0.007 A 
ATOM      6  C5  UNL d   1       3.436  -0.722  -0.860  0.00  0.00     0.039 A 
ENDROOT
BRANCH   4   7
ATOM      7  O   UNL d   1       3.162  -4.319  -1.307  0.00  0.00    -0.526 OA
ATOM      8  H5  UNL d   1       2.379  -4.852  -1.525  0.00  0.00     0.418 HD
ENDBRANCH   4   7
TORSDOF 1
ENDMDL
