MODEL 1
REMARK minimizedAffinity 4.67390108
REMARK minimizedRMSD -1
REMARK  1 active torsions:
REMARK  status: ('A' for Active; 'I' for Inactive)
REMARK    1  A    between atoms: C3_4  and  O_7 
ROOT
ATOM      1  C   UNL d   1      -1.830   2.802   3.868  0.00  0.00    -0.033 A 
ATOM      2  C1  UNL d   1      -3.170   2.932   4.238  0.00  0.00     0.039 A 
ATOM      3  C2  UNL d   1      -4.087   1.931   3.912  0.00  0.00    -0.080 A 
ATOM      4  C3  UNL d   1      -3.651   0.805   3.218  0.00  0.00     0.150 A 
ATOM      5  C4  UNL d   1      -2.317   0.667   2.850  0.00  0.00    -0.007 A 
ATOM      6  C5  UNL d   1      -1.403   1.668   3.176  0.00  0.00     0.039 A 
ENDROOT
BRANCH   4   7
ATOM      7  O   UNL d   1      -4.510  -0.196   2.874  0.00  0.00    -0.526 OA
ATOM      8  H5  UNL d   1      -5.403   0.049   3.168  0.00  0.00     0.418 HD
ENDBRANCH   4   7
TORSDOF 1
ENDMDL
