MODEL 1
REMARK minimizedAffinity 10.7029438
REMARK minimizedRMSD -1
REMARK  1 active torsions:
REMARK  status: ('A' for Active; 'I' for Inactive)
REMARK    1  A    between atoms: C3_4  and  O_7 
ROOT
ATOM      1  C   UNL d   1      -2.760   2.444  -5.963  0.00  0.00    -0.033 A 
ATOM      2  C1  UNL d   1      -2.275   3.034  -4.794  0.00  0.00     0.039 A 
ATOM      3  C2  UNL d   1      -2.046   2.254  -3.659  0.00  0.00    -0.080 A 
ATOM      4  C3  UNL d   1      -2.305   0.887  -3.706  0.00  0.00     0.150 A 
ATOM      5  C4  UNL d   1      -2.785   0.292  -4.868  0.00  0.00    -0.007 A 
ATOM      6  C5  UNL d   1      -3.014   1.073  -6.000  0.00  0.00     0.039 A 
ENDROOT
BRANCH   4   7
ATOM      7  O   UNL d   1      -2.102   0.086  -2.621  0.00  0.00    -0.526 OA
ATOM      8  H5  UNL d   1      -1.797   0.639  -1.883  0.00  0.00     0.418 HD
ENDBRANCH   4   7
TORSDOF 1
ENDMDL
