MODEL 1
REMARK minimizedAffinity -3.96934509
REMARK minimizedRMSD -1
REMARK  1 active torsions:
REMARK  status: ('A' for Active; 'I' for Inactive)
REMARK    1  A    between atoms: C3_4  and  O_7 
ROOT
ATOM      1  C   UNL d   1       0.656   0.253   0.190  0.00  0.00    -0.033 A 
ATOM      2  C1  UNL d   1       0.995   1.523  -0.281  0.00  0.00     0.039 A 
ATOM      3  C2  UNL d   1       1.222   1.727  -1.644  0.00  0.00    -0.080 A 
ATOM      4  C3  UNL d   1       1.107   0.654  -2.523  0.00  0.00     0.150 A 
ATOM      5  C4  UNL d   1       0.766  -0.613  -2.062  0.00  0.00    -0.007 A 
ATOM      6  C5  UNL d   1       0.540  -0.814  -0.701  0.00  0.00     0.039 A 
ENDROOT
BRANCH   4   7
ATOM      7  O   UNL d   1       1.324   0.803  -3.861  0.00  0.00    -0.526 OA
ATOM      8  H5  UNL d   1       1.579   1.725  -4.030  0.00  0.00     0.418 HD
ENDBRANCH   4   7
TORSDOF 1
ENDMDL
