MODEL 1
REMARK minimizedAffinity 4.93354273
REMARK minimizedRMSD -1
REMARK  1 active torsions:
REMARK  status: ('A' for Active; 'I' for Inactive)
REMARK    1  A    between atoms: C3_4  and  O_7 
ROOT
ATOM      1  C   UNL d   1      -0.951   1.622   3.310  0.00  0.00    -0.033 A 
ATOM      2  C1  UNL d   1       0.395   1.251   3.325  0.00  0.00     0.039 A 
ATOM      3  C2  UNL d   1       1.242   1.645   2.287  0.00  0.00    -0.080 A 
ATOM      4  C3  UNL d   1       0.731   2.409   1.242  0.00  0.00     0.150 A 
ATOM      5  C4  UNL d   1      -0.608   2.785   1.221  0.00  0.00    -0.007 A 
ATOM      6  C5  UNL d   1      -1.452   2.390   2.258  0.00  0.00     0.039 A 
ENDROOT
BRANCH   4   7
ATOM      7  O   UNL d   1       1.517   2.813   0.204  0.00  0.00    -0.526 OA
ATOM      8  H5  UNL d   1       2.411   2.455   0.338  0.00  0.00     0.418 HD
ENDBRANCH   4   7
TORSDOF 1
ENDMDL
