MODEL 1
REMARK minimizedAffinity 1.3082304
REMARK minimizedRMSD -1
REMARK  1 active torsions:
REMARK  status: ('A' for Active; 'I' for Inactive)
REMARK    1  A    between atoms: C3_4  and  O_7 
ROOT
ATOM      1  C   UNL d   1       2.205  -1.316  -0.043  0.00  0.00    -0.033 A 
ATOM      2  C1  UNL d   1       1.040  -0.813  -0.625  0.00  0.00     0.039 A 
ATOM      3  C2  UNL d   1       0.013  -1.682  -0.999  0.00  0.00    -0.080 A 
ATOM      4  C3  UNL d   1       0.163  -3.050  -0.785  0.00  0.00     0.150 A 
ATOM      5  C4  UNL d   1       1.320  -3.557  -0.203  0.00  0.00    -0.007 A 
ATOM      6  C5  UNL d   1       2.345  -2.688   0.170  0.00  0.00     0.039 A 
ENDROOT
BRANCH   4   7
ATOM      7  O   UNL d   1      -0.809  -3.937  -1.139  0.00  0.00    -0.526 OA
ATOM      8  H5  UNL d   1      -1.537  -3.447  -1.556  0.00  0.00     0.418 HD
ENDBRANCH   4   7
TORSDOF 1
ENDMDL
