MODEL 1
REMARK minimizedAffinity 2.3843596
REMARK minimizedRMSD -1
REMARK  1 active torsions:
REMARK  status: ('A' for Active; 'I' for Inactive)
REMARK    1  A    between atoms: C3_4  and  O_7 
ROOT
ATOM      1  C   UNL d   1       2.124  -1.941   0.160  0.00  0.00    -0.033 A 
ATOM      2  C1  UNL d   1       2.554  -0.655  -0.175  0.00  0.00     0.039 A 
ATOM      3  C2  UNL d   1       3.692  -0.118   0.431  0.00  0.00    -0.080 A 
ATOM      4  C3  UNL d   1       4.390  -0.875   1.367  0.00  0.00     0.150 A 
ATOM      5  C4  UNL d   1       3.969  -2.158   1.703  0.00  0.00    -0.007 A 
ATOM      6  C5  UNL d   1       2.832  -2.693   1.098  0.00  0.00     0.039 A 
ENDROOT
BRANCH   4   7
ATOM      7  O   UNL d   1       5.503  -0.391   1.988  0.00  0.00    -0.526 OA
ATOM      8  H5  UNL d   1       5.658   0.517   1.679  0.00  0.00     0.418 HD
ENDBRANCH   4   7
TORSDOF 1
ENDMDL
