MODEL 1
REMARK minimizedAffinity 4.1257534
REMARK minimizedRMSD -1
REMARK  1 active torsions:
REMARK  status: ('A' for Active; 'I' for Inactive)
REMARK    1  A    between atoms: C3_4  and  O_7 
ROOT
ATOM      1  C   UNL d   1      -0.723   2.531   1.061  0.00  0.00    -0.033 A 
ATOM      2  C1  UNL d   1      -1.735   2.559   2.022  0.00  0.00     0.039 A 
ATOM      3  C2  UNL d   1      -1.540   1.946   3.262  0.00  0.00    -0.080 A 
ATOM      4  C3  UNL d   1      -0.331   1.311   3.528  0.00  0.00     0.150 A 
ATOM      5  C4  UNL d   1       0.684   1.283   2.576  0.00  0.00    -0.007 A 
ATOM      6  C5  UNL d   1       0.487   1.894   1.339  0.00  0.00     0.039 A 
ENDROOT
BRANCH   4   7
ATOM      7  O   UNL d   1      -0.096   0.696   4.721  0.00  0.00    -0.526 OA
ATOM      8  H5  UNL d   1      -0.895   0.771   5.269  0.00  0.00     0.418 HD
ENDBRANCH   4   7
TORSDOF 1
ENDMDL
