MODEL 1
REMARK minimizedAffinity -1.53818929
REMARK minimizedRMSD -1
REMARK  1 active torsions:
REMARK  status: ('A' for Active; 'I' for Inactive)
REMARK    1  A    between atoms: C3_4  and  O_7 
ROOT
ATOM      1  C   UNL d   1       1.640  -1.865  -0.513  0.00  0.00    -0.033 A 
ATOM      2  C1  UNL d   1       1.428  -3.078   0.146  0.00  0.00     0.039 A 
ATOM      3  C2  UNL d   1       0.389  -3.920  -0.256  0.00  0.00    -0.080 A 
ATOM      4  C3  UNL d   1      -0.429  -3.539  -1.316  0.00  0.00     0.150 A 
ATOM      5  C4  UNL d   1      -0.221  -2.334  -1.979  0.00  0.00    -0.007 A 
ATOM      6  C5  UNL d   1       0.817  -1.494  -1.577  0.00  0.00     0.039 A 
ENDROOT
BRANCH   4   7
ATOM      7  O   UNL d   1      -1.458  -4.325  -1.741  0.00  0.00    -0.526 OA
ATOM      8  H5  UNL d   1      -1.499  -5.112  -1.171  0.00  0.00     0.418 HD
ENDBRANCH   4   7
TORSDOF 1
ENDMDL
