MODEL 1
REMARK minimizedAffinity 2.12666273
REMARK minimizedRMSD -1
REMARK  1 active torsions:
REMARK  status: ('A' for Active; 'I' for Inactive)
REMARK    1  A    between atoms: C3_4  and  O_7 
ROOT
ATOM      1  C   UNL d   1       3.824  -0.124   0.454  0.00  0.00    -0.033 A 
ATOM      2  C1  UNL d   1       3.993   1.261   0.486  0.00  0.00     0.039 A 
ATOM      3  C2  UNL d   1       2.921   2.104   0.188  0.00  0.00    -0.080 A 
ATOM      4  C3  UNL d   1       1.686   1.550  -0.138  0.00  0.00     0.150 A 
ATOM      5  C4  UNL d   1       1.509   0.171  -0.168  0.00  0.00    -0.007 A 
ATOM      6  C5  UNL d   1       2.581  -0.669   0.129  0.00  0.00     0.039 A 
ENDROOT
BRANCH   4   7
ATOM      7  O   UNL d   1       0.612   2.333  -0.441  0.00  0.00    -0.526 OA
ATOM      8  H5  UNL d   1       0.890   3.264  -0.408  0.00  0.00     0.418 HD
ENDBRANCH   4   7
TORSDOF 1
ENDMDL
