MODEL 1
REMARK minimizedAffinity -2.80780983
REMARK minimizedRMSD -1
REMARK  1 active torsions:
REMARK  status: ('A' for Active; 'I' for Inactive)
REMARK    1  A    between atoms: C3_4  and  O_7 
ROOT
ATOM      1  C   UNL d   1      -3.465   1.128   1.386  0.00  0.00    -0.033 A 
ATOM      2  C1  UNL d   1      -3.124   0.504   0.184  0.00  0.00     0.039 A 
ATOM      3  C2  UNL d   1      -1.793   0.478  -0.238  0.00  0.00    -0.080 A 
ATOM      4  C3  UNL d   1      -0.815   1.078   0.550  0.00  0.00     0.150 A 
ATOM      5  C4  UNL d   1      -1.147   1.698   1.750  0.00  0.00    -0.007 A 
ATOM      6  C5  UNL d   1      -2.477   1.724   2.170  0.00  0.00     0.039 A 
ENDROOT
BRANCH   4   7
ATOM      7  O   UNL d   1       0.496   1.083   0.177  0.00  0.00    -0.526 OA
ATOM      8  H5  UNL d   1       0.572   0.644  -0.686  0.00  0.00     0.418 HD
ENDBRANCH   4   7
TORSDOF 1
ENDMDL
