MODEL 1
REMARK minimizedAffinity -1.00529981
REMARK minimizedRMSD -1
REMARK  1 active torsions:
REMARK  status: ('A' for Active; 'I' for Inactive)
REMARK    1  A    between atoms: C3_4  and  O_7 
ROOT
ATOM      1  C   UNL d   1      -1.090  -5.942   5.980  0.00  0.00    -0.033 A 
ATOM      2  C1  UNL d   1       0.271  -5.827   5.688  0.00  0.00     0.039 A 
ATOM      3  C2  UNL d   1       0.824  -4.576   5.408  0.00  0.00    -0.080 A 
ATOM      4  C3  UNL d   1       0.008  -3.449   5.425  0.00  0.00     0.150 A 
ATOM      5  C4  UNL d   1      -1.348  -3.555   5.720  0.00  0.00    -0.007 A 
ATOM      6  C5  UNL d   1      -1.899  -4.805   5.997  0.00  0.00     0.039 A 
ENDROOT
BRANCH   4   7
ATOM      7  O   UNL d   1       0.501  -2.207   5.154  0.00  0.00    -0.526 OA
ATOM      8  H5  UNL d   1       1.445  -2.291   4.941  0.00  0.00     0.418 HD
ENDBRANCH   4   7
TORSDOF 1
ENDMDL
