MODEL 1
REMARK minimizedAffinity 7.07691669
REMARK minimizedRMSD -1
REMARK  0 active torsions:
REMARK  status: ('A' for Active; 'I' for Inactive)
ROOT
ATOM      1  O1  BZF d   1      -0.851  -1.459   2.957  0.00  0.00    -0.204 OA
ATOM      2  C2  BZF d   1      -2.003  -1.190   2.244  0.00  0.00     0.174 A 
ATOM      3  C3  BZF d   1      -1.742  -0.374   1.203  0.00  0.00    -0.012 A 
ATOM      4  C3A BZF d   1      -0.323  -0.190   1.215  0.00  0.00    -0.107 A 
ATOM      5  C4  BZF d   1       0.541   0.506   0.419  0.00  0.00     0.055 A 
ATOM      6  C5  BZF d   1       1.860   0.540   0.746  0.00  0.00    -0.016 A 
ATOM      7  C6  BZF d   1       2.347  -0.106   1.863  0.00  0.00     0.022 A 
ATOM      8  C7  BZF d   1       1.530  -0.813   2.681  0.00  0.00     0.029 A 
ATOM      9  C7A BZF d   1       0.202  -0.876   2.335  0.00  0.00     0.058 A 
ENDROOT
TORSDOF 0
ENDMDL
