MODEL 1
REMARK minimizedAffinity -3.5455184
REMARK minimizedRMSD -1
REMARK  0 active torsions:
REMARK  status: ('A' for Active; 'I' for Inactive)
ROOT
ATOM      1  O1  BZF d   1      -1.557  -2.870  -2.220  0.00  0.00    -0.204 OA
ATOM      2  C2  BZF d   1      -1.113  -3.996  -1.555  0.00  0.00     0.174 A 
ATOM      3  C3  BZF d   1      -0.139  -3.680  -0.677  0.00  0.00    -0.012 A 
ATOM      4  C3A BZF d   1      -0.028  -2.255  -0.736  0.00  0.00    -0.107 A 
ATOM      5  C4  BZF d   1       0.756  -1.346  -0.084  0.00  0.00     0.055 A 
ATOM      6  C5  BZF d   1       0.669  -0.034  -0.425  0.00  0.00    -0.016 A 
ATOM      7  C6  BZF d   1      -0.185   0.404  -1.415  0.00  0.00     0.022 A 
ATOM      8  C7  BZF d   1      -0.986  -0.459  -2.086  0.00  0.00     0.029 A 
ATOM      9  C7A BZF d   1      -0.925  -1.781  -1.721  0.00  0.00     0.058 A 
ENDROOT
TORSDOF 0
ENDMDL
