MODEL 1
REMARK minimizedAffinity -1.13136482
REMARK minimizedRMSD -1
REMARK  0 active torsions:
REMARK  status: ('A' for Active; 'I' for Inactive)
ROOT
ATOM      1  O1  BZF d   1       0.043   0.867  -1.758  0.00  0.00    -0.204 OA
ATOM      2  C2  BZF d   1       0.461  -0.450  -1.740  0.00  0.00     0.174 A 
ATOM      3  C3  BZF d   1       0.602  -0.890  -0.473  0.00  0.00    -0.012 A 
ATOM      4  C3A BZF d   1       0.160   0.192   0.352  0.00  0.00    -0.107 A 
ATOM      5  C4  BZF d   1       0.047   0.356   1.703  0.00  0.00     0.055 A 
ATOM      6  C5  BZF d   1      -0.349   1.561   2.191  0.00  0.00    -0.016 A 
ATOM      7  C6  BZF d   1      -0.634   2.624   1.358  0.00  0.00     0.022 A 
ATOM      8  C7  BZF d   1      -0.542   2.507   0.011  0.00  0.00     0.029 A 
ATOM      9  C7A BZF d   1      -0.174   1.281  -0.486  0.00  0.00     0.058 A 
ENDROOT
TORSDOF 0
ENDMDL
