MODEL 1
REMARK minimizedAffinity -1.09395826
REMARK minimizedRMSD -1
REMARK  0 active torsions:
REMARK  status: ('A' for Active; 'I' for Inactive)
ROOT
ATOM      1  O1  BZF d   1      -0.813  -0.691  -1.363  0.00  0.00    -0.204 OA
ATOM      2  C2  BZF d   1       0.283  -0.166  -0.706  0.00  0.00     0.174 A 
ATOM      3  C3  BZF d   1       1.096  -1.149  -0.270  0.00  0.00    -0.012 A 
ATOM      4  C3A BZF d   1       0.517  -2.362  -0.761  0.00  0.00    -0.107 A 
ATOM      5  C4  BZF d   1       0.874  -3.677  -0.670  0.00  0.00     0.055 A 
ATOM      6  C5  BZF d   1       0.052  -4.622  -1.198  0.00  0.00    -0.016 A 
ATOM      7  C6  BZF d   1      -1.135  -4.289  -1.818  0.00  0.00     0.022 A 
ATOM      8  C7  BZF d   1      -1.528  -2.997  -1.936  0.00  0.00     0.029 A 
ATOM      9  C7A BZF d   1      -0.684  -2.038  -1.433  0.00  0.00     0.058 A 
ENDROOT
TORSDOF 0
ENDMDL
