MODEL 1
REMARK minimizedAffinity -3.08988667
REMARK minimizedRMSD -1
REMARK  0 active torsions:
REMARK  status: ('A' for Active; 'I' for Inactive)
ROOT
ATOM      1  O1  BZF d   1      -0.442   2.049  -1.453  0.00  0.00    -0.204 OA
ATOM      2  C2  BZF d   1      -0.091   1.209  -2.492  0.00  0.00     0.174 A 
ATOM      3  C3  BZF d   1       0.424   0.055  -2.021  0.00  0.00    -0.012 A 
ATOM      4  C3A BZF d   1       0.307   0.144  -0.598  0.00  0.00    -0.107 A 
ATOM      5  C4  BZF d   1       0.632  -0.700   0.426  0.00  0.00     0.055 A 
ATOM      6  C5  BZF d   1       0.457  -0.282   1.707  0.00  0.00    -0.016 A 
ATOM      7  C6  BZF d   1      -0.035   0.973   2.001  0.00  0.00     0.022 A 
ATOM      8  C7  BZF d   1      -0.375   1.844   1.019  0.00  0.00     0.029 A 
ATOM      9  C7A BZF d   1      -0.231   1.412  -0.276  0.00  0.00     0.058 A 
ENDROOT
TORSDOF 0
ENDMDL
