MODEL 1
REMARK minimizedAffinity -6.3299222
REMARK minimizedRMSD -1
REMARK  0 active torsions:
REMARK  status: ('A' for Active; 'I' for Inactive)
ROOT
ATOM      1  O1  BZF d   1       0.130   0.172  -0.673  0.00  0.00    -0.204 OA
ATOM      2  C2  BZF d   1       0.385  -0.455   0.532  0.00  0.00     0.174 A 
ATOM      3  C3  BZF d   1       0.226   0.402   1.560  0.00  0.00    -0.012 A 
ATOM      4  C3A BZF d   1      -0.241   1.618   0.968  0.00  0.00    -0.107 A 
ATOM      5  C4  BZF d   1      -0.593   2.836   1.477  0.00  0.00     0.055 A 
ATOM      6  C5  BZF d   1      -0.936   3.835   0.622  0.00  0.00    -0.016 A 
ATOM      7  C6  BZF d   1      -0.932   3.653  -0.745  0.00  0.00     0.022 A 
ATOM      8  C7  BZF d   1      -0.594   2.462  -1.297  0.00  0.00     0.029 A 
ATOM      9  C7A BZF d   1      -0.279   1.441  -0.434  0.00  0.00     0.058 A 
ENDROOT
TORSDOF 0
ENDMDL
