MODEL 1
REMARK minimizedAffinity -4.82806015
REMARK minimizedRMSD -1
REMARK  0 active torsions:
REMARK  status: ('A' for Active; 'I' for Inactive)
ROOT
ATOM      1  O1  BZF d   1       0.560   1.727  -1.589  0.00  0.00    -0.204 OA
ATOM      2  C2  BZF d   1       0.788   0.365  -1.611  0.00  0.00     0.174 A 
ATOM      3  C3  BZF d   1       0.204  -0.236  -0.555  0.00  0.00    -0.012 A 
ATOM      4  C3A BZF d   1      -0.507   0.804   0.124  0.00  0.00    -0.107 A 
ATOM      5  C4  BZF d   1      -1.296   0.829   1.238  0.00  0.00     0.055 A 
ATOM      6  C5  BZF d   1      -1.781   2.020   1.677  0.00  0.00    -0.016 A 
ATOM      7  C6  BZF d   1      -1.492   3.205   1.031  0.00  0.00     0.022 A 
ATOM      8  C7  BZF d   1      -0.717   3.229  -0.081  0.00  0.00     0.029 A 
ATOM      9  C7A BZF d   1      -0.254   2.023  -0.546  0.00  0.00     0.058 A 
ENDROOT
TORSDOF 0
ENDMDL
