MODEL 1
REMARK minimizedAffinity -6.15918875
REMARK minimizedRMSD -1
REMARK  0 active torsions:
REMARK  status: ('A' for Active; 'I' for Inactive)
ROOT
ATOM      1  O1  BZF d   1       0.704   0.317  -1.084  0.00  0.00    -0.204 OA
ATOM      2  C2  BZF d   1       1.289  -0.526  -0.159  0.00  0.00     0.174 A 
ATOM      3  C3  BZF d   1       0.981  -0.145   1.098  0.00  0.00    -0.012 A 
ATOM      4  C3A BZF d   1       0.077   0.954   0.946  0.00  0.00    -0.107 A 
ATOM      5  C4  BZF d   1      -0.592   1.749   1.833  0.00  0.00     0.055 A 
ATOM      6  C5  BZF d   1      -1.340   2.781   1.361  0.00  0.00    -0.016 A 
ATOM      7  C6  BZF d   1      -1.437   3.050   0.012  0.00  0.00     0.022 A 
ATOM      8  C7  BZF d   1      -0.796   2.286  -0.906  0.00  0.00     0.029 A 
ATOM      9  C7A BZF d   1      -0.066   1.222  -0.435  0.00  0.00     0.058 A 
ENDROOT
TORSDOF 0
ENDMDL
