MODEL 1
REMARK minimizedAffinity 6.00879622
REMARK minimizedRMSD -1
REMARK  0 active torsions:
REMARK  status: ('A' for Active; 'I' for Inactive)
ROOT
ATOM      1  C   UNL d   1      -0.559  -4.775   1.704  0.00  0.00     0.078 C 
ATOM      2  C1  UNL d   1      -1.104  -3.545   1.043  0.00  0.00    -0.077 A 
ATOM      3  C2  UNL d   1      -0.507  -3.021  -0.111  0.00  0.00    -0.001 A 
ATOM      4  C3  UNL d   1      -1.019  -1.869  -0.710  0.00  0.00     0.003 A 
ATOM      5  C4  UNL d   1      -2.130  -1.230  -0.162  0.00  0.00    -0.005 A 
ATOM      6  C5  UNL d   1      -2.729  -1.743   0.987  0.00  0.00     0.003 A 
ATOM      7  C6  UNL d   1      -2.219  -2.894   1.587  0.00  0.00    -0.001 A 
ENDROOT
TORSDOF 0
ENDMDL
