MODEL 1
REMARK minimizedAffinity 6.75576305
REMARK minimizedRMSD -1
REMARK  0 active torsions:
REMARK  status: ('A' for Active; 'I' for Inactive)
ROOT
ATOM      1  C   UNL d   1      -3.369  -0.407   0.926  0.00  0.00     0.078 C 
ATOM      2  C1  UNL d   1      -2.204  -1.325   1.146  0.00  0.00    -0.077 A 
ATOM      3  C2  UNL d   1      -1.560  -1.945   0.068  0.00  0.00    -0.001 A 
ATOM      4  C3  UNL d   1      -0.483  -2.805   0.289  0.00  0.00     0.003 A 
ATOM      5  C4  UNL d   1      -0.041  -3.054   1.587  0.00  0.00    -0.005 A 
ATOM      6  C5  UNL d   1      -0.677  -2.444   2.666  0.00  0.00     0.003 A 
ATOM      7  C6  UNL d   1      -1.754  -1.584   2.447  0.00  0.00    -0.001 A 
ENDROOT
TORSDOF 0
ENDMDL
