MODEL 1
REMARK minimizedAffinity 5.9521513
REMARK minimizedRMSD -1
REMARK  0 active torsions:
REMARK  status: ('A' for Active; 'I' for Inactive)
ROOT
ATOM      1  C   UNL d   1      -1.498  -0.756   3.511  0.00  0.00     0.078 C 
ATOM      2  C1  UNL d   1      -1.513  -1.714   2.358  0.00  0.00    -0.077 A 
ATOM      3  C2  UNL d   1      -2.504  -1.641   1.372  0.00  0.00    -0.001 A 
ATOM      4  C3  UNL d   1      -2.511  -2.546   0.309  0.00  0.00     0.003 A 
ATOM      5  C4  UNL d   1      -1.529  -3.531   0.222  0.00  0.00    -0.005 A 
ATOM      6  C5  UNL d   1      -0.540  -3.613   1.200  0.00  0.00     0.003 A 
ATOM      7  C6  UNL d   1      -0.531  -2.709   2.264  0.00  0.00    -0.001 A 
ENDROOT
TORSDOF 0
ENDMDL
