MODEL 1
REMARK minimizedAffinity 1.86523116
REMARK minimizedRMSD -1
REMARK  0 active torsions:
REMARK  status: ('A' for Active; 'I' for Inactive)
ROOT
ATOM      1  C   UNL d   1      -0.123  -4.523   2.298  0.00  0.00     0.078 C 
ATOM      2  C1  UNL d   1      -0.814  -3.449   1.513  0.00  0.00    -0.077 A 
ATOM      3  C2  UNL d   1      -1.085  -2.199   2.084  0.00  0.00    -0.001 A 
ATOM      4  C3  UNL d   1      -1.738  -1.211   1.345  0.00  0.00     0.003 A 
ATOM      5  C4  UNL d   1      -2.127  -1.464   0.031  0.00  0.00    -0.005 A 
ATOM      6  C5  UNL d   1      -1.864  -2.705  -0.545  0.00  0.00     0.003 A 
ATOM      7  C6  UNL d   1      -1.211  -3.694   0.193  0.00  0.00    -0.001 A 
ENDROOT
TORSDOF 0
ENDMDL
