MODEL 1
REMARK minimizedAffinity -1.2756896
REMARK minimizedRMSD -1
REMARK  0 active torsions:
REMARK  status: ('A' for Active; 'I' for Inactive)
ROOT
ATOM      1  C   UNL d   1      -2.478  -2.039  -1.431  0.00  0.00     0.078 C 
ATOM      2  C1  UNL d   1      -1.790  -2.525  -0.190  0.00  0.00    -0.077 A 
ATOM      3  C2  UNL d   1      -1.373  -1.630   0.802  0.00  0.00    -0.001 A 
ATOM      4  C3  UNL d   1      -0.725  -2.096   1.947  0.00  0.00     0.003 A 
ATOM      5  C4  UNL d   1      -0.487  -3.459   2.110  0.00  0.00    -0.005 A 
ATOM      6  C5  UNL d   1      -0.896  -4.358   1.127  0.00  0.00     0.003 A 
ATOM      7  C6  UNL d   1      -1.544  -3.894  -0.019  0.00  0.00    -0.001 A 
ENDROOT
TORSDOF 0
ENDMDL
