MODEL 1
REMARK minimizedAffinity 1.7811873
REMARK minimizedRMSD -1
REMARK  0 active torsions:
REMARK  status: ('A' for Active; 'I' for Inactive)
ROOT
ATOM      1  C   UNL d   1      -0.665  -2.631   1.641  0.00  0.00     0.078 C 
ATOM      2  C1  UNL d   1      -1.258  -2.436   0.278  0.00  0.00    -0.077 A 
ATOM      3  C2  UNL d   1      -0.907  -3.273  -0.788  0.00  0.00    -0.001 A 
ATOM      4  C3  UNL d   1      -1.460  -3.073  -2.054  0.00  0.00     0.003 A 
ATOM      5  C4  UNL d   1      -2.367  -2.037  -2.266  0.00  0.00    -0.005 A 
ATOM      6  C5  UNL d   1      -2.721  -1.198  -1.212  0.00  0.00     0.003 A 
ATOM      7  C6  UNL d   1      -2.169  -1.395   0.055  0.00  0.00    -0.001 A 
ENDROOT
TORSDOF 0
ENDMDL
