MODEL 1
REMARK minimizedAffinity 0.83991307
REMARK minimizedRMSD -1
REMARK  0 active torsions:
REMARK  status: ('A' for Active; 'I' for Inactive)
ROOT
ATOM      1  C   UNL d   1      -2.179  -2.186  -2.753  0.00  0.00     0.078 C 
ATOM      2  C1  UNL d   1      -1.824  -2.482  -1.327  0.00  0.00    -0.077 A 
ATOM      3  C2  UNL d   1      -2.117  -1.570  -0.306  0.00  0.00    -0.001 A 
ATOM      4  C3  UNL d   1      -1.773  -1.855   1.016  0.00  0.00     0.003 A 
ATOM      5  C4  UNL d   1      -1.132  -3.052   1.330  0.00  0.00    -0.005 A 
ATOM      6  C5  UNL d   1      -0.834  -3.965   0.321  0.00  0.00     0.003 A 
ATOM      7  C6  UNL d   1      -1.178  -3.682  -1.002  0.00  0.00    -0.001 A 
ENDROOT
TORSDOF 0
ENDMDL
