MODEL 1
REMARK minimizedAffinity 9.10449982
REMARK minimizedRMSD -1
REMARK  0 active torsions:
REMARK  status: ('A' for Active; 'I' for Inactive)
ROOT
ATOM      1  C   UNL d   1      -1.972  -2.335   1.698  0.00  0.00     0.078 C 
ATOM      2  C1  UNL d   1      -3.376  -1.920   1.374  0.00  0.00    -0.077 A 
ATOM      3  C2  UNL d   1      -4.470  -2.687   1.793  0.00  0.00    -0.001 A 
ATOM      4  C3  UNL d   1      -5.771  -2.293   1.475  0.00  0.00     0.003 A 
ATOM      5  C4  UNL d   1      -5.990  -1.132   0.737  0.00  0.00    -0.005 A 
ATOM      6  C5  UNL d   1      -4.907  -0.363   0.314  0.00  0.00     0.003 A 
ATOM      7  C6  UNL d   1      -3.605  -0.755   0.630  0.00  0.00    -0.001 A 
ENDROOT
TORSDOF 0
ENDMDL
