MODEL 1
REMARK minimizedAffinity 3.21626163
REMARK minimizedRMSD -1
REMARK  0 active torsions:
REMARK  status: ('A' for Active; 'I' for Inactive)
ROOT
ATOM      1  C   UNL d   1      -1.921  -1.863   4.319  0.00  0.00     0.078 C 
ATOM      2  C1  UNL d   1      -1.602  -2.162   2.885  0.00  0.00    -0.077 A 
ATOM      3  C2  UNL d   1      -0.974  -3.359   2.520  0.00  0.00    -0.001 A 
ATOM      4  C3  UNL d   1      -0.674  -3.620   1.182  0.00  0.00     0.003 A 
ATOM      5  C4  UNL d   1      -0.997  -2.688   0.198  0.00  0.00    -0.005 A 
ATOM      6  C5  UNL d   1      -1.620  -1.492   0.552  0.00  0.00     0.003 A 
ATOM      7  C6  UNL d   1      -1.920  -1.230   1.889  0.00  0.00    -0.001 A 
ENDROOT
TORSDOF 0
ENDMDL
