MODEL 1
REMARK minimizedAffinity 1.49468327
REMARK minimizedRMSD -1
REMARK  0 active torsions:
REMARK  status: ('A' for Active; 'I' for Inactive)
ROOT
ATOM      1  C   UNL d   1      -2.643  -5.996   1.502  0.00  0.00     0.078 C 
ATOM      2  C1  UNL d   1      -2.282  -4.648   0.954  0.00  0.00    -0.077 A 
ATOM      3  C2  UNL d   1      -3.055  -3.518   1.250  0.00  0.00    -0.001 A 
ATOM      4  C3  UNL d   1      -2.713  -2.271   0.725  0.00  0.00     0.003 A 
ATOM      5  C4  UNL d   1      -1.599  -2.142  -0.102  0.00  0.00    -0.005 A 
ATOM      6  C5  UNL d   1      -0.825  -3.261  -0.404  0.00  0.00     0.003 A 
ATOM      7  C6  UNL d   1      -1.166  -4.509   0.120  0.00  0.00    -0.001 A 
ENDROOT
TORSDOF 0
ENDMDL
