MODEL 1
REMARK minimizedAffinity 1.67524636
REMARK minimizedRMSD -1
REMARK  0 active torsions:
REMARK  status: ('A' for Active; 'I' for Inactive)
ROOT
ATOM      1  C   UNL d   1      -1.936  -2.336  -2.069  0.00  0.00     0.078 C 
ATOM      2  C1  UNL d   1      -1.843  -2.398  -0.574  0.00  0.00    -0.077 A 
ATOM      3  C2  UNL d   1      -2.642  -1.579   0.233  0.00  0.00    -0.001 A 
ATOM      4  C3  UNL d   1      -2.538  -1.641   1.624  0.00  0.00     0.003 A 
ATOM      5  C4  UNL d   1      -1.636  -2.520   2.219  0.00  0.00    -0.005 A 
ATOM      6  C5  UNL d   1      -0.835  -3.337   1.424  0.00  0.00     0.003 A 
ATOM      7  C6  UNL d   1      -0.937  -3.277   0.034  0.00  0.00    -0.001 A 
ENDROOT
TORSDOF 0
ENDMDL
