MODEL 1
REMARK minimizedAffinity 1.50855339
REMARK minimizedRMSD -1
REMARK  0 active torsions:
REMARK  status: ('A' for Active; 'I' for Inactive)
ROOT
ATOM      1  C   UNL d   1      -0.881  -5.911   2.624  0.00  0.00     0.078 C 
ATOM      2  C1  UNL d   1      -1.037  -4.551   2.011  0.00  0.00    -0.077 A 
ATOM      3  C2  UNL d   1      -1.356  -3.437   2.797  0.00  0.00    -0.001 A 
ATOM      4  C3  UNL d   1      -1.508  -2.180   2.211  0.00  0.00     0.003 A 
ATOM      5  C4  UNL d   1      -1.343  -2.024   0.836  0.00  0.00    -0.005 A 
ATOM      6  C5  UNL d   1      -1.028  -3.127   0.045  0.00  0.00     0.003 A 
ATOM      7  C6  UNL d   1      -0.876  -4.386   0.629  0.00  0.00    -0.001 A 
ENDROOT
TORSDOF 0
ENDMDL
