MODEL 1
REMARK minimizedAffinity 7.04541254
REMARK minimizedRMSD -1
REMARK  0 active torsions:
REMARK  status: ('A' for Active; 'I' for Inactive)
ROOT
ATOM      1  C   UNL d   1      -1.789   1.184   1.812  0.00  0.00     0.078 C 
ATOM      2  C1  UNL d   1      -1.459  -0.279   1.837  0.00  0.00    -0.077 A 
ATOM      3  C2  UNL d   1      -1.189  -0.978   0.655  0.00  0.00    -0.001 A 
ATOM      4  C3  UNL d   1      -0.894  -2.341   0.692  0.00  0.00     0.003 A 
ATOM      5  C4  UNL d   1      -0.866  -3.018   1.910  0.00  0.00    -0.005 A 
ATOM      6  C5  UNL d   1      -1.135  -2.331   3.092  0.00  0.00     0.003 A 
ATOM      7  C6  UNL d   1      -1.431  -0.968   3.056  0.00  0.00    -0.001 A 
ENDROOT
TORSDOF 0
ENDMDL
