MODEL 1
REMARK minimizedAffinity 11.1119442
REMARK minimizedRMSD -1
REMARK  0 active torsions:
REMARK  status: ('A' for Active; 'I' for Inactive)
ROOT
ATOM      1  C   UNL d   1       2.269  -0.371  -1.961  0.00  0.00     0.078 C 
ATOM      2  C1  UNL d   1       3.567  -0.198  -2.691  0.00  0.00    -0.077 A 
ATOM      3  C2  UNL d   1       4.372  -1.300  -3.002  0.00  0.00    -0.001 A 
ATOM      4  C3  UNL d   1       5.583  -1.123  -3.673  0.00  0.00     0.003 A 
ATOM      5  C4  UNL d   1       6.000   0.156  -4.038  0.00  0.00    -0.005 A 
ATOM      6  C5  UNL d   1       5.206   1.259  -3.731  0.00  0.00     0.003 A 
ATOM      7  C6  UNL d   1       3.995   1.084  -3.060  0.00  0.00    -0.001 A 
ENDROOT
TORSDOF 0
ENDMDL
