MODEL 1
REMARK minimizedAffinity 9.75482464
REMARK minimizedRMSD -1
REMARK  0 active torsions:
REMARK  status: ('A' for Active; 'I' for Inactive)
ROOT
ATOM      1  C   UNL d   1      -3.320   2.516  -4.156  0.00  0.00     0.078 C 
ATOM      2  C1  UNL d   1      -4.188   3.646  -4.624  0.00  0.00    -0.077 A 
ATOM      3  C2  UNL d   1      -5.202   3.434  -5.566  0.00  0.00    -0.001 A 
ATOM      4  C3  UNL d   1      -5.996   4.496  -6.000  0.00  0.00     0.003 A 
ATOM      5  C4  UNL d   1      -5.784   5.779  -5.498  0.00  0.00    -0.005 A 
ATOM      6  C5  UNL d   1      -4.776   6.000  -4.561  0.00  0.00     0.003 A 
ATOM      7  C6  UNL d   1      -3.981   4.938  -4.127  0.00  0.00    -0.001 A 
ENDROOT
TORSDOF 0
ENDMDL
