MODEL 1
REMARK minimizedAffinity 6.22161627
REMARK minimizedRMSD -1
REMARK  0 active torsions:
REMARK  status: ('A' for Active; 'I' for Inactive)
ROOT
ATOM      1  C   UNL d   1      -1.385  -0.076   3.969  0.00  0.00     0.078 C 
ATOM      2  C1  UNL d   1      -1.171  -1.163   2.959  0.00  0.00    -0.077 A 
ATOM      3  C2  UNL d   1      -0.826  -2.460   3.357  0.00  0.00    -0.001 A 
ATOM      4  C3  UNL d   1      -0.621  -3.460   2.405  0.00  0.00     0.003 A 
ATOM      5  C4  UNL d   1      -0.758  -3.173   1.049  0.00  0.00    -0.005 A 
ATOM      6  C5  UNL d   1      -1.099  -1.885   0.643  0.00  0.00     0.003 A 
ATOM      7  C6  UNL d   1      -1.305  -0.884   1.593  0.00  0.00    -0.001 A 
ENDROOT
TORSDOF 0
ENDMDL
