MODEL 1
REMARK minimizedAffinity 6.75442123
REMARK minimizedRMSD -1
REMARK  0 active torsions:
REMARK  status: ('A' for Active; 'I' for Inactive)
ROOT
ATOM      1  C   UNL d   1      -1.082  -1.119   3.303  0.00  0.00     0.078 C 
ATOM      2  C1  UNL d   1      -0.966  -1.910   2.033  0.00  0.00    -0.077 A 
ATOM      3  C2  UNL d   1      -1.092  -1.290   0.784  0.00  0.00    -0.001 A 
ATOM      4  C3  UNL d   1      -0.992  -2.040  -0.389  0.00  0.00     0.003 A 
ATOM      5  C4  UNL d   1      -0.766  -3.413  -0.324  0.00  0.00    -0.005 A 
ATOM      6  C5  UNL d   1      -0.641  -4.039   0.914  0.00  0.00     0.003 A 
ATOM      7  C6  UNL d   1      -0.741  -3.291   2.088  0.00  0.00    -0.001 A 
ENDROOT
TORSDOF 0
ENDMDL
