MODEL 1
REMARK minimizedAffinity 1.23776126
REMARK minimizedRMSD -1
REMARK  0 active torsions:
REMARK  status: ('A' for Active; 'I' for Inactive)
ROOT
ATOM      1  C   UNL d   1      -2.766  -1.771   5.928  0.00  0.00     0.078 C 
ATOM      2  C1  UNL d   1      -3.518  -0.473   5.946  0.00  0.00    -0.077 A 
ATOM      3  C2  UNL d   1      -2.842   0.752   5.972  0.00  0.00    -0.001 A 
ATOM      4  C3  UNL d   1      -3.554   1.952   5.998  0.00  0.00     0.003 A 
ATOM      5  C4  UNL d   1      -4.948   1.938   5.999  0.00  0.00    -0.005 A 
ATOM      6  C5  UNL d   1      -5.630   0.723   5.975  0.00  0.00     0.003 A 
ATOM      7  C6  UNL d   1      -4.919  -0.477   5.949  0.00  0.00    -0.001 A 
ENDROOT
TORSDOF 0
ENDMDL
