MODEL 1
REMARK minimizedAffinity -3.16400075
REMARK minimizedRMSD -1
REMARK  2 active torsions:
REMARK  status: ('A' for Active; 'I' for Inactive)
REMARK    1  A    between atoms: C1_2  and  C2_3 
REMARK    2  A    between atoms: C2_3  and  C3_4 
ROOT
ATOM      1  C3  UNL d   1      -0.066   0.567  -0.482  0.00  0.00    -0.075 A 
ATOM      2  C4  UNL d   1       0.255  -0.721  -0.937  0.00  0.00     0.002 A 
ATOM      3  C5  UNL d   1      -0.337  -1.844  -0.358  0.00  0.00     0.002 A 
ATOM      4  C6  UNL d   1      -1.246  -1.696   0.686  0.00  0.00    -0.004 A 
ATOM      5  C7  UNL d   1      -1.560  -0.423   1.157  0.00  0.00     0.002 A 
ATOM      6  C8  UNL d   1      -0.972   0.703   0.578  0.00  0.00     0.002 A 
ENDROOT
BRANCH   1   7
ATOM      7  C2  UNL d   1       0.549   1.788  -1.123  0.00  0.00     0.056 C 
BRANCH   7   8
ATOM      8  C1  UNL d   1       1.043   2.837  -0.121  0.00  0.00     0.007 C 
ATOM      9  C   UNL d   1       2.355   3.491  -0.535  0.00  0.00     0.009 C 
ENDBRANCH   7   8
ENDBRANCH   1   7
TORSDOF 2
ENDMDL
