MODEL 1
REMARK minimizedAffinity -5.6776185
REMARK minimizedRMSD -1
REMARK  2 active torsions:
REMARK  status: ('A' for Active; 'I' for Inactive)
REMARK    1  A    between atoms: C1_2  and  C2_3 
REMARK    2  A    between atoms: C2_3  and  C3_4 
ROOT
ATOM      1  C3  UNL d   1       0.757  -1.128  -0.304  0.00  0.00    -0.075 A 
ATOM      2  C4  UNL d   1       0.277  -0.008   0.389  0.00  0.00     0.002 A 
ATOM      3  C5  UNL d   1      -0.265   1.075  -0.303  0.00  0.00     0.002 A 
ATOM      4  C6  UNL d   1      -0.324   1.056  -1.695  0.00  0.00    -0.004 A 
ATOM      5  C7  UNL d   1       0.165  -0.045  -2.395  0.00  0.00     0.002 A 
ATOM      6  C8  UNL d   1       0.703  -1.132  -1.704  0.00  0.00     0.002 A 
ENDROOT
BRANCH   1   7
ATOM      7  C2  UNL d   1       1.318  -2.316   0.441  0.00  0.00     0.056 C 
BRANCH   7   8
ATOM      8  C1  UNL d   1       0.306  -3.445   0.667  0.00  0.00     0.007 C 
ATOM      9  C   UNL d   1      -1.129  -2.950   0.788  0.00  0.00     0.009 C 
ENDBRANCH   7   8
ENDBRANCH   1   7
TORSDOF 2
ENDMDL
