MODEL 1
REMARK minimizedAffinity -4.44190598
REMARK minimizedRMSD -1
REMARK  2 active torsions:
REMARK  status: ('A' for Active; 'I' for Inactive)
REMARK    1  A    between atoms: C1_2  and  C2_3 
REMARK    2  A    between atoms: C2_3  and  C3_4 
ROOT
ATOM      1  C3  UNL d   1       0.122  -0.340  -0.198  0.00  0.00    -0.075 A 
ATOM      2  C4  UNL d   1       0.577  -1.461  -0.908  0.00  0.00     0.002 A 
ATOM      3  C5  UNL d   1       0.132  -2.740  -0.574  0.00  0.00     0.002 A 
ATOM      4  C6  UNL d   1      -0.764  -2.916   0.479  0.00  0.00    -0.004 A 
ATOM      5  C7  UNL d   1      -1.209  -1.812   1.202  0.00  0.00     0.002 A 
ATOM      6  C8  UNL d   1      -0.769  -0.530   0.867  0.00  0.00     0.002 A 
ENDROOT
BRANCH   1   7
ATOM      7  C2  UNL d   1       0.577   1.050  -0.573  0.00  0.00     0.056 C 
BRANCH   7   8
ATOM      8  C1  UNL d   1       0.044   2.151   0.349  0.00  0.00     0.007 C 
ATOM      9  C   UNL d   1       0.979   3.348   0.457  0.00  0.00     0.009 C 
ENDBRANCH   7   8
ENDBRANCH   1   7
TORSDOF 2
ENDMDL
