MODEL 1
REMARK minimizedAffinity -3.80121326
REMARK minimizedRMSD -1
REMARK  2 active torsions:
REMARK  status: ('A' for Active; 'I' for Inactive)
REMARK    1  A    between atoms: C1_2  and  C2_3 
REMARK    2  A    between atoms: C2_3  and  C3_4 
ROOT
ATOM      1  C3  UNL d   1      -1.177  -0.456   0.872  0.00  0.00    -0.075 A 
ATOM      2  C4  UNL d   1      -0.989   0.443  -0.187  0.00  0.00     0.002 A 
ATOM      3  C5  UNL d   1      -0.358   0.031  -1.362  0.00  0.00     0.002 A 
ATOM      4  C6  UNL d   1       0.100  -1.278  -1.488  0.00  0.00    -0.004 A 
ATOM      5  C7  UNL d   1      -0.068  -2.175  -0.435  0.00  0.00     0.002 A 
ATOM      6  C8  UNL d   1      -0.702  -1.767   0.740  0.00  0.00     0.002 A 
ENDROOT
BRANCH   1   7
ATOM      7  C2  UNL d   1      -1.885  -0.024   2.135  0.00  0.00     0.056 C 
BRANCH   7   8
ATOM      8  C1  UNL d   1      -2.890   1.114   1.928  0.00  0.00     0.007 C 
ATOM      9  C   UNL d   1      -3.774   1.362   3.144  0.00  0.00     0.009 C 
ENDBRANCH   7   8
ENDBRANCH   1   7
TORSDOF 2
ENDMDL
