MODEL 1
REMARK minimizedAffinity -5.2310276
REMARK minimizedRMSD -1
REMARK  2 active torsions:
REMARK  status: ('A' for Active; 'I' for Inactive)
REMARK    1  A    between atoms: C1_2  and  C2_3 
REMARK    2  A    between atoms: C2_3  and  C3_4 
ROOT
ATOM      1  C3  UNL d   1      -0.193  -0.165   0.075  0.00  0.00    -0.075 A 
ATOM      2  C4  UNL d   1       0.935  -0.893  -0.327  0.00  0.00     0.002 A 
ATOM      3  C5  UNL d   1       0.904  -2.288  -0.359  0.00  0.00     0.002 A 
ATOM      4  C6  UNL d   1      -0.250  -2.970   0.019  0.00  0.00    -0.004 A 
ATOM      5  C7  UNL d   1      -1.372  -2.257   0.437  0.00  0.00     0.002 A 
ATOM      6  C8  UNL d   1      -1.345  -0.862   0.466  0.00  0.00     0.002 A 
ENDROOT
BRANCH   1   7
ATOM      7  C2  UNL d   1      -0.175   1.345   0.084  0.00  0.00     0.056 C 
BRANCH   7   8
ATOM      8  C1  UNL d   1       1.231   1.952   0.052  0.00  0.00     0.007 C 
ATOM      9  C   UNL d   1       1.326   3.287   0.779  0.00  0.00     0.009 C 
ENDBRANCH   7   8
ENDBRANCH   1   7
TORSDOF 2
ENDMDL
