MODEL 1
REMARK minimizedAffinity -5.91158915
REMARK minimizedRMSD -1
REMARK  2 active torsions:
REMARK  status: ('A' for Active; 'I' for Inactive)
REMARK    1  A    between atoms: C1_2  and  C2_3 
REMARK    2  A    between atoms: C2_3  and  C3_4 
ROOT
ATOM      1  C3  UNL d   1       0.024   0.020   0.021  0.00  0.00    -0.075 A 
ATOM      2  C4  UNL d   1      -0.916  -0.532   0.903  0.00  0.00     0.002 A 
ATOM      3  C5  UNL d   1      -1.032  -1.916   1.040  0.00  0.00     0.002 A 
ATOM      4  C6  UNL d   1      -0.219  -2.763   0.292  0.00  0.00    -0.004 A 
ATOM      5  C7  UNL d   1       0.707  -2.226  -0.600  0.00  0.00     0.002 A 
ATOM      6  C8  UNL d   1       0.829  -0.842  -0.736  0.00  0.00     0.002 A 
ENDROOT
BRANCH   1   7
ATOM      7  C2  UNL d   1       0.174   1.517  -0.110  0.00  0.00     0.056 C 
BRANCH   7   8
ATOM      8  C1  UNL d   1       1.583   2.032   0.202  0.00  0.00     0.007 C 
ATOM      9  C   UNL d   1       1.594   3.448   0.762  0.00  0.00     0.009 C 
ENDBRANCH   7   8
ENDBRANCH   1   7
TORSDOF 2
ENDMDL
