MODEL 1
REMARK minimizedAffinity -4.43646908
REMARK minimizedRMSD -1
REMARK  2 active torsions:
REMARK  status: ('A' for Active; 'I' for Inactive)
REMARK    1  A    between atoms: C1_2  and  C2_3 
REMARK    2  A    between atoms: C2_3  and  C3_4 
ROOT
ATOM      1  C3  UNL d   1      -0.095   0.118  -0.225  0.00  0.00    -0.075 A 
ATOM      2  C4  UNL d   1       0.765  -0.882  -0.702  0.00  0.00     0.002 A 
ATOM      3  C5  UNL d   1       0.557  -2.218  -0.357  0.00  0.00     0.002 A 
ATOM      4  C6  UNL d   1      -0.504  -2.570   0.474  0.00  0.00    -0.004 A 
ATOM      5  C7  UNL d   1      -1.354  -1.582   0.967  0.00  0.00     0.002 A 
ATOM      6  C8  UNL d   1      -1.152  -0.245   0.620  0.00  0.00     0.002 A 
ENDROOT
BRANCH   1   7
ATOM      7  C2  UNL d   1       0.106   1.562  -0.618  0.00  0.00     0.056 C 
BRANCH   7   8
ATOM      8  C1  UNL d   1       0.568   2.463   0.532  0.00  0.00     0.007 C 
ATOM      9  C   UNL d   1       1.897   3.153   0.258  0.00  0.00     0.009 C 
ENDBRANCH   7   8
ENDBRANCH   1   7
TORSDOF 2
ENDMDL
