MODEL 1
REMARK minimizedAffinity -4.39109039
REMARK minimizedRMSD -1
REMARK  2 active torsions:
REMARK  status: ('A' for Active; 'I' for Inactive)
REMARK    1  A    between atoms: C1_2  and  C2_3 
REMARK    2  A    between atoms: C2_3  and  C3_4 
ROOT
ATOM      1  C3  UNL d   1      -0.058   0.536   0.086  0.00  0.00    -0.075 A 
ATOM      2  C4  UNL d   1      -0.827   0.204   1.210  0.00  0.00     0.002 A 
ATOM      3  C5  UNL d   1      -1.173  -1.123   1.465  0.00  0.00     0.002 A 
ATOM      4  C6  UNL d   1      -0.764  -2.132   0.595  0.00  0.00    -0.004 A 
ATOM      5  C7  UNL d   1      -0.013  -1.812  -0.533  0.00  0.00     0.002 A 
ATOM      6  C8  UNL d   1       0.338  -0.485  -0.789  0.00  0.00     0.002 A 
ENDROOT
BRANCH   1   7
ATOM      7  C2  UNL d   1       0.345   1.967  -0.180  0.00  0.00     0.056 C 
BRANCH   7   8
ATOM      8  C1  UNL d   1       1.334   2.537   0.843  0.00  0.00     0.007 C 
ATOM      9  C   UNL d   1       0.977   3.944   1.303  0.00  0.00     0.009 C 
ENDBRANCH   7   8
ENDBRANCH   1   7
TORSDOF 2
ENDMDL
