MODEL 1
REMARK minimizedAffinity -3.80587149
REMARK minimizedRMSD -1
REMARK  2 active torsions:
REMARK  status: ('A' for Active; 'I' for Inactive)
REMARK    1  A    between atoms: C1_2  and  C2_3 
REMARK    2  A    between atoms: C2_3  and  C3_4 
ROOT
ATOM      1  C3  UNL d   1       0.450  -1.376  -1.017  0.00  0.00    -0.075 A 
ATOM      2  C4  UNL d   1       1.667  -1.905  -0.565  0.00  0.00     0.002 A 
ATOM      3  C5  UNL d   1       1.687  -3.032   0.258  0.00  0.00     0.002 A 
ATOM      4  C6  UNL d   1       0.494  -3.636   0.646  0.00  0.00    -0.004 A 
ATOM      5  C7  UNL d   1      -0.722  -3.109   0.216  0.00  0.00     0.002 A 
ATOM      6  C8  UNL d   1      -0.745  -1.984  -0.611  0.00  0.00     0.002 A 
ENDROOT
BRANCH   1   7
ATOM      7  C2  UNL d   1       0.423  -0.174  -1.932  0.00  0.00     0.056 C 
BRANCH   7   8
ATOM      8  C1  UNL d   1       0.609   1.164  -1.210  0.00  0.00     0.007 C 
ATOM      9  C   UNL d   1      -0.408   1.394  -0.100  0.00  0.00     0.009 C 
ENDBRANCH   7   8
ENDBRANCH   1   7
TORSDOF 2
ENDMDL
