MODEL 1
REMARK minimizedAffinity 2.31447315
REMARK minimizedRMSD -1
REMARK  0 active torsions:
REMARK  status: ('A' for Active; 'I' for Inactive)
ROOT
ATOM      1  C   UNL d   1       0.354  -4.106  -1.957  0.00  0.00     0.077 C 
ATOM      2  C1  UNL d   1      -0.065  -3.085  -0.942  0.00  0.00    -0.074 A 
ATOM      3  C2  UNL d   1      -1.291  -2.421  -1.053  0.00  0.00    -0.005 A 
ATOM      4  C3  UNL d   1      -1.672  -1.481  -0.095  0.00  0.00     0.006 A 
ATOM      5  C4  UNL d   1      -0.832  -1.196   0.982  0.00  0.00    -0.005 A 
ATOM      6  C5  UNL d   1       0.398  -1.850   1.110  0.00  0.00    -0.074 A 
ATOM      7  C6  UNL d   1       1.308  -1.563   2.267  0.00  0.00     0.077 C 
ATOM      8  C7  UNL d   1       0.770  -2.799   0.148  0.00  0.00    -0.001 A 
ENDROOT
TORSDOF 0
ENDMDL
