MODEL 1
REMARK minimizedAffinity 12.0810833
REMARK minimizedRMSD -1
REMARK  0 active torsions:
REMARK  status: ('A' for Active; 'I' for Inactive)
ROOT
ATOM      1  C   UNL d   1       2.682   1.162   1.213  0.00  0.00     0.077 C 
ATOM      2  C1  UNL d   1       1.927  -0.089   1.551  0.00  0.00    -0.074 A 
ATOM      3  C2  UNL d   1       2.267  -0.853   2.672  0.00  0.00    -0.005 A 
ATOM      4  C3  UNL d   1       1.550  -2.009   2.979  0.00  0.00     0.006 A 
ATOM      5  C4  UNL d   1       0.487  -2.412   2.170  0.00  0.00    -0.005 A 
ATOM      6  C5  UNL d   1       0.132  -1.660   1.045  0.00  0.00    -0.074 A 
ATOM      7  C6  UNL d   1      -1.014  -2.074   0.170  0.00  0.00     0.077 C 
ATOM      8  C7  UNL d   1       0.853  -0.496   0.747  0.00  0.00    -0.001 A 
ENDROOT
TORSDOF 0
ENDMDL
