MODEL 1
REMARK minimizedAffinity 0.762277663
REMARK minimizedRMSD -1
REMARK  0 active torsions:
REMARK  status: ('A' for Active; 'I' for Inactive)
ROOT
ATOM      1  C   UNL d   1       1.590  -1.161   2.598  0.00  0.00     0.077 C 
ATOM      2  C1  UNL d   1       2.372  -2.113   3.454  0.00  0.00    -0.074 A 
ATOM      3  C2  UNL d   1       1.755  -3.218   4.049  0.00  0.00    -0.005 A 
ATOM      4  C3  UNL d   1       2.497  -4.099   4.835  0.00  0.00     0.006 A 
ATOM      5  C4  UNL d   1       3.862  -3.886   5.032  0.00  0.00    -0.005 A 
ATOM      6  C5  UNL d   1       4.496  -2.787   4.444  0.00  0.00    -0.074 A 
ATOM      7  C6  UNL d   1       5.964  -2.549   4.639  0.00  0.00     0.077 C 
ATOM      8  C7  UNL d   1       3.745  -1.910   3.651  0.00  0.00    -0.001 A 
ENDROOT
TORSDOF 0
ENDMDL
