MODEL 1
REMARK minimizedAffinity 1.30984509
REMARK minimizedRMSD -1
REMARK  0 active torsions:
REMARK  status: ('A' for Active; 'I' for Inactive)
ROOT
ATOM      1  C   UNL d   1       1.707  -1.942   4.081  0.00  0.00     0.077 C 
ATOM      2  C1  UNL d   1       1.465  -1.363   2.719  0.00  0.00    -0.074 A 
ATOM      3  C2  UNL d   1       0.551  -1.952   1.840  0.00  0.00    -0.005 A 
ATOM      4  C3  UNL d   1       0.330  -1.396   0.580  0.00  0.00     0.006 A 
ATOM      5  C4  UNL d   1       1.019  -0.248   0.187  0.00  0.00    -0.005 A 
ATOM      6  C5  UNL d   1       1.937   0.355   1.053  0.00  0.00    -0.074 A 
ATOM      7  C6  UNL d   1       2.679   1.594   0.650  0.00  0.00     0.077 C 
ATOM      8  C7  UNL d   1       2.148  -0.206   2.320  0.00  0.00    -0.001 A 
ENDROOT
TORSDOF 0
ENDMDL
