MODEL 1
REMARK minimizedAffinity 4.61851358
REMARK minimizedRMSD -1
REMARK  0 active torsions:
REMARK  status: ('A' for Active; 'I' for Inactive)
ROOT
ATOM      1  C   UNL d   1       0.416  -3.666   2.341  0.00  0.00     0.077 C 
ATOM      2  C1  UNL d   1      -0.099  -2.899   1.159  0.00  0.00    -0.074 A 
ATOM      3  C2  UNL d   1      -0.395  -3.547  -0.044  0.00  0.00    -0.005 A 
ATOM      4  C3  UNL d   1      -0.881  -2.822  -1.132  0.00  0.00     0.006 A 
ATOM      5  C4  UNL d   1      -1.076  -1.444  -1.027  0.00  0.00    -0.005 A 
ATOM      6  C5  UNL d   1      -0.787  -0.779   0.168  0.00  0.00    -0.074 A 
ATOM      7  C6  UNL d   1      -1.000   0.699   0.301  0.00  0.00     0.077 C 
ATOM      8  C7  UNL d   1      -0.305  -1.516   1.259  0.00  0.00    -0.001 A 
ENDROOT
TORSDOF 0
ENDMDL
