MODEL 1
REMARK minimizedAffinity -0.187528208
REMARK minimizedRMSD -1
REMARK  0 active torsions:
REMARK  status: ('A' for Active; 'I' for Inactive)
ROOT
ATOM      1  C   UNL d   1       2.421   1.369   0.473  0.00  0.00     0.077 C 
ATOM      2  C1  UNL d   1       2.215   0.984   1.908  0.00  0.00    -0.074 A 
ATOM      3  C2  UNL d   1       2.286   1.941   2.926  0.00  0.00    -0.005 A 
ATOM      4  C3  UNL d   1       2.083   1.570   4.255  0.00  0.00     0.006 A 
ATOM      5  C4  UNL d   1       1.806   0.241   4.579  0.00  0.00    -0.005 A 
ATOM      6  C5  UNL d   1       1.730  -0.729   3.574  0.00  0.00    -0.074 A 
ATOM      7  C6  UNL d   1       1.424  -2.160   3.904  0.00  0.00     0.077 C 
ATOM      8  C7  UNL d   1       1.929  -0.347   2.240  0.00  0.00    -0.001 A 
ENDROOT
TORSDOF 0
ENDMDL
