MODEL 1
REMARK minimizedAffinity 0.041465193
REMARK minimizedRMSD -1
REMARK  0 active torsions:
REMARK  status: ('A' for Active; 'I' for Inactive)
ROOT
ATOM      1  C   UNL d   1       2.394   1.124   1.060  0.00  0.00     0.077 C 
ATOM      2  C1  UNL d   1       2.242   0.468   2.400  0.00  0.00    -0.074 A 
ATOM      3  C2  UNL d   1       2.565   1.152   3.576  0.00  0.00    -0.005 A 
ATOM      4  C3  UNL d   1       2.409   0.532   4.816  0.00  0.00     0.006 A 
ATOM      5  C4  UNL d   1       1.929  -0.776   4.892  0.00  0.00    -0.005 A 
ATOM      6  C5  UNL d   1       1.600  -1.475   3.726  0.00  0.00    -0.074 A 
ATOM      7  C6  UNL d   1       1.073  -2.878   3.791  0.00  0.00     0.077 C 
ATOM      8  C7  UNL d   1       1.752  -0.843   2.485  0.00  0.00    -0.001 A 
ENDROOT
TORSDOF 0
ENDMDL
