MODEL 1
REMARK minimizedAffinity 1.47972739
REMARK minimizedRMSD -1
REMARK  0 active torsions:
REMARK  status: ('A' for Active; 'I' for Inactive)
ROOT
ATOM      1  C   UNL d   1       0.154  -3.149   1.521  0.00  0.00     0.077 C 
ATOM      2  C1  UNL d   1       0.853  -2.607   2.733  0.00  0.00    -0.074 A 
ATOM      3  C2  UNL d   1       1.085  -3.415   3.850  0.00  0.00    -0.005 A 
ATOM      4  C3  UNL d   1       1.744  -2.900   4.966  0.00  0.00     0.006 A 
ATOM      5  C4  UNL d   1       2.178  -1.574   4.976  0.00  0.00    -0.005 A 
ATOM      6  C5  UNL d   1       1.956  -0.751   3.867  0.00  0.00    -0.074 A 
ATOM      7  C6  UNL d   1       2.424   0.674   3.857  0.00  0.00     0.077 C 
ATOM      8  C7  UNL d   1       1.298  -1.278   2.747  0.00  0.00    -0.001 A 
ENDROOT
TORSDOF 0
ENDMDL
