MODEL 1
REMARK minimizedAffinity 0.63624543
REMARK minimizedRMSD -1
REMARK  0 active torsions:
REMARK  status: ('A' for Active; 'I' for Inactive)
ROOT
ATOM      1  C   UNL d   1       1.713  -2.194   4.747  0.00  0.00     0.077 C 
ATOM      2  C1  UNL d   1       1.419  -1.688   3.366  0.00  0.00    -0.074 A 
ATOM      3  C2  UNL d   1       0.472  -2.322   2.555  0.00  0.00    -0.005 A 
ATOM      4  C3  UNL d   1       0.202  -1.835   1.276  0.00  0.00     0.006 A 
ATOM      5  C4  UNL d   1       0.875  -0.711   0.796  0.00  0.00    -0.005 A 
ATOM      6  C5  UNL d   1       1.825  -0.064   1.593  0.00  0.00    -0.074 A 
ATOM      7  C6  UNL d   1       2.550   1.152   1.096  0.00  0.00     0.077 C 
ATOM      8  C7  UNL d   1       2.085  -0.555   2.879  0.00  0.00    -0.001 A 
ENDROOT
TORSDOF 0
ENDMDL
