MODEL 1
REMARK minimizedAffinity 4.71329451
REMARK minimizedRMSD -1
REMARK  0 active torsions:
REMARK  status: ('A' for Active; 'I' for Inactive)
ROOT
ATOM      1  C   UNL d   1       2.517   2.072   1.036  0.00  0.00     0.077 C 
ATOM      2  C1  UNL d   1       1.241   1.386   0.650  0.00  0.00    -0.074 A 
ATOM      3  C2  UNL d   1       0.117   2.123   0.263  0.00  0.00    -0.005 A 
ATOM      4  C3  UNL d   1      -1.060   1.470  -0.103  0.00  0.00     0.006 A 
ATOM      5  C4  UNL d   1      -1.126   0.077  -0.086  0.00  0.00    -0.005 A 
ATOM      6  C5  UNL d   1      -0.012  -0.677   0.298  0.00  0.00    -0.074 A 
ATOM      7  C6  UNL d   1      -0.063  -2.176   0.313  0.00  0.00     0.077 C 
ATOM      8  C7  UNL d   1       1.169  -0.015   0.657  0.00  0.00    -0.001 A 
ENDROOT
TORSDOF 0
ENDMDL
