MODEL 1
REMARK minimizedAffinity -5.9786787
REMARK minimizedRMSD -1
REMARK  0 active torsions:
REMARK  status: ('A' for Active; 'I' for Inactive)
ROOT
ATOM      1  C   UNL d   1       0.314  -0.398   1.159  0.00  0.00     0.078 C 
ATOM      2  C1  UNL d   1      -0.181   0.960   0.760  0.00  0.00    -0.077 A 
ATOM      3  C2  UNL d   1      -0.545   1.907   1.725  0.00  0.00    -0.001 A 
ATOM      4  C3  UNL d   1      -1.013   3.164   1.340  0.00  0.00     0.003 A 
ATOM      5  C4  UNL d   1      -1.123   3.485  -0.012  0.00  0.00    -0.005 A 
ATOM      6  C5  UNL d   1      -0.765   2.549  -0.979  0.00  0.00     0.003 A 
ATOM      7  C6  UNL d   1      -0.297   1.291  -0.596  0.00  0.00    -0.001 A 
ENDROOT
TORSDOF 0
ENDMDL
