MODEL 1
REMARK minimizedAffinity -4.78154612
REMARK minimizedRMSD -1
REMARK  0 active torsions:
REMARK  status: ('A' for Active; 'I' for Inactive)
ROOT
ATOM      1  C   UNL d   1       0.651  -0.660  -0.971  0.00  0.00     0.078 C 
ATOM      2  C1  UNL d   1       0.074   0.287   0.038  0.00  0.00    -0.077 A 
ATOM      3  C2  UNL d   1      -0.899   1.226  -0.327  0.00  0.00    -0.001 A 
ATOM      4  C3  UNL d   1      -1.420   2.108   0.620  0.00  0.00     0.003 A 
ATOM      5  C4  UNL d   1      -0.974   2.061   1.940  0.00  0.00    -0.005 A 
ATOM      6  C5  UNL d   1      -0.004   1.132   2.312  0.00  0.00     0.003 A 
ATOM      7  C6  UNL d   1       0.518   0.249   1.366  0.00  0.00    -0.001 A 
ENDROOT
TORSDOF 0
ENDMDL
