MODEL 1
REMARK minimizedAffinity -2.02184987
REMARK minimizedRMSD -1
REMARK  0 active torsions:
REMARK  status: ('A' for Active; 'I' for Inactive)
ROOT
ATOM      1  C   UNL d   1      -0.064   2.336   2.133  0.00  0.00     0.078 C 
ATOM      2  C1  UNL d   1       0.124   1.379   0.994  0.00  0.00    -0.077 A 
ATOM      3  C2  UNL d   1       0.592   0.078   1.216  0.00  0.00    -0.001 A 
ATOM      4  C3  UNL d   1       0.772  -0.799   0.145  0.00  0.00     0.003 A 
ATOM      5  C4  UNL d   1       0.488  -0.385  -1.154  0.00  0.00    -0.005 A 
ATOM      6  C5  UNL d   1       0.025   0.909  -1.385  0.00  0.00     0.003 A 
ATOM      7  C6  UNL d   1      -0.156   1.788  -0.316  0.00  0.00    -0.001 A 
ENDROOT
TORSDOF 0
ENDMDL
