MODEL 1
REMARK minimizedAffinity 3.17010665
REMARK minimizedRMSD -1
REMARK  0 active torsions:
REMARK  status: ('A' for Active; 'I' for Inactive)
ROOT
ATOM      1  C   UNL d   1       1.812  -3.725  -0.076  0.00  0.00    -0.002 A 
ATOM      2  C1  UNL d   1       2.193  -2.604  -0.800  0.00  0.00     0.010 A 
ATOM      3  C2  UNL d   1       1.720  -1.338  -0.451  0.00  0.00     0.041 A 
ATOM      4  C3  UNL d   1       0.850  -1.216   0.650  0.00  0.00    -0.075 A 
ATOM      5  S   UNL d   1       0.145   0.234   1.262  0.00  0.00     0.015 SA
ATOM      6  C4  UNL d   1      -0.678  -0.600   2.500  0.00  0.00     0.022 A 
ATOM      7  C5  UNL d   1      -0.432  -1.952   2.462  0.00  0.00     0.026 A 
ATOM      8  C6  UNL d   1       0.453  -2.329   1.396  0.00  0.00    -0.082 A 
ATOM      9  C7  UNL d   1       0.949  -3.599   1.016  0.00  0.00     0.045 A 
ENDROOT
TORSDOF 0
ENDMDL
