MODEL 1
REMARK minimizedAffinity -2.91424966
REMARK minimizedRMSD -1
REMARK  0 active torsions:
REMARK  status: ('A' for Active; 'I' for Inactive)
ROOT
ATOM      1  C   UNL d   1      -0.623  -1.939   0.764  0.00  0.00    -0.002 A 
ATOM      2  C1  UNL d   1       0.109  -0.760   0.746  0.00  0.00     0.010 A 
ATOM      3  C2  UNL d   1       1.473  -0.775   0.447  0.00  0.00     0.041 A 
ATOM      4  C3  UNL d   1       2.094  -2.007   0.163  0.00  0.00    -0.075 A 
ATOM      5  S   UNL d   1       3.753  -2.268  -0.231  0.00  0.00     0.015 SA
ATOM      6  C4  UNL d   1       3.528  -3.951  -0.385  0.00  0.00     0.022 A 
ATOM      7  C5  UNL d   1       2.226  -4.322  -0.145  0.00  0.00     0.026 A 
ATOM      8  C6  UNL d   1       1.378  -3.207   0.174  0.00  0.00    -0.082 A 
ATOM      9  C7  UNL d   1      -0.003  -3.159   0.481  0.00  0.00     0.045 A 
ENDROOT
TORSDOF 0
ENDMDL
