MODEL 1
REMARK minimizedAffinity -2.12977719
REMARK minimizedRMSD -1
REMARK  0 active torsions:
REMARK  status: ('A' for Active; 'I' for Inactive)
ROOT
ATOM      1  C   UNL d   1      -0.409  -1.517   1.115  0.00  0.00    -0.002 A 
ATOM      2  C1  UNL d   1       0.328  -0.344   1.033  0.00  0.00     0.010 A 
ATOM      3  C2  UNL d   1       1.694  -0.383   0.744  0.00  0.00     0.041 A 
ATOM      4  C3  UNL d   1       2.311  -1.632   0.536  0.00  0.00    -0.075 A 
ATOM      5  S   UNL d   1       3.970  -1.923   0.168  0.00  0.00     0.015 SA
ATOM      6  C4  UNL d   1       3.739  -3.610   0.112  0.00  0.00     0.022 A 
ATOM      7  C5  UNL d   1       2.434  -3.961   0.365  0.00  0.00     0.026 A 
ATOM      8  C6  UNL d   1       1.589  -2.826   0.613  0.00  0.00    -0.082 A 
ATOM      9  C7  UNL d   1       0.207  -2.754   0.908  0.00  0.00     0.045 A 
ENDROOT
TORSDOF 0
ENDMDL
