MODEL 1
REMARK minimizedAffinity 3.34633207
REMARK minimizedRMSD -1
REMARK  0 active torsions:
REMARK  status: ('A' for Active; 'I' for Inactive)
ROOT
ATOM      1  C   UNL d   1      -0.201  -2.063   0.744  0.00  0.00    -0.002 A 
ATOM      2  C1  UNL d   1       0.586  -0.922   0.820  0.00  0.00     0.010 A 
ATOM      3  C2  UNL d   1       1.967  -0.998   0.628  0.00  0.00     0.041 A 
ATOM      4  C3  UNL d   1       2.549  -2.252   0.355  0.00  0.00    -0.075 A 
ATOM      5  S   UNL d   1       4.219  -2.586   0.084  0.00  0.00     0.015 SA
ATOM      6  C4  UNL d   1       3.926  -4.250  -0.139  0.00  0.00     0.022 A 
ATOM      7  C5  UNL d   1       2.593  -4.561  -0.014  0.00  0.00     0.026 A 
ATOM      8  C6  UNL d   1       1.777  -3.414   0.273  0.00  0.00    -0.082 A 
ATOM      9  C7  UNL d   1       0.380  -3.304   0.472  0.00  0.00     0.045 A 
ENDROOT
TORSDOF 0
ENDMDL
