MODEL 1
REMARK minimizedAffinity -2.05373716
REMARK minimizedRMSD -1
REMARK  0 active torsions:
REMARK  status: ('A' for Active; 'I' for Inactive)
ROOT
ATOM      1  C   UNL d   1      -0.308  -1.165   0.826  0.00  0.00    -0.002 A 
ATOM      2  C1  UNL d   1       0.683  -0.197   0.910  0.00  0.00     0.010 A 
ATOM      3  C2  UNL d   1       2.024  -0.535   0.715  0.00  0.00     0.041 A 
ATOM      4  C3  UNL d   1       2.355  -1.874   0.431  0.00  0.00    -0.075 A 
ATOM      5  S   UNL d   1       3.930  -2.520   0.155  0.00  0.00     0.015 SA
ATOM      6  C4  UNL d   1       3.325  -4.095  -0.081  0.00  0.00     0.022 A 
ATOM      7  C5  UNL d   1       1.956  -4.146   0.045  0.00  0.00     0.026 A 
ATOM      8  C6  UNL d   1       1.375  -2.867   0.341  0.00  0.00    -0.082 A 
ATOM      9  C7  UNL d   1       0.025  -2.493   0.544  0.00  0.00     0.045 A 
ENDROOT
TORSDOF 0
ENDMDL
