MODEL 1
REMARK minimizedAffinity 2.06954503
REMARK minimizedRMSD -1
REMARK  0 active torsions:
REMARK  status: ('A' for Active; 'I' for Inactive)
ROOT
ATOM      1  C   UNL d   1       2.863  -4.517  -0.234  0.00  0.00    -0.002 A 
ATOM      2  C1  UNL d   1       3.984  -3.700  -0.195  0.00  0.00     0.010 A 
ATOM      3  C2  UNL d   1       3.875  -2.361   0.183  0.00  0.00     0.041 A 
ATOM      4  C3  UNL d   1       2.607  -1.851   0.527  0.00  0.00    -0.075 A 
ATOM      5  S   UNL d   1       2.233  -0.242   1.022  0.00  0.00     0.015 SA
ATOM      6  C4  UNL d   1       0.576  -0.601   1.195  0.00  0.00     0.022 A 
ATOM      7  C5  UNL d   1       0.298  -1.912   0.886  0.00  0.00     0.026 A 
ATOM      8  C6  UNL d   1       1.464  -2.654   0.497  0.00  0.00    -0.082 A 
ATOM      9  C7  UNL d   1       1.607  -4.007   0.108  0.00  0.00     0.045 A 
ENDROOT
TORSDOF 0
ENDMDL
