MODEL 1
REMARK minimizedAffinity -2.71418071
REMARK minimizedRMSD -1
REMARK  0 active torsions:
REMARK  status: ('A' for Active; 'I' for Inactive)
ROOT
ATOM      1  C   UNL d   1      -0.723  -1.528   0.612  0.00  0.00    -0.002 A 
ATOM      2  C1  UNL d   1       0.105  -0.428   0.790  0.00  0.00     0.010 A 
ATOM      3  C2  UNL d   1       1.490  -0.554   0.667  0.00  0.00     0.041 A 
ATOM      4  C3  UNL d   1       2.034  -1.816   0.356  0.00  0.00    -0.075 A 
ATOM      5  S   UNL d   1       3.701  -2.208   0.154  0.00  0.00     0.015 SA
ATOM      6  C4  UNL d   1       3.354  -3.844  -0.175  0.00  0.00     0.022 A 
ATOM      7  C5  UNL d   1       2.004  -4.102  -0.136  0.00  0.00     0.026 A 
ATOM      8  C6  UNL d   1       1.221  -2.938   0.170  0.00  0.00    -0.082 A 
ATOM      9  C7  UNL d   1      -0.179  -2.777   0.303  0.00  0.00     0.045 A 
ENDROOT
TORSDOF 0
ENDMDL
