MODEL 1
REMARK minimizedAffinity 4.46151018
REMARK minimizedRMSD -1
REMARK  0 active torsions:
REMARK  status: ('A' for Active; 'I' for Inactive)
ROOT
ATOM      1  C   UNL d   1      -0.501  -0.735   1.058  0.00  0.00    -0.002 A 
ATOM      2  C1  UNL d   1       0.751  -0.242   1.399  0.00  0.00     0.010 A 
ATOM      3  C2  UNL d   1       1.898  -1.008   1.183  0.00  0.00     0.041 A 
ATOM      4  C3  UNL d   1       1.765  -2.289   0.611  0.00  0.00    -0.075 A 
ATOM      5  S   UNL d   1       3.031  -3.404   0.254  0.00  0.00     0.015 SA
ATOM      6  C4  UNL d   1       1.939  -4.560  -0.361  0.00  0.00     0.022 A 
ATOM      7  C5  UNL d   1       0.637  -4.122  -0.302  0.00  0.00     0.026 A 
ATOM      8  C6  UNL d   1       0.516  -2.806   0.258  0.00  0.00    -0.082 A 
ATOM      9  C7  UNL d   1      -0.629  -2.006   0.491  0.00  0.00     0.045 A 
ENDROOT
TORSDOF 0
ENDMDL
