MODEL 1
REMARK minimizedAffinity -1.18826056
REMARK minimizedRMSD -1
REMARK  0 active torsions:
REMARK  status: ('A' for Active; 'I' for Inactive)
ROOT
ATOM      1  C   UNL d   1       3.224   3.640  -3.907  0.00  0.00    -0.002 A 
ATOM      2  C1  UNL d   1       3.403   3.909  -5.257  0.00  0.00     0.010 A 
ATOM      3  C2  UNL d   1       2.438   4.619  -5.974  0.00  0.00     0.041 A 
ATOM      4  C3  UNL d   1       1.280   5.062  -5.304  0.00  0.00    -0.075 A 
ATOM      5  S   UNL d   1      -0.035   5.951  -5.978  0.00  0.00     0.015 SA
ATOM      6  C4  UNL d   1      -0.864   5.996  -4.489  0.00  0.00     0.022 A 
ATOM      7  C5  UNL d   1      -0.169   5.353  -3.492  0.00  0.00     0.026 A 
ATOM      8  C6  UNL d   1       1.078   4.805  -3.945  0.00  0.00    -0.082 A 
ATOM      9  C7  UNL d   1       2.075   4.081  -3.246  0.00  0.00     0.045 A 
ENDROOT
TORSDOF 0
ENDMDL
