MODEL 1
REMARK minimizedAffinity 1.48342502
REMARK minimizedRMSD -1
REMARK  0 active torsions:
REMARK  status: ('A' for Active; 'I' for Inactive)
ROOT
ATOM      1  C   UNL d   1       3.239  -3.533  -0.207  0.00  0.00    -0.002 A 
ATOM      2  C1  UNL d   1       2.130  -4.364  -0.158  0.00  0.00     0.010 A 
ATOM      3  C2  UNL d   1       0.871  -3.851   0.162  0.00  0.00     0.041 A 
ATOM      4  C3  UNL d   1       0.745  -2.474   0.432  0.00  0.00    -0.075 A 
ATOM      5  S   UNL d   1      -0.696  -1.623   0.845  0.00  0.00     0.015 SA
ATOM      6  C4  UNL d   1       0.127  -0.136   0.964  0.00  0.00     0.022 A 
ATOM      7  C5  UNL d   1       1.470  -0.267   0.699  0.00  0.00     0.026 A 
ATOM      8  C6  UNL d   1       1.848  -1.616   0.388  0.00  0.00    -0.082 A 
ATOM      9  C7  UNL d   1       3.111  -2.167   0.061  0.00  0.00     0.045 A 
ENDROOT
TORSDOF 0
ENDMDL
