MODEL 1
REMARK minimizedAffinity 0.557999313
REMARK minimizedRMSD -1
REMARK  0 active torsions:
REMARK  status: ('A' for Active; 'I' for Inactive)
ROOT
ATOM      1  C   UNL d   1      -0.747  -1.352   0.907  0.00  0.00    -0.002 A 
ATOM      2  C1  UNL d   1       0.043  -0.211   0.863  0.00  0.00     0.010 A 
ATOM      3  C2  UNL d   1       1.386  -0.291   0.491  0.00  0.00     0.041 A 
ATOM      4  C3  UNL d   1       1.928  -1.549   0.160  0.00  0.00    -0.075 A 
ATOM      5  S   UNL d   1       3.547  -1.888  -0.325  0.00  0.00     0.015 SA
ATOM      6  C4  UNL d   1       3.229  -3.555  -0.486  0.00  0.00     0.022 A 
ATOM      7  C5  UNL d   1       1.924  -3.863  -0.181  0.00  0.00     0.026 A 
ATOM      8  C6  UNL d   1       1.153  -2.712   0.196  0.00  0.00    -0.082 A 
ATOM      9  C7  UNL d   1      -0.206  -2.597   0.578  0.00  0.00     0.045 A 
ENDROOT
TORSDOF 0
ENDMDL
