MODEL 1
REMARK minimizedAffinity 6.31115961
REMARK minimizedRMSD -1
REMARK  0 active torsions:
REMARK  status: ('A' for Active; 'I' for Inactive)
ROOT
ATOM      1  C   UNL d   1       2.031  -2.001   0.375  0.00  0.00    -0.002 A 
ATOM      2  C1  UNL d   1       2.002  -3.279   0.915  0.00  0.00     0.010 A 
ATOM      3  C2  UNL d   1       1.013  -3.640   1.832  0.00  0.00     0.041 A 
ATOM      4  C3  UNL d   1       0.043  -2.686   2.199  0.00  0.00    -0.075 A 
ATOM      5  S   UNL d   1      -1.263  -2.904   3.303  0.00  0.00     0.015 SA
ATOM      6  C4  UNL d   1      -1.814  -1.306   3.083  0.00  0.00     0.022 A 
ATOM      7  C5  UNL d   1      -1.032  -0.609   2.192  0.00  0.00     0.026 A 
ATOM      8  C6  UNL d   1       0.051  -1.394   1.668  0.00  0.00    -0.082 A 
ATOM      9  C7  UNL d   1       1.067  -1.058   0.741  0.00  0.00     0.045 A 
ENDROOT
TORSDOF 0
ENDMDL
