MODEL 1
REMARK minimizedAffinity 5.3318696
REMARK minimizedRMSD -1
REMARK  0 active torsions:
REMARK  status: ('A' for Active; 'I' for Inactive)
ROOT
ATOM      1  C   UNL d   1       5.996  -1.171  -0.806  0.00  0.00    -0.002 A 
ATOM      2  C1  UNL d   1       5.995  -1.908   0.370  0.00  0.00     0.010 A 
ATOM      3  C2  UNL d   1       5.997  -1.267   1.611  0.00  0.00     0.041 A 
ATOM      4  C3  UNL d   1       5.998   0.141   1.649  0.00  0.00    -0.075 A 
ATOM      5  S   UNL d   1       5.999   1.143   3.053  0.00  0.00     0.015 SA
ATOM      6  C4  UNL d   1       6.000   2.572   2.125  0.00  0.00     0.022 A 
ATOM      7  C5  UNL d   1       6.000   2.310   0.775  0.00  0.00     0.026 A 
ATOM      8  C6  UNL d   1       5.998   0.905   0.479  0.00  0.00    -0.082 A 
ATOM      9  C7  UNL d   1       5.997   0.225  -0.763  0.00  0.00     0.045 A 
ENDROOT
TORSDOF 0
ENDMDL
