MODEL 1
REMARK minimizedAffinity 7.89719391
REMARK minimizedRMSD -1
REMARK  0 active torsions:
REMARK  status: ('A' for Active; 'I' for Inactive)
ROOT
ATOM      1  C   UNL d   1       1.336   2.232   3.342  0.00  0.00    -0.002 A 
ATOM      2  C1  UNL d   1       1.969   2.466   2.129  0.00  0.00     0.010 A 
ATOM      3  C2  UNL d   1       2.231   1.413   1.251  0.00  0.00     0.041 A 
ATOM      4  C3  UNL d   1       1.842   0.109   1.614  0.00  0.00    -0.075 A 
ATOM      5  S   UNL d   1       2.059  -1.335   0.697  0.00  0.00     0.015 SA
ATOM      6  C4  UNL d   1       1.317  -2.296   1.893  0.00  0.00     0.022 A 
ATOM      7  C5  UNL d   1       0.908  -1.550   2.973  0.00  0.00     0.026 A 
ATOM      8  C6  UNL d   1       1.203  -0.152   2.830  0.00  0.00    -0.082 A 
ATOM      9  C7  UNL d   1       0.952   0.937   3.699  0.00  0.00     0.045 A 
ENDROOT
TORSDOF 0
ENDMDL
