MODEL 1
REMARK minimizedAffinity 5.90502357
REMARK minimizedRMSD -1
REMARK  0 active torsions:
REMARK  status: ('A' for Active; 'I' for Inactive)
ROOT
ATOM      1  C   UNL d   1       2.263  -3.627   0.298  0.00  0.00    -0.002 A 
ATOM      2  C1  UNL d   1       2.728  -2.369  -0.056  0.00  0.00     0.010 A 
ATOM      3  C2  UNL d   1       2.225  -1.225   0.566  0.00  0.00     0.041 A 
ATOM      4  C3  UNL d   1       1.238  -1.368   1.561  0.00  0.00    -0.075 A 
ATOM      5  S   UNL d   1       0.476  -0.109   2.459  0.00  0.00     0.015 SA
ATOM      6  C4  UNL d   1      -0.484  -1.211   3.335  0.00  0.00     0.022 A 
ATOM      7  C5  UNL d   1      -0.242  -2.513   2.964  0.00  0.00     0.026 A 
ATOM      8  C6  UNL d   1       0.754  -2.625   1.936  0.00  0.00    -0.082 A 
ATOM      9  C7  UNL d   1       1.284  -3.766   1.286  0.00  0.00     0.045 A 
ENDROOT
TORSDOF 0
ENDMDL
