MODEL 1
REMARK minimizedAffinity 8.26444054
REMARK minimizedRMSD -1
REMARK  0 active torsions:
REMARK  status: ('A' for Active; 'I' for Inactive)
ROOT
ATOM      1  C   UNL d   1       3.167  -3.992   1.588  0.00  0.00    -0.002 A 
ATOM      2  C1  UNL d   1       2.016  -3.219   1.627  0.00  0.00     0.010 A 
ATOM      3  C2  UNL d   1       2.063  -1.858   1.319  0.00  0.00     0.041 A 
ATOM      4  C3  UNL d   1       3.299  -1.282   0.965  0.00  0.00    -0.075 A 
ATOM      5  S   UNL d   1       3.597   0.364   0.547  0.00  0.00     0.015 SA
ATOM      6  C4  UNL d   1       5.260   0.079   0.305  0.00  0.00     0.022 A 
ATOM      7  C5  UNL d   1       5.597  -1.234   0.534  0.00  0.00     0.026 A 
ATOM      8  C6  UNL d   1       4.472  -2.040   0.918  0.00  0.00    -0.082 A 
ATOM      9  C7  UNL d   1       4.391  -3.417   1.237  0.00  0.00     0.045 A 
ENDROOT
TORSDOF 0
ENDMDL
