MODEL 1
REMARK minimizedAffinity -5.22693872
REMARK minimizedRMSD -1
REMARK  1 active torsions:
REMARK  status: ('A' for Active; 'I' for Inactive)
REMARK    1  A    between atoms: C1_2  and  C2_3 
ROOT
ATOM      1  C2  UNL d   1      -0.412   0.790  -1.015  0.00  0.00    -0.081 A 
ATOM      2  C3  UNL d   1       0.437   0.036  -1.834  0.00  0.00     0.006 A 
ATOM      3  C4  UNL d   1       1.125  -1.065  -1.319  0.00  0.00     0.002 A 
ATOM      4  C5  UNL d   1       0.971  -1.434   0.021  0.00  0.00    -0.080 A 
ATOM      5  C6  UNL d   1       1.681  -2.632   0.580  0.00  0.00     0.076 C 
ATOM      6  C7  UNL d   1       0.137  -0.671   0.845  0.00  0.00     0.002 A 
ATOM      7  C8  UNL d   1      -0.552   0.430   0.330  0.00  0.00     0.006 A 
ENDROOT
BRANCH   1   8
ATOM      8  C1  UNL d   1      -1.206   1.938  -1.583  0.00  0.00     0.054 C 
ATOM      9  C   UNL d   1      -2.362   1.441  -2.439  0.00  0.00     0.018 C 
ENDBRANCH   1   8
TORSDOF 1
ENDMDL
