MODEL 1
REMARK minimizedAffinity -4.17842197
REMARK minimizedRMSD -1
REMARK  1 active torsions:
REMARK  status: ('A' for Active; 'I' for Inactive)
REMARK    1  A    between atoms: C1_2  and  C2_3 
ROOT
ATOM      1  C2  UNL d   1       1.133  -0.918   0.487  0.00  0.00    -0.081 A 
ATOM      2  C3  UNL d   1      -0.249  -0.892   0.710  0.00  0.00     0.006 A 
ATOM      3  C4  UNL d   1      -1.046   0.081   0.102  0.00  0.00     0.002 A 
ATOM      4  C5  UNL d   1      -0.476   1.038  -0.744  0.00  0.00    -0.080 A 
ATOM      5  C6  UNL d   1      -1.324   2.070  -1.427  0.00  0.00     0.076 C 
ATOM      6  C7  UNL d   1       0.907   1.023  -0.953  0.00  0.00     0.002 A 
ATOM      7  C8  UNL d   1       1.705   0.051  -0.345  0.00  0.00     0.006 A 
ENDROOT
BRANCH   1   8
ATOM      8  C1  UNL d   1       1.986  -2.005   1.090  0.00  0.00     0.054 C 
ATOM      9  C   UNL d   1       1.245  -3.335   1.123  0.00  0.00     0.018 C 
ENDBRANCH   1   8
TORSDOF 1
ENDMDL
