MODEL 1
REMARK minimizedAffinity -3.4601109
REMARK minimizedRMSD -1
REMARK  1 active torsions:
REMARK  status: ('A' for Active; 'I' for Inactive)
REMARK    1  A    between atoms: C1_2  and  C2_3 
ROOT
ATOM      1  C2  UNL d   1       2.340  -0.790   0.630  0.00  0.00    -0.081 A 
ATOM      2  C3  UNL d   1       1.131  -1.441   0.906  0.00  0.00     0.006 A 
ATOM      3  C4  UNL d   1      -0.045  -1.053   0.262  0.00  0.00     0.002 A 
ATOM      4  C5  UNL d   1      -0.032  -0.014  -0.675  0.00  0.00    -0.080 A 
ATOM      5  C6  UNL d   1      -1.283   0.393  -1.396  0.00  0.00     0.076 C 
ATOM      6  C7  UNL d   1       1.172   0.648  -0.938  0.00  0.00     0.002 A 
ATOM      7  C8  UNL d   1       2.349   0.261  -0.294  0.00  0.00     0.006 A 
ENDROOT
BRANCH   1   8
ATOM      8  C1  UNL d   1       3.623  -1.250   1.275  0.00  0.00     0.054 C 
ATOM      9  C   UNL d   1       4.323  -0.103   1.991  0.00  0.00     0.018 C 
ENDBRANCH   1   8
TORSDOF 1
ENDMDL
