MODEL 1
REMARK minimizedAffinity -3.93134308
REMARK minimizedRMSD -1
REMARK  1 active torsions:
REMARK  status: ('A' for Active; 'I' for Inactive)
REMARK    1  A    between atoms: C1_2  and  C2_3 
ROOT
ATOM      1  C2  UNL d   1      -0.563   0.977  -0.259  0.00  0.00    -0.081 A 
ATOM      2  C3  UNL d   1      -1.001   0.181   0.807  0.00  0.00     0.006 A 
ATOM      3  C4  UNL d   1      -0.165  -0.797   1.350  0.00  0.00     0.002 A 
ATOM      4  C5  UNL d   1       1.124  -0.991   0.843  0.00  0.00    -0.080 A 
ATOM      5  C6  UNL d   1       2.042  -2.017   1.437  0.00  0.00     0.076 C 
ATOM      6  C7  UNL d   1       1.555  -0.208  -0.234  0.00  0.00     0.002 A 
ATOM      7  C8  UNL d   1       0.720   0.770  -0.778  0.00  0.00     0.006 A 
ENDROOT
BRANCH   1   8
ATOM      8  C1  UNL d   1      -1.438   2.076  -0.805  0.00  0.00     0.054 C 
ATOM      9  C   UNL d   1      -1.821   1.811  -2.254  0.00  0.00     0.018 C 
ENDBRANCH   1   8
TORSDOF 1
ENDMDL
