MODEL 1
REMARK minimizedAffinity 2.04787588
REMARK minimizedRMSD -1
REMARK  1 active torsions:
REMARK  status: ('A' for Active; 'I' for Inactive)
REMARK    1  A    between atoms: C1_2  and  C2_3 
ROOT
ATOM      1  C2  UNL d   1       0.646  -0.485   1.118  0.00  0.00    -0.081 A 
ATOM      2  C3  UNL d   1      -0.551  -0.140   1.758  0.00  0.00     0.006 A 
ATOM      3  C4  UNL d   1      -1.733  -0.010   1.025  0.00  0.00     0.002 A 
ATOM      4  C5  UNL d   1      -1.741  -0.231  -0.356  0.00  0.00    -0.080 A 
ATOM      5  C6  UNL d   1      -3.009  -0.125  -1.149  0.00  0.00     0.076 C 
ATOM      6  C7  UNL d   1      -0.541  -0.558  -0.998  0.00  0.00     0.002 A 
ATOM      7  C8  UNL d   1       0.641  -0.687  -0.267  0.00  0.00     0.006 A 
ENDROOT
BRANCH   1   8
ATOM      8  C1  UNL d   1       1.910  -0.688   1.914  0.00  0.00     0.054 C 
ATOM      9  C   UNL d   1       2.236  -2.167   2.065  0.00  0.00     0.018 C 
ENDBRANCH   1   8
TORSDOF 1
ENDMDL
