MODEL 1
REMARK minimizedAffinity -3.85039926
REMARK minimizedRMSD -1
REMARK  1 active torsions:
REMARK  status: ('A' for Active; 'I' for Inactive)
REMARK    1  A    between atoms: C1_2  and  C2_3 
ROOT
ATOM      1  C2  UNL d   1      -0.665   0.735  -1.369  0.00  0.00    -0.081 A 
ATOM      2  C3  UNL d   1      -0.230   1.187  -0.117  0.00  0.00     0.006 A 
ATOM      3  C4  UNL d   1       0.830   0.553   0.535  0.00  0.00     0.002 A 
ATOM      4  C5  UNL d   1       1.477  -0.538  -0.056  0.00  0.00    -0.080 A 
ATOM      5  C6  UNL d   1       2.636  -1.208   0.620  0.00  0.00     0.076 C 
ATOM      6  C7  UNL d   1       1.031  -1.001  -1.299  0.00  0.00     0.002 A 
ATOM      7  C8  UNL d   1      -0.030  -0.367  -1.951  0.00  0.00     0.006 A 
ENDROOT
BRANCH   1   8
ATOM      8  C1  UNL d   1      -1.766   1.456  -2.104  0.00  0.00     0.054 C 
ATOM      9  C   UNL d   1      -1.464   1.556  -3.593  0.00  0.00     0.018 C 
ENDBRANCH   1   8
TORSDOF 1
ENDMDL
