MODEL 1
REMARK minimizedAffinity -4.78502321
REMARK minimizedRMSD -1
REMARK  1 active torsions:
REMARK  status: ('A' for Active; 'I' for Inactive)
REMARK    1  A    between atoms: C1_2  and  C2_3 
ROOT
ATOM      1  C2  UNL d   1       0.489  -0.483  -0.605  0.00  0.00    -0.081 A 
ATOM      2  C3  UNL d   1      -0.209   0.508   0.097  0.00  0.00     0.006 A 
ATOM      3  C4  UNL d   1      -1.098   1.355  -0.568  0.00  0.00     0.002 A 
ATOM      4  C5  UNL d   1      -1.311   1.221  -1.944  0.00  0.00    -0.080 A 
ATOM      5  C6  UNL d   1      -2.285   2.104  -2.665  0.00  0.00     0.076 C 
ATOM      6  C7  UNL d   1      -0.601   0.243  -2.649  0.00  0.00     0.002 A 
ATOM      7  C8  UNL d   1       0.289  -0.604  -1.985  0.00  0.00     0.006 A 
ENDROOT
BRANCH   1   8
ATOM      8  C1  UNL d   1       1.400  -1.440   0.120  0.00  0.00     0.054 C 
ATOM      9  C   UNL d   1       2.718  -0.775   0.492  0.00  0.00     0.018 C 
ENDBRANCH   1   8
TORSDOF 1
ENDMDL
