MODEL 1
REMARK minimizedAffinity -3.85706377
REMARK minimizedRMSD -1
REMARK  1 active torsions:
REMARK  status: ('A' for Active; 'I' for Inactive)
REMARK    1  A    between atoms: C1_2  and  C2_3 
ROOT
ATOM      1  C2  UNL d   1      -0.296   0.864  -0.663  0.00  0.00    -0.081 A 
ATOM      2  C3  UNL d   1      -0.916  -0.104   0.137  0.00  0.00     0.006 A 
ATOM      3  C4  UNL d   1      -0.208  -1.230   0.562  0.00  0.00     0.002 A 
ATOM      4  C5  UNL d   1       1.133  -1.403   0.202  0.00  0.00    -0.080 A 
ATOM      5  C6  UNL d   1       1.913  -2.593   0.678  0.00  0.00     0.076 C 
ATOM      6  C7  UNL d   1       1.747  -0.445  -0.611  0.00  0.00     0.002 A 
ATOM      7  C8  UNL d   1       1.039   0.681  -1.038  0.00  0.00     0.006 A 
ENDROOT
BRANCH   1   8
ATOM      8  C1  UNL d   1      -1.038   2.112  -1.070  0.00  0.00     0.054 C 
ATOM      9  C   UNL d   1      -1.884   1.872  -2.312  0.00  0.00     0.018 C 
ENDBRANCH   1   8
TORSDOF 1
ENDMDL
