MODEL 1
REMARK minimizedAffinity -2.52142239
REMARK minimizedRMSD -1
REMARK  1 active torsions:
REMARK  status: ('A' for Active; 'I' for Inactive)
REMARK    1  A    between atoms: C1_2  and  C2_3 
ROOT
ATOM      1  C2  UNL d   1       0.998  -0.400  -0.301  0.00  0.00    -0.081 A 
ATOM      2  C3  UNL d   1       1.229  -1.478   0.562  0.00  0.00     0.006 A 
ATOM      3  C4  UNL d   1       2.418  -1.561   1.290  0.00  0.00     0.002 A 
ATOM      4  C5  UNL d   1       3.393  -0.564   1.172  0.00  0.00    -0.080 A 
ATOM      5  C6  UNL d   1       4.662  -0.625   1.970  0.00  0.00     0.076 C 
ATOM      6  C7  UNL d   1       3.171   0.504   0.296  0.00  0.00     0.002 A 
ATOM      7  C8  UNL d   1       1.982   0.587  -0.432  0.00  0.00     0.006 A 
ENDROOT
BRANCH   1   8
ATOM      8  C1  UNL d   1      -0.311  -0.275  -1.038  0.00  0.00     0.054 C 
ATOM      9  C   UNL d   1      -0.843   1.150  -0.982  0.00  0.00     0.018 C 
ENDBRANCH   1   8
TORSDOF 1
ENDMDL
