MODEL 1
REMARK minimizedAffinity -2.36112452
REMARK minimizedRMSD -1
REMARK  2 active torsions:
REMARK  status: ('A' for Active; 'I' for Inactive)
REMARK    1  A    between atoms: C1_2  and  C2_3 
REMARK    2  A    between atoms: C2_3  and  C3_4 
ROOT
ATOM      1  C3  UNL d   1      -0.705   0.221  -1.067  0.00  0.00    -0.075 A 
ATOM      2  C4  UNL d   1      -1.400   0.074   0.142  0.00  0.00     0.002 A 
ATOM      3  C5  UNL d   1      -0.771  -0.479   1.258  0.00  0.00     0.002 A 
ATOM      4  C6  UNL d   1       0.555  -0.899   1.177  0.00  0.00    -0.004 A 
ATOM      5  C7  UNL d   1       1.250  -0.773  -0.023  0.00  0.00     0.002 A 
ATOM      6  C8  UNL d   1       0.624  -0.217  -1.141  0.00  0.00     0.002 A 
ENDROOT
BRANCH   1   7
ATOM      7  C2  UNL d   1      -1.371   0.845  -2.270  0.00  0.00     0.056 C 
BRANCH   7   8
ATOM      8  C1  UNL d   1      -1.135   2.353  -2.401  0.00  0.00     0.007 C 
ATOM      9  C   UNL d   1       0.153   2.698  -3.137  0.00  0.00     0.009 C 
ENDBRANCH   7   8
ENDBRANCH   1   7
TORSDOF 2
ENDMDL
