MODEL 1
REMARK minimizedAffinity -2.71554708
REMARK minimizedRMSD -1
REMARK  2 active torsions:
REMARK  status: ('A' for Active; 'I' for Inactive)
REMARK    1  A    between atoms: C1_2  and  C2_3 
REMARK    2  A    between atoms: C2_3  and  C3_4 
ROOT
ATOM      1  C3  UNL d   1      -0.671   0.198  -0.941  0.00  0.00    -0.075 A 
ATOM      2  C4  UNL d   1      -1.495   0.403   0.175  0.00  0.00     0.002 A 
ATOM      3  C5  UNL d   1      -1.082  -0.004   1.444  0.00  0.00     0.002 A 
ATOM      4  C6  UNL d   1       0.152  -0.628   1.612  0.00  0.00    -0.004 A 
ATOM      5  C7  UNL d   1       0.971  -0.852   0.508  0.00  0.00     0.002 A 
ATOM      6  C8  UNL d   1       0.562  -0.443  -0.763  0.00  0.00     0.002 A 
ENDROOT
BRANCH   1   7
ATOM      7  C2  UNL d   1      -1.099   0.662  -2.313  0.00  0.00     0.056 C 
BRANCH   7   8
ATOM      8  C1  UNL d   1      -1.310   2.176  -2.421  0.00  0.00     0.007 C 
ATOM      9  C   UNL d   1      -0.042   2.933  -2.794  0.00  0.00     0.009 C 
ENDBRANCH   7   8
ENDBRANCH   1   7
TORSDOF 2
ENDMDL
