MODEL 1
REMARK minimizedAffinity -3.07749677
REMARK minimizedRMSD -1
REMARK  2 active torsions:
REMARK  status: ('A' for Active; 'I' for Inactive)
REMARK    1  A    between atoms: C1_2  and  C2_3 
REMARK    2  A    between atoms: C2_3  and  C3_4 
ROOT
ATOM      1  C3  UNL d   1       0.124   0.083   0.016  0.00  0.00    -0.075 A 
ATOM      2  C4  UNL d   1      -0.751   0.119   1.111  0.00  0.00     0.002 A 
ATOM      3  C5  UNL d   1      -0.293  -0.185   2.394  0.00  0.00     0.002 A 
ATOM      4  C6  UNL d   1       1.039  -0.537   2.596  0.00  0.00    -0.004 A 
ATOM      5  C7  UNL d   1       1.914  -0.592   1.513  0.00  0.00     0.002 A 
ATOM      6  C8  UNL d   1       1.460  -0.284   0.229  0.00  0.00     0.002 A 
ENDROOT
BRANCH   1   7
ATOM      7  C2  UNL d   1      -0.358   0.439  -1.370  0.00  0.00     0.056 C 
BRANCH   7   8
ATOM      8  C1  UNL d   1       0.170   1.781  -1.888  0.00  0.00     0.007 C 
ATOM      9  C   UNL d   1      -0.934   2.718  -2.362  0.00  0.00     0.009 C 
ENDBRANCH   7   8
ENDBRANCH   1   7
TORSDOF 2
ENDMDL
