MODEL 1
REMARK minimizedAffinity -4.04463863
REMARK minimizedRMSD -1
REMARK  2 active torsions:
REMARK  status: ('A' for Active; 'I' for Inactive)
REMARK    1  A    between atoms: C1_2  and  C2_3 
REMARK    2  A    between atoms: C2_3  and  C3_4 
ROOT
ATOM      1  C3  UNL d   1      -0.255   0.436  -0.841  0.00  0.00    -0.075 A 
ATOM      2  C4  UNL d   1      -1.130   0.300   0.247  0.00  0.00     0.002 A 
ATOM      3  C5  UNL d   1      -0.658  -0.139   1.485  0.00  0.00     0.002 A 
ATOM      4  C6  UNL d   1       0.689  -0.456   1.648  0.00  0.00    -0.004 A 
ATOM      5  C7  UNL d   1       1.564  -0.339   0.570  0.00  0.00     0.002 A 
ATOM      6  C8  UNL d   1       1.095   0.104  -0.669  0.00  0.00     0.002 A 
ENDROOT
BRANCH   1   7
ATOM      7  C2  UNL d   1      -0.754   0.939  -2.174  0.00  0.00     0.056 C 
BRANCH   7   8
ATOM      8  C1  UNL d   1      -0.112   2.256  -2.624  0.00  0.00     0.007 C 
ATOM      9  C   UNL d   1      -1.120   3.382  -2.811  0.00  0.00     0.009 C 
ENDBRANCH   7   8
ENDBRANCH   1   7
TORSDOF 2
ENDMDL
