MODEL 1
REMARK minimizedAffinity -5.22873545
REMARK minimizedRMSD -1
REMARK  2 active torsions:
REMARK  status: ('A' for Active; 'I' for Inactive)
REMARK    1  A    between atoms: C1_2  and  C2_3 
REMARK    2  A    between atoms: C2_3  and  C3_4 
ROOT
ATOM      1  C3  UNL d   1       0.136   0.289  -0.639  0.00  0.00    -0.075 A 
ATOM      2  C4  UNL d   1      -1.111   0.382  -0.003  0.00  0.00     0.002 A 
ATOM      3  C5  UNL d   1      -1.228   0.136   1.365  0.00  0.00     0.002 A 
ATOM      4  C6  UNL d   1      -0.106  -0.216   2.112  0.00  0.00    -0.004 A 
ATOM      5  C7  UNL d   1       1.134  -0.329   1.488  0.00  0.00     0.002 A 
ATOM      6  C8  UNL d   1       1.256  -0.079   0.120  0.00  0.00     0.002 A 
ENDROOT
BRANCH   1   7
ATOM      7  C2  UNL d   1       0.275   0.583  -2.113  0.00  0.00     0.056 C 
BRANCH   7   8
ATOM      8  C1  UNL d   1       0.524   2.060  -2.434  0.00  0.00     0.007 C 
ATOM      9  C   UNL d   1      -0.736   2.805  -2.853  0.00  0.00     0.009 C 
ENDBRANCH   7   8
ENDBRANCH   1   7
TORSDOF 2
ENDMDL
