MODEL 1
REMARK minimizedAffinity 8.39494896
REMARK minimizedRMSD -1
REMARK  0 active torsions:
REMARK  status: ('A' for Active; 'I' for Inactive)
ROOT
ATOM      1  C   UNL d   1      -0.939  -3.354  -5.488  0.00  0.00     0.172 C 
ATOM      2  N   UNL d   1      -0.368  -2.192  -4.848  0.00  0.00    -0.070 N 
ATOM      3  C1  UNL d   1      -0.570  -0.892  -5.227  0.00  0.00    -0.004 A 
ATOM      4  C2  UNL d   1       0.145  -0.086  -4.367  0.00  0.00    -0.047 A 
ATOM      5  C3  UNL d   1       0.800  -0.931  -3.441  0.00  0.00    -0.047 A 
ATOM      6  C4  UNL d   1       0.466  -2.230  -3.762  0.00  0.00    -0.004 A 
ENDROOT
TORSDOF 0
ENDMDL
