MODEL 1
REMARK minimizedAffinity 7.20366096
REMARK minimizedRMSD -1
REMARK  0 active torsions:
REMARK  status: ('A' for Active; 'I' for Inactive)
ROOT
ATOM      1  C   UNL d   1       2.857  -2.206  -4.171  0.00  0.00     0.172 C 
ATOM      2  N   UNL d   1       1.617  -1.837  -4.813  0.00  0.00    -0.070 N 
ATOM      3  C1  UNL d   1       0.832  -2.667  -5.568  0.00  0.00    -0.004 A 
ATOM      4  C2  UNL d   1      -0.257  -1.941  -5.999  0.00  0.00    -0.047 A 
ATOM      5  C3  UNL d   1      -0.122  -0.629  -5.485  0.00  0.00    -0.047 A 
ATOM      6  C4  UNL d   1       1.047  -0.593  -4.754  0.00  0.00    -0.004 A 
ENDROOT
TORSDOF 0
ENDMDL
