MODEL 1
REMARK minimizedAffinity 7.2845993
REMARK minimizedRMSD -1
REMARK  0 active torsions:
REMARK  status: ('A' for Active; 'I' for Inactive)
ROOT
ATOM      1  C   UNL d   1       2.382   0.701   3.448  0.00  0.00     0.172 C 
ATOM      2  N   UNL d   1       1.112   0.357   2.852  0.00  0.00    -0.070 N 
ATOM      3  C1  UNL d   1       0.788  -0.857   2.307  0.00  0.00    -0.004 A 
ATOM      4  C2  UNL d   1      -0.509  -0.781   1.849  0.00  0.00    -0.047 A 
ATOM      5  C3  UNL d   1      -0.981   0.524   2.127  0.00  0.00    -0.047 A 
ATOM      6  C4  UNL d   1       0.043   1.207   2.748  0.00  0.00    -0.004 A 
ENDROOT
TORSDOF 0
ENDMDL
