MODEL 1
REMARK minimizedAffinity 6.88136625
REMARK minimizedRMSD -1
REMARK  0 active torsions:
REMARK  status: ('A' for Active; 'I' for Inactive)
ROOT
ATOM      1  C   UNL d   1      -2.812  -1.545   0.260  0.00  0.00     0.172 C 
ATOM      2  N   UNL d   1      -3.391  -0.224   0.319  0.00  0.00    -0.070 N 
ATOM      3  C1  UNL d   1      -4.215   0.329  -0.625  0.00  0.00    -0.004 A 
ATOM      4  C2  UNL d   1      -4.551   1.597  -0.201  0.00  0.00    -0.047 A 
ATOM      5  C3  UNL d   1      -3.906   1.814   1.040  0.00  0.00    -0.047 A 
ATOM      6  C4  UNL d   1      -3.195   0.670   1.338  0.00  0.00    -0.004 A 
ENDROOT
TORSDOF 0
ENDMDL
