MODEL 1
REMARK minimizedAffinity -0.192325071
REMARK minimizedRMSD -1
REMARK  0 active torsions:
REMARK  status: ('A' for Active; 'I' for Inactive)
ROOT
ATOM      1  C   UNL d   1       3.859  -2.980   5.941  0.00  0.00     0.172 C 
ATOM      2  N   UNL d   1       2.997  -2.361   4.961  0.00  0.00    -0.070 N 
ATOM      3  C1  UNL d   1       3.084  -1.065   4.527  0.00  0.00    -0.004 A 
ATOM      4  C2  UNL d   1       2.088  -0.865   3.596  0.00  0.00    -0.047 A 
ATOM      5  C3  UNL d   1       1.378  -2.082   3.466  0.00  0.00    -0.047 A 
ATOM      6  C4  UNL d   1       1.962  -2.991   4.323  0.00  0.00    -0.004 A 
ENDROOT
TORSDOF 0
ENDMDL
