MODEL 1
REMARK minimizedAffinity 6.51376486
REMARK minimizedRMSD -1
REMARK  0 active torsions:
REMARK  status: ('A' for Active; 'I' for Inactive)
ROOT
ATOM      1  C   UNL d   1       4.137   0.375   4.271  0.00  0.00     0.172 C 
ATOM      2  N   UNL d   1       3.710  -0.983   4.513  0.00  0.00    -0.070 N 
ATOM      3  C1  UNL d   1       2.510  -1.522   4.134  0.00  0.00    -0.004 A 
ATOM      4  C2  UNL d   1       2.488  -2.837   4.549  0.00  0.00    -0.047 A 
ATOM      5  C3  UNL d   1       3.718  -3.096   5.199  0.00  0.00    -0.047 A 
ATOM      6  C4  UNL d   1       4.455  -1.931   5.163  0.00  0.00    -0.004 A 
ENDROOT
TORSDOF 0
ENDMDL
