MODEL 1
REMARK minimizedAffinity 8.91220665
REMARK minimizedRMSD -1
REMARK  0 active torsions:
REMARK  status: ('A' for Active; 'I' for Inactive)
ROOT
ATOM      1  C   UNL d   1      -0.087  -4.648   6.000  0.00  0.00     0.172 C 
ATOM      2  N   UNL d   1       0.751  -3.813   5.172  0.00  0.00    -0.070 N 
ATOM      3  C1  UNL d   1       0.433  -3.353   3.922  0.00  0.00    -0.004 A 
ATOM      4  C2  UNL d   1       1.490  -2.593   3.470  0.00  0.00    -0.047 A 
ATOM      5  C3  UNL d   1       2.478  -2.597   4.484  0.00  0.00    -0.047 A 
ATOM      6  C4  UNL d   1       1.994  -3.359   5.526  0.00  0.00    -0.004 A 
ENDROOT
TORSDOF 0
ENDMDL
