MODEL 1
REMARK minimizedAffinity 8.43324947
REMARK minimizedRMSD -1
REMARK  0 active torsions:
REMARK  status: ('A' for Active; 'I' for Inactive)
ROOT
ATOM      1  C   UNL d   1      -1.499  -2.493  -3.720  0.00  0.00     0.172 C 
ATOM      2  N   UNL d   1      -1.784  -3.811  -4.237  0.00  0.00    -0.070 N 
ATOM      3  C1  UNL d   1      -2.008  -4.122  -5.551  0.00  0.00    -0.004 A 
ATOM      4  C2  UNL d   1      -2.242  -5.477  -5.631  0.00  0.00    -0.047 A 
ATOM      5  C3  UNL d   1      -2.156  -6.000  -4.319  0.00  0.00    -0.047 A 
ATOM      6  C4  UNL d   1      -1.872  -4.947  -3.475  0.00  0.00    -0.004 A 
ENDROOT
TORSDOF 0
ENDMDL
