MODEL 1
REMARK minimizedAffinity -4.25937557
REMARK minimizedRMSD -1
REMARK  0 active torsions:
REMARK  status: ('A' for Active; 'I' for Inactive)
ROOT
ATOM      1  N1  IND d   1       0.650   2.951  -0.750  0.00  0.00    -0.196 N 
ATOM      2  C2  IND d   1       0.123   4.018  -0.078  0.00  0.00     0.054 A 
ATOM      3  C3  IND d   1      -0.523   3.602   1.034  0.00  0.00    -0.031 A 
ATOM      4  C4  IND d   1      -0.754   1.226   1.998  0.00  0.00     0.051 A 
ATOM      5  C5  IND d   1      -0.472  -0.082   1.719  0.00  0.00    -0.031 A 
ATOM      6  C6  IND d   1       0.214  -0.453   0.581  0.00  0.00     0.015 A 
ATOM      7  C7  IND d   1       0.657   0.475  -0.319  0.00  0.00    -0.016 A 
ATOM      8  C8  IND d   1       0.366   1.803  -0.042  0.00  0.00    -0.047 A 
ATOM      9  C9  IND d   1      -0.367   2.183   1.089  0.00  0.00    -0.096 A 
ATOM     10  HN1 IND d   1       1.085   2.989  -1.491  0.00  0.00     0.298 HD
ENDROOT
TORSDOF 0
ENDMDL
