MODEL 1
REMARK minimizedAffinity -4.36932039
REMARK minimizedRMSD -1
REMARK  0 active torsions:
REMARK  status: ('A' for Active; 'I' for Inactive)
ROOT
ATOM      1  N1  IND d   1       0.605   2.685   0.043  0.00  0.00    -0.196 N 
ATOM      2  C2  IND d   1       0.200   3.754   0.793  0.00  0.00     0.054 A 
ATOM      3  C3  IND d   1      -0.511   3.335   1.864  0.00  0.00    -0.031 A 
ATOM      4  C4  IND d   1      -1.044   0.938   2.637  0.00  0.00     0.051 A 
ATOM      5  C5  IND d   1      -0.918  -0.369   2.258  0.00  0.00    -0.031 A 
ATOM      6  C6  IND d   1      -0.262  -0.733   1.100  0.00  0.00     0.015 A 
ATOM      7  C7  IND d   1       0.305   0.201   0.279  0.00  0.00    -0.016 A 
ATOM      8  C8  IND d   1       0.172   1.530   0.657  0.00  0.00    -0.047 A 
ATOM      9  C9  IND d   1      -0.529   1.907   1.809  0.00  0.00    -0.096 A 
ATOM     10  HN1 IND d   1       1.054   2.727  -0.688  0.00  0.00     0.298 HD
ENDROOT
TORSDOF 0
ENDMDL
