MODEL 1
REMARK minimizedAffinity -2.26275587
REMARK minimizedRMSD -1
REMARK  0 active torsions:
REMARK  status: ('A' for Active; 'I' for Inactive)
ROOT
ATOM      1  N1  IND d   1       0.814   0.646  -0.799  0.00  0.00    -0.196 N 
ATOM      2  C2  IND d   1       0.682  -0.597  -0.245  0.00  0.00     0.054 A 
ATOM      3  C3  IND d   1      -0.003  -0.524   0.918  0.00  0.00    -0.031 A 
ATOM      4  C4  IND d   1      -1.090   1.517   2.051  0.00  0.00     0.051 A 
ATOM      5  C5  IND d   1      -1.207   2.874   1.941  0.00  0.00    -0.031 A 
ATOM      6  C6  IND d   1      -0.648   3.572   0.890  0.00  0.00     0.015 A 
ATOM      7  C7  IND d   1       0.043   2.934  -0.101  0.00  0.00    -0.016 A 
ATOM      8  C8  IND d   1       0.170   1.557   0.011  0.00  0.00    -0.047 A 
ATOM      9  C9  IND d   1      -0.359   0.848   1.097  0.00  0.00    -0.096 A 
ATOM     10  HN1 IND d   1       1.229   0.829  -1.529  0.00  0.00     0.298 HD
ENDROOT
TORSDOF 0
ENDMDL
