MODEL 1
REMARK minimizedAffinity -5.26532793
REMARK minimizedRMSD -1
REMARK  0 active torsions:
REMARK  status: ('A' for Active; 'I' for Inactive)
ROOT
ATOM      1  N1  IND d   1       0.711  -0.098  -0.445  0.00  0.00    -0.196 N 
ATOM      2  C2  IND d   1       0.293  -1.001   0.492  0.00  0.00     0.054 A 
ATOM      3  C3  IND d   1      -0.320  -0.365   1.516  0.00  0.00    -0.031 A 
ATOM      4  C4  IND d   1      -0.837   2.139   1.812  0.00  0.00     0.051 A 
ATOM      5  C5  IND d   1      -0.620   3.359   1.237  0.00  0.00    -0.031 A 
ATOM      6  C6  IND d   1       0.065   3.492   0.046  0.00  0.00     0.015 A 
ATOM      7  C7  IND d   1       0.549   2.403  -0.623  0.00  0.00    -0.016 A 
ATOM      8  C8  IND d   1       0.335   1.163  -0.038  0.00  0.00    -0.047 A 
ATOM      9  C9  IND d   1      -0.321   1.026   1.192  0.00  0.00    -0.096 A 
ATOM     10  HN1 IND d   1       1.138  -0.286  -1.168  0.00  0.00     0.298 HD
ENDROOT
TORSDOF 0
ENDMDL
