MODEL 1
REMARK minimizedAffinity 0.374509186
REMARK minimizedRMSD -1
REMARK  0 active torsions:
REMARK  status: ('A' for Active; 'I' for Inactive)
ROOT
ATOM      1  N1  IND d   1      -0.005   2.910   0.873  0.00  0.00    -0.196 N 
ATOM      2  C2  IND d   1      -0.530   3.075   2.124  0.00  0.00     0.054 A 
ATOM      3  C3  IND d   1      -0.766   1.874   2.698  0.00  0.00    -0.031 A 
ATOM      4  C4  IND d   1      -0.271  -0.490   1.806  0.00  0.00     0.051 A 
ATOM      5  C5  IND d   1       0.173  -1.151   0.696  0.00  0.00    -0.031 A 
ATOM      6  C6  IND d   1       0.591  -0.479  -0.435  0.00  0.00     0.015 A 
ATOM      7  C7  IND d   1       0.592   0.886  -0.492  0.00  0.00    -0.016 A 
ATOM      8  C8  IND d   1       0.135   1.561   0.631  0.00  0.00    -0.047 A 
ATOM      9  C9  IND d   1      -0.331   0.883   1.765  0.00  0.00    -0.096 A 
ATOM     10  HN1 IND d   1       0.203   3.542   0.329  0.00  0.00     0.298 HD
ENDROOT
TORSDOF 0
ENDMDL
