MODEL 1
REMARK minimizedAffinity -1.0785116
REMARK minimizedRMSD -1
REMARK  0 active torsions:
REMARK  status: ('A' for Active; 'I' for Inactive)
ROOT
ATOM      1  N1  IND d   1       1.341  -1.697  -2.003  0.00  0.00    -0.196 N 
ATOM      2  C2  IND d   1       0.550  -2.766  -2.319  0.00  0.00     0.054 A 
ATOM      3  C3  IND d   1      -0.391  -2.952  -1.365  0.00  0.00    -0.031 A 
ATOM      4  C4  IND d   1      -0.878  -1.561   0.745  0.00  0.00     0.051 A 
ATOM      5  C5  IND d   1      -0.400  -0.510   1.477  0.00  0.00    -0.031 A 
ATOM      6  C6  IND d   1       0.703   0.215   1.076  0.00  0.00     0.015 A 
ATOM      7  C7  IND d   1       1.366  -0.078  -0.082  0.00  0.00    -0.016 A 
ATOM      8  C8  IND d   1       0.888  -1.148  -0.824  0.00  0.00    -0.047 A 
ATOM      9  C9  IND d   1      -0.206  -1.915  -0.401  0.00  0.00    -0.096 A 
ATOM     10  HN1 IND d   1       2.010  -1.415  -2.464  0.00  0.00     0.298 HD
ENDROOT
TORSDOF 0
ENDMDL
