MODEL 1
REMARK minimizedAffinity -1.62339616
REMARK minimizedRMSD -1
REMARK  0 active torsions:
REMARK  status: ('A' for Active; 'I' for Inactive)
ROOT
ATOM      1  N1  IND d   1       0.597   1.573  -0.927  0.00  0.00    -0.196 N 
ATOM      2  C2  IND d   1       1.367   0.591  -1.484  0.00  0.00     0.054 A 
ATOM      3  C3  IND d   1       1.363  -0.511  -0.701  0.00  0.00    -0.031 A 
ATOM      4  C4  IND d   1       0.083  -0.958   1.488  0.00  0.00     0.051 A 
ATOM      5  C5  IND d   1      -0.721  -0.347   2.409  0.00  0.00    -0.031 A 
ATOM      6  C6  IND d   1      -1.137   0.960   2.261  0.00  0.00     0.015 A 
ATOM      7  C7  IND d   1      -0.772   1.706   1.176  0.00  0.00    -0.016 A 
ATOM      8  C8  IND d   1       0.050   1.091   0.242  0.00  0.00    -0.047 A 
ATOM      9  C9  IND d   1       0.510  -0.221   0.408  0.00  0.00    -0.096 A 
ATOM     10  HN1 IND d   1       0.476   2.360  -1.251  0.00  0.00     0.298 HD
ENDROOT
TORSDOF 0
ENDMDL
