MODEL 1
REMARK minimizedAffinity 0.0692556724
REMARK minimizedRMSD -1
REMARK  0 active torsions:
REMARK  status: ('A' for Active; 'I' for Inactive)
ROOT
ATOM      1  N1  IND d   1      -2.401   1.231   1.993  0.00  0.00    -0.196 N 
ATOM      2  C2  IND d   1      -2.730   0.353   0.997  0.00  0.00     0.054 A 
ATOM      3  C3  IND d   1      -1.757  -0.574   0.848  0.00  0.00    -0.031 A 
ATOM      4  C4  IND d   1       0.411  -0.902   2.197  0.00  0.00     0.051 A 
ATOM      5  C5  IND d   1       1.164  -0.328   3.182  0.00  0.00    -0.031 A 
ATOM      6  C6  IND d   1       0.757   0.817   3.837  0.00  0.00     0.015 A 
ATOM      7  C7  IND d   1      -0.428   1.426   3.537  0.00  0.00    -0.016 A 
ATOM      8  C8  IND d   1      -1.192   0.850   2.531  0.00  0.00    -0.047 A 
ATOM      9  C9  IND d   1      -0.764  -0.287   1.834  0.00  0.00    -0.096 A 
ATOM     10  HN1 IND d   1      -2.871   1.907   2.240  0.00  0.00     0.298 HD
ENDROOT
TORSDOF 0
ENDMDL
