MODEL 1
REMARK minimizedAffinity -3.88729811
REMARK minimizedRMSD -1
REMARK  0 active torsions:
REMARK  status: ('A' for Active; 'I' for Inactive)
ROOT
ATOM      1  N1  IND d   1       1.108  -0.170  -2.295  0.00  0.00    -0.196 N 
ATOM      2  C2  IND d   1       1.528   0.150  -1.034  0.00  0.00     0.054 A 
ATOM      3  C3  IND d   1       1.465  -0.934  -0.229  0.00  0.00    -0.031 A 
ATOM      4  C4  IND d   1       0.798  -3.356  -0.794  0.00  0.00     0.051 A 
ATOM      5  C5  IND d   1       0.303  -4.128  -1.808  0.00  0.00    -0.031 A 
ATOM      6  C6  IND d   1       0.049  -3.610  -3.061  0.00  0.00     0.015 A 
ATOM      7  C7  IND d   1       0.292  -2.298  -3.353  0.00  0.00    -0.016 A 
ATOM      8  C8  IND d   1       0.787  -1.509  -2.324  0.00  0.00    -0.047 A 
ATOM      9  C9  IND d   1       1.007  -2.019  -1.038  0.00  0.00    -0.096 A 
ATOM     10  HN1 IND d   1       1.052   0.375  -2.958  0.00  0.00     0.298 HD
ENDROOT
TORSDOF 0
ENDMDL
