MODEL 1
REMARK minimizedAffinity -2.49845219
REMARK minimizedRMSD -1
REMARK  0 active torsions:
REMARK  status: ('A' for Active; 'I' for Inactive)
ROOT
ATOM      1  N1  IND d   1       1.023  -0.144  -1.021  0.00  0.00    -0.196 N 
ATOM      2  C2  IND d   1       1.063   0.877  -1.930  0.00  0.00     0.054 A 
ATOM      3  C3  IND d   1       0.421   1.964  -1.446  0.00  0.00    -0.031 A 
ATOM      4  C4  IND d   1      -0.679   2.324   0.854  0.00  0.00     0.051 A 
ATOM      5  C5  IND d   1      -0.999   1.668   2.009  0.00  0.00    -0.031 A 
ATOM      6  C6  IND d   1      -0.653   0.348   2.218  0.00  0.00     0.015 A 
ATOM      7  C7  IND d   1       0.040  -0.364   1.281  0.00  0.00    -0.016 A 
ATOM      8  C8  IND d   1       0.361   0.297   0.104  0.00  0.00    -0.047 A 
ATOM      9  C9  IND d   1      -0.025   1.623  -0.132  0.00  0.00    -0.096 A 
ATOM     10  HN1 IND d   1       1.355  -0.929  -1.134  0.00  0.00     0.298 HD
ENDROOT
TORSDOF 0
ENDMDL
