MODEL 1
REMARK minimizedAffinity 4.93980265
REMARK minimizedRMSD -1
REMARK  0 active torsions:
REMARK  status: ('A' for Active; 'I' for Inactive)
ROOT
ATOM      1  N1  IND d   1      -0.083   2.545   1.658  0.00  0.00    -0.196 N 
ATOM      2  C2  IND d   1      -0.548   2.269   2.914  0.00  0.00     0.054 A 
ATOM      3  C3  IND d   1      -0.635   0.933   3.100  0.00  0.00    -0.031 A 
ATOM      4  C4  IND d   1       0.028  -0.986   1.517  0.00  0.00     0.051 A 
ATOM      5  C5  IND d   1       0.467  -1.231   0.246  0.00  0.00    -0.031 A 
ATOM      6  C6  IND d   1       0.754  -0.209  -0.636  0.00  0.00     0.015 A 
ATOM      7  C7  IND d   1       0.622   1.102  -0.274  0.00  0.00    -0.016 A 
ATOM      8  C8  IND d   1       0.170   1.354   1.013  0.00  0.00    -0.047 A 
ATOM      9  C9  IND d   1      -0.164   0.321   1.898  0.00  0.00    -0.096 A 
ATOM     10  HN1 IND d   1       0.032   3.330   1.327  0.00  0.00     0.298 HD
ENDROOT
TORSDOF 0
ENDMDL
