MODEL 1
REMARK minimizedAffinity -3.03070927
REMARK minimizedRMSD -1
REMARK  0 active torsions:
REMARK  status: ('A' for Active; 'I' for Inactive)
ROOT
ATOM      1  N1  IND d   1       0.461   2.734  -0.757  0.00  0.00    -0.196 N 
ATOM      2  C2  IND d   1       0.100   3.796   0.024  0.00  0.00     0.054 A 
ATOM      3  C3  IND d   1      -0.465   3.364   1.174  0.00  0.00    -0.031 A 
ATOM      4  C4  IND d   1      -0.807   0.959   2.026  0.00  0.00     0.051 A 
ATOM      5  C5  IND d   1      -0.670  -0.347   1.648  0.00  0.00    -0.031 A 
ATOM      6  C6  IND d   1      -0.137  -0.700   0.426  0.00  0.00     0.015 A 
ATOM      7  C7  IND d   1       0.293   0.243  -0.464  0.00  0.00    -0.016 A 
ATOM      8  C8  IND d   1       0.150   1.571  -0.086  0.00  0.00    -0.047 A 
ATOM      9  C9  IND d   1      -0.430   1.937   1.135  0.00  0.00    -0.096 A 
ATOM     10  HN1 IND d   1       0.822   2.783  -1.536  0.00  0.00     0.298 HD
ENDROOT
TORSDOF 0
ENDMDL
