MODEL 1
REMARK minimizedAffinity -2.74930191
REMARK minimizedRMSD -1
REMARK  0 active torsions:
REMARK  status: ('A' for Active; 'I' for Inactive)
ROOT
ATOM      1  N1  IND d   1       0.722   0.531  -1.357  0.00  0.00    -0.196 N 
ATOM      2  C2  IND d   1       1.319  -0.695  -1.267  0.00  0.00     0.054 A 
ATOM      3  C3  IND d   1       1.111  -1.232  -0.043  0.00  0.00    -0.031 A 
ATOM      4  C4  IND d   1      -0.268  -0.318   1.930  0.00  0.00     0.051 A 
ATOM      5  C5  IND d   1      -0.970   0.782   2.335  0.00  0.00    -0.031 A 
ATOM      6  C6  IND d   1      -1.151   1.876   1.512  0.00  0.00     0.015 A 
ATOM      7  C7  IND d   1      -0.643   1.905   0.245  0.00  0.00    -0.016 A 
ATOM      8  C8  IND d   1       0.077   0.793  -0.168  0.00  0.00    -0.047 A 
ATOM      9  C9  IND d   1       0.300  -0.302   0.677  0.00  0.00    -0.096 A 
ATOM     10  HN1 IND d   1       0.744   1.051  -2.041  0.00  0.00     0.298 HD
ENDROOT
TORSDOF 0
ENDMDL
