MODEL 1
REMARK minimizedAffinity -4.27472353
REMARK minimizedRMSD -1
REMARK  0 active torsions:
REMARK  status: ('A' for Active; 'I' for Inactive)
ROOT
ATOM      1  N1  IND d   1      -0.025   0.540  -1.508  0.00  0.00    -0.196 N 
ATOM      2  C2  IND d   1       0.590   0.737  -0.303  0.00  0.00     0.054 A 
ATOM      3  C3  IND d   1       1.203  -0.397   0.103  0.00  0.00    -0.031 A 
ATOM      4  C4  IND d   1       1.414  -2.664  -1.100  0.00  0.00     0.051 A 
ATOM      5  C5  IND d   1       0.988  -3.338  -2.210  0.00  0.00    -0.031 A 
ATOM      6  C6  IND d   1       0.189  -2.741  -3.164  0.00  0.00     0.015 A 
ATOM      7  C7  IND d   1      -0.207  -1.438  -3.048  0.00  0.00    -0.016 A 
ATOM      8  C8  IND d   1       0.218  -0.753  -1.918  0.00  0.00    -0.047 A 
ATOM      9  C9  IND d   1       0.994  -1.366  -0.926  0.00  0.00    -0.096 A 
ATOM     10  HN1 IND d   1      -0.486   1.125  -1.938  0.00  0.00     0.298 HD
ENDROOT
TORSDOF 0
ENDMDL
