MODEL 1
REMARK minimizedAffinity 6.10238314
REMARK minimizedRMSD -1
REMARK  0 active torsions:
REMARK  status: ('A' for Active; 'I' for Inactive)
ROOT
ATOM      1  N1  IND d   1      -0.597   0.507  -0.566  0.00  0.00    -0.196 N 
ATOM      2  C2  IND d   1       0.277  -0.383  -1.124  0.00  0.00     0.054 A 
ATOM      3  C3  IND d   1       0.894  -1.104  -0.161  0.00  0.00    -0.031 A 
ATOM      4  C4  IND d   1       0.547  -1.060   2.389  0.00  0.00     0.051 A 
ATOM      5  C5  IND d   1      -0.120  -0.387   3.374  0.00  0.00    -0.031 A 
ATOM      6  C6  IND d   1      -1.000   0.637   3.090  0.00  0.00     0.015 A 
ATOM      7  C7  IND d   1      -1.256   1.021   1.804  0.00  0.00    -0.016 A 
ATOM      8  C8  IND d   1      -0.575   0.345   0.802  0.00  0.00    -0.047 A 
ATOM      9  C9  IND d   1       0.351  -0.667   1.086  0.00  0.00    -0.096 A 
ATOM     10  HN1 IND d   1      -1.080   1.074  -0.996  0.00  0.00     0.298 HD
ENDROOT
TORSDOF 0
ENDMDL
