MODEL 1
REMARK minimizedAffinity -2.21220827
REMARK minimizedRMSD -1
REMARK  0 active torsions:
REMARK  status: ('A' for Active; 'I' for Inactive)
ROOT
ATOM      1  N1  IND d   1       0.381   0.022  -2.570  0.00  0.00    -0.196 N 
ATOM      2  C2  IND d   1       0.890   0.468  -1.382  0.00  0.00     0.054 A 
ATOM      3  C3  IND d   1       1.135  -0.573  -0.555  0.00  0.00    -0.031 A 
ATOM      4  C4  IND d   1       0.872  -3.098  -0.983  0.00  0.00     0.051 A 
ATOM      5  C5  IND d   1       0.409  -3.992  -1.907  0.00  0.00    -0.031 A 
ATOM      6  C6  IND d   1      -0.095  -3.585  -3.125  0.00  0.00     0.015 A 
ATOM      7  C7  IND d   1      -0.144  -2.264  -3.471  0.00  0.00    -0.016 A 
ATOM      8  C8  IND d   1       0.319  -1.354  -2.532  0.00  0.00    -0.047 A 
ATOM      9  C9  IND d   1       0.792  -1.758  -1.277  0.00  0.00    -0.096 A 
ATOM     10  HN1 IND d   1       0.140   0.518  -3.230  0.00  0.00     0.298 HD
ENDROOT
TORSDOF 0
ENDMDL
