MODEL 1
REMARK minimizedAffinity -3.36952257
REMARK minimizedRMSD -1
REMARK  0 active torsions:
REMARK  status: ('A' for Active; 'I' for Inactive)
ROOT
ATOM      1  N1  IND d   1      -0.573  -0.242   0.950  0.00  0.00    -0.196 N 
ATOM      2  C2  IND d   1      -0.889  -0.075   2.269  0.00  0.00     0.054 A 
ATOM      3  C3  IND d   1      -0.880   1.237   2.593  0.00  0.00    -0.031 A 
ATOM      4  C4  IND d   1      -0.475   3.289   1.093  0.00  0.00     0.051 A 
ATOM      5  C5  IND d   1      -0.113   3.640  -0.178  0.00  0.00    -0.031 A 
ATOM      6  C6  IND d   1       0.115   2.696  -1.158  0.00  0.00     0.015 A 
ATOM      7  C7  IND d   1      -0.021   1.361  -0.906  0.00  0.00    -0.016 A 
ATOM      8  C8  IND d   1      -0.381   1.000   0.385  0.00  0.00    -0.047 A 
ATOM      9  C9  IND d   1      -0.573   1.952   1.395  0.00  0.00    -0.096 A 
ATOM     10  HN1 IND d   1      -0.506  -0.995   0.541  0.00  0.00     0.298 HD
ENDROOT
TORSDOF 0
ENDMDL
