MODEL 1
REMARK minimizedAffinity -3.80953979
REMARK minimizedRMSD -1
REMARK  0 active torsions:
REMARK  status: ('A' for Active; 'I' for Inactive)
ROOT
ATOM      1  N1  IND d   1      -0.960  -0.694  -1.900  0.00  0.00    -0.196 N 
ATOM      2  C2  IND d   1      -0.675  -2.022  -2.052  0.00  0.00     0.054 A 
ATOM      3  C3  IND d   1      -0.286  -2.557  -0.872  0.00  0.00    -0.031 A 
ATOM      4  C4  IND d   1      -0.144  -1.462   1.453  0.00  0.00     0.051 A 
ATOM      5  C5  IND d   1      -0.270  -0.257   2.085  0.00  0.00    -0.031 A 
ATOM      6  C6  IND d   1      -0.643   0.886   1.409  0.00  0.00     0.015 A 
ATOM      7  C7  IND d   1      -0.916   0.865   0.070  0.00  0.00    -0.016 A 
ATOM      8  C8  IND d   1      -0.782  -0.355  -0.577  0.00  0.00    -0.047 A 
ATOM      9  C9  IND d   1      -0.362  -1.510   0.096  0.00  0.00    -0.096 A 
ATOM     10  HN1 IND d   1      -1.209  -0.160  -2.526  0.00  0.00     0.298 HD
ENDROOT
TORSDOF 0
ENDMDL
