MODEL 1
REMARK minimizedAffinity 15.6019011
REMARK minimizedRMSD -1
REMARK  2 active torsions:
REMARK  status: ('A' for Active; 'I' for Inactive)
REMARK    1  A    between atoms: C1_2  and  C2_3 
REMARK    2  A    between atoms: C2_3  and  C3_4 
ROOT
ATOM      1  C3  UNL d   1      -3.738   5.989   3.839  0.00  0.00    -0.075 A 
ATOM      2  C4  UNL d   1      -2.482   5.999   3.216  0.00  0.00     0.002 A 
ATOM      3  C5  UNL d   1      -1.313   5.995   3.978  0.00  0.00     0.002 A 
ATOM      4  C6  UNL d   1      -1.385   5.993   5.369  0.00  0.00    -0.004 A 
ATOM      5  C7  UNL d   1      -2.627   6.000   5.999  0.00  0.00     0.002 A 
ATOM      6  C8  UNL d   1      -3.798   5.999   5.239  0.00  0.00     0.002 A 
ENDROOT
BRANCH   1   7
ATOM      7  C2  UNL d   1      -5.006   5.964   3.020  0.00  0.00     0.056 C 
BRANCH   7   8
ATOM      8  C1  UNL d   1      -5.245   4.643   2.281  0.00  0.00     0.007 C 
ATOM      9  C   UNL d   1      -4.681   4.636   0.866  0.00  0.00     0.009 C 
ENDBRANCH   7   8
ENDBRANCH   1   7
TORSDOF 2
ENDMDL
