MODEL 1
REMARK minimizedAffinity 8.06534576
REMARK minimizedRMSD -1
REMARK  2 active torsions:
REMARK  status: ('A' for Active; 'I' for Inactive)
REMARK    1  A    between atoms: C1_2  and  C2_3 
REMARK    2  A    between atoms: C2_3  and  C3_4 
ROOT
ATOM      1  C3  UNL d   1      -2.100   3.665   3.079  0.00  0.00    -0.075 A 
ATOM      2  C4  UNL d   1      -3.049   3.586   2.050  0.00  0.00     0.002 A 
ATOM      3  C5  UNL d   1      -3.422   2.348   1.524  0.00  0.00     0.002 A 
ATOM      4  C6  UNL d   1      -2.844   1.178   2.012  0.00  0.00    -0.004 A 
ATOM      5  C7  UNL d   1      -1.888   1.247   3.023  0.00  0.00     0.002 A 
ATOM      6  C8  UNL d   1      -1.517   2.483   3.554  0.00  0.00     0.002 A 
ENDROOT
BRANCH   1   7
ATOM      7  C2  UNL d   1      -1.715   4.999   3.672  0.00  0.00     0.056 C 
BRANCH   7   8
ATOM      8  C1  UNL d   1      -2.312   5.262   5.059  0.00  0.00     0.007 C 
ATOM      9  C   UNL d   1      -1.354   5.979   6.000  0.00  0.00     0.009 C 
ENDBRANCH   7   8
ENDBRANCH   1   7
TORSDOF 2
ENDMDL
