MODEL 1
REMARK minimizedAffinity 6.46439505
REMARK minimizedRMSD -1
REMARK  2 active torsions:
REMARK  status: ('A' for Active; 'I' for Inactive)
REMARK    1  A    between atoms: C1_2  and  C2_3 
REMARK    2  A    between atoms: C2_3  and  C3_4 
ROOT
ATOM      1  C3  UNL d   1      -2.663   3.054   2.521  0.00  0.00    -0.075 A 
ATOM      2  C4  UNL d   1      -2.726   1.950   3.384  0.00  0.00     0.002 A 
ATOM      3  C5  UNL d   1      -2.718   0.651   2.875  0.00  0.00     0.002 A 
ATOM      4  C6  UNL d   1      -2.657   0.439   1.500  0.00  0.00    -0.004 A 
ATOM      5  C7  UNL d   1      -2.610   1.528   0.632  0.00  0.00     0.002 A 
ATOM      6  C8  UNL d   1      -2.614   2.829   1.139  0.00  0.00     0.002 A 
ENDROOT
BRANCH   1   7
ATOM      7  C2  UNL d   1      -2.641   4.461   3.067  0.00  0.00     0.056 C 
BRANCH   7   8
ATOM      8  C1  UNL d   1      -3.055   4.566   4.538  0.00  0.00     0.007 C 
ATOM      9  C   UNL d   1      -3.073   5.998   5.056  0.00  0.00     0.009 C 
ENDBRANCH   7   8
ENDBRANCH   1   7
TORSDOF 2
ENDMDL
