MODEL 1
REMARK minimizedAffinity 6.71189356
REMARK minimizedRMSD -1
REMARK  2 active torsions:
REMARK  status: ('A' for Active; 'I' for Inactive)
REMARK    1  A    between atoms: C1_2  and  C2_3 
REMARK    2  A    between atoms: C2_3  and  C3_4 
ROOT
ATOM      1  C3  UNL d   1      -3.019   3.108   3.664  0.00  0.00    -0.075 A 
ATOM      2  C4  UNL d   1      -4.149   3.430   2.899  0.00  0.00     0.002 A 
ATOM      3  C5  UNL d   1      -4.879   2.429   2.257  0.00  0.00     0.002 A 
ATOM      4  C6  UNL d   1      -4.484   1.097   2.364  0.00  0.00    -0.004 A 
ATOM      5  C7  UNL d   1      -3.353   0.767   3.108  0.00  0.00     0.002 A 
ATOM      6  C8  UNL d   1      -2.623   1.766   3.754  0.00  0.00     0.002 A 
ENDROOT
BRANCH   1   7
ATOM      7  C2  UNL d   1      -2.241   4.183   4.385  0.00  0.00     0.056 C 
BRANCH   7   8
ATOM      8  C1  UNL d   1      -3.011   5.496   4.563  0.00  0.00     0.007 C 
ATOM      9  C   UNL d   1      -3.015   6.000   6.000  0.00  0.00     0.009 C 
ENDBRANCH   7   8
ENDBRANCH   1   7
TORSDOF 2
ENDMDL
