MODEL 1
REMARK minimizedAffinity 0.747768402
REMARK minimizedRMSD -1
REMARK  2 active torsions:
REMARK  status: ('A' for Active; 'I' for Inactive)
REMARK    1  A    between atoms: C1_2  and  C2_3 
REMARK    2  A    between atoms: C2_3  and  C3_4 
ROOT
ATOM      1  C3  UNL d   1       4.311   5.318  -0.222  0.00  0.00    -0.075 A 
ATOM      2  C4  UNL d   1       3.454   5.865   0.743  0.00  0.00     0.002 A 
ATOM      3  C5  UNL d   1       3.873   5.999   2.068  0.00  0.00     0.002 A 
ATOM      4  C6  UNL d   1       5.146   5.578   2.445  0.00  0.00    -0.004 A 
ATOM      5  C7  UNL d   1       6.000   5.018   1.497  0.00  0.00     0.002 A 
ATOM      6  C8  UNL d   1       5.586   4.887   0.171  0.00  0.00     0.002 A 
ENDROOT
BRANCH   1   7
ATOM      7  C2  UNL d   1       3.876   5.197  -1.663  0.00  0.00     0.056 C 
BRANCH   7   8
ATOM      8  C1  UNL d   1       2.615   5.999  -2.002  0.00  0.00     0.007 C 
ATOM      9  C   UNL d   1       2.253   5.952  -3.481  0.00  0.00     0.009 C 
ENDBRANCH   7   8
ENDBRANCH   1   7
TORSDOF 2
ENDMDL
