MODEL 1
REMARK minimizedAffinity -0.0906235799
REMARK minimizedRMSD -1
REMARK  2 active torsions:
REMARK  status: ('A' for Active; 'I' for Inactive)
REMARK    1  A    between atoms: C1_2  and  C2_3 
REMARK    2  A    between atoms: C2_3  and  C3_4 
ROOT
ATOM      1  C3  UNL d   1      -2.836   4.204   3.964  0.00  0.00    -0.075 A 
ATOM      2  C4  UNL d   1      -1.930   4.521   4.986  0.00  0.00     0.002 A 
ATOM      3  C5  UNL d   1      -2.290   5.411   6.000  0.00  0.00     0.002 A 
ATOM      4  C6  UNL d   1      -3.552   6.000   5.999  0.00  0.00    -0.004 A 
ATOM      5  C7  UNL d   1      -4.454   5.704   4.979  0.00  0.00     0.002 A 
ATOM      6  C8  UNL d   1      -4.099   4.811   3.966  0.00  0.00     0.002 A 
ENDROOT
BRANCH   1   7
ATOM      7  C2  UNL d   1      -2.464   3.220   2.881  0.00  0.00     0.056 C 
BRANCH   7   8
ATOM      8  C1  UNL d   1      -1.849   1.918   3.405  0.00  0.00     0.007 C 
ATOM      9  C   UNL d   1      -2.244   0.695   2.588  0.00  0.00     0.009 C 
ENDBRANCH   7   8
ENDBRANCH   1   7
TORSDOF 2
ENDMDL
