MODEL 1
REMARK minimizedAffinity 8.24986362
REMARK minimizedRMSD -1
REMARK  2 active torsions:
REMARK  status: ('A' for Active; 'I' for Inactive)
REMARK    1  A    between atoms: C1_2  and  C2_3 
REMARK    2  A    between atoms: C2_3  and  C3_4 
ROOT
ATOM      1  C3  UNL d   1      -2.003  -3.207   0.339  0.00  0.00    -0.075 A 
ATOM      2  C4  UNL d   1      -1.992  -3.791  -0.935  0.00  0.00     0.002 A 
ATOM      3  C5  UNL d   1      -1.996  -5.179  -1.078  0.00  0.00     0.002 A 
ATOM      4  C6  UNL d   1      -2.000  -5.998   0.049  0.00  0.00    -0.004 A 
ATOM      5  C7  UNL d   1      -1.995  -5.428   1.320  0.00  0.00     0.002 A 
ATOM      6  C8  UNL d   1      -1.995  -4.040   1.466  0.00  0.00     0.002 A 
ENDROOT
BRANCH   1   7
ATOM      7  C2  UNL d   1      -2.029  -1.705   0.500  0.00  0.00     0.056 C 
BRANCH   7   8
ATOM      8  C1  UNL d   1      -2.583  -1.232   1.849  0.00  0.00     0.007 C 
ATOM      9  C   UNL d   1      -2.096   0.156   2.244  0.00  0.00     0.009 C 
ENDBRANCH   7   8
ENDBRANCH   1   7
TORSDOF 2
ENDMDL
