MODEL 1
REMARK minimizedAffinity 9.25162697
REMARK minimizedRMSD -1
REMARK  2 active torsions:
REMARK  status: ('A' for Active; 'I' for Inactive)
REMARK    1  A    between atoms: C1_2  and  C2_3 
REMARK    2  A    between atoms: C2_3  and  C3_4 
ROOT
ATOM      1  C3  UNL d   1      -2.635   3.155   3.774  0.00  0.00    -0.075 A 
ATOM      2  C4  UNL d   1      -3.473   2.958   2.667  0.00  0.00     0.002 A 
ATOM      3  C5  UNL d   1      -3.891   1.675   2.314  0.00  0.00     0.002 A 
ATOM      4  C6  UNL d   1      -3.468   0.573   3.055  0.00  0.00    -0.004 A 
ATOM      5  C7  UNL d   1      -2.621   0.756   4.146  0.00  0.00     0.002 A 
ATOM      6  C8  UNL d   1      -2.205   2.039   4.504  0.00  0.00     0.002 A 
ENDROOT
BRANCH   1   7
ATOM      7  C2  UNL d   1      -2.203   4.545   4.178  0.00  0.00     0.056 C 
BRANCH   7   8
ATOM      8  C1  UNL d   1      -2.327   4.823   5.680  0.00  0.00     0.007 C 
ATOM      9  C   UNL d   1      -3.243   5.997   6.000  0.00  0.00     0.009 C 
ENDBRANCH   7   8
ENDBRANCH   1   7
TORSDOF 2
ENDMDL
