MODEL 1
REMARK minimizedAffinity 8.87727642
REMARK minimizedRMSD -1
REMARK  2 active torsions:
REMARK  status: ('A' for Active; 'I' for Inactive)
REMARK    1  A    between atoms: C1_2  and  C2_3 
REMARK    2  A    between atoms: C2_3  and  C3_4 
ROOT
ATOM      1  C3  UNL d   1      -1.384   0.504   1.277  0.00  0.00    -0.075 A 
ATOM      2  C4  UNL d   1      -1.351   1.387   2.367  0.00  0.00     0.002 A 
ATOM      3  C5  UNL d   1      -2.162   1.168   3.481  0.00  0.00     0.002 A 
ATOM      4  C6  UNL d   1      -3.022   0.073   3.516  0.00  0.00    -0.004 A 
ATOM      5  C7  UNL d   1      -3.076  -0.801   2.432  0.00  0.00     0.002 A 
ATOM      6  C8  UNL d   1      -2.262  -0.587   1.318  0.00  0.00     0.002 A 
ENDROOT
BRANCH   1   7
ATOM      7  C2  UNL d   1      -0.488   0.719   0.082  0.00  0.00     0.056 C 
BRANCH   7   8
ATOM      8  C1  UNL d   1      -1.224   0.697  -1.262  0.00  0.00     0.007 C 
ATOM      9  C   UNL d   1      -0.861   1.869  -2.164  0.00  0.00     0.009 C 
ENDBRANCH   7   8
ENDBRANCH   1   7
TORSDOF 2
ENDMDL
