MODEL 1
REMARK minimizedAffinity 8.205163
REMARK minimizedRMSD -1
REMARK  2 active torsions:
REMARK  status: ('A' for Active; 'I' for Inactive)
REMARK    1  A    between atoms: C1_2  and  C2_3 
REMARK    2  A    between atoms: C2_3  and  C3_4 
ROOT
ATOM      1  C3  UNL d   1       2.005   3.818  -2.151  0.00  0.00    -0.075 A 
ATOM      2  C4  UNL d   1       1.091   2.882  -2.656  0.00  0.00     0.002 A 
ATOM      3  C5  UNL d   1       1.030   1.594  -2.124  0.00  0.00     0.002 A 
ATOM      4  C6  UNL d   1       1.886   1.222  -1.091  0.00  0.00    -0.004 A 
ATOM      5  C7  UNL d   1       2.810   2.138  -0.593  0.00  0.00     0.002 A 
ATOM      6  C8  UNL d   1       2.870   3.429  -1.120  0.00  0.00     0.002 A 
ENDROOT
BRANCH   1   7
ATOM      7  C2  UNL d   1       2.056   5.223  -2.702  0.00  0.00     0.056 C 
BRANCH   7   8
ATOM      8  C1  UNL d   1       0.743   5.999  -2.555  0.00  0.00     0.007 C 
ATOM      9  C   UNL d   1       0.203   6.000  -1.131  0.00  0.00     0.009 C 
ENDBRANCH   7   8
ENDBRANCH   1   7
TORSDOF 2
ENDMDL
