MODEL 1
REMARK minimizedAffinity 6.56095266
REMARK minimizedRMSD -1
REMARK  2 active torsions:
REMARK  status: ('A' for Active; 'I' for Inactive)
REMARK    1  A    between atoms: C1_2  and  C2_3 
REMARK    2  A    between atoms: C2_3  and  C3_4 
ROOT
ATOM      1  C3  UNL d   1      -3.247   0.020   2.965  0.00  0.00    -0.075 A 
ATOM      2  C4  UNL d   1      -2.793   0.069   4.292  0.00  0.00     0.002 A 
ATOM      3  C5  UNL d   1      -3.685  -0.098   5.352  0.00  0.00     0.002 A 
ATOM      4  C6  UNL d   1      -5.039  -0.305   5.101  0.00  0.00    -0.004 A 
ATOM      5  C7  UNL d   1      -5.503  -0.338   3.788  0.00  0.00     0.002 A 
ATOM      6  C8  UNL d   1      -4.613  -0.176   2.725  0.00  0.00     0.002 A 
ENDROOT
BRANCH   1   7
ATOM      7  C2  UNL d   1      -2.282   0.170   1.813  0.00  0.00     0.056 C 
BRANCH   7   8
ATOM      8  C1  UNL d   1      -2.531  -0.809   0.660  0.00  0.00     0.007 C 
ATOM      9  C   UNL d   1      -2.024  -0.296  -0.681  0.00  0.00     0.009 C 
ENDBRANCH   7   8
ENDBRANCH   1   7
TORSDOF 2
ENDMDL
