MODEL 1
REMARK minimizedAffinity 0.518838346
REMARK minimizedRMSD -1
REMARK  1 active torsions:
REMARK  status: ('A' for Active; 'I' for Inactive)
REMARK    1  A    between atoms: C3_4  and  O_7 
ROOT
ATOM      1  C   UNL d   1       5.979   1.085   3.940  0.00  0.00    -0.033 A 
ATOM      2  C1  UNL d   1       5.990   0.990   5.333  0.00  0.00     0.039 A 
ATOM      3  C2  UNL d   1       5.998  -0.262   5.950  0.00  0.00    -0.080 A 
ATOM      4  C3  UNL d   1       5.997  -1.411   5.164  0.00  0.00     0.150 A 
ATOM      5  C4  UNL d   1       5.990  -1.325   3.775  0.00  0.00    -0.007 A 
ATOM      6  C5  UNL d   1       5.981  -0.073   3.161  0.00  0.00     0.039 A 
ENDROOT
BRANCH   4   7
ATOM      7  O   UNL d   1       6.000  -2.656   5.720  0.00  0.00    -0.526 OA
ATOM      8  H5  UNL d   1       5.975  -2.560   6.687  0.00  0.00     0.418 HD
ENDBRANCH   4   7
TORSDOF 1
ENDMDL
