MODEL 1
REMARK minimizedAffinity -3.06376028
REMARK minimizedRMSD -1
REMARK  1 active torsions:
REMARK  status: ('A' for Active; 'I' for Inactive)
REMARK    1  A    between atoms: C3_4  and  O_7 
ROOT
ATOM      1  C   UNL d   1       5.999   1.385   5.192  0.00  0.00    -0.033 A 
ATOM      2  C1  UNL d   1       5.999   1.926   3.906  0.00  0.00     0.039 A 
ATOM      3  C2  UNL d   1       5.995   1.084   2.792  0.00  0.00    -0.080 A 
ATOM      4  C3  UNL d   1       5.990  -0.295   2.978  0.00  0.00     0.150 A 
ATOM      5  C4  UNL d   1       5.987  -0.842   4.257  0.00  0.00    -0.007 A 
ATOM      6  C5  UNL d   1       5.992   0.000   5.368  0.00  0.00     0.039 A 
ENDROOT
BRANCH   4   7
ATOM      7  O   UNL d   1       5.991  -1.157   1.921  0.00  0.00    -0.526 OA
ATOM      8  H5  UNL d   1       6.023  -0.637   1.101  0.00  0.00     0.418 HD
ENDBRANCH   4   7
TORSDOF 1
ENDMDL
