MODEL 1
REMARK minimizedAffinity -3.25412512
REMARK minimizedRMSD -1
REMARK  1 active torsions:
REMARK  status: ('A' for Active; 'I' for Inactive)
REMARK    1  A    between atoms: C3_4  and  O_7 
ROOT
ATOM      1  C   UNL d   1       5.999   3.003   3.828  0.00  0.00    -0.033 A 
ATOM      2  C1  UNL d   1       5.953   3.071   5.222  0.00  0.00     0.039 A 
ATOM      3  C2  UNL d   1       5.665   1.927   5.969  0.00  0.00    -0.080 A 
ATOM      4  C3  UNL d   1       5.428   0.723   5.311  0.00  0.00     0.150 A 
ATOM      5  C4  UNL d   1       5.477   0.648   3.923  0.00  0.00    -0.007 A 
ATOM      6  C5  UNL d   1       5.763   1.791   3.179  0.00  0.00     0.039 A 
ENDROOT
BRANCH   4   7
ATOM      7  O   UNL d   1       5.139  -0.419   5.997  0.00  0.00    -0.526 OA
ATOM      8  H5  UNL d   1       5.111  -0.210   6.945  0.00  0.00     0.418 HD
ENDBRANCH   4   7
TORSDOF 1
ENDMDL
