MODEL 1
REMARK minimizedAffinity -2.68831301
REMARK minimizedRMSD -1
REMARK  1 active torsions:
REMARK  status: ('A' for Active; 'I' for Inactive)
REMARK    1  A    between atoms: C3_4  and  O_7 
ROOT
ATOM      1  C   UNL d   1       5.972   2.256   3.850  0.00  0.00    -0.033 A 
ATOM      2  C1  UNL d   1       5.964   1.164   2.980  0.00  0.00     0.039 A 
ATOM      3  C2  UNL d   1       5.972  -0.137   3.489  0.00  0.00    -0.080 A 
ATOM      4  C3  UNL d   1       5.987  -0.331   4.867  0.00  0.00     0.150 A 
ATOM      5  C4  UNL d   1       5.991   0.752   5.740  0.00  0.00    -0.007 A 
ATOM      6  C5  UNL d   1       5.983   2.050   5.230  0.00  0.00     0.039 A 
ENDROOT
BRANCH   4   7
ATOM      7  O   UNL d   1       6.000  -1.581   5.410  0.00  0.00    -0.526 OA
ATOM      8  H5  UNL d   1       6.025  -2.231   4.688  0.00  0.00     0.418 HD
ENDBRANCH   4   7
TORSDOF 1
ENDMDL
