MODEL 1
REMARK minimizedAffinity 3.67570829
REMARK minimizedRMSD -1
REMARK  1 active torsions:
REMARK  status: ('A' for Active; 'I' for Inactive)
REMARK    1  A    between atoms: C3_4  and  O_7 
ROOT
ATOM      1  C   UNL d   1       5.996   3.147   1.822  0.00  0.00    -0.033 A 
ATOM      2  C1  UNL d   1       5.997   4.527   1.607  0.00  0.00     0.039 A 
ATOM      3  C2  UNL d   1       5.998   5.404   2.693  0.00  0.00    -0.080 A 
ATOM      4  C3  UNL d   1       5.997   4.890   3.987  0.00  0.00     0.150 A 
ATOM      5  C4  UNL d   1       6.000   3.517   4.208  0.00  0.00    -0.007 A 
ATOM      6  C5  UNL d   1       5.999   2.642   3.123  0.00  0.00     0.039 A 
ENDROOT
BRANCH   4   7
ATOM      7  O   UNL d   1       5.993   5.708   5.078  0.00  0.00    -0.526 OA
ATOM      8  H5  UNL d   1       5.962   6.629   4.772  0.00  0.00     0.418 HD
ENDBRANCH   4   7
TORSDOF 1
ENDMDL
